MODEL 1
REMARK VINA RESULT:    23.493      0.000      0.000
REMARK INTER + INTRA:          55.802
REMARK INTER:                  49.588
REMARK INTRA:                   6.214
REMARK UNBOUND:                 6.214
REMARK SMILES CCC(=O)CCCCC[C@@H]1NC(=O)[C@@H]2CCCCN2C(=O)[C@@H]([C@@H](C)CC)NC(=O)[C@H](Cc2cn(OC)c3ccccc23)NC1=O
REMARK SMILES IDX 9 1 10 2 44 3 43 4 45 6 30 7 28 8 27 9 29 11 22 12 23 14
REMARK SMILES IDX 24 15 25 16 26 17 31 18 32 19 33 20 42 21 34 22 37 23 41 24
REMARK SMILES IDX 38 25 40 26 39 27 35 28 36 29 11 30 12 31 13 33 14 34 19 35
REMARK SMILES IDX 15 36 18 37 16 38 17 39 20 40 21 41 8 43 7 44 6 45 5 46 3 47
REMARK SMILES IDX 4 48 2 49 1 50
REMARK H PARENT 43 5 27 10 11 32
REMARK Flexibility Score: 80.00
ROOT
ATOM      1  C   UNL     1      12.163  13.707  24.347  1.00  0.00     0.035 C 
ENDROOT
BRANCH   1   2
ATOM      2  C   UNL     1      11.966  14.595  23.103  1.00  0.00     0.171 C 
BRANCH   2   3
ATOM      3  C   UNL     1      12.071  13.779  21.844  1.00  0.00     0.243 C 
ATOM      4  N   UNL     1      10.976  12.963  21.403  1.00  0.00    -0.342 N 
ATOM      5  H   UNL     1      10.181  12.806  22.055  1.00  0.00     0.164 HD
ATOM      6  O   UNL     1      13.150  13.797  21.188  1.00  0.00    -0.273 OA
BRANCH   4   7
ATOM      7  C   UNL     1      10.776  12.649  19.986  1.00  0.00     0.175 C 
BRANCH   7   8
ATOM      8  C   UNL     1       9.648  13.505  19.473  1.00  0.00     0.243 C 
ATOM      9  N   UNL     1       8.450  13.690  20.248  1.00  0.00    -0.342 N 
ATOM     10  H   UNL     1       8.248  13.019  21.019  1.00  0.00     0.164 HD
ATOM     11  O   UNL     1       9.776  14.072  18.354  1.00  0.00    -0.273 OA
BRANCH   9  12
ATOM     12  C   UNL     1       7.552  14.840  20.106  1.00  0.00     0.174 CG0
ATOM     13  G   UNL     1       7.619  15.673  21.379  1.00  0.00     0.000 G0
BRANCH  12  14
ATOM     14  C   UNL     1       7.840  15.652  18.794  1.00  0.00     0.018 C 
ATOM     15  C   UNL     1       7.768  14.730  17.561  1.00  0.00     0.010 C 
BRANCH  14  16
ATOM     16  C   UNL     1       6.830  16.819  18.585  1.00  0.00     0.002 C 
ATOM     17  C   UNL     1       6.198  17.331  19.883  1.00  0.00     0.004 C 
ENDBRANCH  14  16
ENDBRANCH  12  14
ENDBRANCH   9  12
ENDBRANCH   7   8
BRANCH   7  18
ATOM     18  C   UNL     1      10.532  11.136  19.805  1.00  0.00     0.073 C 
BRANCH  18  19
ATOM     19  C   UNL     1       9.899  10.783  18.485  1.00  0.00    -0.016 A 
ATOM     20  C   UNL     1       8.677  11.263  18.020  1.00  0.00     0.134 A 
ATOM     21  C   UNL     1      10.348   9.896  17.518  1.00  0.00     0.006 A 
ATOM     22  N   UNL     1       8.398  10.713  16.812  1.00  0.00    -0.191 N 
ATOM     23  C   UNL     1       9.422   9.899  16.506  1.00  0.00     0.087 A 
ATOM     24  C   UNL     1      11.463   9.051  17.482  1.00  0.00     0.011 A 
ATOM     25  C   UNL     1       9.562   9.095  15.377  1.00  0.00     0.030 A 
ATOM     26  C   UNL     1      11.633   8.229  16.356  1.00  0.00     0.001 A 
ATOM     27  C   UNL     1      10.694   8.262  15.298  1.00  0.00     0.002 A 
BRANCH  22  28
ATOM     28  O   UNL     1       7.246  10.873  16.057  1.00  0.00    -0.417 OA
ATOM     29  C   UNL     1       6.209   9.901  16.035  1.00  0.00     0.313 C 
ENDBRANCH  22  28
ENDBRANCH  18  19
ENDBRANCH   7  18
ENDBRANCH   4   7
ENDBRANCH   2   3
BRANCH   2  30
ATOM     30  N   UNL     1      10.665  15.268  23.145  1.00  0.00    -0.343 N 
ATOM     31  C   UNL     1       9.481  14.632  23.653  1.00  0.00     0.243 C 
ATOM     32  H   UNL     1      10.627  16.286  22.907  1.00  0.00     0.164 HD
ATOM     33  O   UNL     1       9.473  13.390  23.884  1.00  0.00    -0.273 OA
BRANCH  31  34
ATOM     34  C   UNL     1       8.197  15.414  23.845  1.00  0.00     0.174 C 
ATOM     35  N   UNL     1       7.260  15.191  22.717  1.00  0.00    -0.329 N 
ATOM     36  C   UNL     1       7.594  15.127  25.232  1.00  0.00     0.035 C 
ATOM     37  C   UNL     1       6.043  14.352  22.841  1.00  0.00     0.120 C 
ATOM     38  C   UNL     1       6.744  13.868  25.230  1.00  0.00     0.004 C 
ATOM     39  C   UNL     1       5.580  14.074  24.276  1.00  0.00     0.022 C 
BRANCH  35  40
ATOM     40  C   UNL     1       7.656  15.689  21.404  1.00  0.00     0.246 CG0
ATOM     41  O   UNL     1       8.235  16.812  21.319  1.00  0.00    -0.272 OA
ATOM     42  G   UNL     1       7.512  14.874  20.125  1.00  0.00     0.000 G0
ENDBRANCH  35  40
ENDBRANCH  31  34
ENDBRANCH   2  30
ENDBRANCH   1   2
BRANCH   1  43
ATOM     43  C   UNL     1      13.542  13.927  24.993  1.00  0.00     0.003 C 
BRANCH  43  44
ATOM     44  C   UNL     1      13.486  13.876  26.529  1.00  0.00     0.001 C 
BRANCH  44  45
ATOM     45  C   UNL     1      12.226  13.209  27.109  1.00  0.00     0.008 C 
BRANCH  45  46
ATOM     46  C   UNL     1      11.131  14.195  27.553  1.00  0.00     0.075 C 
BRANCH  46  47
ATOM     47  C   UNL     1       9.760  13.572  27.629  1.00  0.00     0.132 C 
ATOM     48  O   UNL     1       9.214  13.197  26.604  1.00  0.00    -0.300 OA
BRANCH  47  49
ATOM     49  C   UNL     1       9.029  13.439  28.939  1.00  0.00     0.072 C 
ATOM     50  C   UNL     1       8.578  14.792  29.471  1.00  0.00     0.012 C 
ENDBRANCH  47  49
ENDBRANCH  46  47
ENDBRANCH  45  46
ENDBRANCH  44  45
ENDBRANCH  43  44
ENDBRANCH   1  43
TORSDOF 12
ENDMDL
MODEL 2
REMARK VINA RESULT:    23.682      3.036      8.591
REMARK INTER + INTRA:          56.201
REMARK INTER:                  55.708
REMARK INTRA:                   0.493
REMARK UNBOUND:                 6.214
REMARK SMILES CCC(=O)CCCCC[C@@H]1NC(=O)[C@@H]2CCCCN2C(=O)[C@@H]([C@@H](C)CC)NC(=O)[C@H](Cc2cn(OC)c3ccccc23)NC1=O
REMARK SMILES IDX 9 1 10 2 44 3 43 4 45 6 30 7 28 8 27 9 29 11 22 12 23 14
REMARK SMILES IDX 24 15 25 16 26 17 31 18 32 19 33 20 42 21 34 22 37 23 41 24
REMARK SMILES IDX 38 25 40 26 39 27 35 28 36 29 11 30 12 31 13 33 14 34 19 35
REMARK SMILES IDX 15 36 18 37 16 38 17 39 20 40 21 41 8 43 7 44 6 45 5 46 3 47
REMARK SMILES IDX 4 48 2 49 1 50
REMARK H PARENT 43 5 27 10 11 32
REMARK Flexibility Score: 80.00
ROOT
ATOM      1  C   UNL     1       9.976  13.252  21.860  1.00  0.00     0.035 C 
ENDROOT
BRANCH   1   2
ATOM      2  C   UNL     1      10.389  14.456  22.730  1.00  0.00     0.171 C 
BRANCH   2   3
ATOM      3  C   UNL     1       9.180  15.235  23.169  1.00  0.00     0.243 C 
ATOM      4  N   UNL     1       7.978  14.563  23.572  1.00  0.00    -0.342 N 
ATOM      5  H   UNL     1       7.895  13.542  23.389  1.00  0.00     0.164 HD
ATOM      6  O   UNL     1       9.222  16.497  23.152  1.00  0.00    -0.273 OA
BRANCH   4   7
ATOM      7  C   UNL     1       7.044  15.169  24.525  1.00  0.00     0.175 C 
BRANCH   7   8
ATOM      8  C   UNL     1       7.342  14.609  25.891  1.00  0.00     0.243 C 
ATOM      9  N   UNL     1       8.388  13.638  26.079  1.00  0.00    -0.342 N 
ATOM     10  H   UNL     1       8.742  13.121  25.246  1.00  0.00     0.164 HD
ATOM     11  O   UNL     1       6.668  15.016  26.876  1.00  0.00    -0.273 OA
BRANCH   9  12
ATOM     12  C   UNL     1       9.079  13.415  27.352  1.00  0.00     0.174 CG0
ATOM     13  G   UNL     1      10.425  14.127  27.309  1.00  0.00     0.000 G0
BRANCH  12  14
ATOM     14  C   UNL     1       8.187  13.808  28.582  1.00  0.00     0.018 C 
ATOM     15  C   UNL     1       7.179  12.685  28.898  1.00  0.00     0.010 C 
BRANCH  14  16
ATOM     16  C   UNL     1       9.029  14.076  29.864  1.00  0.00     0.002 C 
ATOM     17  C   UNL     1       8.436  15.149  30.782  1.00  0.00     0.004 C 
ENDBRANCH  14  16
ENDBRANCH  12  14
ENDBRANCH   9  12
ENDBRANCH   7   8
BRANCH   7  18
ATOM     18  C   UNL     1       5.589  14.933  24.068  1.00  0.00     0.073 C 
BRANCH  18  19
ATOM     19  C   UNL     1       5.140  13.503  24.204  1.00  0.00    -0.016 A 
ATOM     20  C   UNL     1       5.377  12.488  23.280  1.00  0.00     0.134 A 
ATOM     21  C   UNL     1       4.376  12.926  25.208  1.00  0.00     0.006 A 
ATOM     22  N   UNL     1       4.804  11.336  23.706  1.00  0.00    -0.191 N 
ATOM     23  C   UNL     1       4.213  11.603  24.882  1.00  0.00     0.087 A 
ATOM     24  C   UNL     1       3.768  13.477  26.341  1.00  0.00     0.011 A 
ATOM     25  C   UNL     1       3.471  10.734  25.680  1.00  0.00     0.030 A 
ATOM     26  C   UNL     1       3.015  12.626  27.167  1.00  0.00     0.001 A 
ATOM     27  C   UNL     1       2.880  11.254  26.846  1.00  0.00     0.002 A 
BRANCH  22  28
ATOM     28  O   UNL     1       4.746  10.122  23.036  1.00  0.00    -0.417 OA
ATOM     29  C   UNL     1       4.435   8.903  23.696  1.00  0.00     0.313 C 
ENDBRANCH  22  28
ENDBRANCH  18  19
ENDBRANCH   7  18
ENDBRANCH   4   7
ENDBRANCH   2   3
BRANCH   2  30
ATOM     30  N   UNL     1      11.142  14.014  23.907  1.00  0.00    -0.343 N 
ATOM     31  C   UNL     1      11.972  14.902  24.673  1.00  0.00     0.243 C 
ATOM     32  H   UNL     1      10.971  13.047  24.269  1.00  0.00     0.164 HD
ATOM     33  O   UNL     1      12.254  16.051  24.231  1.00  0.00    -0.273 OA
BRANCH  31  34
ATOM     34  C   UNL     1      12.593  14.455  25.980  1.00  0.00     0.174 C 
ATOM     35  N   UNL     1      11.676  13.563  26.732  1.00  0.00    -0.329 N 
ATOM     36  C   UNL     1      13.992  13.860  25.737  1.00  0.00     0.035 C 
ATOM     37  C   UNL     1      11.893  12.099  26.840  1.00  0.00     0.120 C 
ATOM     38  C   UNL     1      13.924  12.393  25.349  1.00  0.00     0.004 C 
ATOM     39  C   UNL     1      13.309  11.618  26.502  1.00  0.00     0.022 C 
BRANCH  35  40
ATOM     40  C   UNL     1      10.436  14.142  27.236  1.00  0.00     0.246 CG0
ATOM     41  O   UNL     1      10.395  15.380  27.497  1.00  0.00    -0.272 OA
ATOM     42  G   UNL     1       9.138  13.355  27.359  1.00  0.00     0.000 G0
ENDBRANCH  35  40
ENDBRANCH  31  34
ENDBRANCH   2  30
ENDBRANCH   1   2
BRANCH   1  43
ATOM     43  C   UNL     1       9.164  13.689  20.628  1.00  0.00     0.003 C 
BRANCH  43  44
ATOM     44  C   UNL     1      10.024  13.770  19.356  1.00  0.00     0.001 C 
BRANCH  44  45
ATOM     45  C   UNL     1       9.398  13.116  18.110  1.00  0.00     0.008 C 
BRANCH  45  46
ATOM     46  C   UNL     1       8.089  12.355  18.382  1.00  0.00     0.075 C 
BRANCH  46  47
ATOM     47  C   UNL     1       7.879  11.179  17.461  1.00  0.00     0.132 C 
ATOM     48  O   UNL     1       8.798  10.400  17.265  1.00  0.00    -0.300 OA
BRANCH  47  49
ATOM     49  C   UNL     1       6.572  10.967  16.744  1.00  0.00     0.072 C 
ATOM     50  C   UNL     1       6.697  11.244  15.253  1.00  0.00     0.012 C 
ENDBRANCH  47  49
ENDBRANCH  46  47
ENDBRANCH  45  46
ENDBRANCH  44  45
ENDBRANCH  43  44
ENDBRANCH   1  43
TORSDOF 12
ENDMDL
MODEL 3
REMARK VINA RESULT:    24.906      3.366      7.601
REMARK INTER + INTRA:          58.785
REMARK INTER:                  51.214
REMARK INTRA:                   7.571
REMARK UNBOUND:                 6.214
REMARK SMILES CCC(=O)CCCCC[C@@H]1NC(=O)[C@@H]2CCCCN2C(=O)[C@@H]([C@@H](C)CC)NC(=O)[C@H](Cc2cn(OC)c3ccccc23)NC1=O
REMARK SMILES IDX 9 1 10 2 44 3 43 4 45 6 30 7 28 8 27 9 29 11 22 12 23 14
REMARK SMILES IDX 24 15 25 16 26 17 31 18 32 19 33 20 42 21 34 22 37 23 41 24
REMARK SMILES IDX 38 25 40 26 39 27 35 28 36 29 11 30 12 31 13 33 14 34 19 35
REMARK SMILES IDX 15 36 18 37 16 38 17 39 20 40 21 41 8 43 7 44 6 45 5 46 3 47
REMARK SMILES IDX 4 48 2 49 1 50
REMARK H PARENT 43 5 27 10 11 32
REMARK Flexibility Score: 80.00
ROOT
ATOM      1  C   UNL     1       9.606  14.712  28.671  1.00  0.00     0.035 C 
ENDROOT
BRANCH   1   2
ATOM      2  C   UNL     1      10.075  13.389  28.035  1.00  0.00     0.171 C 
BRANCH   2   3
ATOM      3  C   UNL     1       9.042  12.861  27.079  1.00  0.00     0.243 C 
ATOM      4  N   UNL     1       8.041  13.728  26.525  1.00  0.00    -0.342 N 
ATOM      5  H   UNL     1       7.933  14.681  26.927  1.00  0.00     0.164 HD
ATOM      6  O   UNL     1       9.044  11.632  26.787  1.00  0.00    -0.273 OA
BRANCH   4   7
ATOM      7  C   UNL     1       7.432  13.459  25.219  1.00  0.00     0.175 C 
BRANCH   7   8
ATOM      8  C   UNL     1       8.095  14.351  24.202  1.00  0.00     0.243 C 
ATOM      9  N   UNL     1       9.528  14.477  24.152  1.00  0.00    -0.342 N 
ATOM     10  H   UNL     1      10.082  14.179  24.983  1.00  0.00     0.164 HD
ATOM     11  O   UNL     1       7.373  14.978  23.381  1.00  0.00    -0.273 OA
BRANCH   9  12
ATOM     12  C   UNL     1      10.274  14.881  22.957  1.00  0.00     0.174 CG0
ATOM     13  G   UNL     1      11.664  14.262  23.015  1.00  0.00     0.000 G0
BRANCH  12  14
ATOM     14  C   UNL     1       9.487  14.560  21.637  1.00  0.00     0.018 C 
ATOM     15  C   UNL     1       8.863  15.845  21.056  1.00  0.00     0.010 C 
BRANCH  14  16
ATOM     16  C   UNL     1      10.395  13.926  20.544  1.00  0.00     0.002 C 
ATOM     17  C   UNL     1       9.620  13.262  19.402  1.00  0.00     0.004 C 
ENDBRANCH  14  16
ENDBRANCH  12  14
ENDBRANCH   9  12
ENDBRANCH   7   8
BRANCH   7  18
ATOM     18  C   UNL     1       5.903  13.645  25.297  1.00  0.00     0.073 C 
BRANCH  18  19
ATOM     19  C   UNL     1       5.404  14.848  24.540  1.00  0.00    -0.016 A 
ATOM     20  C   UNL     1       5.218  14.917  23.161  1.00  0.00     0.134 A 
ATOM     21  C   UNL     1       5.092  16.109  25.025  1.00  0.00     0.006 A 
ATOM     22  N   UNL     1       4.792  16.156  22.817  1.00  0.00    -0.191 N 
ATOM     23  C   UNL     1       4.702  16.870  23.952  1.00  0.00     0.087 A 
ATOM     24  C   UNL     1       5.181  16.655  26.310  1.00  0.00     0.011 A 
ATOM     25  C   UNL     1       4.335  18.207  24.091  1.00  0.00     0.030 A 
ATOM     26  C   UNL     1       4.817  18.001  26.483  1.00  0.00     0.001 A 
ATOM     27  C   UNL     1       4.379  18.771  25.379  1.00  0.00     0.002 A 
BRANCH  22  28
ATOM     28  O   UNL     1       4.569  16.650  21.540  1.00  0.00    -0.417 OA
ATOM     29  C   UNL     1       3.310  17.167  21.132  1.00  0.00     0.313 C 
ENDBRANCH  22  28
ENDBRANCH  18  19
ENDBRANCH   7  18
ENDBRANCH   4   7
ENDBRANCH   2   3
BRANCH   2  30
ATOM     30  N   UNL     1      11.347  13.573  27.330  1.00  0.00    -0.343 N 
ATOM     31  C   UNL     1      11.565  13.100  25.990  1.00  0.00     0.243 C 
ATOM     32  H   UNL     1      12.077  14.175  27.776  1.00  0.00     0.164 HD
ATOM     33  O   UNL     1      10.736  12.316  25.448  1.00  0.00    -0.273 OA
BRANCH  31  34
ATOM     34  C   UNL     1      12.825  13.462  25.231  1.00  0.00     0.174 C 
ATOM     35  N   UNL     1      12.567  14.541  24.246  1.00  0.00    -0.329 N 
ATOM     36  C   UNL     1      13.976  13.764  26.210  1.00  0.00     0.035 C 
ATOM     37  C   UNL     1      13.026  15.937  24.449  1.00  0.00     0.120 C 
ATOM     38  C   UNL     1      13.941  15.202  26.698  1.00  0.00     0.004 C 
ATOM     39  C   UNL     1      14.124  16.121  25.502  1.00  0.00     0.022 C 
BRANCH  35  40
ATOM     40  C   UNL     1      11.686  14.233  23.125  1.00  0.00     0.246 CG0
ATOM     41  O   UNL     1      12.027  13.331  22.303  1.00  0.00    -0.272 OA
ATOM     42  G   UNL     1      10.311  14.862  22.947  1.00  0.00     0.000 G0
ENDBRANCH  35  40
ENDBRANCH  31  34
ENDBRANCH   2  30
ENDBRANCH   1   2
BRANCH   1  43
ATOM     43  C   UNL     1       8.594  14.472  29.805  1.00  0.00     0.003 C 
BRANCH  43  44
ATOM     44  C   UNL     1       8.935  15.270  31.075  1.00  0.00     0.001 C 
BRANCH  44  45
ATOM     45  C   UNL     1       8.000  16.459  31.362  1.00  0.00     0.008 C 
BRANCH  45  46
ATOM     46  C   UNL     1       6.611  16.061  31.893  1.00  0.00     0.075 C 
BRANCH  46  47
ATOM     47  C   UNL     1       5.909  17.176  32.626  1.00  0.00     0.132 C 
ATOM     48  O   UNL     1       4.970  17.746  32.092  1.00  0.00    -0.300 OA
BRANCH  47  49
ATOM     49  C   UNL     1       6.367  17.632  33.986  1.00  0.00     0.072 C 
ATOM     50  C   UNL     1       7.175  16.556  34.697  1.00  0.00     0.012 C 
ENDBRANCH  47  49
ENDBRANCH  46  47
ENDBRANCH  45  46
ENDBRANCH  44  45
ENDBRANCH  43  44
ENDBRANCH   1  43
TORSDOF 12
ENDMDL
MODEL 4
REMARK VINA RESULT:    24.925      3.904      7.528
REMARK INTER + INTRA:          58.824
REMARK INTER:                  51.172
REMARK INTRA:                   7.652
REMARK UNBOUND:                 6.214
REMARK SMILES CCC(=O)CCCCC[C@@H]1NC(=O)[C@@H]2CCCCN2C(=O)[C@@H]([C@@H](C)CC)NC(=O)[C@H](Cc2cn(OC)c3ccccc23)NC1=O
REMARK SMILES IDX 9 1 10 2 44 3 43 4 45 6 30 7 28 8 27 9 29 11 22 12 23 14
REMARK SMILES IDX 24 15 25 16 26 17 31 18 32 19 33 20 42 21 34 22 37 23 41 24
REMARK SMILES IDX 38 25 40 26 39 27 35 28 36 29 11 30 12 31 13 33 14 34 19 35
REMARK SMILES IDX 15 36 18 37 16 38 17 39 20 40 21 41 8 43 7 44 6 45 5 46 3 47
REMARK SMILES IDX 4 48 2 49 1 50
REMARK H PARENT 43 5 27 10 11 32
REMARK Flexibility Score: 80.00
ROOT
ATOM      1  C   UNL     1       5.916  16.715  25.825  1.00  0.00     0.035 C 
ENDROOT
BRANCH   1   2
ATOM      2  C   UNL     1       5.910  15.199  25.544  1.00  0.00     0.171 C 
BRANCH   2   3
ATOM      3  C   UNL     1       6.868  14.859  24.437  1.00  0.00     0.243 C 
ATOM      4  N   UNL     1       8.243  15.267  24.502  1.00  0.00    -0.342 N 
ATOM      5  H   UNL     1       8.523  15.948  25.236  1.00  0.00     0.164 HD
ATOM      6  O   UNL     1       6.443  14.230  23.427  1.00  0.00    -0.273 OA
BRANCH   4   7
ATOM      7  C   UNL     1       9.300  14.509  23.826  1.00  0.00     0.175 C 
BRANCH   7   8
ATOM      8  C   UNL     1      10.363  14.183  24.842  1.00  0.00     0.243 C 
ATOM      9  N   UNL     1      10.558  15.015  26.000  1.00  0.00    -0.342 N 
ATOM     10  H   UNL     1      10.162  15.979  25.992  1.00  0.00     0.164 HD
ATOM     11  O   UNL     1      11.076  13.158  24.669  1.00  0.00    -0.273 OA
BRANCH   9  12
ATOM     12  C   UNL     1      11.170  14.551  27.249  1.00  0.00     0.174 CG0
ATOM     13  G   UNL     1      10.299  13.452  27.841  1.00  0.00     0.000 G0
BRANCH  12  14
ATOM     14  C   UNL     1      12.671  14.139  27.049  1.00  0.00     0.018 C 
ATOM     15  C   UNL     1      12.776  12.646  26.678  1.00  0.00     0.010 C 
BRANCH  14  16
ATOM     16  C   UNL     1      13.369  14.966  25.930  1.00  0.00     0.002 C 
ATOM     17  C   UNL     1      13.611  14.180  24.638  1.00  0.00     0.004 C 
ENDBRANCH  14  16
ENDBRANCH  12  14
ENDBRANCH   9  12
ENDBRANCH   7   8
BRANCH   7  18
ATOM     18  C   UNL     1       9.829  15.302  22.613  1.00  0.00     0.073 C 
BRANCH  18  19
ATOM     19  C   UNL     1       9.601  14.608  21.296  1.00  0.00    -0.016 A 
ATOM     20  C   UNL     1      10.321  13.514  20.822  1.00  0.00     0.134 A 
ATOM     21  C   UNL     1       8.704  14.933  20.289  1.00  0.00     0.006 A 
ATOM     22  N   UNL     1       9.873  13.168  19.590  1.00  0.00    -0.191 N 
ATOM     23  C   UNL     1       8.882  14.021  19.279  1.00  0.00     0.087 A 
ATOM     24  C   UNL     1       7.795  15.990  20.164  1.00  0.00     0.011 A 
ATOM     25  C   UNL     1       8.143  14.075  18.099  1.00  0.00     0.030 A 
ATOM     26  C   UNL     1       7.034  16.070  18.986  1.00  0.00     0.001 A 
ATOM     27  C   UNL     1       7.195  15.106  17.963  1.00  0.00     0.002 A 
BRANCH  22  28
ATOM     28  O   UNL     1      10.378  12.186  18.751  1.00  0.00    -0.417 OA
ATOM     29  C   UNL     1       9.636  11.024  18.406  1.00  0.00     0.313 C 
ENDBRANCH  22  28
ENDBRANCH  18  19
ENDBRANCH   7  18
ENDBRANCH   4   7
ENDBRANCH   2   3
BRANCH   2  30
ATOM     30  N   UNL     1       6.265  14.445  26.750  1.00  0.00    -0.343 N 
ATOM     31  C   UNL     1       7.471  13.671  26.851  1.00  0.00     0.243 C 
ATOM     32  H   UNL     1       5.677  14.575  27.605  1.00  0.00     0.164 HD
ATOM     33  O   UNL     1       8.168  13.437  25.823  1.00  0.00    -0.273 OA
BRANCH  31  34
ATOM     34  C   UNL     1       7.891  13.051  28.168  1.00  0.00     0.174 C 
ATOM     35  N   UNL     1       9.142  13.665  28.675  1.00  0.00    -0.329 N 
ATOM     36  C   UNL     1       6.724  13.075  29.172  1.00  0.00     0.035 C 
ATOM     37  C   UNL     1       9.163  14.610  29.819  1.00  0.00     0.120 C 
ATOM     38  C   UNL     1       6.636  14.403  29.905  1.00  0.00     0.004 C 
ATOM     39  C   UNL     1       7.913  14.595  30.706  1.00  0.00     0.022 C 
BRANCH  35  40
ATOM     40  C   UNL     1      10.361  13.449  27.903  1.00  0.00     0.246 CG0
ATOM     41  O   UNL     1      10.731  12.263  27.655  1.00  0.00    -0.272 OA
ATOM     42  G   UNL     1      11.162  14.580  27.274  1.00  0.00     0.000 G0
ENDBRANCH  35  40
ENDBRANCH  31  34
ENDBRANCH   2  30
ENDBRANCH   1   2
BRANCH   1  43
ATOM     43  C   UNL     1       4.584  17.374  25.427  1.00  0.00     0.003 C 
BRANCH  43  44
ATOM     44  C   UNL     1       3.941  18.149  26.590  1.00  0.00     0.001 C 
BRANCH  44  45
ATOM     45  C   UNL     1       2.406  18.048  26.664  1.00  0.00     0.008 C 
BRANCH  45  46
ATOM     46  C   UNL     1       1.775  18.813  27.841  1.00  0.00     0.075 C 
BRANCH  46  47
ATOM     47  C   UNL     1       0.289  19.018  27.691  1.00  0.00     0.132 C 
ATOM     48  O   UNL     1      -0.133  19.689  26.762  1.00  0.00    -0.300 OA
BRANCH  47  49
ATOM     49  C   UNL     1      -0.687  18.449  28.687  1.00  0.00     0.072 C 
ATOM     50  C   UNL     1      -1.761  19.460  29.063  1.00  0.00     0.012 C 
ENDBRANCH  47  49
ENDBRANCH  46  47
ENDBRANCH  45  46
ENDBRANCH  44  45
ENDBRANCH  43  44
ENDBRANCH   1  43
TORSDOF 12
ENDMDL
MODEL 5
REMARK VINA RESULT:    25.037      1.152      1.978
REMARK INTER + INTRA:          59.060
REMARK INTER:                  54.736
REMARK INTRA:                   4.324
REMARK UNBOUND:                 6.214
REMARK SMILES CCC(=O)CCCCC[C@@H]1NC(=O)[C@@H]2CCCCN2C(=O)[C@@H]([C@@H](C)CC)NC(=O)[C@H](Cc2cn(OC)c3ccccc23)NC1=O
REMARK SMILES IDX 9 1 10 2 44 3 43 4 45 6 30 7 28 8 27 9 29 11 22 12 23 14
REMARK SMILES IDX 24 15 25 16 26 17 31 18 32 19 33 20 42 21 34 22 37 23 41 24
REMARK SMILES IDX 38 25 40 26 39 27 35 28 36 29 11 30 12 31 13 33 14 34 19 35
REMARK SMILES IDX 15 36 18 37 16 38 17 39 20 40 21 41 8 43 7 44 6 45 5 46 3 47
REMARK SMILES IDX 4 48 2 49 1 50
REMARK H PARENT 43 5 27 10 11 32
REMARK Flexibility Score: 80.00
ROOT
ATOM      1  C   UNL     1      12.383  13.380  24.137  1.00  0.00     0.035 C 
ENDROOT
BRANCH   1   2
ATOM      2  C   UNL     1      12.161  14.308  22.927  1.00  0.00     0.171 C 
BRANCH   2   3
ATOM      3  C   UNL     1      12.094  13.515  21.652  1.00  0.00     0.243 C 
ATOM      4  N   UNL     1      10.941  12.720  21.339  1.00  0.00    -0.342 N 
ATOM      5  H   UNL     1      10.231  12.562  22.082  1.00  0.00     0.164 HD
ATOM      6  O   UNL     1      13.082  13.532  20.865  1.00  0.00    -0.273 OA
BRANCH   4   7
ATOM      7  C   UNL     1      10.560  12.436  19.952  1.00  0.00     0.175 C 
BRANCH   7   8
ATOM      8  C   UNL     1       9.598  13.505  19.504  1.00  0.00     0.243 C 
ATOM      9  N   UNL     1       8.419  13.808  20.272  1.00  0.00    -0.342 N 
ATOM     10  H   UNL     1       8.089  13.110  20.972  1.00  0.00     0.164 HD
ATOM     11  O   UNL     1       9.850  14.144  18.446  1.00  0.00    -0.273 OA
BRANCH   9  12
ATOM     12  C   UNL     1       7.719  15.095  20.225  1.00  0.00     0.174 CG0
ATOM     13  G   UNL     1       7.877  15.786  21.572  1.00  0.00     0.000 G0
BRANCH  12  14
ATOM     14  C   UNL     1       8.174  15.966  19.001  1.00  0.00     0.018 C 
ATOM     15  C   UNL     1       8.633  15.065  17.837  1.00  0.00     0.010 C 
BRANCH  14  16
ATOM     16  C   UNL     1       7.037  16.892  18.477  1.00  0.00     0.002 C 
ATOM     17  C   UNL     1       6.579  16.565  17.053  1.00  0.00     0.004 C 
ENDBRANCH  14  16
ENDBRANCH  12  14
ENDBRANCH   9  12
ENDBRANCH   7   8
BRANCH   7  18
ATOM     18  C   UNL     1       9.988  11.007  19.841  1.00  0.00     0.073 C 
BRANCH  18  19
ATOM     19  C   UNL     1       9.868  10.516  18.422  1.00  0.00    -0.016 A 
ATOM     20  C   UNL     1      10.757   9.653  17.787  1.00  0.00     0.134 A 
ATOM     21  C   UNL     1       8.920  10.850  17.467  1.00  0.00     0.006 A 
ATOM     22  N   UNL     1      10.363   9.448  16.506  1.00  0.00    -0.191 N 
ATOM     23  C   UNL     1       9.240  10.163  16.322  1.00  0.00     0.087 A 
ATOM     24  C   UNL     1       7.845  11.745  17.501  1.00  0.00     0.011 A 
ATOM     25  C   UNL     1       8.492  10.289  15.154  1.00  0.00     0.030 A 
ATOM     26  C   UNL     1       7.071  11.893  16.338  1.00  0.00     0.001 A 
ATOM     27  C   UNL     1       7.383  11.155  15.172  1.00  0.00     0.002 A 
BRANCH  22  28
ATOM     28  O   UNL     1      11.019   8.719  15.525  1.00  0.00    -0.417 OA
ATOM     29  C   UNL     1      12.212   7.992  15.787  1.00  0.00     0.313 C 
ENDBRANCH  22  28
ENDBRANCH  18  19
ENDBRANCH   7  18
ENDBRANCH   4   7
ENDBRANCH   2   3
BRANCH   2  30
ATOM     30  N   UNL     1      10.928  15.085  23.087  1.00  0.00    -0.343 N 
ATOM     31  C   UNL     1       9.726  14.523  23.639  1.00  0.00     0.243 C 
ATOM     32  H   UNL     1      10.964  16.114  22.904  1.00  0.00     0.164 HD
ATOM     33  O   UNL     1       9.624  13.275  23.808  1.00  0.00    -0.273 OA
BRANCH  31  34
ATOM     34  C   UNL     1       8.529  15.398  23.952  1.00  0.00     0.174 C 
ATOM     35  N   UNL     1       7.510  15.318  22.877  1.00  0.00    -0.329 N 
ATOM     36  C   UNL     1       7.987  15.085  25.359  1.00  0.00     0.035 C 
ATOM     37  C   UNL     1       6.235  14.578  23.037  1.00  0.00     0.120 C 
ATOM     38  C   UNL     1       7.032  13.904  25.349  1.00  0.00     0.004 C 
ATOM     39  C   UNL     1       5.836  14.260  24.483  1.00  0.00     0.022 C 
BRANCH  35  40
ATOM     40  C   UNL     1       7.868  15.854  21.568  1.00  0.00     0.246 CG0
ATOM     41  O   UNL     1       8.471  16.965  21.501  1.00  0.00    -0.272 OA
ATOM     42  G   UNL     1       7.657  15.089  20.269  1.00  0.00     0.000 G0
ENDBRANCH  35  40
ENDBRANCH  31  34
ENDBRANCH   2  30
ENDBRANCH   1   2
BRANCH   1  43
ATOM     43  C   UNL     1      13.555  13.856  25.014  1.00  0.00     0.003 C 
BRANCH  43  44
ATOM     44  C   UNL     1      13.195  13.888  26.509  1.00  0.00     0.001 C 
BRANCH  44  45
ATOM     45  C   UNL     1      12.293  12.733  26.981  1.00  0.00     0.008 C 
BRANCH  45  46
ATOM     46  C   UNL     1      10.824  13.129  27.217  1.00  0.00     0.075 C 
BRANCH  46  47
ATOM     47  C   UNL     1      10.648  14.144  28.318  1.00  0.00     0.132 C 
ATOM     48  O   UNL     1      11.630  14.562  28.911  1.00  0.00    -0.300 OA
BRANCH  47  49
ATOM     49  C   UNL     1       9.282  14.625  28.731  1.00  0.00     0.072 C 
ATOM     50  C   UNL     1       8.290  13.476  28.837  1.00  0.00     0.012 C 
ENDBRANCH  47  49
ENDBRANCH  46  47
ENDBRANCH  45  46
ENDBRANCH  44  45
ENDBRANCH  43  44
ENDBRANCH   1  43
TORSDOF 12
ENDMDL
MODEL 6
REMARK VINA RESULT:    26.363      3.806     10.002
REMARK INTER + INTRA:          61.860
REMARK INTER:                  55.734
REMARK INTRA:                   6.126
REMARK UNBOUND:                 6.214
REMARK SMILES CCC(=O)CCCCC[C@@H]1NC(=O)[C@@H]2CCCCN2C(=O)[C@@H]([C@@H](C)CC)NC(=O)[C@H](Cc2cn(OC)c3ccccc23)NC1=O
REMARK SMILES IDX 9 1 10 2 44 3 43 4 45 6 30 7 28 8 27 9 29 11 22 12 23 14
REMARK SMILES IDX 24 15 25 16 26 17 31 18 32 19 33 20 42 21 34 22 37 23 41 24
REMARK SMILES IDX 38 25 40 26 39 27 35 28 36 29 11 30 12 31 13 33 14 34 19 35
REMARK SMILES IDX 15 36 18 37 16 38 17 39 20 40 21 41 8 43 7 44 6 45 5 46 3 47
REMARK SMILES IDX 4 48 2 49 1 50
REMARK H PARENT 43 5 27 10 11 32
REMARK Flexibility Score: 80.00
ROOT
ATOM      1  C   UNL     1       5.162  14.237  24.498  1.00  0.00     0.035 C 
ENDROOT
BRANCH   1   2
ATOM      2  C   UNL     1       5.906  15.458  25.072  1.00  0.00     0.171 C 
BRANCH   2   3
ATOM      3  C   UNL     1       6.453  15.155  26.439  1.00  0.00     0.243 C 
ATOM      4  N   UNL     1       7.573  14.273  26.605  1.00  0.00    -0.342 N 
ATOM      5  H   UNL     1       7.888  13.712  25.788  1.00  0.00     0.164 HD
ATOM      6  O   UNL     1       5.896  15.665  27.452  1.00  0.00    -0.273 OA
BRANCH   4   7
ATOM      7  C   UNL     1       8.486  14.399  27.745  1.00  0.00     0.175 C 
BRANCH   7   8
ATOM      8  C   UNL     1       9.876  14.065  27.270  1.00  0.00     0.243 C 
ATOM      9  N   UNL     1      10.094  13.501  25.964  1.00  0.00    -0.342 N 
ATOM     10  H   UNL     1       9.286  13.069  25.467  1.00  0.00     0.164 HD
ATOM     11  O   UNL     1      10.852  14.301  28.032  1.00  0.00    -0.273 OA
BRANCH   9  12
ATOM     12  C   UNL     1      11.357  13.607  25.227  1.00  0.00     0.174 CG0
ATOM     13  G   UNL     1      11.227  14.713  24.189  1.00  0.00     0.000 G0
BRANCH  12  14
ATOM     14  C   UNL     1      12.586  13.774  26.189  1.00  0.00     0.018 C 
ATOM     15  C   UNL     1      13.001  12.410  26.776  1.00  0.00     0.010 C 
BRANCH  14  16
ATOM     16  C   UNL     1      13.823  14.388  25.469  1.00  0.00     0.002 C 
ATOM     17  C   UNL     1      14.033  13.865  24.045  1.00  0.00     0.004 C 
ENDBRANCH  14  16
ENDBRANCH  12  14
ENDBRANCH   9  12
ENDBRANCH   7   8
BRANCH   7  18
ATOM     18  C   UNL     1       8.005  13.512  28.912  1.00  0.00     0.073 C 
BRANCH  18  19
ATOM     19  C   UNL     1       7.545  14.295  30.113  1.00  0.00    -0.016 A 
ATOM     20  C   UNL     1       6.342  14.107  30.790  1.00  0.00     0.134 A 
ATOM     21  C   UNL     1       8.168  15.363  30.741  1.00  0.00     0.006 A 
ATOM     22  N   UNL     1       6.239  15.005  31.800  1.00  0.00    -0.191 N 
ATOM     23  C   UNL     1       7.355  15.753  31.776  1.00  0.00     0.087 A 
ATOM     24  C   UNL     1       9.348  16.053  30.443  1.00  0.00     0.011 A 
ATOM     25  C   UNL     1       7.681  16.824  32.606  1.00  0.00     0.030 A 
ATOM     26  C   UNL     1       9.705  17.137  31.262  1.00  0.00     0.001 A 
ATOM     27  C   UNL     1       8.882  17.512  32.351  1.00  0.00     0.002 A 
BRANCH  22  28
ATOM     28  O   UNL     1       5.163  15.198  32.654  1.00  0.00    -0.417 OA
ATOM     29  C   UNL     1       4.883  16.455  33.254  1.00  0.00     0.313 C 
ENDBRANCH  22  28
ENDBRANCH  18  19
ENDBRANCH   7  18
ENDBRANCH   4   7
ENDBRANCH   2   3
BRANCH   2  30
ATOM     30  N   UNL     1       7.000  15.865  24.185  1.00  0.00    -0.343 N 
ATOM     31  C   UNL     1       8.104  15.000  23.870  1.00  0.00     0.243 C 
ATOM     32  H   UNL     1       6.909  16.772  23.672  1.00  0.00     0.164 HD
ATOM     33  O   UNL     1       8.282  13.931  24.520  1.00  0.00    -0.273 OA
BRANCH  31  34
ATOM     34  C   UNL     1       9.120  15.386  22.816  1.00  0.00     0.174 C 
ATOM     35  N   UNL     1      10.347  14.558  22.925  1.00  0.00    -0.329 N 
ATOM     36  C   UNL     1       8.476  15.377  21.417  1.00  0.00     0.035 C 
ATOM     37  C   UNL     1      10.671  13.478  21.961  1.00  0.00     0.120 C 
ATOM     38  C   UNL     1       8.472  13.987  20.805  1.00  0.00     0.004 C 
ATOM     39  C   UNL     1       9.912  13.533  20.631  1.00  0.00     0.022 C 
BRANCH  35  40
ATOM     40  C   UNL     1      11.164  14.719  24.123  1.00  0.00     0.246 CG0
ATOM     41  O   UNL     1      11.691  15.845  24.362  1.00  0.00    -0.272 OA
ATOM     42  G   UNL     1      11.327  13.629  25.173  1.00  0.00     0.000 G0
ENDBRANCH  35  40
ENDBRANCH  31  34
ENDBRANCH   2  30
ENDBRANCH   1   2
BRANCH   1  43
ATOM     43  C   UNL     1       6.137  13.186  23.938  1.00  0.00     0.003 C 
BRANCH  43  44
ATOM     44  C   UNL     1       5.442  11.852  23.616  1.00  0.00     0.001 C 
BRANCH  44  45
ATOM     45  C   UNL     1       4.015  11.715  24.178  1.00  0.00     0.008 C 
BRANCH  45  46
ATOM     46  C   UNL     1       3.893  10.753  25.374  1.00  0.00     0.075 C 
BRANCH  46  47
ATOM     47  C   UNL     1       3.318  11.403  26.607  1.00  0.00     0.132 C 
ATOM     48  O   UNL     1       2.134  11.255  26.866  1.00  0.00    -0.300 OA
BRANCH  47  49
ATOM     49  C   UNL     1       4.162  12.267  27.506  1.00  0.00     0.072 C 
ATOM     50  C   UNL     1       4.381  11.619  28.865  1.00  0.00     0.012 C 
ENDBRANCH  47  49
ENDBRANCH  46  47
ENDBRANCH  45  46
ENDBRANCH  44  45
ENDBRANCH  43  44
ENDBRANCH   1  43
TORSDOF 12
ENDMDL
MODEL 7
REMARK VINA RESULT:    26.409      1.800      2.503
REMARK INTER + INTRA:          61.957
REMARK INTER:                  54.213
REMARK INTRA:                   7.744
REMARK UNBOUND:                 6.214
REMARK SMILES CCC(=O)CCCCC[C@@H]1NC(=O)[C@@H]2CCCCN2C(=O)[C@@H]([C@@H](C)CC)NC(=O)[C@H](Cc2cn(OC)c3ccccc23)NC1=O
REMARK SMILES IDX 9 1 10 2 44 3 43 4 45 6 30 7 28 8 27 9 29 11 22 12 23 14
REMARK SMILES IDX 24 15 25 16 26 17 31 18 32 19 33 20 42 21 34 22 37 23 41 24
REMARK SMILES IDX 38 25 40 26 39 27 35 28 36 29 11 30 12 31 13 33 14 34 19 35
REMARK SMILES IDX 15 36 18 37 16 38 17 39 20 40 21 41 8 43 7 44 6 45 5 46 3 47
REMARK SMILES IDX 4 48 2 49 1 50
REMARK H PARENT 43 5 27 10 11 32
REMARK Flexibility Score: 80.00
ROOT
ATOM      1  C   UNL     1      10.269  13.398  25.284  1.00  0.00     0.035 C 
ENDROOT
BRANCH   1   2
ATOM      2  C   UNL     1       9.581  14.442  24.382  1.00  0.00     0.171 C 
BRANCH   2   3
ATOM      3  C   UNL     1      10.238  14.495  23.031  1.00  0.00     0.243 C 
ATOM      4  N   UNL     1       9.986  13.479  22.050  1.00  0.00    -0.342 N 
ATOM      5  H   UNL     1       9.484  12.617  22.346  1.00  0.00     0.164 HD
ATOM      6  O   UNL     1      11.043  15.434  22.775  1.00  0.00    -0.273 OA
BRANCH   4   7
ATOM      7  C   UNL     1      10.085  13.759  20.614  1.00  0.00     0.175 C 
BRANCH   7   8
ATOM      8  C   UNL     1       8.754  14.290  20.149  1.00  0.00     0.243 C 
ATOM      9  N   UNL     1       7.593  14.218  20.997  1.00  0.00    -0.342 N 
ATOM     10  H   UNL     1       7.606  13.557  21.802  1.00  0.00     0.164 HD
ATOM     11  O   UNL     1       8.676  14.815  19.006  1.00  0.00    -0.273 OA
BRANCH   9  12
ATOM     12  C   UNL     1       6.435  15.108  20.877  1.00  0.00     0.174 CG0
ATOM     13  G   UNL     1       5.812  15.289  22.254  1.00  0.00     0.000 G0
BRANCH  12  14
ATOM     14  C   UNL     1       6.801  16.455  20.158  1.00  0.00     0.018 C 
ATOM     15  C   UNL     1       7.085  16.209  18.663  1.00  0.00     0.010 C 
BRANCH  14  16
ATOM     16  C   UNL     1       5.665  17.513  20.268  1.00  0.00     0.002 C 
ATOM     17  C   UNL     1       6.150  18.902  20.691  1.00  0.00     0.004 C 
ENDBRANCH  14  16
ENDBRANCH  12  14
ENDBRANCH   9  12
ENDBRANCH   7   8
BRANCH   7  18
ATOM     18  C   UNL     1      10.542  12.495  19.857  1.00  0.00     0.073 C 
BRANCH  18  19
ATOM     19  C   UNL     1       9.645  12.128  18.704  1.00  0.00    -0.016 A 
ATOM     20  C   UNL     1       8.475  12.793  18.345  1.00  0.00     0.134 A 
ATOM     21  C   UNL     1       9.756  11.060  17.826  1.00  0.00     0.006 A 
ATOM     22  N   UNL     1       7.903  12.175  17.282  1.00  0.00    -0.191 N 
ATOM     23  C   UNL     1       8.692  11.136  16.962  1.00  0.00     0.087 A 
ATOM     24  C   UNL     1      10.671  10.004  17.762  1.00  0.00     0.011 A 
ATOM     25  C   UNL     1       8.492  10.193  15.955  1.00  0.00     0.030 A 
ATOM     26  C   UNL     1      10.497   9.038  16.757  1.00  0.00     0.001 A 
ATOM     27  C   UNL     1       9.419   9.140  15.846  1.00  0.00     0.002 A 
BRANCH  22  28
ATOM     28  O   UNL     1       6.693  12.480  16.677  1.00  0.00    -0.417 OA
ATOM     29  C   UNL     1       6.296  11.908  15.439  1.00  0.00     0.313 C 
ENDBRANCH  22  28
ENDBRANCH  18  19
ENDBRANCH   7  18
ENDBRANCH   4   7
ENDBRANCH   2   3
BRANCH   2  30
ATOM     30  N   UNL     1       8.157  14.134  24.224  1.00  0.00    -0.343 N 
ATOM     31  C   UNL     1       7.132  14.796  24.984  1.00  0.00     0.243 C 
ATOM     32  H   UNL     1       7.873  13.497  23.444  1.00  0.00     0.164 HD
ATOM     33  O   UNL     1       7.439  15.517  25.975  1.00  0.00    -0.273 OA
BRANCH  31  34
ATOM     34  C   UNL     1       5.666  14.581  24.669  1.00  0.00     0.174 C 
ATOM     35  N   UNL     1       5.465  14.274  23.232  1.00  0.00    -0.329 N 
ATOM     36  C   UNL     1       5.057  13.540  25.627  1.00  0.00     0.035 C 
ATOM     37  C   UNL     1       5.137  12.913  22.742  1.00  0.00     0.120 C 
ATOM     38  C   UNL     1       5.297  12.119  25.146  1.00  0.00     0.004 C 
ATOM     39  C   UNL     1       4.607  11.943  23.804  1.00  0.00     0.022 C 
BRANCH  35  40
ATOM     40  C   UNL     1       5.770  15.327  22.270  1.00  0.00     0.246 CG0
ATOM     41  O   UNL     1       5.540  16.533  22.582  1.00  0.00    -0.272 OA
ATOM     42  G   UNL     1       6.462  15.066  20.939  1.00  0.00     0.000 G0
ENDBRANCH  35  40
ENDBRANCH  31  34
ENDBRANCH   2  30
ENDBRANCH   1   2
BRANCH   1  43
ATOM     43  C   UNL     1      10.560  13.959  26.687  1.00  0.00     0.003 C 
BRANCH  43  44
ATOM     44  C   UNL     1       9.585  13.420  27.748  1.00  0.00     0.001 C 
BRANCH  44  45
ATOM     45  C   UNL     1       8.995  14.490  28.686  1.00  0.00     0.008 C 
BRANCH  45  46
ATOM     46  C   UNL     1       8.549  13.956  30.059  1.00  0.00     0.075 C 
BRANCH  46  47
ATOM     47  C   UNL     1       7.456  14.777  30.693  1.00  0.00     0.132 C 
ATOM     48  O   UNL     1       6.291  14.447  30.535  1.00  0.00    -0.300 OA
BRANCH  47  49
ATOM     49  C   UNL     1       7.765  16.021  31.483  1.00  0.00     0.072 C 
ATOM     50  C   UNL     1       6.985  16.065  32.790  1.00  0.00     0.012 C 
ENDBRANCH  47  49
ENDBRANCH  46  47
ENDBRANCH  45  46
ENDBRANCH  44  45
ENDBRANCH  43  44
ENDBRANCH   1  43
TORSDOF 12
ENDMDL
