MODEL 1
REMARK VINA RESULT:    11.865      0.000      0.000
REMARK INTER + INTRA:          16.759
REMARK INTER:                  16.373
REMARK INTRA:                   0.386
REMARK UNBOUND:                 0.386
REMARK SMILES CC[C@@H](CC[C@@H](C)[C@H]1CC[C@H]2[C@H]3CC=C4C[C@@H](O)CC[C@]4(C)[C@@H]3CC[C@@]12C)C(C)C
REMARK SMILES IDX 5 1 4 2 3 3 2 4 1 5 28 6 29 7 30 8 6 9 7 10 8 11 9 12 26 13
REMARK SMILES IDX 10 14 11 15 25 16 27 17 12 18 24 19 23 20 13 21 21 22 14 23
REMARK SMILES IDX 15 24 20 25 22 26 16 27 19 28 17 29 18 30
REMARK H PARENT 18 31
REMARK Flexibility Score: inf
ROOT
ATOM      1  C   UNL     1      19.115  26.168  24.499  1.00  0.00     0.004 C 
ENDROOT
BRANCH   1   2
ATOM      2  C   UNL     1      18.499  24.915  23.847  1.00  0.00     0.004 C 
BRANCH   2   3
ATOM      3  C   UNL     1      19.436  24.306  22.752  1.00  0.00    -0.009 C 
BRANCH   3   4
ATOM      4  C   UNL     1      20.684  25.209  22.540  1.00  0.00     0.000 C 
ATOM      5  C   UNL     1      22.005  24.452  22.707  1.00  0.00     0.004 C 
ENDBRANCH   3   4
BRANCH   3   6
ATOM      6  C   UNL     1      18.644  24.052  21.422  1.00  0.00    -0.014 C 
ATOM      7  C   UNL     1      18.882  25.191  20.412  1.00  0.00     0.007 C 
ATOM      8  C   UNL     1      17.126  23.904  21.636  1.00  0.00     0.007 C 
ENDBRANCH   3   6
ENDBRANCH   2   3
ENDBRANCH   1   2
BRANCH   1   9
ATOM      9  C   UNL     1      19.175  26.082  26.049  1.00  0.00    -0.011 C 
ATOM     10  C   UNL     1      17.791  25.727  26.619  1.00  0.00     0.008 C 
BRANCH   9  11
ATOM     11  C   UNL     1      20.388  25.238  26.591  1.00  0.00    -0.002 C 
ATOM     12  C   UNL     1      21.191  24.580  25.463  1.00  0.00     0.005 C 
ATOM     13  C   UNL     1      21.468  25.798  27.582  1.00  0.00    -0.026 C 
ATOM     14  C   UNL     1      22.545  24.203  26.062  1.00  0.00     0.005 C 
ATOM     15  C   UNL     1      22.518  24.657  27.533  1.00  0.00    -0.001 C 
ATOM     16  C   UNL     1      22.125  27.128  27.107  1.00  0.00     0.007 C 
ATOM     17  C   UNL     1      20.904  25.956  29.016  1.00  0.00     0.012 C 
ATOM     18  C   UNL     1      23.910  24.995  28.154  1.00  0.00     0.000 C 
ATOM     19  C   UNL     1      23.424  27.456  27.847  1.00  0.00     0.005 C 
ATOM     20  C   UNL     1      24.485  26.344  27.672  1.00  0.00     0.003 C 
ATOM     21  C   UNL     1      24.925  23.881  27.866  1.00  0.00     0.031 C 
ATOM     22  C   UNL     1      25.883  26.687  28.347  1.00  0.00    -0.008 C 
ATOM     23  C   UNL     1      26.247  24.177  28.497  1.00  0.00    -0.027 C 
ATOM     24  C   UNL     1      26.721  25.430  28.652  1.00  0.00    -0.065 C 
ATOM     25  C   UNL     1      25.704  27.444  29.704  1.00  0.00     0.014 C 
ATOM     26  C   UNL     1      26.672  27.582  27.354  1.00  0.00     0.016 C 
ATOM     27  C   UNL     1      28.028  25.614  29.397  1.00  0.00     0.063 C 
ATOM     28  C   UNL     1      27.012  27.646  30.496  1.00  0.00     0.033 C 
ATOM     29  C   UNL     1      27.755  26.320  30.728  1.00  0.00     0.118 C 
BRANCH  29  30
ATOM     30  O   UNL     1      28.975  26.563  31.377  1.00  0.00    -0.393 OA
ATOM     31  H   UNL     1      29.662  26.670  30.667  1.00  0.00     0.210 HD
ENDBRANCH  29  30
ENDBRANCH   9  11
ENDBRANCH   1   9
TORSDOF 7
ENDMDL
MODEL 2
REMARK VINA RESULT:    12.570      4.972      7.321
REMARK INTER + INTRA:          17.732
REMARK INTER:                  16.085
REMARK INTRA:                   1.647
REMARK UNBOUND:                 0.386
REMARK SMILES CC[C@@H](CC[C@@H](C)[C@H]1CC[C@H]2[C@H]3CC=C4C[C@@H](O)CC[C@]4(C)[C@@H]3CC[C@@]12C)C(C)C
REMARK SMILES IDX 5 1 4 2 3 3 2 4 1 5 28 6 29 7 30 8 6 9 7 10 8 11 9 12 26 13
REMARK SMILES IDX 10 14 11 15 25 16 27 17 12 18 24 19 23 20 13 21 21 22 14 23
REMARK SMILES IDX 15 24 20 25 22 26 16 27 19 28 17 29 18 30
REMARK H PARENT 18 31
REMARK Flexibility Score: inf
ROOT
ATOM      1  C   UNL     1      27.749  26.142  24.599  1.00  0.00     0.004 C 
ENDROOT
BRANCH   1   2
ATOM      2  C   UNL     1      29.125  26.820  24.449  1.00  0.00     0.004 C 
BRANCH   2   3
ATOM      3  C   UNL     1      29.118  28.283  25.004  1.00  0.00    -0.009 C 
BRANCH   3   4
ATOM      4  C   UNL     1      29.072  28.276  26.558  1.00  0.00     0.000 C 
ATOM      5  C   UNL     1      29.079  29.684  27.162  1.00  0.00     0.004 C 
ENDBRANCH   3   4
BRANCH   3   6
ATOM      6  C   UNL     1      27.947  29.112  24.370  1.00  0.00    -0.014 C 
ATOM      7  C   UNL     1      28.148  30.622  24.606  1.00  0.00     0.007 C 
ATOM      8  C   UNL     1      26.560  28.718  24.913  1.00  0.00     0.007 C 
ENDBRANCH   3   6
ENDBRANCH   2   3
ENDBRANCH   1   2
BRANCH   1   9
ATOM      9  C   UNL     1      27.827  24.748  25.279  1.00  0.00    -0.011 C 
ATOM     10  C   UNL     1      29.103  24.011  24.841  1.00  0.00     0.008 C 
BRANCH   9  11
ATOM     11  C   UNL     1      27.537  24.778  26.826  1.00  0.00    -0.002 C 
ATOM     12  C   UNL     1      28.804  25.029  27.652  1.00  0.00     0.005 C 
ATOM     13  C   UNL     1      26.437  25.678  27.491  1.00  0.00    -0.026 C 
ATOM     14  C   UNL     1      28.334  25.484  29.033  1.00  0.00     0.005 C 
ATOM     15  C   UNL     1      26.796  25.504  28.990  1.00  0.00    -0.001 C 
ATOM     16  C   UNL     1      26.540  27.183  27.104  1.00  0.00     0.007 C 
ATOM     17  C   UNL     1      25.010  25.144  27.208  1.00  0.00     0.012 C 
ATOM     18  C   UNL     1      26.113  26.512  29.967  1.00  0.00     0.000 C 
ATOM     19  C   UNL     1      25.746  28.100  28.037  1.00  0.00     0.005 C 
ATOM     20  C   UNL     1      26.218  27.981  29.505  1.00  0.00     0.003 C 
ATOM     21  C   UNL     1      26.695  26.385  31.382  1.00  0.00     0.031 C 
ATOM     22  C   UNL     1      25.482  28.986  30.494  1.00  0.00    -0.008 C 
ATOM     23  C   UNL     1      26.014  27.315  32.332  1.00  0.00    -0.027 C 
ATOM     24  C   UNL     1      25.530  28.518  31.961  1.00  0.00    -0.065 C 
ATOM     25  C   UNL     1      23.971  29.158  30.129  1.00  0.00     0.014 C 
ATOM     26  C   UNL     1      26.202  30.356  30.384  1.00  0.00     0.016 C 
ATOM     27  C   UNL     1      24.769  29.332  32.989  1.00  0.00     0.063 C 
ATOM     28  C   UNL     1      23.160  29.977  31.154  1.00  0.00     0.033 C 
ATOM     29  C   UNL     1      23.296  29.412  32.579  1.00  0.00     0.118 C 
BRANCH  29  30
ATOM     30  O   UNL     1      22.612  30.236  33.486  1.00  0.00    -0.393 OA
ATOM     31  H   UNL     1      22.472  31.109  33.033  1.00  0.00     0.210 HD
ENDBRANCH  29  30
ENDBRANCH   9  11
ENDBRANCH   1   9
TORSDOF 7
ENDMDL
MODEL 3
REMARK VINA RESULT:    13.124      3.063      8.196
REMARK INTER + INTRA:          18.497
REMARK INTER:                  19.231
REMARK INTRA:                  -0.734
REMARK UNBOUND:                 0.386
REMARK SMILES CC[C@@H](CC[C@@H](C)[C@H]1CC[C@H]2[C@H]3CC=C4C[C@@H](O)CC[C@]4(C)[C@@H]3CC[C@@]12C)C(C)C
REMARK SMILES IDX 5 1 4 2 3 3 2 4 1 5 28 6 29 7 30 8 6 9 7 10 8 11 9 12 26 13
REMARK SMILES IDX 10 14 11 15 25 16 27 17 12 18 24 19 23 20 13 21 21 22 14 23
REMARK SMILES IDX 15 24 20 25 22 26 16 27 19 28 17 29 18 30
REMARK H PARENT 18 31
REMARK Flexibility Score: inf
ROOT
ATOM      1  C   UNL     1      28.083  29.708  29.189  1.00  0.00     0.004 C 
ENDROOT
BRANCH   1   2
ATOM      2  C   UNL     1      29.125  28.686  28.692  1.00  0.00     0.004 C 
BRANCH   2   3
ATOM      3  C   UNL     1      28.999  28.427  27.154  1.00  0.00    -0.009 C 
BRANCH   3   4
ATOM      4  C   UNL     1      28.175  29.557  26.475  1.00  0.00     0.000 C 
ATOM      5  C   UNL     1      29.053  30.661  25.877  1.00  0.00     0.004 C 
ENDBRANCH   3   4
BRANCH   3   6
ATOM      6  C   UNL     1      28.406  27.001  26.878  1.00  0.00    -0.014 C 
ATOM      7  C   UNL     1      29.066  25.943  27.785  1.00  0.00     0.007 C 
ATOM      8  C   UNL     1      28.564  26.549  25.414  1.00  0.00     0.007 C 
ENDBRANCH   3   6
ENDBRANCH   2   3
ENDBRANCH   1   2
BRANCH   1   9
ATOM      9  C   UNL     1      26.844  29.044  29.847  1.00  0.00    -0.011 C 
ATOM     10  C   UNL     1      25.787  30.107  30.191  1.00  0.00     0.008 C 
BRANCH   9  11
ATOM     11  C   UNL     1      26.325  27.769  29.082  1.00  0.00    -0.002 C 
ATOM     12  C   UNL     1      26.111  26.574  30.018  1.00  0.00     0.005 C 
ATOM     13  C   UNL     1      25.077  27.768  28.132  1.00  0.00    -0.026 C 
ATOM     14  C   UNL     1      25.204  25.599  29.269  1.00  0.00     0.005 C 
ATOM     15  C   UNL     1      24.892  26.244  27.907  1.00  0.00    -0.001 C 
ATOM     16  C   UNL     1      23.791  28.355  28.787  1.00  0.00     0.007 C 
ATOM     17  C   UNL     1      25.374  28.484  26.791  1.00  0.00     0.012 C 
ATOM     18  C   UNL     1      23.536  25.818  27.260  1.00  0.00     0.000 C 
ATOM     19  C   UNL     1      22.511  27.996  28.028  1.00  0.00     0.005 C 
ATOM     20  C   UNL     1      22.307  26.466  27.930  1.00  0.00     0.003 C 
ATOM     21  C   UNL     1      23.376  24.292  27.277  1.00  0.00     0.031 C 
ATOM     22  C   UNL     1      20.940  26.050  27.231  1.00  0.00    -0.008 C 
ATOM     23  C   UNL     1      22.101  23.875  26.618  1.00  0.00    -0.027 C 
ATOM     24  C   UNL     1      20.979  24.622  26.653  1.00  0.00    -0.065 C 
ATOM     25  C   UNL     1      20.581  27.003  26.044  1.00  0.00     0.014 C 
ATOM     26  C   UNL     1      19.826  26.120  28.309  1.00  0.00     0.016 C 
ATOM     27  C   UNL     1      19.776  24.146  25.863  1.00  0.00     0.063 C 
ATOM     28  C   UNL     1      19.364  26.549  25.212  1.00  0.00     0.033 C 
ATOM     29  C   UNL     1      19.524  25.108  24.699  1.00  0.00     0.118 C 
BRANCH  29  30
ATOM     30  O   UNL     1      18.361  24.711  24.020  1.00  0.00    -0.393 OA
ATOM     31  H   UNL     1      18.632  24.003  23.377  1.00  0.00     0.210 HD
ENDBRANCH  29  30
ENDBRANCH   9  11
ENDBRANCH   1   9
TORSDOF 7
ENDMDL
