MODEL 1
REMARK VINA RESULT:    -5.992      0.000      0.000
REMARK INTER + INTRA:          -7.141
REMARK INTER:                  -7.042
REMARK INTRA:                  -0.099
REMARK UNBOUND:                -0.099
REMARK SMILES Oc1ccc(-c2[o+]c3cc(O)cc(O)c3cc2O)cc1
REMARK SMILES IDX 6 1 7 2 8 3 9 4 10 5 12 6 13 7 15 8 16 9 17 10 5 11 4 12
REMARK SMILES IDX 3 13 2 14 19 15 20 16 1 17 18 19 11 21 14 23
REMARK H PARENT 1 18 18 20 11 22 14 24
REMARK Flexibility Score: inf
ROOT
ATOM      1  C   UNL     1      14.883 -51.625   7.358  1.00  0.00     0.401 A 
ATOM      2  O   UNL     1      14.041 -50.871   6.655  1.00  0.00    -0.202 OA
ATOM      3  C   UNL     1      14.428 -49.828   5.927  1.00  0.00     0.368 A 
ATOM      4  C   UNL     1      13.470 -49.099   5.221  1.00  0.00     0.162 A 
ATOM      5  C   UNL     1      13.847 -48.001   4.447  1.00  0.00     0.128 A 
ATOM      6  C   UNL     1      15.194 -47.629   4.376  1.00  0.00     0.093 A 
ATOM      7  C   UNL     1      16.175 -48.344   5.074  1.00  0.00     0.136 A 
ATOM      8  C   UNL     1      15.794 -49.459   5.865  1.00  0.00     0.125 A 
ATOM      9  C   UNL     1      16.706 -50.226   6.609  1.00  0.00     0.078 A 
ATOM     10  C   UNL     1      16.254 -51.309   7.369  1.00  0.00     0.223 A 
ENDROOT
BRANCH   1  11
ATOM     11  C   UNL     1      14.331 -52.766   8.122  1.00  0.00     0.084 A 
ATOM     12  C   UNL     1      14.814 -54.062   7.875  1.00  0.00     0.022 A 
ATOM     13  C   UNL     1      14.324 -55.152   8.601  1.00  0.00     0.047 A 
ATOM     14  C   UNL     1      13.356 -54.959   9.591  1.00  0.00     0.115 A 
ATOM     15  C   UNL     1      13.372 -52.577   9.134  1.00  0.00     0.022 A 
ATOM     16  C   UNL     1      12.882 -53.668   9.859  1.00  0.00     0.047 A 
BRANCH  14  17
ATOM     17  O   UNL     1      12.875 -56.054  10.306  1.00  0.00    -0.508 OA
ATOM     18  H   UNL     1      12.801 -56.035  11.316  1.00  0.00     0.293 HD
ENDBRANCH  14  17
ENDBRANCH   1  11
BRANCH  10  19
ATOM     19  O   UNL     1      17.153 -52.039   8.149  1.00  0.00    -0.500 OA
ATOM     20  H   UNL     1      16.847 -52.811   8.730  1.00  0.00     0.294 HD
ENDBRANCH  10  19
BRANCH   5  21
ATOM     21  O   UNL     1      12.876 -47.286   3.750  1.00  0.00    -0.507 OA
ATOM     22  H   UNL     1      11.903 -47.297   4.035  1.00  0.00     0.293 HD
ENDBRANCH   5  21
BRANCH   7  23
ATOM     23  O   UNL     1      17.498 -47.912   4.949  1.00  0.00    -0.507 OA
ATOM     24  H   UNL     1      17.928 -47.635   4.078  1.00  0.00     0.293 HD
ENDBRANCH   7  23
TORSDOF 5
ENDMDL
MODEL 2
REMARK VINA RESULT:    -5.840     11.408     12.682
REMARK INTER + INTRA:          -6.963
REMARK INTER:                  -6.714
REMARK INTRA:                  -0.249
REMARK UNBOUND:                -0.099
REMARK SMILES Oc1ccc(-c2[o+]c3cc(O)cc(O)c3cc2O)cc1
REMARK SMILES IDX 6 1 7 2 8 3 9 4 10 5 12 6 13 7 15 8 16 9 17 10 5 11 4 12
REMARK SMILES IDX 3 13 2 14 19 15 20 16 1 17 18 19 11 21 14 23
REMARK H PARENT 1 18 18 20 11 22 14 24
REMARK Flexibility Score: inf
ROOT
ATOM      1  C   UNL     1      15.685 -54.520  -3.336  1.00  0.00     0.401 A 
ATOM      2  O   UNL     1      16.597 -54.472  -4.304  1.00  0.00    -0.202 OA
ATOM      3  C   UNL     1      16.751 -55.432  -5.210  1.00  0.00     0.368 A 
ATOM      4  C   UNL     1      17.736 -55.290  -6.191  1.00  0.00     0.162 A 
ATOM      5  C   UNL     1      17.919 -56.281  -7.156  1.00  0.00     0.128 A 
ATOM      6  C   UNL     1      17.111 -57.423  -7.143  1.00  0.00     0.093 A 
ATOM      7  C   UNL     1      16.116 -57.589  -6.172  1.00  0.00     0.136 A 
ATOM      8  C   UNL     1      15.930 -56.586  -5.186  1.00  0.00     0.125 A 
ATOM      9  C   UNL     1      14.967 -56.673  -4.167  1.00  0.00     0.078 A 
ATOM     10  C   UNL     1      14.846 -55.645  -3.228  1.00  0.00     0.223 A 
ENDROOT
BRANCH   1  11
ATOM     11  C   UNL     1      15.604 -53.383  -2.392  1.00  0.00     0.084 A 
ATOM     12  C   UNL     1      16.665 -53.149  -1.500  1.00  0.00     0.022 A 
ATOM     13  C   UNL     1      16.621 -52.067  -0.615  1.00  0.00     0.047 A 
ATOM     14  C   UNL     1      15.525 -51.199  -0.620  1.00  0.00     0.115 A 
ATOM     15  C   UNL     1      14.515 -52.493  -2.406  1.00  0.00     0.022 A 
ATOM     16  C   UNL     1      14.473 -51.412  -1.520  1.00  0.00     0.047 A 
BRANCH  14  17
ATOM     17  O   UNL     1      15.494 -50.126   0.268  1.00  0.00    -0.508 OA
ATOM     18  H   UNL     1      15.238 -50.250   1.240  1.00  0.00     0.293 HD
ENDBRANCH  14  17
ENDBRANCH   1  11
BRANCH  10  19
ATOM     19  O   UNL     1      13.925 -55.755  -2.185  1.00  0.00    -0.500 OA
ATOM     20  H   UNL     1      13.736 -54.983  -1.558  1.00  0.00     0.294 HD
ENDBRANCH  10  19
BRANCH   5  21
ATOM     21  O   UNL     1      18.906 -56.120  -8.125  1.00  0.00    -0.507 OA
ATOM     22  H   UNL     1      19.194 -56.889  -8.721  1.00  0.00     0.293 HD
ENDBRANCH   5  21
BRANCH   7  23
ATOM     23  O   UNL     1      15.349 -58.757  -6.229  1.00  0.00    -0.507 OA
ATOM     24  H   UNL     1      14.562 -58.892  -6.848  1.00  0.00     0.293 HD
ENDBRANCH   7  23
TORSDOF 5
ENDMDL
MODEL 3
REMARK VINA RESULT:    -5.516     10.630     12.081
REMARK INTER + INTRA:          -6.582
REMARK INTER:                  -6.561
REMARK INTRA:                  -0.021
REMARK UNBOUND:                -0.099
REMARK SMILES Oc1ccc(-c2[o+]c3cc(O)cc(O)c3cc2O)cc1
REMARK SMILES IDX 6 1 7 2 8 3 9 4 10 5 12 6 13 7 15 8 16 9 17 10 5 11 4 12
REMARK SMILES IDX 3 13 2 14 19 15 20 16 1 17 18 19 11 21 14 23
REMARK H PARENT 1 18 18 20 11 22 14 24
REMARK Flexibility Score: inf
ROOT
ATOM      1  C   UNL     1      15.598 -54.240  -4.050  1.00  0.00     0.401 A 
ATOM      2  O   UNL     1      16.451 -53.577  -3.274  1.00  0.00    -0.202 OA
ATOM      3  C   UNL     1      16.069 -52.696  -2.355  1.00  0.00     0.368 A 
ATOM      4  C   UNL     1      17.040 -52.052  -1.585  1.00  0.00     0.162 A 
ATOM      5  C   UNL     1      16.668 -51.124  -0.611  1.00  0.00     0.128 A 
ATOM      6  C   UNL     1      15.314 -50.837  -0.404  1.00  0.00     0.093 A 
ATOM      7  C   UNL     1      14.321 -51.470  -1.162  1.00  0.00     0.136 A 
ATOM      8  C   UNL     1      14.696 -52.411  -2.155  1.00  0.00     0.125 A 
ATOM      9  C   UNL     1      13.771 -53.084  -2.971  1.00  0.00     0.078 A 
ATOM     10  C   UNL     1      14.217 -53.995  -3.932  1.00  0.00     0.223 A 
ENDROOT
BRANCH   1  11
ATOM     11  C   UNL     1      16.147 -55.203  -5.031  1.00  0.00     0.084 A 
ATOM     12  C   UNL     1      17.242 -54.830  -5.829  1.00  0.00     0.022 A 
ATOM     13  C   UNL     1      17.791 -55.732  -6.746  1.00  0.00     0.047 A 
ATOM     14  C   UNL     1      17.263 -57.020  -6.867  1.00  0.00     0.115 A 
ATOM     15  C   UNL     1      15.634 -56.508  -5.143  1.00  0.00     0.022 A 
ATOM     16  C   UNL     1      16.184 -57.409  -6.061  1.00  0.00     0.047 A 
BRANCH  14  17
ATOM     17  O   UNL     1      17.819 -57.908  -7.785  1.00  0.00    -0.508 OA
ATOM     18  H   UNL     1      17.963 -57.648  -8.754  1.00  0.00     0.293 HD
ENDBRANCH  14  17
ENDBRANCH   1  11
BRANCH  10  19
ATOM     19  O   UNL     1      13.302 -54.624  -4.778  1.00  0.00    -0.500 OA
ATOM     20  H   UNL     1      13.318 -54.481  -5.780  1.00  0.00     0.294 HD
ENDBRANCH  10  19
BRANCH   5  21
ATOM     21  O   UNL     1      17.651 -50.493   0.146  1.00  0.00    -0.507 OA
ATOM     22  H   UNL     1      18.628 -50.755   0.072  1.00  0.00     0.293 HD
ENDBRANCH   5  21
BRANCH   7  23
ATOM     23  O   UNL     1      12.992 -51.132  -0.892  1.00  0.00    -0.507 OA
ATOM     24  H   UNL     1      12.506 -50.349  -1.306  1.00  0.00     0.293 HD
ENDBRANCH   7  23
TORSDOF 5
ENDMDL
MODEL 4
REMARK VINA RESULT:    -5.479      1.285      1.600
REMARK INTER + INTRA:          -6.539
REMARK INTER:                  -6.307
REMARK INTRA:                  -0.232
REMARK UNBOUND:                -0.099
REMARK SMILES Oc1ccc(-c2[o+]c3cc(O)cc(O)c3cc2O)cc1
REMARK SMILES IDX 6 1 7 2 8 3 9 4 10 5 12 6 13 7 15 8 16 9 17 10 5 11 4 12
REMARK SMILES IDX 3 13 2 14 19 15 20 16 1 17 18 19 11 21 14 23
REMARK H PARENT 1 18 18 20 11 22 14 24
REMARK Flexibility Score: inf
ROOT
ATOM      1  C   UNL     1      15.004 -52.911   7.634  1.00  0.00     0.401 A 
ATOM      2  O   UNL     1      14.146 -52.037   7.115  1.00  0.00    -0.202 OA
ATOM      3  C   UNL     1      14.496 -50.817   6.722  1.00  0.00     0.368 A 
ATOM      4  C   UNL     1      13.522 -49.970   6.186  1.00  0.00     0.162 A 
ATOM      5  C   UNL     1      13.860 -48.685   5.762  1.00  0.00     0.128 A 
ATOM      6  C   UNL     1      15.182 -48.240   5.873  1.00  0.00     0.093 A 
ATOM      7  C   UNL     1      16.177 -49.069   6.406  1.00  0.00     0.136 A 
ATOM      8  C   UNL     1      15.836 -50.376   6.841  1.00  0.00     0.125 A 
ATOM      9  C   UNL     1      16.763 -51.271   7.400  1.00  0.00     0.078 A 
ATOM     10  C   UNL     1      16.351 -52.542   7.811  1.00  0.00     0.223 A 
ENDROOT
BRANCH   1  11
ATOM     11  C   UNL     1      14.495 -54.245   8.026  1.00  0.00     0.084 A 
ATOM     12  C   UNL     1      14.876 -55.376   7.285  1.00  0.00     0.022 A 
ATOM     13  C   UNL     1      14.426 -56.648   7.650  1.00  0.00     0.047 A 
ATOM     14  C   UNL     1      13.603 -56.808   8.768  1.00  0.00     0.115 A 
ATOM     15  C   UNL     1      13.683 -54.415   9.162  1.00  0.00     0.022 A 
ATOM     16  C   UNL     1      13.234 -55.689   9.527  1.00  0.00     0.047 A 
BRANCH  14  17
ATOM     17  O   UNL     1      13.161 -58.081   9.121  1.00  0.00    -0.508 OA
ATOM     18  H   UNL     1      12.384 -58.215   9.758  1.00  0.00     0.293 HD
ENDBRANCH  14  17
ENDBRANCH   1  11
BRANCH  10  19
ATOM     19  O   UNL     1      17.261 -53.412   8.413  1.00  0.00    -0.500 OA
ATOM     20  H   UNL     1      18.244 -53.181   8.495  1.00  0.00     0.294 HD
ENDBRANCH  10  19
BRANCH   5  21
ATOM     21  O   UNL     1      12.875 -47.856   5.230  1.00  0.00    -0.507 OA
ATOM     22  H   UNL     1      12.380 -47.184   5.806  1.00  0.00     0.293 HD
ENDBRANCH   5  21
BRANCH   7  23
ATOM     23  O   UNL     1      17.474 -48.552   6.480  1.00  0.00    -0.507 OA
ATOM     24  H   UNL     1      17.951 -48.097   5.715  1.00  0.00     0.293 HD
ENDBRANCH   7  23
TORSDOF 5
ENDMDL
MODEL 5
REMARK VINA RESULT:    -5.469      3.082      4.213
REMARK INTER + INTRA:          -6.527
REMARK INTER:                  -6.215
REMARK INTRA:                  -0.312
REMARK UNBOUND:                -0.099
REMARK SMILES Oc1ccc(-c2[o+]c3cc(O)cc(O)c3cc2O)cc1
REMARK SMILES IDX 6 1 7 2 8 3 9 4 10 5 12 6 13 7 15 8 16 9 17 10 5 11 4 12
REMARK SMILES IDX 3 13 2 14 19 15 20 16 1 17 18 19 11 21 14 23
REMARK H PARENT 1 18 18 20 11 22 14 24
REMARK Flexibility Score: inf
ROOT
ATOM      1  C   UNL     1      15.121 -53.618   8.005  1.00  0.00     0.401 A 
ATOM      2  O   UNL     1      16.326 -53.164   7.672  1.00  0.00    -0.202 OA
ATOM      3  C   UNL     1      16.704 -51.901   7.842  1.00  0.00     0.368 A 
ATOM      4  C   UNL     1      17.994 -51.520   7.464  1.00  0.00     0.162 A 
ATOM      5  C   UNL     1      18.419 -50.203   7.633  1.00  0.00     0.128 A 
ATOM      6  C   UNL     1      17.549 -49.256   8.188  1.00  0.00     0.093 A 
ATOM      7  C   UNL     1      16.252 -49.613   8.576  1.00  0.00     0.136 A 
ATOM      8  C   UNL     1      15.815 -50.952   8.401  1.00  0.00     0.125 A 
ATOM      9  C   UNL     1      14.529 -51.396   8.749  1.00  0.00     0.078 A 
ATOM     10  C   UNL     1      14.169 -52.731   8.543  1.00  0.00     0.223 A 
ENDROOT
BRANCH   1  11
ATOM     11  C   UNL     1      14.822 -55.049   7.774  1.00  0.00     0.084 A 
ATOM     12  C   UNL     1      15.116 -55.988   8.778  1.00  0.00     0.022 A 
ATOM     13  C   UNL     1      14.821 -57.341   8.592  1.00  0.00     0.047 A 
ATOM     14  C   UNL     1      14.217 -57.773   7.407  1.00  0.00     0.115 A 
ATOM     15  C   UNL     1      14.195 -55.487   6.593  1.00  0.00     0.022 A 
ATOM     16  C   UNL     1      13.901 -56.842   6.408  1.00  0.00     0.047 A 
BRANCH  14  17
ATOM     17  O   UNL     1      13.930 -59.125   7.234  1.00  0.00    -0.508 OA
ATOM     18  H   UNL     1      13.025 -59.435   6.901  1.00  0.00     0.293 HD
ENDBRANCH  14  17
ENDBRANCH   1  11
BRANCH  10  19
ATOM     19  O   UNL     1      12.875 -53.161   8.840  1.00  0.00    -0.500 OA
ATOM     20  H   UNL     1      12.464 -53.017   9.754  1.00  0.00     0.294 HD
ENDBRANCH  10  19
BRANCH   5  21
ATOM     21  O   UNL     1      19.708 -49.843   7.250  1.00  0.00    -0.507 OA
ATOM     22  H   UNL     1      19.872 -49.172   6.507  1.00  0.00     0.293 HD
ENDBRANCH   5  21
BRANCH   7  23
ATOM     23  O   UNL     1      15.446 -48.611   9.124  1.00  0.00    -0.507 OA
ATOM     24  H   UNL     1      15.754 -47.949   9.823  1.00  0.00     0.293 HD
ENDBRANCH   7  23
TORSDOF 5
ENDMDL
MODEL 6
REMARK VINA RESULT:    -5.308      2.492      3.094
REMARK INTER + INTRA:          -6.338
REMARK INTER:                  -6.131
REMARK INTRA:                  -0.207
REMARK UNBOUND:                -0.099
REMARK SMILES Oc1ccc(-c2[o+]c3cc(O)cc(O)c3cc2O)cc1
REMARK SMILES IDX 6 1 7 2 8 3 9 4 10 5 12 6 13 7 15 8 16 9 17 10 5 11 4 12
REMARK SMILES IDX 3 13 2 14 19 15 20 16 1 17 18 19 11 21 14 23
REMARK H PARENT 1 18 18 20 11 22 14 24
REMARK Flexibility Score: inf
ROOT
ATOM      1  C   UNL     1      14.264 -50.650   7.679  1.00  0.00     0.401 A 
ATOM      2  O   UNL     1      14.814 -49.875   6.748  1.00  0.00    -0.202 OA
ATOM      3  C   UNL     1      14.725 -48.549   6.756  1.00  0.00     0.368 A 
ATOM      4  C   UNL     1      15.340 -47.820   5.735  1.00  0.00     0.162 A 
ATOM      5  C   UNL     1      15.265 -46.427   5.719  1.00  0.00     0.128 A 
ATOM      6  C   UNL     1      14.571 -45.755   6.731  1.00  0.00     0.093 A 
ATOM      7  C   UNL     1      13.946 -46.462   7.765  1.00  0.00     0.136 A 
ATOM      8  C   UNL     1      14.018 -47.880   7.783  1.00  0.00     0.125 A 
ATOM      9  C   UNL     1      13.411 -48.671   8.772  1.00  0.00     0.078 A 
ATOM     10  C   UNL     1      13.521 -50.064   8.721  1.00  0.00     0.223 A 
ENDROOT
BRANCH   1  11
ATOM     11  C   UNL     1      14.441 -52.115   7.566  1.00  0.00     0.084 A 
ATOM     12  C   UNL     1      15.699 -52.683   7.837  1.00  0.00     0.022 A 
ATOM     13  C   UNL     1      15.884 -54.066   7.759  1.00  0.00     0.047 A 
ATOM     14  C   UNL     1      14.814 -54.901   7.423  1.00  0.00     0.115 A 
ATOM     15  C   UNL     1      13.365 -52.963   7.249  1.00  0.00     0.022 A 
ATOM     16  C   UNL     1      13.552 -54.347   7.172  1.00  0.00     0.047 A 
BRANCH  14  17
ATOM     17  O   UNL     1      15.013 -56.278   7.348  1.00  0.00    -0.508 OA
ATOM     18  H   UNL     1      15.625 -56.687   6.652  1.00  0.00     0.293 HD
ENDBRANCH  14  17
ENDBRANCH   1  11
BRANCH  10  19
ATOM     19  O   UNL     1      12.876 -50.853   9.674  1.00  0.00    -0.500 OA
ATOM     20  H   UNL     1      13.106 -50.792  10.659  1.00  0.00     0.294 HD
ENDBRANCH  10  19
BRANCH   5  21
ATOM     21  O   UNL     1      15.885 -45.719   4.693  1.00  0.00    -0.507 OA
ATOM     22  H   UNL     1      16.863 -45.862   4.465  1.00  0.00     0.293 HD
ENDBRANCH   5  21
BRANCH   7  23
ATOM     23  O   UNL     1      13.276 -45.718   8.740  1.00  0.00    -0.507 OA
ATOM     24  H   UNL     1      12.282 -45.539   8.738  1.00  0.00     0.293 HD
ENDBRANCH   7  23
TORSDOF 5
ENDMDL
MODEL 7
REMARK VINA RESULT:    -5.286     10.653     11.583
REMARK INTER + INTRA:          -6.312
REMARK INTER:                  -6.005
REMARK INTRA:                  -0.308
REMARK UNBOUND:                -0.099
REMARK SMILES Oc1ccc(-c2[o+]c3cc(O)cc(O)c3cc2O)cc1
REMARK SMILES IDX 6 1 7 2 8 3 9 4 10 5 12 6 13 7 15 8 16 9 17 10 5 11 4 12
REMARK SMILES IDX 3 13 2 14 19 15 20 16 1 17 18 19 11 21 14 23
REMARK H PARENT 1 18 18 20 11 22 14 24
REMARK Flexibility Score: inf
ROOT
ATOM      1  C   UNL     1      15.463 -54.851  -3.708  1.00  0.00     0.401 A 
ATOM      2  O   UNL     1      14.564 -54.335  -2.874  1.00  0.00    -0.202 OA
ATOM      3  C   UNL     1      14.847 -53.379  -1.995  1.00  0.00     0.368 A 
ATOM      4  C   UNL     1      13.833 -52.899  -1.162  1.00  0.00     0.162 A 
ATOM      5  C   UNL     1      14.100 -51.894  -0.232  1.00  0.00     0.128 A 
ATOM      6  C   UNL     1      15.391 -51.362  -0.133  1.00  0.00     0.093 A 
ATOM      7  C   UNL     1      16.424 -51.826  -0.956  1.00  0.00     0.136 A 
ATOM      8  C   UNL     1      16.157 -52.850  -1.901  1.00  0.00     0.125 A 
ATOM      9  C   UNL     1      17.133 -53.385  -2.758  1.00  0.00     0.078 A 
ATOM     10  C   UNL     1      16.795 -54.398  -3.660  1.00  0.00     0.223 A 
ENDROOT
BRANCH   1  11
ATOM     11  C   UNL     1      15.023 -55.906  -4.648  1.00  0.00     0.084 A 
ATOM     12  C   UNL     1      14.493 -55.541  -5.898  1.00  0.00     0.022 A 
ATOM     13  C   UNL     1      14.092 -56.521  -6.811  1.00  0.00     0.047 A 
ATOM     14  C   UNL     1      14.228 -57.876  -6.494  1.00  0.00     0.115 A 
ATOM     15  C   UNL     1      15.176 -57.271  -4.344  1.00  0.00     0.022 A 
ATOM     16  C   UNL     1      14.774 -58.250  -5.259  1.00  0.00     0.047 A 
BRANCH  14  17
ATOM     17  O   UNL     1      13.823 -58.842  -7.413  1.00  0.00    -0.508 OA
ATOM     18  H   UNL     1      14.450 -59.577  -7.718  1.00  0.00     0.293 HD
ENDBRANCH  14  17
ENDBRANCH   1  11
BRANCH  10  19
ATOM     19  O   UNL     1      17.775 -54.965  -4.475  1.00  0.00    -0.500 OA
ATOM     20  H   UNL     1      18.077 -55.924  -4.354  1.00  0.00     0.294 HD
ENDBRANCH  10  19
BRANCH   5  21
ATOM     21  O   UNL     1      13.076 -51.429   0.588  1.00  0.00    -0.507 OA
ATOM     22  H   UNL     1      12.953 -50.439   0.774  1.00  0.00     0.293 HD
ENDBRANCH   5  21
BRANCH   7  23
ATOM     23  O   UNL     1      17.685 -51.241  -0.798  1.00  0.00    -0.507 OA
ATOM     24  H   UNL     1      18.055 -50.515  -1.393  1.00  0.00     0.293 HD
ENDBRANCH   7  23
TORSDOF 5
ENDMDL
MODEL 8
REMARK VINA RESULT:    -5.104     11.407     12.592
REMARK INTER + INTRA:          -6.098
REMARK INTER:                  -5.887
REMARK INTRA:                  -0.211
REMARK UNBOUND:                -0.099
REMARK SMILES Oc1ccc(-c2[o+]c3cc(O)cc(O)c3cc2O)cc1
REMARK SMILES IDX 6 1 7 2 8 3 9 4 10 5 12 6 13 7 15 8 16 9 17 10 5 11 4 12
REMARK SMILES IDX 3 13 2 14 19 15 20 16 1 17 18 19 11 21 14 23
REMARK H PARENT 1 18 18 20 11 22 14 24
REMARK Flexibility Score: inf
ROOT
ATOM      1  C   UNL     1      15.983 -54.282  -3.567  1.00  0.00     0.401 A 
ATOM      2  O   UNL     1      14.975 -55.087  -3.893  1.00  0.00    -0.202 OA
ATOM      3  C   UNL     1      15.055 -56.008  -4.848  1.00  0.00     0.368 A 
ATOM      4  C   UNL     1      13.941 -56.808  -5.116  1.00  0.00     0.162 A 
ATOM      5  C   UNL     1      13.997 -57.784  -6.111  1.00  0.00     0.128 A 
ATOM      6  C   UNL     1      15.175 -57.965  -6.845  1.00  0.00     0.093 A 
ATOM      7  C   UNL     1      16.304 -57.176  -6.596  1.00  0.00     0.136 A 
ATOM      8  C   UNL     1      16.250 -56.179  -5.587  1.00  0.00     0.125 A 
ATOM      9  C   UNL     1      17.328 -55.334  -5.277  1.00  0.00     0.078 A 
ATOM     10  C   UNL     1      17.199 -54.372  -4.272  1.00  0.00     0.223 A 
ENDROOT
BRANCH   1  11
ATOM     11  C   UNL     1      15.774 -53.302  -2.478  1.00  0.00     0.084 A 
ATOM     12  C   UNL     1      14.806 -52.295  -2.630  1.00  0.00     0.022 A 
ATOM     13  C   UNL     1      14.575 -51.373  -1.605  1.00  0.00     0.047 A 
ATOM     14  C   UNL     1      15.298 -51.453  -0.411  1.00  0.00     0.115 A 
ATOM     15  C   UNL     1      16.483 -53.390  -1.266  1.00  0.00     0.022 A 
ATOM     16  C   UNL     1      16.251 -52.466  -0.242  1.00  0.00     0.047 A 
BRANCH  14  17
ATOM     17  O   UNL     1      15.059 -50.526   0.602  1.00  0.00    -0.508 OA
ATOM     18  H   UNL     1      14.143 -50.427   1.023  1.00  0.00     0.293 HD
ENDBRANCH  14  17
ENDBRANCH   1  11
BRANCH  10  19
ATOM     19  O   UNL     1      18.252 -53.498  -3.999  1.00  0.00    -0.500 OA
ATOM     20  H   UNL     1      18.159 -52.497  -4.125  1.00  0.00     0.294 HD
ENDBRANCH  10  19
BRANCH   5  21
ATOM     21  O   UNL     1      12.876 -58.572  -6.362  1.00  0.00    -0.507 OA
ATOM     22  H   UNL     1      12.841 -59.547  -6.087  1.00  0.00     0.293 HD
ENDBRANCH   5  21
BRANCH   7  23
ATOM     23  O   UNL     1      17.443 -57.420  -7.369  1.00  0.00    -0.507 OA
ATOM     24  H   UNL     1      18.271 -57.890  -7.033  1.00  0.00     0.293 HD
ENDBRANCH   7  23
TORSDOF 5
ENDMDL
