MODEL 1
REMARK VINA RESULT:    -8.179      0.000      0.000
REMARK INTER + INTRA:         -13.192
REMARK INTER:                 -11.287
REMARK INTRA:                  -1.905
REMARK UNBOUND:                -1.905
REMARK SMILES CC[C@H](CC[C@H](C)[C@H]1CC[C@@H]2[C@H]3CC=C4C[C@H](O)CC[C@@]4(C)[C@H]3CC[C@@]21C)C(C)C
REMARK SMILES IDX 5 1 4 2 3 3 2 4 1 5 28 6 29 7 30 8 6 9 7 10 8 11 9 12 26 13
REMARK SMILES IDX 10 14 11 15 25 16 27 17 12 18 24 19 23 20 13 21 21 22 14 23
REMARK SMILES IDX 15 24 20 25 22 26 16 27 19 28 17 29 18 30
REMARK H PARENT 18 31
REMARK Flexibility Score: inf
ROOT
ATOM      1  C   UNL     1     -11.600 -36.342 -13.532  1.00  0.00     0.004 C 
ENDROOT
BRANCH   1   2
ATOM      2  C   UNL     1     -12.861 -35.477 -13.349  1.00  0.00     0.004 C 
BRANCH   2   3
ATOM      3  C   UNL     1     -13.082 -34.514 -14.563  1.00  0.00    -0.009 C 
BRANCH   3   4
ATOM      4  C   UNL     1     -12.763 -35.247 -15.897  1.00  0.00     0.000 C 
ATOM      5  C   UNL     1     -13.977 -35.986 -16.472  1.00  0.00     0.004 C 
ENDBRANCH   3   4
BRANCH   3   6
ATOM      6  C   UNL     1     -14.527 -33.904 -14.536  1.00  0.00    -0.014 C 
ATOM      7  C   UNL     1     -14.536 -32.375 -14.350  1.00  0.00     0.007 C 
ATOM      8  C   UNL     1     -15.374 -34.534 -13.411  1.00  0.00     0.007 C 
ENDBRANCH   3   6
ENDBRANCH   2   3
ENDBRANCH   1   2
BRANCH   1   9
ATOM      9  C   UNL     1     -10.357 -35.909 -12.708  1.00  0.00    -0.011 C 
ATOM     10  C   UNL     1      -9.659 -37.125 -12.061  1.00  0.00     0.008 C 
BRANCH   9  11
ATOM     11  C   UNL     1     -10.645 -34.698 -11.734  1.00  0.00    -0.002 C 
ATOM     12  C   UNL     1     -10.192 -34.954 -10.292  1.00  0.00     0.005 C 
ATOM     13  C   UNL     1     -10.057 -33.276 -12.113  1.00  0.00    -0.026 C 
ATOM     14  C   UNL     1      -8.918 -34.162 -10.090  1.00  0.00     0.005 C 
ATOM     15  C   UNL     1      -8.998 -32.934 -11.010  1.00  0.00    -0.001 C 
ATOM     16  C   UNL     1     -11.206 -32.223 -12.155  1.00  0.00     0.007 C 
ATOM     17  C   UNL     1      -9.372 -33.220 -13.507  1.00  0.00     0.012 C 
ATOM     18  C   UNL     1      -9.279 -31.629 -10.198  1.00  0.00     0.000 C 
ATOM     19  C   UNL     1     -11.782 -31.837 -10.785  1.00  0.00     0.005 C 
ATOM     20  C   UNL     1     -10.730 -31.580  -9.656  1.00  0.00     0.003 C 
ATOM     21  C   UNL     1      -8.877 -30.342 -10.974  1.00  0.00     0.031 C 
ATOM     22  C   UNL     1     -10.980 -30.251  -8.853  1.00  0.00    -0.008 C 
ATOM     23  C   UNL     1      -9.730 -29.120 -10.701  1.00  0.00    -0.027 C 
ATOM     24  C   UNL     1     -10.725 -29.068  -9.785  1.00  0.00    -0.065 C 
ATOM     25  C   UNL     1     -12.431 -30.243  -8.257  1.00  0.00     0.014 C 
ATOM     26  C   UNL     1      -9.990 -30.137  -7.660  1.00  0.00     0.016 C 
ATOM     27  C   UNL     1     -11.394 -27.735  -9.518  1.00  0.00     0.063 C 
ATOM     28  C   UNL     1     -12.934 -28.846  -7.875  1.00  0.00     0.033 C 
ATOM     29  C   UNL     1     -12.849 -27.900  -9.079  1.00  0.00     0.118 C 
BRANCH  29  30
ATOM     30  O   UNL     1     -13.368 -26.643  -8.735  1.00  0.00    -0.393 OA
ATOM     31  H   UNL     1     -12.775 -25.964  -9.156  1.00  0.00     0.210 HD
ENDBRANCH  29  30
ENDBRANCH   9  11
ENDBRANCH   1   9
TORSDOF 7
ENDMDL
MODEL 2
REMARK VINA RESULT:    -7.918      3.107      7.005
REMARK INTER + INTRA:         -12.832
REMARK INTER:                 -10.975
REMARK INTRA:                  -1.857
REMARK UNBOUND:                -1.905
REMARK SMILES CC[C@H](CC[C@H](C)[C@H]1CC[C@@H]2[C@H]3CC=C4C[C@H](O)CC[C@@]4(C)[C@H]3CC[C@@]21C)C(C)C
REMARK SMILES IDX 5 1 4 2 3 3 2 4 1 5 28 6 29 7 30 8 6 9 7 10 8 11 9 12 26 13
REMARK SMILES IDX 10 14 11 15 25 16 27 17 12 18 24 19 23 20 13 21 21 22 14 23
REMARK SMILES IDX 15 24 20 25 22 26 16 27 19 28 17 29 18 30
REMARK H PARENT 18 31
REMARK Flexibility Score: inf
ROOT
ATOM      1  C   UNL     1     -13.672 -27.082 -10.128  1.00  0.00     0.004 C 
ENDROOT
BRANCH   1   2
ATOM      2  C   UNL     1     -13.827 -27.061 -11.660  1.00  0.00     0.004 C 
BRANCH   2   3
ATOM      3  C   UNL     1     -15.152 -27.757 -12.118  1.00  0.00    -0.009 C 
BRANCH   3   4
ATOM      4  C   UNL     1     -15.924 -26.845 -13.114  1.00  0.00     0.000 C 
ATOM      5  C   UNL     1     -15.038 -25.754 -13.726  1.00  0.00     0.004 C 
ENDBRANCH   3   4
BRANCH   3   6
ATOM      6  C   UNL     1     -14.861 -29.183 -12.702  1.00  0.00    -0.014 C 
ATOM      7  C   UNL     1     -13.878 -29.162 -13.888  1.00  0.00     0.007 C 
ATOM      8  C   UNL     1     -16.163 -29.868 -13.165  1.00  0.00     0.007 C 
ENDBRANCH   3   6
ENDBRANCH   2   3
ENDBRANCH   1   2
BRANCH   1   9
ATOM      9  C   UNL     1     -12.493 -27.931  -9.579  1.00  0.00    -0.011 C 
ATOM     10  C   UNL     1     -11.318 -27.036  -9.130  1.00  0.00     0.008 C 
BRANCH   9  11
ATOM     11  C   UNL     1     -12.102 -29.139 -10.520  1.00  0.00    -0.002 C 
ATOM     12  C   UNL     1     -10.803 -28.907 -11.302  1.00  0.00     0.005 C 
ATOM     13  C   UNL     1     -11.951 -30.576  -9.870  1.00  0.00    -0.026 C 
ATOM     14  C   UNL     1      -9.735 -29.741 -10.626  1.00  0.00     0.005 C 
ATOM     15  C   UNL     1     -10.438 -30.960 -10.007  1.00  0.00    -0.001 C 
ATOM     16  C   UNL     1     -12.873 -31.591 -10.614  1.00  0.00     0.007 C 
ATOM     17  C   UNL     1     -12.358 -30.645  -8.372  1.00  0.00     0.012 C 
ATOM     18  C   UNL     1     -10.152 -32.260 -10.824  1.00  0.00     0.000 C 
ATOM     19  C   UNL     1     -12.412 -31.967 -12.030  1.00  0.00     0.005 C 
ATOM     20  C   UNL     1     -10.885 -32.266 -12.189  1.00  0.00     0.003 C 
ATOM     21  C   UNL     1     -10.398 -33.554  -9.996  1.00  0.00     0.031 C 
ATOM     22  C   UNL     1     -10.581 -33.591 -12.979  1.00  0.00    -0.008 C 
ATOM     23  C   UNL     1     -10.894 -34.750 -10.784  1.00  0.00    -0.027 C 
ATOM     24  C   UNL     1     -11.039 -34.776 -12.129  1.00  0.00    -0.065 C 
ATOM     25  C   UNL     1     -11.278 -33.557 -14.383  1.00  0.00     0.014 C 
ATOM     26  C   UNL     1      -9.054 -33.746 -13.224  1.00  0.00     0.016 C 
ATOM     27  C   UNL     1     -11.403 -36.089 -12.792  1.00  0.00     0.063 C 
ATOM     28  C   UNL     1     -11.445 -34.939 -15.025  1.00  0.00     0.033 C 
ATOM     29  C   UNL     1     -12.202 -35.879 -14.080  1.00  0.00     0.118 C 
BRANCH  29  30
ATOM     30  O   UNL     1     -12.401 -37.122 -14.700  1.00  0.00    -0.393 OA
ATOM     31  H   UNL     1     -12.356 -36.963 -15.680  1.00  0.00     0.210 HD
ENDBRANCH  29  30
ENDBRANCH   9  11
ENDBRANCH   1   9
TORSDOF 7
ENDMDL
MODEL 3
REMARK VINA RESULT:    -7.865      0.716      1.462
REMARK INTER + INTRA:         -12.758
REMARK INTER:                 -11.257
REMARK INTRA:                  -1.501
REMARK UNBOUND:                -1.905
REMARK SMILES CC[C@H](CC[C@H](C)[C@H]1CC[C@@H]2[C@H]3CC=C4C[C@H](O)CC[C@@]4(C)[C@H]3CC[C@@]21C)C(C)C
REMARK SMILES IDX 5 1 4 2 3 3 2 4 1 5 28 6 29 7 30 8 6 9 7 10 8 11 9 12 26 13
REMARK SMILES IDX 10 14 11 15 25 16 27 17 12 18 24 19 23 20 13 21 21 22 14 23
REMARK SMILES IDX 15 24 20 25 22 26 16 27 19 28 17 29 18 30
REMARK H PARENT 18 31
REMARK Flexibility Score: inf
ROOT
ATOM      1  C   UNL     1     -11.051 -35.618 -14.133  1.00  0.00     0.004 C 
ENDROOT
BRANCH   1   2
ATOM      2  C   UNL     1     -12.127 -36.698 -14.351  1.00  0.00     0.004 C 
BRANCH   2   3
ATOM      3  C   UNL     1     -13.564 -36.080 -14.405  1.00  0.00    -0.009 C 
BRANCH   3   4
ATOM      4  C   UNL     1     -13.485 -34.527 -14.354  1.00  0.00     0.000 C 
ATOM      5  C   UNL     1     -14.209 -33.936 -13.139  1.00  0.00     0.004 C 
ENDBRANCH   3   4
BRANCH   3   6
ATOM      6  C   UNL     1     -14.353 -36.607 -15.654  1.00  0.00    -0.014 C 
ATOM      7  C   UNL     1     -13.880 -35.974 -16.978  1.00  0.00     0.007 C 
ATOM      8  C   UNL     1     -15.865 -36.346 -15.505  1.00  0.00     0.007 C 
ENDBRANCH   3   6
ENDBRANCH   2   3
ENDBRANCH   1   2
BRANCH   1   9
ATOM      9  C   UNL     1     -10.275 -35.698 -12.791  1.00  0.00    -0.011 C 
ATOM     10  C   UNL     1     -10.334 -37.120 -12.191  1.00  0.00     0.008 C 
BRANCH   9  11
ATOM     11  C   UNL     1     -10.632 -34.528 -11.792  1.00  0.00    -0.002 C 
ATOM     12  C   UNL     1     -10.315 -34.856 -10.328  1.00  0.00     0.005 C 
ATOM     13  C   UNL     1      -9.994 -33.101 -12.050  1.00  0.00    -0.026 C 
ATOM     14  C   UNL     1      -9.053 -34.097  -9.976  1.00  0.00     0.005 C 
ATOM     15  C   UNL     1      -9.034 -32.827 -10.842  1.00  0.00    -0.001 C 
ATOM     16  C   UNL     1     -11.120 -32.027 -12.145  1.00  0.00     0.007 C 
ATOM     17  C   UNL     1      -9.185 -32.994 -13.373  1.00  0.00     0.012 C 
ATOM     18  C   UNL     1      -9.370 -31.556  -9.999  1.00  0.00     0.000 C 
ATOM     19  C   UNL     1     -11.812 -31.694 -10.815  1.00  0.00     0.005 C 
ATOM     20  C   UNL     1     -10.863 -31.506  -9.586  1.00  0.00     0.003 C 
ATOM     21  C   UNL     1      -8.882 -30.242 -10.675  1.00  0.00     0.031 C 
ATOM     22  C   UNL     1     -11.166 -30.211  -8.748  1.00  0.00    -0.008 C 
ATOM     23  C   UNL     1      -9.740 -29.019 -10.422  1.00  0.00    -0.027 C 
ATOM     24  C   UNL     1     -10.813 -28.991  -9.598  1.00  0.00    -0.065 C 
ATOM     25  C   UNL     1     -12.665 -30.204  -8.284  1.00  0.00     0.014 C 
ATOM     26  C   UNL     1     -10.286 -30.168  -7.467  1.00  0.00     0.016 C 
ATOM     27  C   UNL     1     -11.484 -27.660  -9.330  1.00  0.00     0.063 C 
ATOM     28  C   UNL     1     -13.181 -28.817  -7.885  1.00  0.00     0.033 C 
ATOM     29  C   UNL     1     -12.976 -27.820  -9.030  1.00  0.00     0.118 C 
BRANCH  29  30
ATOM     30  O   UNL     1     -13.506 -26.570  -8.676  1.00  0.00    -0.393 OA
ATOM     31  H   UNL     1     -12.907 -25.882  -9.071  1.00  0.00     0.210 HD
ENDBRANCH  29  30
ENDBRANCH   9  11
ENDBRANCH   1   9
TORSDOF 7
ENDMDL
MODEL 4
REMARK VINA RESULT:    -6.733      3.413      8.507
REMARK INTER + INTRA:         -11.197
REMARK INTER:                 -11.081
REMARK INTRA:                  -0.115
REMARK UNBOUND:                -1.905
REMARK SMILES CC[C@H](CC[C@H](C)[C@H]1CC[C@@H]2[C@H]3CC=C4C[C@H](O)CC[C@@]4(C)[C@H]3CC[C@@]21C)C(C)C
REMARK SMILES IDX 5 1 4 2 3 3 2 4 1 5 28 6 29 7 30 8 6 9 7 10 8 11 9 12 26 13
REMARK SMILES IDX 10 14 11 15 25 16 27 17 12 18 24 19 23 20 13 21 21 22 14 23
REMARK SMILES IDX 15 24 20 25 22 26 16 27 19 28 17 29 18 30
REMARK H PARENT 18 31
REMARK Flexibility Score: inf
ROOT
ATOM      1  C   UNL     1     -13.111 -27.382 -10.798  1.00  0.00     0.004 C 
ENDROOT
BRANCH   1   2
ATOM      2  C   UNL     1     -11.655 -27.123 -10.370  1.00  0.00     0.004 C 
BRANCH   2   3
ATOM      3  C   UNL     1     -11.413 -27.518  -8.875  1.00  0.00    -0.009 C 
BRANCH   3   4
ATOM      4  C   UNL     1     -12.509 -28.513  -8.396  1.00  0.00     0.000 C 
ATOM      5  C   UNL     1     -11.927 -29.727  -7.662  1.00  0.00     0.004 C 
ENDBRANCH   3   4
BRANCH   3   6
ATOM      6  C   UNL     1      -9.960 -28.073  -8.672  1.00  0.00    -0.014 C 
ATOM      7  C   UNL     1      -8.970 -27.006  -8.165  1.00  0.00     0.007 C 
ATOM      8  C   UNL     1      -9.404 -28.665  -9.983  1.00  0.00     0.007 C 
ENDBRANCH   3   6
ENDBRANCH   2   3
ENDBRANCH   1   2
BRANCH   1   9
ATOM      9  C   UNL     1     -13.342 -27.587 -12.320  1.00  0.00    -0.011 C 
ATOM     10  C   UNL     1     -14.634 -26.885 -12.793  1.00  0.00     0.008 C 
BRANCH   9  11
ATOM     11  C   UNL     1     -13.184 -29.091 -12.778  1.00  0.00    -0.002 C 
ATOM     12  C   UNL     1     -12.255 -29.910 -11.874  1.00  0.00     0.005 C 
ATOM     13  C   UNL     1     -14.495 -29.967 -12.938  1.00  0.00    -0.026 C 
ATOM     14  C   UNL     1     -13.144 -30.788 -11.019  1.00  0.00     0.005 C 
ATOM     15  C   UNL     1     -14.411 -31.081 -11.838  1.00  0.00    -0.001 C 
ATOM     16  C   UNL     1     -14.551 -30.577 -14.372  1.00  0.00     0.007 C 
ATOM     17  C   UNL     1     -15.818 -29.174 -12.756  1.00  0.00     0.012 C 
ATOM     18  C   UNL     1     -14.420 -32.548 -12.373  1.00  0.00     0.000 C 
ATOM     19  C   UNL     1     -13.534 -31.696 -14.640  1.00  0.00     0.005 C 
ATOM     20  C   UNL     1     -13.384 -32.762 -13.506  1.00  0.00     0.003 C 
ATOM     21  C   UNL     1     -15.846 -33.039 -12.753  1.00  0.00     0.031 C 
ATOM     22  C   UNL     1     -13.426 -34.246 -14.026  1.00  0.00    -0.008 C 
ATOM     23  C   UNL     1     -15.914 -34.019 -13.907  1.00  0.00    -0.027 C 
ATOM     24  C   UNL     1     -14.836 -34.539 -14.538  1.00  0.00    -0.065 C 
ATOM     25  C   UNL     1     -12.331 -34.465 -15.127  1.00  0.00     0.014 C 
ATOM     26  C   UNL     1     -13.125 -35.241 -12.871  1.00  0.00     0.016 C 
ATOM     27  C   UNL     1     -15.056 -35.620 -15.576  1.00  0.00     0.063 C 
ATOM     28  C   UNL     1     -12.584 -35.690 -16.015  1.00  0.00     0.033 C 
ATOM     29  C   UNL     1     -13.974 -35.607 -16.657  1.00  0.00     0.118 C 
BRANCH  29  30
ATOM     30  O   UNL     1     -14.170 -36.701 -17.513  1.00  0.00    -0.393 OA
ATOM     31  H   UNL     1     -14.107 -37.518 -16.951  1.00  0.00     0.210 HD
ENDBRANCH  29  30
ENDBRANCH   9  11
ENDBRANCH   1   9
TORSDOF 7
ENDMDL
MODEL 5
REMARK VINA RESULT:    -6.433      2.676      5.250
REMARK INTER + INTRA:         -10.782
REMARK INTER:                  -8.833
REMARK INTRA:                  -1.949
REMARK UNBOUND:                -1.905
REMARK SMILES CC[C@H](CC[C@H](C)[C@H]1CC[C@@H]2[C@H]3CC=C4C[C@H](O)CC[C@@]4(C)[C@H]3CC[C@@]21C)C(C)C
REMARK SMILES IDX 5 1 4 2 3 3 2 4 1 5 28 6 29 7 30 8 6 9 7 10 8 11 9 12 26 13
REMARK SMILES IDX 10 14 11 15 25 16 27 17 12 18 24 19 23 20 13 21 21 22 14 23
REMARK SMILES IDX 15 24 20 25 22 26 16 27 19 28 17 29 18 30
REMARK H PARENT 18 31
REMARK Flexibility Score: inf
ROOT
ATOM      1  C   UNL     1      -9.799 -33.722  -8.601  1.00  0.00     0.004 C 
ENDROOT
BRANCH   1   2
ATOM      2  C   UNL     1      -8.875 -33.789  -9.832  1.00  0.00     0.004 C 
BRANCH   2   3
ATOM      3  C   UNL     1      -9.540 -34.574 -11.012  1.00  0.00    -0.009 C 
BRANCH   3   4
ATOM      4  C   UNL     1     -10.308 -35.813 -10.470  1.00  0.00     0.000 C 
ATOM      5  C   UNL     1      -9.545 -37.125 -10.687  1.00  0.00     0.004 C 
ENDBRANCH   3   4
BRANCH   3   6
ATOM      6  C   UNL     1     -10.448 -33.626 -11.871  1.00  0.00    -0.014 C 
ATOM      7  C   UNL     1     -11.805 -34.258 -12.238  1.00  0.00     0.007 C 
ATOM      8  C   UNL     1      -9.737 -33.213 -13.177  1.00  0.00     0.007 C 
ENDBRANCH   3   6
ENDBRANCH   2   3
ENDBRANCH   1   2
BRANCH   1   9
ATOM      9  C   UNL     1     -10.064 -32.302  -8.031  1.00  0.00    -0.011 C 
ATOM     10  C   UNL     1     -10.425 -32.357  -6.530  1.00  0.00     0.008 C 
BRANCH   9  11
ATOM     11  C   UNL     1     -11.038 -31.441  -8.929  1.00  0.00    -0.002 C 
ATOM     12  C   UNL     1     -12.264 -30.918  -8.171  1.00  0.00     0.005 C 
ATOM     13  C   UNL     1     -10.442 -30.181  -9.684  1.00  0.00    -0.026 C 
ATOM     14  C   UNL     1     -12.017 -29.448  -7.907  1.00  0.00     0.005 C 
ATOM     15  C   UNL     1     -11.132 -28.926  -9.050  1.00  0.00    -0.001 C 
ATOM     16  C   UNL     1     -10.739 -30.292 -11.211  1.00  0.00     0.007 C 
ATOM     17  C   UNL     1      -8.901 -30.031  -9.556  1.00  0.00     0.012 C 
ATOM     18  C   UNL     1     -11.948 -28.040 -10.044  1.00  0.00     0.000 C 
ATOM     19  C   UNL     1     -12.209 -30.078 -11.602  1.00  0.00     0.005 C 
ATOM     20  C   UNL     1     -12.928 -28.877 -10.904  1.00  0.00     0.003 C 
ATOM     21  C   UNL     1     -11.041 -27.104 -10.895  1.00  0.00     0.031 C 
ATOM     22  C   UNL     1     -13.724 -27.955 -11.899  1.00  0.00    -0.008 C 
ATOM     23  C   UNL     1     -11.535 -26.812 -12.297  1.00  0.00    -0.027 C 
ATOM     24  C   UNL     1     -12.721 -27.232 -12.796  1.00  0.00    -0.065 C 
ATOM     25  C   UNL     1     -14.757 -28.806 -12.718  1.00  0.00     0.014 C 
ATOM     26  C   UNL     1     -14.529 -26.876 -11.121  1.00  0.00     0.016 C 
ATOM     27  C   UNL     1     -13.146 -26.739 -14.164  1.00  0.00     0.063 C 
ATOM     28  C   UNL     1     -15.234 -28.126 -14.006  1.00  0.00     0.033 C 
ATOM     29  C   UNL     1     -14.037 -27.751 -14.887  1.00  0.00     0.118 C 
BRANCH  29  30
ATOM     30  O   UNL     1     -14.488 -27.184 -16.089  1.00  0.00    -0.393 OA
ATOM     31  H   UNL     1     -14.043 -26.299 -16.173  1.00  0.00     0.210 HD
ENDBRANCH  29  30
ENDBRANCH   9  11
ENDBRANCH   1   9
TORSDOF 7
ENDMDL
MODEL 6
REMARK VINA RESULT:    -6.009      1.988      4.805
REMARK INTER + INTRA:         -10.198
REMARK INTER:                  -8.966
REMARK INTRA:                  -1.232
REMARK UNBOUND:                -1.905
REMARK SMILES CC[C@H](CC[C@H](C)[C@H]1CC[C@@H]2[C@H]3CC=C4C[C@H](O)CC[C@@]4(C)[C@H]3CC[C@@]21C)C(C)C
REMARK SMILES IDX 5 1 4 2 3 3 2 4 1 5 28 6 29 7 30 8 6 9 7 10 8 11 9 12 26 13
REMARK SMILES IDX 10 14 11 15 25 16 27 17 12 18 24 19 23 20 13 21 21 22 14 23
REMARK SMILES IDX 15 24 20 25 22 26 16 27 19 28 17 29 18 30
REMARK H PARENT 18 31
REMARK Flexibility Score: inf
ROOT
ATOM      1  C   UNL     1     -12.706 -36.078 -13.608  1.00  0.00     0.004 C 
ENDROOT
BRANCH   1   2
ATOM      2  C   UNL     1     -11.226 -35.654 -13.563  1.00  0.00     0.004 C 
BRANCH   2   3
ATOM      3  C   UNL     1     -10.604 -35.876 -12.143  1.00  0.00    -0.009 C 
BRANCH   3   4
ATOM      4  C   UNL     1      -9.323 -36.751 -12.247  1.00  0.00     0.000 C 
ATOM      5  C   UNL     1      -8.947 -37.082 -13.696  1.00  0.00     0.004 C 
ENDBRANCH   3   4
BRANCH   3   6
ATOM      6  C   UNL     1     -10.346 -34.505 -11.426  1.00  0.00    -0.014 C 
ATOM      7  C   UNL     1      -9.050 -34.493 -10.592  1.00  0.00     0.007 C 
ATOM      8  C   UNL     1     -11.522 -34.135 -10.499  1.00  0.00     0.007 C 
ENDBRANCH   3   6
ENDBRANCH   2   3
ENDBRANCH   1   2
BRANCH   1   9
ATOM      9  C   UNL     1     -13.705 -34.994 -14.097  1.00  0.00    -0.011 C 
ATOM     10  C   UNL     1     -13.941 -35.093 -15.620  1.00  0.00     0.008 C 
BRANCH   9  11
ATOM     11  C   UNL     1     -13.370 -33.547 -13.558  1.00  0.00    -0.002 C 
ATOM     12  C   UNL     1     -12.343 -32.799 -14.416  1.00  0.00     0.005 C 
ATOM     13  C   UNL     1     -14.566 -32.529 -13.351  1.00  0.00    -0.026 C 
ATOM     14  C   UNL     1     -13.114 -31.775 -15.222  1.00  0.00     0.005 C 
ATOM     15  C   UNL     1     -14.342 -31.376 -14.389  1.00  0.00    -0.001 C 
ATOM     16  C   UNL     1     -14.559 -31.996 -11.886  1.00  0.00     0.007 C 
ATOM     17  C   UNL     1     -15.975 -33.146 -13.577  1.00  0.00     0.012 C 
ATOM     18  C   UNL     1     -14.177 -29.950 -13.774  1.00  0.00     0.000 C 
ATOM     19  C   UNL     1     -13.416 -31.024 -11.557  1.00  0.00     0.005 C 
ATOM     20  C   UNL     1     -13.130 -29.924 -12.631  1.00  0.00     0.003 C 
ATOM     21  C   UNL     1     -15.536 -29.311 -13.368  1.00  0.00     0.031 C 
ATOM     22  C   UNL     1     -12.997 -28.476 -12.031  1.00  0.00    -0.008 C 
ATOM     23  C   UNL     1     -15.494 -28.394 -12.163  1.00  0.00    -0.027 C 
ATOM     24  C   UNL     1     -14.365 -28.043 -11.504  1.00  0.00    -0.065 C 
ATOM     25  C   UNL     1     -11.891 -28.451 -10.919  1.00  0.00     0.014 C 
ATOM     26  C   UNL     1     -12.570 -27.464 -13.130  1.00  0.00     0.016 C 
ATOM     27  C   UNL     1     -14.460 -27.001 -10.409  1.00  0.00     0.063 C 
ATOM     28  C   UNL     1     -12.001 -27.255  -9.966  1.00  0.00     0.033 C 
ATOM     29  C   UNL     1     -13.395 -27.204  -9.330  1.00  0.00     0.118 C 
BRANCH  29  30
ATOM     30  O   UNL     1     -13.464 -26.142  -8.416  1.00  0.00    -0.393 OA
ATOM     31  H   UNL     1     -13.035 -25.359  -8.853  1.00  0.00     0.210 HD
ENDBRANCH  29  30
ENDBRANCH   9  11
ENDBRANCH   1   9
TORSDOF 7
ENDMDL
MODEL 7
REMARK VINA RESULT:    -5.800      2.804      7.240
REMARK INTER + INTRA:          -9.909
REMARK INTER:                  -8.849
REMARK INTRA:                  -1.060
REMARK UNBOUND:                -1.905
REMARK SMILES CC[C@H](CC[C@H](C)[C@H]1CC[C@@H]2[C@H]3CC=C4C[C@H](O)CC[C@@]4(C)[C@H]3CC[C@@]21C)C(C)C
REMARK SMILES IDX 5 1 4 2 3 3 2 4 1 5 28 6 29 7 30 8 6 9 7 10 8 11 9 12 26 13
REMARK SMILES IDX 10 14 11 15 25 16 27 17 12 18 24 19 23 20 13 21 21 22 14 23
REMARK SMILES IDX 15 24 20 25 22 26 16 27 19 28 17 29 18 30
REMARK H PARENT 18 31
REMARK Flexibility Score: inf
ROOT
ATOM      1  C   UNL     1     -11.039 -27.035 -10.024  1.00  0.00     0.004 C 
ENDROOT
BRANCH   1   2
ATOM      2  C   UNL     1     -11.935 -27.017 -11.277  1.00  0.00     0.004 C 
BRANCH   2   3
ATOM      3  C   UNL     1     -13.354 -27.608 -10.981  1.00  0.00    -0.009 C 
BRANCH   3   4
ATOM      4  C   UNL     1     -14.115 -26.704  -9.970  1.00  0.00     0.000 C 
ATOM      5  C   UNL     1     -13.765 -27.021  -8.511  1.00  0.00     0.004 C 
ENDBRANCH   3   4
BRANCH   3   6
ATOM      6  C   UNL     1     -14.153 -27.835 -12.312  1.00  0.00    -0.014 C 
ATOM      7  C   UNL     1     -13.241 -28.039 -13.537  1.00  0.00     0.007 C 
ATOM      8  C   UNL     1     -15.095 -26.648 -12.602  1.00  0.00     0.007 C 
ENDBRANCH   3   6
ENDBRANCH   2   3
ENDBRANCH   1   2
BRANCH   1   9
ATOM      9  C   UNL     1     -10.812 -28.428  -9.375  1.00  0.00    -0.011 C 
ATOM     10  C   UNL     1      -9.614 -28.405  -8.400  1.00  0.00     0.008 C 
BRANCH   9  11
ATOM     11  C   UNL     1     -10.809 -29.611 -10.423  1.00  0.00    -0.002 C 
ATOM     12  C   UNL     1      -9.433 -29.865 -11.052  1.00  0.00     0.005 C 
ATOM     13  C   UNL     1     -11.323 -31.033  -9.948  1.00  0.00    -0.026 C 
ATOM     14  C   UNL     1      -8.879 -31.112 -10.395  1.00  0.00     0.005 C 
ATOM     15  C   UNL     1     -10.079 -31.985  -9.998  1.00  0.00    -0.001 C 
ATOM     16  C   UNL     1     -12.463 -31.524 -10.891  1.00  0.00     0.007 C 
ATOM     17  C   UNL     1     -11.916 -31.050  -8.512  1.00  0.00     0.012 C 
ATOM     18  C   UNL     1     -10.224 -33.220 -10.944  1.00  0.00     0.000 C 
ATOM     19  C   UNL     1     -12.007 -31.941 -12.297  1.00  0.00     0.005 C 
ATOM     20  C   UNL     1     -10.715 -32.819 -12.358  1.00  0.00     0.003 C 
ATOM     21  C   UNL     1     -11.066 -34.365 -10.310  1.00  0.00     0.031 C 
ATOM     22  C   UNL     1     -10.857 -34.087 -13.278  1.00  0.00    -0.008 C 
ATOM     23  C   UNL     1     -11.885 -35.189 -11.282  1.00  0.00    -0.027 C 
ATOM     24  C   UNL     1     -11.851 -35.047 -12.628  1.00  0.00    -0.065 C 
ATOM     25  C   UNL     1     -11.294 -33.660 -14.723  1.00  0.00     0.014 C 
ATOM     26  C   UNL     1      -9.497 -34.827 -13.406  1.00  0.00     0.016 C 
ATOM     27  C   UNL     1     -12.613 -36.042 -13.480  1.00  0.00     0.063 C 
ATOM     28  C   UNL     1     -11.906 -34.801 -15.545  1.00  0.00     0.033 C 
ATOM     29  C   UNL     1     -13.089 -35.425 -14.796  1.00  0.00     0.118 C 
BRANCH  29  30
ATOM     30  O   UNL     1     -13.678 -36.426 -15.582  1.00  0.00    -0.393 OA
ATOM     31  H   UNL     1     -14.602 -36.554 -15.238  1.00  0.00     0.210 HD
ENDBRANCH  29  30
ENDBRANCH   9  11
ENDBRANCH   1   9
TORSDOF 7
ENDMDL
