MODEL 1
REMARK VINA RESULT:    -9.414      0.000      0.000
REMARK INTER + INTRA:          -9.965
REMARK INTER:                  -9.965
REMARK INTRA:                   0.000
REMARK UNBOUND:                 0.000
REMARK SMILES C[C@@H]1CC[C@H]2[N@@H+](C1)C[C@@H]1[C@H]3C[C@@H]4[C@@H](CC(=O)[C@H]5C[C@@H](O)CC[C@@]54C)[C@@H]3CC[C@@H]1[C@@]2(C)O
REMARK SMILES IDX 5 1 6 2 8 3 7 4 4 5 29 6 3 7 28 8 30 9 2 10 27 11 9 12 1 13
REMARK SMILES IDX 26 14 10 15 25 16 11 17 13 18 12 19 14 20 23 21 15 22 17 23
REMARK SMILES IDX 22 24 24 25 16 26 18 27 21 28 19 29 31 31 20 33
REMARK H PARENT 6 30 31 32 20 34
REMARK Flexibility Score: inf
ROOT
ATOM      1  C   UNL     1      40.075 -21.953  -9.428  1.00  0.00     0.216 C 
ATOM      2  N   UNL     1      39.306 -23.185  -9.088  1.00  0.00    -0.330 N 
ATOM      3  C   UNL     1      38.566 -23.176  -7.788  1.00  0.00     0.266 C 
ATOM      4  C   UNL     1      40.053 -24.445  -9.351  1.00  0.00     0.265 C 
ATOM      5  C   UNL     1      41.503 -21.950  -8.818  1.00  0.00     0.069 C 
ATOM      6  C   UNL     1      39.253 -20.663  -9.094  1.00  0.00     0.117 C 
ATOM      7  C   UNL     1      42.267 -23.219  -9.180  1.00  0.00     0.015 C 
ATOM      8  C   UNL     1      38.985 -20.579  -7.547  1.00  0.00     0.036 C 
ATOM      9  C   UNL     1      37.933 -20.672  -9.905  1.00  0.00     0.049 C 
ATOM     10  C   UNL     1      41.492 -24.484  -8.792  1.00  0.00     0.041 C 
ATOM     11  C   UNL     1      37.839 -19.589  -7.172  1.00  0.00     0.007 C 
ATOM     12  C   UNL     1      38.856 -21.980  -6.844  1.00  0.00     0.054 C 
ATOM     13  C   UNL     1      41.555 -24.782  -7.288  1.00  0.00     0.013 C 
ATOM     14  C   UNL     1      37.674 -19.404  -5.646  1.00  0.00     0.004 C 
ATOM     15  C   UNL     1      37.822 -21.926  -5.688  1.00  0.00     0.002 C 
ATOM     16  C   UNL     1      38.045 -20.678  -4.855  1.00  0.00    -0.004 C 
ATOM     17  C   UNL     1      37.905 -23.043  -4.662  1.00  0.00     0.009 C 
ATOM     18  C   UNL     1      37.250 -20.924  -3.563  1.00  0.00     0.003 C 
ATOM     19  C   UNL     1      37.184 -22.481  -3.412  1.00  0.00    -0.000 C 
ATOM     20  C   UNL     1      37.845 -20.118  -2.378  1.00  0.00     0.080 C 
ATOM     21  C   UNL     1      37.687 -23.045  -2.034  1.00  0.00    -0.020 C 
ATOM     22  C   UNL     1      38.895 -20.852  -1.587  1.00  0.00     0.136 C 
ATOM     23  C   UNL     1      39.039 -22.358  -1.662  1.00  0.00     0.065 C 
ATOM     24  C   UNL     1      37.906 -24.591  -2.108  1.00  0.00     0.010 C 
ATOM     25  C   UNL     1      36.573 -22.777  -0.974  1.00  0.00     0.012 C 
ATOM     26  O   UNL     1      39.667 -20.200  -0.899  1.00  0.00    -0.299 OA
ATOM     27  C   UNL     1      39.663 -22.946  -0.374  1.00  0.00     0.043 C 
ATOM     28  C   UNL     1      38.523 -25.167  -0.823  1.00  0.00     0.032 C 
ATOM     29  C   UNL     1      39.848 -24.467  -0.481  1.00  0.00     0.115 C 
ATOM     30  H   UNL     1      38.549 -23.228  -9.814  1.00  0.00     0.348 HD
ENDROOT
BRANCH   6  31
ATOM     31  O   UNL     1      39.958 -19.522  -9.539  1.00  0.00    -0.384 OA
ATOM     32  H   UNL     1      40.156 -18.929  -8.771  1.00  0.00     0.211 HD
ENDBRANCH   6  31
BRANCH  29  33
ATOM     33  O   UNL     1      40.344 -24.953   0.738  1.00  0.00    -0.393 OA
ATOM     34  H   UNL     1      40.963 -25.699   0.521  1.00  0.00     0.210 HD
ENDBRANCH  29  33
TORSDOF 2
ENDMDL
MODEL 2
REMARK VINA RESULT:    -8.548     16.060     17.670
REMARK INTER + INTRA:          -9.048
REMARK INTER:                  -9.048
REMARK INTRA:                   0.000
REMARK UNBOUND:                 0.000
REMARK SMILES C[C@@H]1CC[C@H]2[N@@H+](C1)C[C@@H]1[C@H]3C[C@@H]4[C@@H](CC(=O)[C@H]5C[C@@H](O)CC[C@@]54C)[C@@H]3CC[C@@H]1[C@@]2(C)O
REMARK SMILES IDX 5 1 6 2 8 3 7 4 4 5 29 6 3 7 28 8 30 9 2 10 27 11 9 12 1 13
REMARK SMILES IDX 26 14 10 15 25 16 11 17 13 18 12 19 14 20 23 21 15 22 17 23
REMARK SMILES IDX 22 24 24 25 16 26 18 27 21 28 19 29 31 31 20 33
REMARK H PARENT 6 30 31 32 20 34
REMARK Flexibility Score: inf
ROOT
ATOM      1  C   UNL     1      53.744 -34.290  -8.226  1.00  0.00     0.216 C 
ATOM      2  N   UNL     1      52.379 -34.266  -7.625  1.00  0.00    -0.330 N 
ATOM      3  C   UNL     1      52.111 -33.197  -6.613  1.00  0.00     0.266 C 
ATOM      4  C   UNL     1      51.878 -35.611  -7.232  1.00  0.00     0.265 C 
ATOM      5  C   UNL     1      54.762 -35.091  -7.371  1.00  0.00     0.069 C 
ATOM      6  C   UNL     1      54.230 -32.846  -8.582  1.00  0.00     0.117 C 
ATOM      7  C   UNL     1      54.249 -36.494  -7.061  1.00  0.00     0.015 C 
ATOM      8  C   UNL     1      54.362 -31.982  -7.274  1.00  0.00     0.036 C 
ATOM      9  C   UNL     1      53.246 -32.207  -9.594  1.00  0.00     0.049 C 
ATOM     10  C   UNL     1      52.864 -36.464  -6.405  1.00  0.00     0.041 C 
ATOM     11  C   UNL     1      54.421 -30.448  -7.550  1.00  0.00     0.007 C 
ATOM     12  C   UNL     1      53.340 -32.375  -6.145  1.00  0.00     0.054 C 
ATOM     13  C   UNL     1      52.916 -36.071  -4.923  1.00  0.00     0.013 C 
ATOM     14  C   UNL     1      54.692 -29.614  -6.277  1.00  0.00     0.004 C 
ATOM     15  C   UNL     1      52.894 -31.124  -5.343  1.00  0.00     0.002 C 
ATOM     16  C   UNL     1      54.101 -30.268  -5.009  1.00  0.00    -0.004 C 
ATOM     17  C   UNL     1      52.272 -31.387  -3.982  1.00  0.00     0.009 C 
ATOM     18  C   UNL     1      53.606 -29.302  -3.920  1.00  0.00     0.003 C 
ATOM     19  C   UNL     1      52.422 -30.049  -3.218  1.00  0.00    -0.000 C 
ATOM     20  C   UNL     1      54.777 -28.821  -3.024  1.00  0.00     0.080 C 
ATOM     21  C   UNL     1      52.540 -30.175  -1.656  1.00  0.00    -0.020 C 
ATOM     22  C   UNL     1      55.029 -29.678  -1.812  1.00  0.00     0.136 C 
ATOM     23  C   UNL     1      53.984 -30.640  -1.287  1.00  0.00     0.065 C 
ATOM     24  C   UNL     1      51.513 -31.213  -1.099  1.00  0.00     0.010 C 
ATOM     25  C   UNL     1      52.187 -28.785  -1.037  1.00  0.00     0.012 C 
ATOM     26  O   UNL     1      56.122 -29.610  -1.268  1.00  0.00    -0.299 OA
ATOM     27  C   UNL     1      54.147 -30.905   0.230  1.00  0.00     0.043 C 
ATOM     28  C   UNL     1      51.681 -31.467   0.409  1.00  0.00     0.032 C 
ATOM     29  C   UNL     1      53.112 -31.918   0.739  1.00  0.00     0.115 C 
ATOM     30  H   UNL     1      51.745 -34.026  -8.427  1.00  0.00     0.348 HD
ENDROOT
BRANCH   6  31
ATOM     31  O   UNL     1      55.469 -32.914  -9.259  1.00  0.00    -0.384 OA
ATOM     32  H   UNL     1      55.436 -33.626  -9.947  1.00  0.00     0.211 HD
ENDBRANCH   6  31
BRANCH  29  33
ATOM     33  O   UNL     1      53.259 -32.061   2.128  1.00  0.00    -0.393 OA
ATOM     34  H   UNL     1      52.785 -31.296   2.548  1.00  0.00     0.210 HD
ENDBRANCH  29  33
TORSDOF 2
ENDMDL
MODEL 3
REMARK VINA RESULT:    -8.506      2.202      7.923
REMARK INTER + INTRA:          -9.003
REMARK INTER:                  -9.003
REMARK INTRA:                   0.000
REMARK UNBOUND:                 0.000
REMARK SMILES C[C@@H]1CC[C@H]2[N@@H+](C1)C[C@@H]1[C@H]3C[C@@H]4[C@@H](CC(=O)[C@H]5C[C@@H](O)CC[C@@]54C)[C@@H]3CC[C@@H]1[C@@]2(C)O
REMARK SMILES IDX 5 1 6 2 8 3 7 4 4 5 29 6 3 7 28 8 30 9 2 10 27 11 9 12 1 13
REMARK SMILES IDX 26 14 10 15 25 16 11 17 13 18 12 19 14 20 23 21 15 22 17 23
REMARK SMILES IDX 22 24 24 25 16 26 18 27 21 28 19 29 31 31 20 33
REMARK H PARENT 6 30 31 32 20 34
REMARK Flexibility Score: inf
ROOT
ATOM      1  C   UNL     1      38.218 -22.630  -0.450  1.00  0.00     0.216 C 
ATOM      2  N   UNL     1      37.074 -22.018  -1.185  1.00  0.00    -0.330 N 
ATOM      3  C   UNL     1      36.996 -22.296  -2.654  1.00  0.00     0.266 C 
ATOM      4  C   UNL     1      36.827 -20.595  -0.824  1.00  0.00     0.265 C 
ATOM      5  C   UNL     1      39.502 -21.759  -0.503  1.00  0.00     0.069 C 
ATOM      6  C   UNL     1      38.452 -24.111  -0.900  1.00  0.00     0.117 C 
ATOM      7  C   UNL     1      39.226 -20.331  -0.045  1.00  0.00     0.015 C 
ATOM      8  C   UNL     1      38.856 -24.157  -2.419  1.00  0.00     0.036 C 
ATOM      9  C   UNL     1      37.172 -24.940  -0.622  1.00  0.00     0.049 C 
ATOM     10  C   UNL     1      38.077 -19.690  -0.831  1.00  0.00     0.041 C 
ATOM     11  C   UNL     1      38.695 -25.570  -3.059  1.00  0.00     0.007 C 
ATOM     12  C   UNL     1      38.224 -23.004  -3.282  1.00  0.00     0.054 C 
ATOM     13  C   UNL     1      38.496 -19.240  -2.237  1.00  0.00     0.013 C 
ATOM     14  C   UNL     1      39.225 -25.642  -4.509  1.00  0.00     0.004 C 
ATOM     15  C   UNL     1      37.901 -23.501  -4.717  1.00  0.00     0.002 C 
ATOM     16  C   UNL     1      39.068 -24.301  -5.260  1.00  0.00    -0.004 C 
ATOM     17  C   UNL     1      37.703 -22.424  -5.770  1.00  0.00     0.009 C 
ATOM     18  C   UNL     1      38.804 -24.403  -6.770  1.00  0.00     0.003 C 
ATOM     19  C   UNL     1      37.933 -23.148  -7.118  1.00  0.00    -0.000 C 
ATOM     20  C   UNL     1      40.126 -24.592  -7.560  1.00  0.00     0.080 C 
ATOM     21  C   UNL     1      38.485 -22.248  -8.282  1.00  0.00    -0.020 C 
ATOM     22  C   UNL     1      40.779 -23.311  -8.003  1.00  0.00     0.136 C 
ATOM     23  C   UNL     1      40.012 -22.006  -8.061  1.00  0.00     0.065 C 
ATOM     24  C   UNL     1      37.752 -20.868  -8.319  1.00  0.00     0.010 C 
ATOM     25  C   UNL     1      38.188 -22.976  -9.631  1.00  0.00     0.012 C 
ATOM     26  O   UNL     1      41.968 -23.331  -8.287  1.00  0.00    -0.299 OA
ATOM     27  C   UNL     1      40.609 -21.027  -9.101  1.00  0.00     0.043 C 
ATOM     28  C   UNL     1      38.349 -19.904  -9.357  1.00  0.00     0.032 C 
ATOM     29  C   UNL     1      39.852 -19.690  -9.115  1.00  0.00     0.115 C 
ATOM     30  H   UNL     1      36.225 -22.492  -0.789  1.00  0.00     0.348 HD
ENDROOT
BRANCH   6  31
ATOM     31  O   UNL     1      39.458 -24.698  -0.100  1.00  0.00    -0.384 OA
ATOM     32  H   UNL     1      39.407 -25.685  -0.167  1.00  0.00     0.211 HD
ENDBRANCH   6  31
BRANCH  29  33
ATOM     33  O   UNL     1      40.387 -18.875 -10.125  1.00  0.00    -0.393 OA
ATOM     34  H   UNL     1      41.314 -18.649  -9.851  1.00  0.00     0.210 HD
ENDBRANCH  29  33
TORSDOF 2
ENDMDL
MODEL 4
REMARK VINA RESULT:    -8.502     15.691     18.860
REMARK INTER + INTRA:          -8.999
REMARK INTER:                  -8.999
REMARK INTRA:                   0.000
REMARK UNBOUND:                 0.000
REMARK SMILES C[C@@H]1CC[C@H]2[N@@H+](C1)C[C@@H]1[C@H]3C[C@@H]4[C@@H](CC(=O)[C@H]5C[C@@H](O)CC[C@@]54C)[C@@H]3CC[C@@H]1[C@@]2(C)O
REMARK SMILES IDX 5 1 6 2 8 3 7 4 4 5 29 6 3 7 28 8 30 9 2 10 27 11 9 12 1 13
REMARK SMILES IDX 26 14 10 15 25 16 11 17 13 18 12 19 14 20 23 21 15 22 17 23
REMARK SMILES IDX 22 24 24 25 16 26 18 27 21 28 19 29 31 31 20 33
REMARK H PARENT 6 30 31 32 20 34
REMARK Flexibility Score: inf
ROOT
ATOM      1  C   UNL     1      53.188 -30.598   0.761  1.00  0.00     0.216 C 
ATOM      2  N   UNL     1      54.505 -31.178   0.370  1.00  0.00    -0.330 N 
ATOM      3  C   UNL     1      54.738 -31.387  -1.093  1.00  0.00     0.266 C 
ATOM      4  C   UNL     1      54.925 -32.326   1.220  1.00  0.00     0.265 C 
ATOM      5  C   UNL     1      52.080 -31.674   0.919  1.00  0.00     0.069 C 
ATOM      6  C   UNL     1      52.783 -29.423  -0.191  1.00  0.00     0.117 C 
ATOM      7  C   UNL     1      52.516 -32.789   1.863  1.00  0.00     0.015 C 
ATOM      8  C   UNL     1      52.588 -29.959  -1.657  1.00  0.00     0.036 C 
ATOM      9  C   UNL     1      53.862 -28.314  -0.125  1.00  0.00     0.049 C 
ATOM     10  C   UNL     1      53.850 -33.412   1.436  1.00  0.00     0.041 C 
ATOM     11  C   UNL     1      52.607 -28.831  -2.734  1.00  0.00     0.007 C 
ATOM     12  C   UNL     1      53.509 -31.181  -2.017  1.00  0.00     0.054 C 
ATOM     13  C   UNL     1      53.705 -34.371   0.247  1.00  0.00     0.013 C 
ATOM     14  C   UNL     1      52.275 -29.344  -4.155  1.00  0.00     0.004 C 
ATOM     15  C   UNL     1      53.942 -31.129  -3.507  1.00  0.00     0.002 C 
ATOM     16  C   UNL     1      52.747 -30.798  -4.379  1.00  0.00    -0.004 C 
ATOM     17  C   UNL     1      54.453 -32.430  -4.102  1.00  0.00     0.009 C 
ATOM     18  C   UNL     1      53.196 -31.147  -5.807  1.00  0.00     0.003 C 
ATOM     19  C   UNL     1      54.297 -32.247  -5.632  1.00  0.00    -0.000 C 
ATOM     20  C   UNL     1      51.982 -31.491  -6.708  1.00  0.00     0.080 C 
ATOM     21  C   UNL     1      54.061 -33.569  -6.448  1.00  0.00    -0.020 C 
ATOM     22  C   UNL     1      51.610 -32.950  -6.726  1.00  0.00     0.136 C 
ATOM     23  C   UNL     1      52.577 -34.022  -6.270  1.00  0.00     0.065 C 
ATOM     24  C   UNL     1      55.004 -34.711  -5.949  1.00  0.00     0.010 C 
ATOM     25  C   UNL     1      54.419 -33.280  -7.940  1.00  0.00     0.012 C 
ATOM     26  O   UNL     1      50.483 -33.259  -7.086  1.00  0.00    -0.299 OA
ATOM     27  C   UNL     1      52.294 -35.386  -6.946  1.00  0.00     0.043 C 
ATOM     28  C   UNL     1      54.718 -36.061  -6.628  1.00  0.00     0.032 C 
ATOM     29  C   UNL     1      53.250 -36.476  -6.440  1.00  0.00     0.115 C 
ATOM     30  H   UNL     1      55.204 -30.443   0.639  1.00  0.00     0.348 HD
ENDROOT
BRANCH   6  31
ATOM     31  O   UNL     1      51.595 -28.818   0.279  1.00  0.00    -0.384 OA
ATOM     32  H   UNL     1      51.228 -28.216  -0.417  1.00  0.00     0.211 HD
ENDBRANCH   6  31
BRANCH  29  33
ATOM     33  O   UNL     1      52.997 -37.666  -7.140  1.00  0.00    -0.393 OA
ATOM     34  H   UNL     1      53.718 -38.302  -6.896  1.00  0.00     0.210 HD
ENDBRANCH  29  33
TORSDOF 2
ENDMDL
MODEL 5
REMARK VINA RESULT:    -8.252     15.692     18.640
REMARK INTER + INTRA:          -8.734
REMARK INTER:                  -8.734
REMARK INTRA:                   0.000
REMARK UNBOUND:                 0.000
REMARK SMILES C[C@@H]1CC[C@H]2[N@@H+](C1)C[C@@H]1[C@H]3C[C@@H]4[C@@H](CC(=O)[C@H]5C[C@@H](O)CC[C@@]54C)[C@@H]3CC[C@@H]1[C@@]2(C)O
REMARK SMILES IDX 5 1 6 2 8 3 7 4 4 5 29 6 3 7 28 8 30 9 2 10 27 11 9 12 1 13
REMARK SMILES IDX 26 14 10 15 25 16 11 17 13 18 12 19 14 20 23 21 15 22 17 23
REMARK SMILES IDX 22 24 24 25 16 26 18 27 21 28 19 29 31 31 20 33
REMARK H PARENT 6 30 31 32 20 34
REMARK Flexibility Score: inf
ROOT
ATOM      1  C   UNL     1      52.501 -34.891  -7.242  1.00  0.00     0.216 C 
ATOM      2  N   UNL     1      53.426 -33.734  -7.406  1.00  0.00    -0.330 N 
ATOM      3  C   UNL     1      54.121 -33.251  -6.172  1.00  0.00     0.266 C 
ATOM      4  C   UNL     1      52.872 -32.644  -8.255  1.00  0.00     0.265 C 
ATOM      5  C   UNL     1      51.070 -34.461  -6.819  1.00  0.00     0.069 C 
ATOM      6  C   UNL     1      53.122 -35.985  -6.310  1.00  0.00     0.117 C 
ATOM      7  C   UNL     1      50.504 -33.405  -7.762  1.00  0.00     0.015 C 
ATOM      8  C   UNL     1      53.333 -35.406  -4.863  1.00  0.00     0.036 C 
ATOM      9  C   UNL     1      54.453 -36.487  -6.925  1.00  0.00     0.049 C 
ATOM     10  C   UNL     1      51.438 -32.198  -7.897  1.00  0.00     0.041 C 
ATOM     11  C   UNL     1      54.316 -36.251  -3.997  1.00  0.00     0.007 C 
ATOM     12  C   UNL     1      53.639 -33.864  -4.831  1.00  0.00     0.054 C 
ATOM     13  C   UNL     1      51.377 -31.259  -6.684  1.00  0.00     0.013 C 
ATOM     14  C   UNL     1      54.411 -35.759  -2.534  1.00  0.00     0.004 C 
ATOM     15  C   UNL     1      54.622 -33.518  -3.681  1.00  0.00     0.002 C 
ATOM     16  C   UNL     1      54.202 -34.233  -2.412  1.00  0.00    -0.004 C 
ATOM     17  C   UNL     1      54.669 -32.061  -3.255  1.00  0.00     0.009 C 
ATOM     18  C   UNL     1      54.986 -33.534  -1.291  1.00  0.00     0.003 C 
ATOM     19  C   UNL     1      55.268 -32.090  -1.828  1.00  0.00    -0.000 C 
ATOM     20  C   UNL     1      54.251 -33.657   0.069  1.00  0.00     0.080 C 
ATOM     21  C   UNL     1      54.812 -30.921  -0.882  1.00  0.00    -0.020 C 
ATOM     22  C   UNL     1      53.293 -32.535   0.367  1.00  0.00     0.136 C 
ATOM     23  C   UNL     1      53.366 -31.213  -0.368  1.00  0.00     0.065 C 
ATOM     24  C   UNL     1      54.815 -29.554  -1.639  1.00  0.00     0.010 C 
ATOM     25  C   UNL     1      55.846 -30.817   0.283  1.00  0.00     0.012 C 
ATOM     26  O   UNL     1      52.418 -32.722   1.200  1.00  0.00    -0.299 OA
ATOM     27  C   UNL     1      52.795 -30.047   0.476  1.00  0.00     0.043 C 
ATOM     28  C   UNL     1      54.250 -28.401  -0.792  1.00  0.00     0.032 C 
ATOM     29  C   UNL     1      52.830 -28.721  -0.298  1.00  0.00     0.115 C 
ATOM     30  H   UNL     1      54.202 -34.104  -8.009  1.00  0.00     0.348 HD
ENDROOT
BRANCH   6  31
ATOM     31  O   UNL     1      52.276 -37.116  -6.275  1.00  0.00    -0.384 OA
ATOM     32  H   UNL     1      51.595 -37.048  -6.990  1.00  0.00     0.211 HD
ENDBRANCH   6  31
BRANCH  29  33
ATOM     33  O   UNL     1      52.374 -27.692   0.541  1.00  0.00    -0.393 OA
ATOM     34  H   UNL     1      52.223 -28.094   1.435  1.00  0.00     0.210 HD
ENDBRANCH  29  33
TORSDOF 2
ENDMDL
MODEL 6
REMARK VINA RESULT:    -8.229     14.538     17.731
REMARK INTER + INTRA:          -8.710
REMARK INTER:                  -8.710
REMARK INTRA:                   0.000
REMARK UNBOUND:                 0.000
REMARK SMILES C[C@@H]1CC[C@H]2[N@@H+](C1)C[C@@H]1[C@H]3C[C@@H]4[C@@H](CC(=O)[C@H]5C[C@@H](O)CC[C@@]54C)[C@@H]3CC[C@@H]1[C@@]2(C)O
REMARK SMILES IDX 5 1 6 2 8 3 7 4 4 5 29 6 3 7 28 8 30 9 2 10 27 11 9 12 1 13
REMARK SMILES IDX 26 14 10 15 25 16 11 17 13 18 12 19 14 20 23 21 15 22 17 23
REMARK SMILES IDX 22 24 24 25 16 26 18 27 21 28 19 29 31 31 20 33
REMARK H PARENT 6 30 31 32 20 34
REMARK Flexibility Score: inf
ROOT
ATOM      1  C   UNL     1      49.816 -25.857   5.170  1.00  0.00     0.216 C 
ATOM      2  N   UNL     1      51.160 -26.245   5.687  1.00  0.00    -0.330 N 
ATOM      3  C   UNL     1      52.085 -26.909   4.717  1.00  0.00     0.266 C 
ATOM      4  C   UNL     1      51.118 -26.895   7.026  1.00  0.00     0.265 C 
ATOM      5  C   UNL     1      48.785 -27.015   5.250  1.00  0.00     0.069 C 
ATOM      6  C   UNL     1      49.922 -25.215   3.746  1.00  0.00     0.117 C 
ATOM      7  C   UNL     1      48.709 -27.598   6.658  1.00  0.00     0.015 C 
ATOM      8  C   UNL     1      50.480 -26.268   2.720  1.00  0.00     0.036 C 
ATOM      9  C   UNL     1      50.818 -23.954   3.817  1.00  0.00     0.049 C 
ATOM     10  C   UNL     1      50.086 -28.034   7.171  1.00  0.00     0.041 C 
ATOM     11  C   UNL     1      51.016 -25.624   1.404  1.00  0.00     0.007 C 
ATOM     12  C   UNL     1      51.470 -27.313   3.352  1.00  0.00     0.054 C 
ATOM     13  C   UNL     1      50.555 -29.362   6.562  1.00  0.00     0.013 C 
ATOM     14  C   UNL     1      51.432 -26.669   0.344  1.00  0.00     0.004 C 
ATOM     15  C   UNL     1      52.580 -27.706   2.342  1.00  0.00     0.002 C 
ATOM     16  C   UNL     1      51.967 -27.971   0.980  1.00  0.00    -0.004 C 
ATOM     17  C   UNL     1      53.330 -28.994   2.637  1.00  0.00     0.009 C 
ATOM     18  C   UNL     1      53.065 -28.704   0.193  1.00  0.00     0.003 C 
ATOM     19  C   UNL     1      53.947 -29.408   1.278  1.00  0.00    -0.000 C 
ATOM     20  C   UNL     1      52.456 -29.598  -0.919  1.00  0.00     0.080 C 
ATOM     21  C   UNL     1      54.156 -30.952   1.076  1.00  0.00    -0.020 C 
ATOM     22  C   UNL     1      52.154 -31.009  -0.492  1.00  0.00     0.136 C 
ATOM     23  C   UNL     1      52.781 -31.616   0.746  1.00  0.00     0.065 C 
ATOM     24  C   UNL     1      54.741 -31.612   2.366  1.00  0.00     0.010 C 
ATOM     25  C   UNL     1      55.200 -31.147  -0.068  1.00  0.00     0.012 C 
ATOM     26  O   UNL     1      51.354 -31.659  -1.150  1.00  0.00    -0.299 OA
ATOM     27  C   UNL     1      52.881 -33.158   0.650  1.00  0.00     0.043 C 
ATOM     28  C   UNL     1      54.840 -33.143   2.261  1.00  0.00     0.032 C 
ATOM     29  C   UNL     1      53.474 -33.765   1.931  1.00  0.00     0.115 C 
ATOM     30  H   UNL     1      51.629 -25.332   5.906  1.00  0.00     0.348 HD
ENDROOT
BRANCH   6  31
ATOM     31  O   UNL     1      48.651 -24.749   3.339  1.00  0.00    -0.384 OA
ATOM     32  H   UNL     1      48.641 -23.759   3.339  1.00  0.00     0.211 HD
ENDBRANCH   6  31
BRANCH  29  33
ATOM     33  O   UNL     1      53.609 -35.151   1.757  1.00  0.00    -0.393 OA
ATOM     34  H   UNL     1      54.369 -35.290   1.134  1.00  0.00     0.210 HD
ENDBRANCH  29  33
TORSDOF 2
ENDMDL
MODEL 7
REMARK VINA RESULT:    -8.149     14.371     17.992
REMARK INTER + INTRA:          -8.626
REMARK INTER:                  -8.626
REMARK INTRA:                   0.000
REMARK UNBOUND:                 0.000
REMARK SMILES C[C@@H]1CC[C@H]2[N@@H+](C1)C[C@@H]1[C@H]3C[C@@H]4[C@@H](CC(=O)[C@H]5C[C@@H](O)CC[C@@]54C)[C@@H]3CC[C@@H]1[C@@]2(C)O
REMARK SMILES IDX 5 1 6 2 8 3 7 4 4 5 29 6 3 7 28 8 30 9 2 10 27 11 9 12 1 13
REMARK SMILES IDX 26 14 10 15 25 16 11 17 13 18 12 19 14 20 23 21 15 22 17 23
REMARK SMILES IDX 22 24 24 25 16 26 18 27 21 28 19 29 31 31 20 33
REMARK H PARENT 6 30 31 32 20 34
REMARK Flexibility Score: inf
ROOT
ATOM      1  C   UNL     1      50.347 -25.357   5.438  1.00  0.00     0.216 C 
ATOM      2  N   UNL     1      49.417 -25.827   4.372  1.00  0.00    -0.330 N 
ATOM      3  C   UNL     1      49.757 -27.125   3.709  1.00  0.00     0.266 C 
ATOM      4  C   UNL     1      49.004 -24.754   3.426  1.00  0.00     0.265 C 
ATOM      5  C   UNL     1      51.548 -24.552   4.875  1.00  0.00     0.069 C 
ATOM      6  C   UNL     1      50.774 -26.536   6.376  1.00  0.00     0.117 C 
ATOM      7  C   UNL     1      51.082 -23.409   3.979  1.00  0.00     0.015 C 
ATOM      8  C   UNL     1      51.579 -27.612   5.559  1.00  0.00     0.036 C 
ATOM      9  C   UNL     1      49.513 -27.146   7.039  1.00  0.00     0.049 C 
ATOM     10  C   UNL     1      50.159 -23.901   2.858  1.00  0.00     0.041 C 
ATOM     11  C   UNL     1      51.674 -28.992   6.280  1.00  0.00     0.007 C 
ATOM     12  C   UNL     1      51.146 -27.724   4.051  1.00  0.00     0.054 C 
ATOM     13  C   UNL     1      50.921 -24.588   1.717  1.00  0.00     0.013 C 
ATOM     14  C   UNL     1      52.583 -30.001   5.541  1.00  0.00     0.004 C 
ATOM     15  C   UNL     1      51.253 -29.190   3.552  1.00  0.00     0.002 C 
ATOM     16  C   UNL     1      52.565 -29.795   4.010  1.00  0.00    -0.004 C 
ATOM     17  C   UNL     1      51.293 -29.383   2.046  1.00  0.00     0.009 C 
ATOM     18  C   UNL     1      52.729 -31.064   3.159  1.00  0.00     0.003 C 
ATOM     19  C   UNL     1      51.920 -30.785   1.848  1.00  0.00    -0.000 C 
ATOM     20  C   UNL     1      54.224 -31.448   3.005  1.00  0.00     0.080 C 
ATOM     21  C   UNL     1      52.720 -30.982   0.510  1.00  0.00    -0.020 C 
ATOM     22  C   UNL     1      54.904 -30.845   1.806  1.00  0.00     0.136 C 
ATOM     23  C   UNL     1      54.113 -30.289   0.640  1.00  0.00     0.065 C 
ATOM     24  C   UNL     1      51.952 -30.357  -0.699  1.00  0.00     0.010 C 
ATOM     25  C   UNL     1      52.842 -32.517   0.248  1.00  0.00     0.012 C 
ATOM     26  O   UNL     1      56.125 -30.776   1.801  1.00  0.00    -0.299 OA
ATOM     27  C   UNL     1      54.918 -30.335  -0.682  1.00  0.00     0.043 C 
ATOM     28  C   UNL     1      52.758 -30.409  -2.009  1.00  0.00     0.032 C 
ATOM     29  C   UNL     1      54.124 -29.725  -1.847  1.00  0.00     0.115 C 
ATOM     30  H   UNL     1      48.518 -26.025   4.878  1.00  0.00     0.348 HD
ENDROOT
BRANCH   6  31
ATOM     31  O   UNL     1      51.553 -26.036   7.443  1.00  0.00    -0.384 OA
ATOM     32  H   UNL     1      51.880 -26.787   8.000  1.00  0.00     0.211 HD
ENDBRANCH   6  31
BRANCH  29  33
ATOM     33  O   UNL     1      54.869 -29.862  -3.028  1.00  0.00    -0.393 OA
ATOM     34  H   UNL     1      54.617 -30.734  -3.429  1.00  0.00     0.210 HD
ENDBRANCH  29  33
TORSDOF 2
ENDMDL
MODEL 8
REMARK VINA RESULT:    -8.030     15.561     18.428
REMARK INTER + INTRA:          -8.500
REMARK INTER:                  -8.500
REMARK INTRA:                   0.000
REMARK UNBOUND:                 0.000
REMARK SMILES C[C@@H]1CC[C@H]2[N@@H+](C1)C[C@@H]1[C@H]3C[C@@H]4[C@@H](CC(=O)[C@H]5C[C@@H](O)CC[C@@]54C)[C@@H]3CC[C@@H]1[C@@]2(C)O
REMARK SMILES IDX 5 1 6 2 8 3 7 4 4 5 29 6 3 7 28 8 30 9 2 10 27 11 9 12 1 13
REMARK SMILES IDX 26 14 10 15 25 16 11 17 13 18 12 19 14 20 23 21 15 22 17 23
REMARK SMILES IDX 22 24 24 25 16 26 18 27 21 28 19 29 31 31 20 33
REMARK H PARENT 6 30 31 32 20 34
REMARK Flexibility Score: inf
ROOT
ATOM      1  C   UNL     1      53.958 -28.364  -2.336  1.00  0.00     0.216 C 
ATOM      2  N   UNL     1      54.529 -29.629  -1.791  1.00  0.00    -0.330 N 
ATOM      3  C   UNL     1      54.707 -30.756  -2.759  1.00  0.00     0.266 C 
ATOM      4  C   UNL     1      53.936 -30.038  -0.489  1.00  0.00     0.265 C 
ATOM      5  C   UNL     1      52.406 -28.363  -2.350  1.00  0.00     0.069 C 
ATOM      6  C   UNL     1      54.594 -28.008  -3.722  1.00  0.00     0.117 C 
ATOM      7  C   UNL     1      51.836 -28.703  -0.977  1.00  0.00     0.015 C 
ATOM      8  C   UNL     1      54.241 -29.118  -4.778  1.00  0.00     0.036 C 
ATOM      9  C   UNL     1      56.125 -27.840  -3.557  1.00  0.00     0.049 C 
ATOM     10  C   UNL     1      52.393 -30.025  -0.437  1.00  0.00     0.041 C 
ATOM     11  C   UNL     1      55.157 -29.083  -6.041  1.00  0.00     0.007 C 
ATOM     12  C   UNL     1      54.080 -30.557  -4.164  1.00  0.00     0.054 C 
ATOM     13  C   UNL     1      51.750 -31.254  -1.094  1.00  0.00     0.013 C 
ATOM     14  C   UNL     1      54.718 -30.082  -7.136  1.00  0.00     0.004 C 
ATOM     15  C   UNL     1      54.585 -31.641  -5.152  1.00  0.00     0.002 C 
ATOM     16  C   UNL     1      54.063 -31.351  -6.546  1.00  0.00    -0.004 C 
ATOM     17  C   UNL     1      54.104 -33.059  -4.895  1.00  0.00     0.009 C 
ATOM     18  C   UNL     1      54.292 -32.652  -7.330  1.00  0.00     0.003 C 
ATOM     19  C   UNL     1      54.286 -33.787  -6.249  1.00  0.00    -0.000 C 
ATOM     20  C   UNL     1      53.289 -32.784  -8.505  1.00  0.00     0.080 C 
ATOM     21  C   UNL     1      53.285 -34.967  -6.520  1.00  0.00    -0.020 C 
ATOM     22  C   UNL     1      52.010 -33.499  -8.159  1.00  0.00     0.136 C 
ATOM     23  C   UNL     1      51.899 -34.379  -6.931  1.00  0.00     0.065 C 
ATOM     24  C   UNL     1      53.104 -35.851  -5.244  1.00  0.00     0.010 C 
ATOM     25  C   UNL     1      53.902 -35.870  -7.635  1.00  0.00     0.012 C 
ATOM     26  O   UNL     1      51.035 -33.329  -8.877  1.00  0.00    -0.299 OA
ATOM     27  C   UNL     1      50.820 -35.476  -7.100  1.00  0.00     0.043 C 
ATOM     28  C   UNL     1      52.033 -36.941  -5.421  1.00  0.00     0.032 C 
ATOM     29  C   UNL     1      50.683 -36.331  -5.830  1.00  0.00     0.115 C 
ATOM     30  H   UNL     1      55.508 -29.375  -1.511  1.00  0.00     0.348 HD
ENDROOT
BRANCH   6  31
ATOM     31  O   UNL     1      54.123 -26.746  -4.150  1.00  0.00    -0.384 OA
ATOM     32  H   UNL     1      54.641 -26.446  -4.940  1.00  0.00     0.211 HD
ENDBRANCH   6  31
BRANCH  29  33
ATOM     33  O   UNL     1      49.750 -37.352  -6.067  1.00  0.00    -0.393 OA
ATOM     34  H   UNL     1      48.981 -37.185  -5.463  1.00  0.00     0.210 HD
ENDBRANCH  29  33
TORSDOF 2
ENDMDL
MODEL 9
REMARK VINA RESULT:    -8.007     15.193     18.169
REMARK INTER + INTRA:          -8.476
REMARK INTER:                  -8.476
REMARK INTRA:                   0.000
REMARK UNBOUND:                 0.000
REMARK SMILES C[C@@H]1CC[C@H]2[N@@H+](C1)C[C@@H]1[C@H]3C[C@@H]4[C@@H](CC(=O)[C@H]5C[C@@H](O)CC[C@@]54C)[C@@H]3CC[C@@H]1[C@@]2(C)O
REMARK SMILES IDX 5 1 6 2 8 3 7 4 4 5 29 6 3 7 28 8 30 9 2 10 27 11 9 12 1 13
REMARK SMILES IDX 26 14 10 15 25 16 11 17 13 18 12 19 14 20 23 21 15 22 17 23
REMARK SMILES IDX 22 24 24 25 16 26 18 27 21 28 19 29 31 31 20 33
REMARK H PARENT 6 30 31 32 20 34
REMARK Flexibility Score: inf
ROOT
ATOM      1  C   UNL     1      53.881 -27.183  -1.524  1.00  0.00     0.216 C 
ATOM      2  N   UNL     1      53.230 -26.787  -2.806  1.00  0.00    -0.330 N 
ATOM      3  C   UNL     1      52.742 -27.898  -3.681  1.00  0.00     0.266 C 
ATOM      4  C   UNL     1      53.960 -25.715  -3.537  1.00  0.00     0.265 C 
ATOM      5  C   UNL     1      55.395 -27.482  -1.686  1.00  0.00     0.069 C 
ATOM      6  C   UNL     1      53.090 -28.337  -0.822  1.00  0.00     0.117 C 
ATOM      7  C   UNL     1      56.123 -26.325  -2.363  1.00  0.00     0.015 C 
ATOM      8  C   UNL     1      53.109 -29.628  -1.719  1.00  0.00     0.036 C 
ATOM      9  C   UNL     1      51.644 -27.864  -0.528  1.00  0.00     0.049 C 
ATOM     10  C   UNL     1      55.477 -25.948  -3.700  1.00  0.00     0.041 C 
ATOM     11  C   UNL     1      52.018 -30.671  -1.324  1.00  0.00     0.007 C 
ATOM     12  C   UNL     1      53.160 -29.332  -3.263  1.00  0.00     0.054 C 
ATOM     13  C   UNL     1      55.826 -26.928  -4.828  1.00  0.00     0.013 C 
ATOM     14  C   UNL     1      52.131 -31.995  -2.115  1.00  0.00     0.004 C 
ATOM     15  C   UNL     1      52.355 -30.395  -4.058  1.00  0.00     0.002 C 
ATOM     16  C   UNL     1      52.684 -31.782  -3.542  1.00  0.00    -0.004 C 
ATOM     17  C   UNL     1      52.665 -30.498  -5.542  1.00  0.00     0.009 C 
ATOM     18  C   UNL     1      52.151 -32.738  -4.620  1.00  0.00     0.003 C 
ATOM     19  C   UNL     1      52.168 -31.907  -5.948  1.00  0.00    -0.000 C 
ATOM     20  C   UNL     1      52.925 -34.082  -4.612  1.00  0.00     0.080 C 
ATOM     21  C   UNL     1      52.935 -32.572  -7.147  1.00  0.00    -0.020 C 
ATOM     22  C   UNL     1      54.128 -34.116  -5.516  1.00  0.00     0.136 C 
ATOM     23  C   UNL     1      54.308 -33.115  -6.638  1.00  0.00     0.065 C 
ATOM     24  C   UNL     1      53.190 -31.538  -8.291  1.00  0.00     0.010 C 
ATOM     25  C   UNL     1      52.027 -33.702  -7.727  1.00  0.00     0.012 C 
ATOM     26  O   UNL     1      54.991 -34.957  -5.306  1.00  0.00    -0.299 OA
ATOM     27  C   UNL     1      55.179 -33.680  -7.787  1.00  0.00     0.043 C 
ATOM     28  C   UNL     1      54.053 -32.109  -9.429  1.00  0.00     0.032 C 
ATOM     29  C   UNL     1      55.393 -32.639  -8.896  1.00  0.00     0.115 C 
ATOM     30  H   UNL     1      52.354 -26.289  -2.511  1.00  0.00     0.348 HD
ENDROOT
BRANCH   6  31
ATOM     31  O   UNL     1      53.660 -28.603   0.444  1.00  0.00    -0.384 OA
ATOM     32  H   UNL     1      54.540 -28.154   0.517  1.00  0.00     0.211 HD
ENDBRANCH   6  31
BRANCH  29  33
ATOM     33  O   UNL     1      56.123 -33.229  -9.940  1.00  0.00    -0.393 OA
ATOM     34  H   UNL     1      55.491 -33.362 -10.693  1.00  0.00     0.210 HD
ENDBRANCH  29  33
TORSDOF 2
ENDMDL
