MODEL 1
REMARK VINA RESULT:    -8.131      0.000      0.000
REMARK INTER + INTRA:          -8.844
REMARK INTER:                  -8.844
REMARK INTRA:                   0.000
REMARK UNBOUND:                 0.000
REMARK SMILES C[C@H]1CC[C@@H]2[N@@H+](C1)C[C@@H]1[C@H]3C[C@@H]4[C@H](C[C@H](O)[C@H]5C[C@@H](O)CC[C@@]45C)[C@@H]3CC[C@H]1[C@@]2(C)O
REMARK SMILES IDX 5 1 6 2 8 3 7 4 4 5 29 6 3 7 28 8 30 9 2 10 27 11 9 12 1 13
REMARK SMILES IDX 26 14 10 15 25 16 11 17 13 18 12 19 14 20 23 21 15 22 17 23
REMARK SMILES IDX 22 24 24 25 18 26 21 27 19 28 31 30 16 32 20 34
REMARK H PARENT 6 29 31 31 16 33 20 35
REMARK Flexibility Score: inf
ROOT
ATOM      1  C   UNL     1     -19.249 -13.895  22.911  1.00  0.00     0.216 C 
ATOM      2  N   UNL     1     -18.835 -14.161  21.499  1.00  0.00    -0.330 N 
ATOM      3  C   UNL     1     -18.438 -15.578  21.235  1.00  0.00     0.266 C 
ATOM      4  C   UNL     1     -17.749 -13.226  21.104  1.00  0.00     0.265 C 
ATOM      5  C   UNL     1     -19.824 -12.466  23.035  1.00  0.00     0.069 C 
ATOM      6  C   UNL     1     -20.190 -15.012  23.487  1.00  0.00     0.117 C 
ATOM      7  C   UNL     1     -18.757 -11.445  22.627  1.00  0.00     0.015 C 
ATOM      8  C   UNL     1     -19.477 -16.422  23.379  1.00  0.00     0.036 C 
ATOM      9  C   UNL     1     -21.527 -15.045  22.698  1.00  0.00     0.049 C 
ATOM     10  C   UNL     1     -18.170 -11.743  21.234  1.00  0.00     0.041 C 
ATOM     11  C   UNL     1     -19.201 -17.154  24.737  1.00  0.00     0.007 C 
ATOM     12  C   UNL     1     -18.171 -16.349  22.529  1.00  0.00     0.054 C 
ATOM     13  C   UNL     1     -19.120 -11.311  20.106  1.00  0.00     0.013 C 
ATOM     14  C   UNL     1     -18.491 -18.533  24.554  1.00  0.00     0.004 C 
ATOM     15  C   UNL     1     -17.702 -17.789  22.312  1.00  0.00     0.002 C 
ATOM     16  C   UNL     1     -17.253 -18.342  23.669  1.00  0.00    -0.004 C 
ATOM     17  C   UNL     1     -16.541 -18.098  21.380  1.00  0.00     0.009 C 
ATOM     18  C   UNL     1     -16.298 -19.510  23.331  1.00  0.00    -0.001 C 
ATOM     19  C   UNL     1     -16.244 -19.543  21.805  1.00  0.00    -0.001 C 
ATOM     20  C   UNL     1     -16.574 -20.922  23.876  1.00  0.00     0.036 C 
ATOM     21  C   UNL     1     -14.967 -20.276  21.257  1.00  0.00    -0.024 C 
ATOM     22  C   UNL     1     -15.754 -21.998  23.089  1.00  0.00     0.118 C 
ATOM     23  C   UNL     1     -14.533 -21.401  22.294  1.00  0.00     0.026 C 
ATOM     24  C   UNL     1     -15.351 -20.891  19.873  1.00  0.00     0.010 C 
ATOM     25  C   UNL     1     -13.794 -19.274  21.071  1.00  0.00     0.012 C 
ATOM     26  C   UNL     1     -13.611 -22.487  21.663  1.00  0.00     0.038 C 
ATOM     27  C   UNL     1     -14.314 -21.872  19.333  1.00  0.00     0.032 C 
ATOM     28  C   UNL     1     -14.103 -23.034  20.320  1.00  0.00     0.114 C 
ATOM     29  H   UNL     1     -19.648 -13.964  20.872  1.00  0.00     0.348 HD
ENDROOT
BRANCH   6  30
ATOM     30  O   UNL     1     -20.463 -14.687  24.831  1.00  0.00    -0.384 OA
ATOM     31  H   UNL     1     -21.253 -14.091  24.857  1.00  0.00     0.211 HD
ENDBRANCH   6  30
BRANCH  22  32
ATOM     32  O   UNL     1     -15.337 -23.022  23.969  1.00  0.00    -0.393 OA
ATOM     33  H   UNL     1     -16.160 -23.456  24.321  1.00  0.00     0.210 HD
ENDBRANCH  22  32
BRANCH  28  34
ATOM     34  O   UNL     1     -15.262 -23.809  20.520  1.00  0.00    -0.393 OA
ATOM     35  H   UNL     1     -15.532 -24.213  19.654  1.00  0.00     0.210 HD
ENDBRANCH  28  34
TORSDOF 3
ENDMDL
MODEL 2
REMARK VINA RESULT:    -8.097      2.033      8.493
REMARK INTER + INTRA:          -8.807
REMARK INTER:                  -8.807
REMARK INTRA:                   0.000
REMARK UNBOUND:                 0.000
REMARK SMILES C[C@H]1CC[C@@H]2[N@@H+](C1)C[C@@H]1[C@H]3C[C@@H]4[C@H](C[C@H](O)[C@H]5C[C@@H](O)CC[C@@]45C)[C@@H]3CC[C@H]1[C@@]2(C)O
REMARK SMILES IDX 5 1 6 2 8 3 7 4 4 5 29 6 3 7 28 8 30 9 2 10 27 11 9 12 1 13
REMARK SMILES IDX 26 14 10 15 25 16 11 17 13 18 12 19 14 20 23 21 15 22 17 23
REMARK SMILES IDX 22 24 24 25 18 26 21 27 19 28 31 30 16 32 20 34
REMARK H PARENT 6 29 31 31 16 33 20 35
REMARK Flexibility Score: inf
ROOT
ATOM      1  C   UNL     1     -14.230 -22.174  21.807  1.00  0.00     0.216 C 
ATOM      2  N   UNL     1     -13.835 -21.126  20.816  1.00  0.00    -0.330 N 
ATOM      3  C   UNL     1     -14.408 -19.773  21.096  1.00  0.00     0.266 C 
ATOM      4  C   UNL     1     -14.181 -21.571  19.440  1.00  0.00     0.265 C 
ATOM      5  C   UNL     1     -13.437 -23.475  21.546  1.00  0.00     0.069 C 
ATOM      6  C   UNL     1     -14.151 -21.666  23.289  1.00  0.00     0.117 C 
ATOM      7  C   UNL     1     -13.737 -23.986  20.133  1.00  0.00     0.015 C 
ATOM      8  C   UNL     1     -15.053 -20.377  23.464  1.00  0.00     0.036 C 
ATOM      9  C   UNL     1     -12.682 -21.324  23.661  1.00  0.00     0.049 C 
ATOM     10  C   UNL     1     -13.496 -22.905  19.062  1.00  0.00     0.041 C 
ATOM     11  C   UNL     1     -16.243 -20.507  24.475  1.00  0.00     0.007 C 
ATOM     12  C   UNL     1     -15.566 -19.836  22.093  1.00  0.00     0.054 C 
ATOM     13  C   UNL     1     -12.000 -22.721  18.758  1.00  0.00     0.013 C 
ATOM     14  C   UNL     1     -17.092 -19.201  24.592  1.00  0.00     0.004 C 
ATOM     15  C   UNL     1     -16.228 -18.485  22.369  1.00  0.00     0.002 C 
ATOM     16  C   UNL     1     -17.499 -18.746  23.184  1.00  0.00    -0.004 C 
ATOM     17  C   UNL     1     -16.694 -17.599  21.224  1.00  0.00     0.009 C 
ATOM     18  C   UNL     1     -18.388 -17.504  22.949  1.00  0.00    -0.001 C 
ATOM     19  C   UNL     1     -17.584 -16.618  22.001  1.00  0.00    -0.001 C 
ATOM     20  C   UNL     1     -18.893 -16.672  24.141  1.00  0.00     0.036 C 
ATOM     21  C   UNL     1     -18.479 -15.586  21.225  1.00  0.00    -0.024 C 
ATOM     22  C   UNL     1     -19.401 -15.268  23.672  1.00  0.00     0.118 C 
ATOM     23  C   UNL     1     -19.725 -15.199  22.133  1.00  0.00     0.026 C 
ATOM     24  C   UNL     1     -17.584 -14.343  20.920  1.00  0.00     0.010 C 
ATOM     25  C   UNL     1     -18.991 -16.196  19.890  1.00  0.00     0.012 C 
ATOM     26  C   UNL     1     -20.402 -13.864  21.700  1.00  0.00     0.038 C 
ATOM     27  C   UNL     1     -18.370 -13.133  20.419  1.00  0.00     0.032 C 
ATOM     28  C   UNL     1     -19.427 -12.709  21.454  1.00  0.00     0.114 C 
ATOM     29  H   UNL     1     -12.796 -21.014  20.846  1.00  0.00     0.348 HD
ENDROOT
BRANCH   6  30
ATOM     30  O   UNL     1     -14.599 -22.711  24.122  1.00  0.00    -0.384 OA
ATOM     31  H   UNL     1     -14.906 -23.460  23.552  1.00  0.00     0.211 HD
ENDBRANCH   6  30
BRANCH  22  32
ATOM     32  O   UNL     1     -20.516 -14.877  24.446  1.00  0.00    -0.393 OA
ATOM     33  H   UNL     1     -20.911 -15.706  24.828  1.00  0.00     0.210 HD
ENDBRANCH  22  32
BRANCH  28  34
ATOM     34  O   UNL     1     -18.868 -12.293  22.679  1.00  0.00    -0.393 OA
ATOM     35  H   UNL     1     -19.565 -11.826  23.208  1.00  0.00     0.210 HD
ENDBRANCH  28  34
TORSDOF 3
ENDMDL
MODEL 3
REMARK VINA RESULT:    -7.929      4.630      7.113
REMARK INTER + INTRA:          -8.624
REMARK INTER:                  -8.624
REMARK INTRA:                   0.000
REMARK UNBOUND:                 0.000
REMARK SMILES C[C@H]1CC[C@@H]2[N@@H+](C1)C[C@@H]1[C@H]3C[C@@H]4[C@H](C[C@H](O)[C@H]5C[C@@H](O)CC[C@@]45C)[C@@H]3CC[C@H]1[C@@]2(C)O
REMARK SMILES IDX 5 1 6 2 8 3 7 4 4 5 29 6 3 7 28 8 30 9 2 10 27 11 9 12 1 13
REMARK SMILES IDX 26 14 10 15 25 16 11 17 13 18 12 19 14 20 23 21 15 22 17 23
REMARK SMILES IDX 22 24 24 25 18 26 21 27 19 28 31 30 16 32 20 34
REMARK H PARENT 6 29 31 31 16 33 20 35
REMARK Flexibility Score: inf
ROOT
ATOM      1  C   UNL     1     -15.152 -18.760  29.448  1.00  0.00     0.216 C 
ATOM      2  N   UNL     1     -13.795 -19.271  29.083  1.00  0.00    -0.330 N 
ATOM      3  C   UNL     1     -13.597 -19.485  27.617  1.00  0.00     0.266 C 
ATOM      4  C   UNL     1     -13.500 -20.514  29.843  1.00  0.00     0.265 C 
ATOM      5  C   UNL     1     -15.193 -18.387  30.947  1.00  0.00     0.069 C 
ATOM      6  C   UNL     1     -15.645 -17.616  28.494  1.00  0.00     0.117 C 
ATOM      7  C   UNL     1     -14.883 -19.626  31.794  1.00  0.00     0.015 C 
ATOM      8  C   UNL     1     -15.634 -18.125  26.995  1.00  0.00     0.036 C 
ATOM      9  C   UNL     1     -14.722 -16.373  28.625  1.00  0.00     0.049 C 
ATOM     10  C   UNL     1     -13.563 -20.300  31.374  1.00  0.00     0.041 C 
ATOM     11  C   UNL     1     -17.024 -18.155  26.272  1.00  0.00     0.007 C 
ATOM     12  C   UNL     1     -14.923 -19.507  26.855  1.00  0.00     0.054 C 
ATOM     13  C   UNL     1     -12.335 -19.540  31.901  1.00  0.00     0.013 C 
ATOM     14  C   UNL     1     -16.938 -18.674  24.801  1.00  0.00     0.004 C 
ATOM     15  C   UNL     1     -14.779 -19.783  25.358  1.00  0.00     0.002 C 
ATOM     16  C   UNL     1     -16.183 -20.010  24.788  1.00  0.00    -0.004 C 
ATOM     17  C   UNL     1     -13.978 -20.976  24.860  1.00  0.00     0.009 C 
ATOM     18  C   UNL     1     -15.964 -20.815  23.488  1.00  0.00    -0.001 C 
ATOM     19  C   UNL     1     -14.454 -21.017  23.401  1.00  0.00    -0.001 C 
ATOM     20  C   UNL     1     -16.500 -20.286  22.146  1.00  0.00     0.036 C 
ATOM     21  C   UNL     1     -14.053 -22.224  22.478  1.00  0.00    -0.024 C 
ATOM     22  C   UNL     1     -15.820 -21.018  20.941  1.00  0.00     0.118 C 
ATOM     23  C   UNL     1     -15.146 -22.386  21.335  1.00  0.00     0.026 C 
ATOM     24  C   UNL     1     -12.646 -21.897  21.882  1.00  0.00     0.010 C 
ATOM     25  C   UNL     1     -13.974 -23.542  23.298  1.00  0.00     0.012 C 
ATOM     26  C   UNL     1     -14.632 -23.201  20.111  1.00  0.00     0.038 C 
ATOM     27  C   UNL     1     -12.232 -22.831  20.747  1.00  0.00     0.032 C 
ATOM     28  C   UNL     1     -13.254 -22.773  19.599  1.00  0.00     0.114 C 
ATOM     29  H   UNL     1     -13.084 -18.563  29.374  1.00  0.00     0.348 HD
ENDROOT
BRANCH   6  30
ATOM     30  O   UNL     1     -16.948 -17.258  28.894  1.00  0.00    -0.384 OA
ATOM     31  H   UNL     1     -17.554 -17.354  28.117  1.00  0.00     0.211 HD
ENDBRANCH   6  30
BRANCH  22  32
ATOM     32  O   UNL     1     -16.754 -21.192  19.896  1.00  0.00    -0.393 OA
ATOM     33  H   UNL     1     -17.536 -21.671  20.280  1.00  0.00     0.210 HD
ENDBRANCH  22  32
BRANCH  28  34
ATOM     34  O   UNL     1     -13.345 -21.500  19.002  1.00  0.00    -0.393 OA
ATOM     35  H   UNL     1     -13.498 -20.822  19.710  1.00  0.00     0.210 HD
ENDBRANCH  28  34
TORSDOF 3
ENDMDL
MODEL 4
REMARK VINA RESULT:    -7.896      3.126      4.120
REMARK INTER + INTRA:          -8.588
REMARK INTER:                  -8.588
REMARK INTRA:                   0.000
REMARK UNBOUND:                 0.000
REMARK SMILES C[C@H]1CC[C@@H]2[N@@H+](C1)C[C@@H]1[C@H]3C[C@@H]4[C@H](C[C@H](O)[C@H]5C[C@@H](O)CC[C@@]45C)[C@@H]3CC[C@H]1[C@@]2(C)O
REMARK SMILES IDX 5 1 6 2 8 3 7 4 4 5 29 6 3 7 28 8 30 9 2 10 27 11 9 12 1 13
REMARK SMILES IDX 26 14 10 15 25 16 11 17 13 18 12 19 14 20 23 21 15 22 17 23
REMARK SMILES IDX 22 24 24 25 18 26 21 27 19 28 31 30 16 32 20 34
REMARK H PARENT 6 29 31 31 16 33 20 35
REMARK Flexibility Score: inf
ROOT
ATOM      1  C   UNL     1     -19.155 -15.900  23.687  1.00  0.00     0.216 C 
ATOM      2  N   UNL     1     -18.802 -16.966  22.699  1.00  0.00    -0.330 N 
ATOM      3  C   UNL     1     -18.010 -18.095  23.276  1.00  0.00     0.266 C 
ATOM      4  C   UNL     1     -18.098 -16.367  21.535  1.00  0.00     0.265 C 
ATOM      5  C   UNL     1     -20.131 -14.887  23.047  1.00  0.00     0.069 C 
ATOM      6  C   UNL     1     -19.650 -16.483  25.057  1.00  0.00     0.117 C 
ATOM      7  C   UNL     1     -19.472 -14.237  21.826  1.00  0.00     0.015 C 
ATOM      8  C   UNL     1     -18.548 -17.448  25.659  1.00  0.00     0.036 C 
ATOM      9  C   UNL     1     -20.974 -17.271  24.857  1.00  0.00     0.049 C 
ATOM     10  C   UNL     1     -18.945 -15.284  20.826  1.00  0.00     0.041 C 
ATOM     11  C   UNL     1     -17.942 -17.017  27.039  1.00  0.00     0.007 C 
ATOM     12  C   UNL     1     -17.406 -17.737  24.635  1.00  0.00     0.054 C 
ATOM     13  C   UNL     1     -20.076 -15.895  19.983  1.00  0.00     0.013 C 
ATOM     14  C   UNL     1     -16.859 -18.010  27.568  1.00  0.00     0.004 C 
ATOM     15  C   UNL     1     -16.535 -18.839  25.241  1.00  0.00     0.002 C 
ATOM     16  C   UNL     1     -15.821 -18.249  26.463  1.00  0.00    -0.004 C 
ATOM     17  C   UNL     1     -15.420 -19.483  24.433  1.00  0.00     0.009 C 
ATOM     18  C   UNL     1     -14.585 -19.151  26.679  1.00  0.00    -0.001 C 
ATOM     19  C   UNL     1     -14.655 -20.188  25.561  1.00  0.00    -0.001 C 
ATOM     20  C   UNL     1     -14.362 -19.852  28.030  1.00  0.00     0.036 C 
ATOM     21  C   UNL     1     -13.266 -20.861  25.267  1.00  0.00    -0.024 C 
ATOM     22  C   UNL     1     -13.319 -21.012  27.897  1.00  0.00     0.118 C 
ATOM     23  C   UNL     1     -12.417 -20.901  26.611  1.00  0.00     0.026 C 
ATOM     24  C   UNL     1     -13.559 -22.299  24.732  1.00  0.00     0.010 C 
ATOM     25  C   UNL     1     -12.481 -20.058  24.192  1.00  0.00     0.012 C 
ATOM     26  C   UNL     1     -11.262 -21.946  26.570  1.00  0.00     0.038 C 
ATOM     27  C   UNL     1     -12.319 -23.188  24.662  1.00  0.00     0.032 C 
ATOM     28  C   UNL     1     -11.674 -23.327  26.052  1.00  0.00     0.114 C 
ATOM     29  H   UNL     1     -19.687 -17.387  22.334  1.00  0.00     0.348 HD
ENDROOT
BRANCH   6  30
ATOM     30  O   UNL     1     -19.893 -15.396  25.920  1.00  0.00    -0.384 OA
ATOM     31  H   UNL     1     -19.026 -14.984  26.161  1.00  0.00     0.211 HD
ENDBRANCH   6  30
BRANCH  22  32
ATOM     32  O   UNL     1     -12.532 -21.088  29.067  1.00  0.00    -0.393 OA
ATOM     33  H   UNL     1     -12.668 -21.995  29.452  1.00  0.00     0.210 HD
ENDBRANCH  22  32
BRANCH  28  34
ATOM     34  O   UNL     1     -12.514 -23.954  26.993  1.00  0.00    -0.393 OA
ATOM     35  H   UNL     1     -13.328 -23.400  27.117  1.00  0.00     0.210 HD
ENDBRANCH  28  34
TORSDOF 3
ENDMDL
MODEL 5
REMARK VINA RESULT:    -7.849      5.503      7.682
REMARK INTER + INTRA:          -8.537
REMARK INTER:                  -8.537
REMARK INTRA:                   0.000
REMARK UNBOUND:                 0.000
REMARK SMILES C[C@H]1CC[C@@H]2[N@@H+](C1)C[C@@H]1[C@H]3C[C@@H]4[C@H](C[C@H](O)[C@H]5C[C@@H](O)CC[C@@]45C)[C@@H]3CC[C@H]1[C@@]2(C)O
REMARK SMILES IDX 5 1 6 2 8 3 7 4 4 5 29 6 3 7 28 8 30 9 2 10 27 11 9 12 1 13
REMARK SMILES IDX 26 14 10 15 25 16 11 17 13 18 12 19 14 20 23 21 15 22 17 23
REMARK SMILES IDX 22 24 24 25 18 26 21 27 19 28 31 30 16 32 20 34
REMARK H PARENT 6 29 31 31 16 33 20 35
REMARK Flexibility Score: inf
ROOT
ATOM      1  C   UNL     1     -13.877 -20.753  26.931  1.00  0.00     0.216 C 
ATOM      2  N   UNL     1     -12.502 -20.710  26.346  1.00  0.00    -0.330 N 
ATOM      3  C   UNL     1     -12.471 -20.776  24.852  1.00  0.00     0.266 C 
ATOM      4  C   UNL     1     -11.663 -21.784  26.939  1.00  0.00     0.265 C 
ATOM      5  C   UNL     1     -13.814 -20.482  28.451  1.00  0.00     0.069 C 
ATOM      6  C   UNL     1     -14.892 -19.836  26.162  1.00  0.00     0.117 C 
ATOM      7  C   UNL     1     -12.950 -21.550  29.130  1.00  0.00     0.015 C 
ATOM      8  C   UNL     1     -14.932 -20.245  24.633  1.00  0.00     0.036 C 
ATOM      9  C   UNL     1     -14.470 -18.346  26.289  1.00  0.00     0.049 C 
ATOM     10  C   UNL     1     -11.559 -21.670  28.478  1.00  0.00     0.041 C 
ATOM     11  C   UNL     1     -16.313 -20.760  24.099  1.00  0.00     0.007 C 
ATOM     12  C   UNL     1     -13.802 -21.258  24.272  1.00  0.00     0.054 C 
ATOM     13  C   UNL     1     -10.622 -20.530  28.911  1.00  0.00     0.013 C 
ATOM     14  C   UNL     1     -16.276 -21.151  22.587  1.00  0.00     0.004 C 
ATOM     15  C   UNL     1     -13.804 -21.402  22.749  1.00  0.00     0.002 C 
ATOM     16  C   UNL     1     -15.103 -22.110  22.349  1.00  0.00    -0.004 C 
ATOM     17  C   UNL     1     -12.715 -22.191  22.040  1.00  0.00     0.009 C 
ATOM     18  C   UNL     1     -14.814 -22.724  20.961  1.00  0.00    -0.001 C 
ATOM     19  C   UNL     1     -13.366 -22.348  20.659  1.00  0.00    -0.001 C 
ATOM     20  C   UNL     1     -15.707 -22.379  19.757  1.00  0.00     0.036 C 
ATOM     21  C   UNL     1     -12.706 -23.283  19.581  1.00  0.00    -0.024 C 
ATOM     22  C   UNL     1     -15.007 -22.758  18.410  1.00  0.00     0.118 C 
ATOM     23  C   UNL     1     -13.833 -23.793  18.581  1.00  0.00     0.026 C 
ATOM     24  C   UNL     1     -11.624 -22.434  18.840  1.00  0.00     0.010 C 
ATOM     25  C   UNL     1     -12.030 -24.509  20.256  1.00  0.00     0.012 C 
ATOM     26  C   UNL     1     -13.257 -24.310  17.229  1.00  0.00     0.038 C 
ATOM     27  C   UNL     1     -11.084 -23.102  17.578  1.00  0.00     0.032 C 
ATOM     28  C   UNL     1     -12.224 -23.382  16.584  1.00  0.00     0.114 C 
ATOM     29  H   UNL     1     -12.057 -19.800  26.606  1.00  0.00     0.348 HD
ENDROOT
BRANCH   6  30
ATOM     30  O   UNL     1     -16.156 -20.003  26.761  1.00  0.00    -0.384 OA
ATOM     31  H   UNL     1     -16.717 -20.561  26.165  1.00  0.00     0.211 HD
ENDBRANCH   6  30
BRANCH  22  32
ATOM     32  O   UNL     1     -15.966 -23.224  17.484  1.00  0.00    -0.393 OA
ATOM     33  H   UNL     1     -16.081 -22.512  16.799  1.00  0.00     0.210 HD
ENDBRANCH  22  32
BRANCH  28  34
ATOM     34  O   UNL     1     -12.860 -22.210  16.126  1.00  0.00    -0.393 OA
ATOM     35  H   UNL     1     -13.742 -22.453  15.740  1.00  0.00     0.210 HD
ENDBRANCH  28  34
TORSDOF 3
ENDMDL
MODEL 6
REMARK VINA RESULT:    -7.846      5.138      6.930
REMARK INTER + INTRA:          -8.534
REMARK INTER:                  -8.534
REMARK INTRA:                   0.000
REMARK UNBOUND:                 0.000
REMARK SMILES C[C@H]1CC[C@@H]2[N@@H+](C1)C[C@@H]1[C@H]3C[C@@H]4[C@H](C[C@H](O)[C@H]5C[C@@H](O)CC[C@@]45C)[C@@H]3CC[C@H]1[C@@]2(C)O
REMARK SMILES IDX 5 1 6 2 8 3 7 4 4 5 29 6 3 7 28 8 30 9 2 10 27 11 9 12 1 13
REMARK SMILES IDX 26 14 10 15 25 16 11 17 13 18 12 19 14 20 23 21 15 22 17 23
REMARK SMILES IDX 22 24 24 25 18 26 21 27 19 28 31 30 16 32 20 34
REMARK H PARENT 6 29 31 31 16 33 20 35
REMARK Flexibility Score: inf
ROOT
ATOM      1  C   UNL     1     -13.872 -19.069  27.626  1.00  0.00     0.216 C 
ATOM      2  N   UNL     1     -15.315 -19.272  27.292  1.00  0.00    -0.330 N 
ATOM      3  C   UNL     1     -15.548 -20.052  26.037  1.00  0.00     0.266 C 
ATOM      4  C   UNL     1     -16.013 -17.961  27.236  1.00  0.00     0.265 C 
ATOM      5  C   UNL     1     -13.738 -18.431  29.027  1.00  0.00     0.069 C 
ATOM      6  C   UNL     1     -13.017 -20.370  27.434  1.00  0.00     0.117 C 
ATOM      7  C   UNL     1     -14.450 -17.075  29.047  1.00  0.00     0.015 C 
ATOM      8  C   UNL     1     -13.168 -20.897  25.948  1.00  0.00     0.036 C 
ATOM      9  C   UNL     1     -13.486 -21.471  28.424  1.00  0.00     0.049 C 
ATOM     10  C   UNL     1     -15.910 -17.180  28.567  1.00  0.00     0.041 C 
ATOM     11  C   UNL     1     -11.851 -20.935  25.099  1.00  0.00     0.007 C 
ATOM     12  C   UNL     1     -14.289 -20.137  25.173  1.00  0.00     0.054 C 
ATOM     13  C   UNL     1     -16.831 -17.762  29.652  1.00  0.00     0.013 C 
ATOM     14  C   UNL     1     -12.077 -21.458  23.644  1.00  0.00     0.004 C 
ATOM     15  C   UNL     1     -14.489 -20.874  23.848  1.00  0.00     0.002 C 
ATOM     16  C   UNL     1     -13.226 -20.668  23.005  1.00  0.00    -0.004 C 
ATOM     17  C   UNL     1     -15.627 -20.497  22.912  1.00  0.00     0.009 C 
ATOM     18  C   UNL     1     -13.674 -20.909  21.545  1.00  0.00    -0.001 C 
ATOM     19  C   UNL     1     -15.166 -21.219  21.638  1.00  0.00    -0.001 C 
ATOM     20  C   UNL     1     -12.972 -21.972  20.682  1.00  0.00     0.036 C 
ATOM     21  C   UNL     1     -15.923 -20.980  20.282  1.00  0.00    -0.024 C 
ATOM     22  C   UNL     1     -13.833 -22.335  19.426  1.00  0.00     0.118 C 
ATOM     23  C   UNL     1     -14.923 -21.254  19.077  1.00  0.00     0.026 C 
ATOM     24  C   UNL     1     -17.135 -21.965  20.256  1.00  0.00     0.010 C 
ATOM     25  C   UNL     1     -16.443 -19.518  20.192  1.00  0.00     0.012 C 
ATOM     26  C   UNL     1     -15.654 -21.521  17.728  1.00  0.00     0.038 C 
ATOM     27  C   UNL     1     -17.813 -22.062  18.891  1.00  0.00     0.032 C 
ATOM     28  C   UNL     1     -16.808 -22.524  17.820  1.00  0.00     0.114 C 
ATOM     29  H   UNL     1     -15.761 -19.820  28.062  1.00  0.00     0.348 HD
ENDROOT
BRANCH   6  30
ATOM     30  O   UNL     1     -11.675 -20.045  27.718  1.00  0.00    -0.384 OA
ATOM     31  H   UNL     1     -11.091 -20.736  27.318  1.00  0.00     0.211 HD
ENDBRANCH   6  30
BRANCH  22  32
ATOM     32  O   UNL     1     -12.989 -22.584  18.321  1.00  0.00    -0.393 OA
ATOM     33  H   UNL     1     -12.063 -22.355  18.603  1.00  0.00     0.210 HD
ENDBRANCH  22  32
BRANCH  28  34
ATOM     34  O   UNL     1     -16.296 -23.814  18.060  1.00  0.00    -0.393 OA
ATOM     35  H   UNL     1     -15.480 -23.944  17.511  1.00  0.00     0.210 HD
ENDBRANCH  28  34
TORSDOF 3
ENDMDL
MODEL 7
REMARK VINA RESULT:    -7.814      5.191      7.363
REMARK INTER + INTRA:          -8.499
REMARK INTER:                  -8.499
REMARK INTRA:                   0.000
REMARK UNBOUND:                 0.000
REMARK SMILES C[C@H]1CC[C@@H]2[N@@H+](C1)C[C@@H]1[C@H]3C[C@@H]4[C@H](C[C@H](O)[C@H]5C[C@@H](O)CC[C@@]45C)[C@@H]3CC[C@H]1[C@@]2(C)O
REMARK SMILES IDX 5 1 6 2 8 3 7 4 4 5 29 6 3 7 28 8 30 9 2 10 27 11 9 12 1 13
REMARK SMILES IDX 26 14 10 15 25 16 11 17 13 18 12 19 14 20 23 21 15 22 17 23
REMARK SMILES IDX 22 24 24 25 18 26 21 27 19 28 31 30 16 32 20 34
REMARK H PARENT 6 29 31 31 16 33 20 35
REMARK Flexibility Score: inf
ROOT
ATOM      1  C   UNL     1     -13.261 -19.894  25.652  1.00  0.00     0.216 C 
ATOM      2  N   UNL     1     -14.755 -19.903  25.597  1.00  0.00    -0.330 N 
ATOM      3  C   UNL     1     -15.317 -20.516  24.355  1.00  0.00     0.266 C 
ATOM      4  C   UNL     1     -15.278 -18.525  25.790  1.00  0.00     0.265 C 
ATOM      5  C   UNL     1     -12.784 -19.427  27.045  1.00  0.00     0.069 C 
ATOM      6  C   UNL     1     -12.629 -21.253  25.186  1.00  0.00     0.117 C 
ATOM      7  C   UNL     1     -13.301 -18.011  27.319  1.00  0.00     0.015 C 
ATOM      8  C   UNL     1     -13.124 -21.601  23.722  1.00  0.00     0.036 C 
ATOM      9  C   UNL     1     -13.039 -22.395  26.156  1.00  0.00     0.049 C 
ATOM     10  C   UNL     1     -14.827 -17.905  27.134  1.00  0.00     0.041 C 
ATOM     11  C   UNL     1     -12.008 -21.692  22.626  1.00  0.00     0.007 C 
ATOM     12  C   UNL     1     -14.265 -20.646  23.252  1.00  0.00     0.054 C 
ATOM     13  C   UNL     1     -15.593 -18.495  28.329  1.00  0.00     0.013 C 
ATOM     14  C   UNL     1     -12.569 -22.031  21.209  1.00  0.00     0.004 C 
ATOM     15  C   UNL     1     -14.805 -21.212  21.938  1.00  0.00     0.002 C 
ATOM     16  C   UNL     1     -13.708 -21.057  20.879  1.00  0.00    -0.004 C 
ATOM     17  C   UNL     1     -16.042 -20.617  21.283  1.00  0.00     0.009 C 
ATOM     18  C   UNL     1     -14.450 -21.093  19.524  1.00  0.00    -0.001 C 
ATOM     19  C   UNL     1     -15.925 -21.246  19.888  1.00  0.00    -0.001 C 
ATOM     20  C   UNL     1     -14.065 -22.128  18.453  1.00  0.00     0.036 C 
ATOM     21  C   UNL     1     -16.888 -20.785  18.735  1.00  0.00    -0.024 C 
ATOM     22  C   UNL     1     -15.187 -22.261  17.369  1.00  0.00     0.118 C 
ATOM     23  C   UNL     1     -16.176 -21.037  17.336  1.00  0.00     0.026 C 
ATOM     24  C   UNL     1     -18.199 -21.624  18.871  1.00  0.00     0.010 C 
ATOM     25  C   UNL     1     -17.225 -19.274  18.871  1.00  0.00     0.012 C 
ATOM     26  C   UNL     1     -17.177 -21.079  16.143  1.00  0.00     0.038 C 
ATOM     27  C   UNL     1     -19.128 -21.502  17.666  1.00  0.00     0.032 C 
ATOM     28  C   UNL     1     -18.411 -21.955  16.382  1.00  0.00     0.114 C 
ATOM     29  H   UNL     1     -15.113 -20.478  26.394  1.00  0.00     0.348 HD
ENDROOT
BRANCH   6  30
ATOM     30  O   UNL     1     -11.228 -21.107  25.222  1.00  0.00    -0.384 OA
ATOM     31  H   UNL     1     -10.837 -21.914  25.642  1.00  0.00     0.211 HD
ENDBRANCH   6  30
BRANCH  22  32
ATOM     32  O   UNL     1     -14.606 -22.482  16.101  1.00  0.00    -0.393 OA
ATOM     33  H   UNL     1     -13.641 -22.253  16.178  1.00  0.00     0.210 HD
ENDBRANCH  22  32
BRANCH  28  34
ATOM     34  O   UNL     1     -18.032 -23.311  16.407  1.00  0.00    -0.393 OA
ATOM     35  H   UNL     1     -17.434 -23.463  17.185  1.00  0.00     0.210 HD
ENDBRANCH  28  34
TORSDOF 3
ENDMDL
MODEL 8
REMARK VINA RESULT:    -7.761      4.751      7.562
REMARK INTER + INTRA:          -8.441
REMARK INTER:                  -8.441
REMARK INTRA:                   0.000
REMARK UNBOUND:                 0.000
REMARK SMILES C[C@H]1CC[C@@H]2[N@@H+](C1)C[C@@H]1[C@H]3C[C@@H]4[C@H](C[C@H](O)[C@H]5C[C@@H](O)CC[C@@]45C)[C@@H]3CC[C@H]1[C@@]2(C)O
REMARK SMILES IDX 5 1 6 2 8 3 7 4 4 5 29 6 3 7 28 8 30 9 2 10 27 11 9 12 1 13
REMARK SMILES IDX 26 14 10 15 25 16 11 17 13 18 12 19 14 20 23 21 15 22 17 23
REMARK SMILES IDX 22 24 24 25 18 26 21 27 19 28 31 30 16 32 20 34
REMARK H PARENT 6 29 31 31 16 33 20 35
REMARK Flexibility Score: inf
ROOT
ATOM      1  C   UNL     1     -16.139 -21.060  17.206  1.00  0.00     0.216 C 
ATOM      2  N   UNL     1     -15.594 -22.373  17.669  1.00  0.00    -0.330 N 
ATOM      3  C   UNL     1     -15.425 -22.475  19.152  1.00  0.00     0.266 C 
ATOM      4  C   UNL     1     -14.317 -22.669  16.970  1.00  0.00     0.265 C 
ATOM      5  C   UNL     1     -16.460 -21.122  15.696  1.00  0.00     0.069 C 
ATOM      6  C   UNL     1     -17.331 -20.552  18.090  1.00  0.00     0.117 C 
ATOM      7  C   UNL     1     -15.184 -21.439  14.910  1.00  0.00     0.015 C 
ATOM      8  C   UNL     1     -16.874 -20.454  19.603  1.00  0.00     0.036 C 
ATOM      9  C   UNL     1     -18.536 -21.525  17.975  1.00  0.00     0.049 C 
ATOM     10  C   UNL     1     -14.480 -22.706  15.432  1.00  0.00     0.041 C 
ATOM     11  C   UNL     1     -16.916 -19.023  20.240  1.00  0.00     0.007 C 
ATOM     12  C   UNL     1     -15.474 -21.106  19.830  1.00  0.00     0.054 C 
ATOM     13  C   UNL     1     -15.179 -23.989  14.956  1.00  0.00     0.013 C 
ATOM     14  C   UNL     1     -16.446 -19.002  21.729  1.00  0.00     0.004 C 
ATOM     15  C   UNL     1     -15.245 -21.149  21.342  1.00  0.00     0.002 C 
ATOM     16  C   UNL     1     -15.086 -19.706  21.832  1.00  0.00    -0.004 C 
ATOM     17  C   UNL     1     -14.044 -21.876  21.927  1.00  0.00     0.009 C 
ATOM     18  C   UNL     1     -14.319 -19.818  23.169  1.00  0.00    -0.001 C 
ATOM     19  C   UNL     1     -14.070 -21.312  23.355  1.00  0.00    -0.001 C 
ATOM     20  C   UNL     1     -14.912 -19.221  24.457  1.00  0.00     0.036 C 
ATOM     21  C   UNL     1     -12.883 -21.613  24.339  1.00  0.00    -0.024 C 
ATOM     22  C   UNL     1     -14.200 -19.801  25.725  1.00  0.00     0.118 C 
ATOM     23  C   UNL     1     -12.798 -20.448  25.417  1.00  0.00     0.026 C 
ATOM     24  C   UNL     1     -13.182 -22.992  25.009  1.00  0.00     0.010 C 
ATOM     25  C   UNL     1     -11.535 -21.694  23.569  1.00  0.00     0.012 C 
ATOM     26  C   UNL     1     -12.009 -20.858  26.696  1.00  0.00     0.038 C 
ATOM     27  C   UNL     1     -12.275 -23.304  26.197  1.00  0.00     0.032 C 
ATOM     28  C   UNL     1     -12.407 -22.218  27.278  1.00  0.00     0.114 C 
ATOM     29  H   UNL     1     -16.268 -23.126  17.400  1.00  0.00     0.348 HD
ENDROOT
BRANCH   6  30
ATOM     30  O   UNL     1     -17.719 -19.289  17.600  1.00  0.00    -0.384 OA
ATOM     31  H   UNL     1     -17.730 -19.325  16.610  1.00  0.00     0.211 HD
ENDBRANCH   6  30
BRANCH  22  32
ATOM     32  O   UNL     1     -14.094 -18.800  26.716  1.00  0.00    -0.393 OA
ATOM     33  H   UNL     1     -15.020 -18.551  26.979  1.00  0.00     0.210 HD
ENDBRANCH  22  32
BRANCH  28  34
ATOM     34  O   UNL     1     -13.702 -22.137  27.827  1.00  0.00    -0.393 OA
ATOM     35  H   UNL     1     -13.689 -21.502  28.590  1.00  0.00     0.210 HD
ENDBRANCH  28  34
TORSDOF 3
ENDMDL
MODEL 9
REMARK VINA RESULT:    -7.690      5.039      7.437
REMARK INTER + INTRA:          -8.364
REMARK INTER:                  -8.364
REMARK INTRA:                   0.000
REMARK UNBOUND:                 0.000
REMARK SMILES C[C@H]1CC[C@@H]2[N@@H+](C1)C[C@@H]1[C@H]3C[C@@H]4[C@H](C[C@H](O)[C@H]5C[C@@H](O)CC[C@@]45C)[C@@H]3CC[C@H]1[C@@]2(C)O
REMARK SMILES IDX 5 1 6 2 8 3 7 4 4 5 29 6 3 7 28 8 30 9 2 10 27 11 9 12 1 13
REMARK SMILES IDX 26 14 10 15 25 16 11 17 13 18 12 19 14 20 23 21 15 22 17 23
REMARK SMILES IDX 22 24 24 25 18 26 21 27 19 28 31 30 16 32 20 34
REMARK H PARENT 6 29 31 31 16 33 20 35
REMARK Flexibility Score: inf
ROOT
ATOM      1  C   UNL     1     -16.516 -21.334  17.683  1.00  0.00     0.216 C 
ATOM      2  N   UNL     1     -16.217 -19.923  18.076  1.00  0.00    -0.330 N 
ATOM      3  C   UNL     1     -15.385 -19.796  19.312  1.00  0.00     0.266 C 
ATOM      4  C   UNL     1     -17.482 -19.153  18.209  1.00  0.00     0.265 C 
ATOM      5  C   UNL     1     -17.205 -21.364  16.300  1.00  0.00     0.069 C 
ATOM      6  C   UNL     1     -15.263 -22.271  17.790  1.00  0.00     0.117 C 
ATOM      7  C   UNL     1     -18.517 -20.574  16.360  1.00  0.00     0.015 C 
ATOM      8  C   UNL     1     -14.680 -22.223  19.262  1.00  0.00     0.036 C 
ATOM      9  C   UNL     1     -14.168 -21.820  16.785  1.00  0.00     0.049 C 
ATOM     10  C   UNL     1     -18.310 -19.147  16.902  1.00  0.00     0.041 C 
ATOM     11  C   UNL     1     -14.693 -23.578  20.048  1.00  0.00     0.007 C 
ATOM     12  C   UNL     1     -15.347 -21.098  20.114  1.00  0.00     0.054 C 
ATOM     13  C   UNL     1     -17.709 -18.211  15.842  1.00  0.00     0.013 C 
ATOM     14  C   UNL     1     -14.111 -23.453  21.492  1.00  0.00     0.004 C 
ATOM     15  C   UNL     1     -14.558 -21.004  21.420  1.00  0.00     0.002 C 
ATOM     16  C   UNL     1     -14.811 -22.292  22.211  1.00  0.00    -0.004 C 
ATOM     17  C   UNL     1     -14.836 -19.892  22.420  1.00  0.00     0.009 C 
ATOM     18  C   UNL     1     -14.497 -21.929  23.680  1.00  0.00    -0.001 C 
ATOM     19  C   UNL     1     -14.102 -20.455  23.645  1.00  0.00    -0.001 C 
ATOM     20  C   UNL     1     -13.451 -22.732  24.473  1.00  0.00     0.036 C 
ATOM     21  C   UNL     1     -14.252 -19.751  25.042  1.00  0.00    -0.024 C 
ATOM     22  C   UNL     1     -12.997 -21.955  25.754  1.00  0.00     0.118 C 
ATOM     23  C   UNL     1     -14.000 -20.822  26.189  1.00  0.00     0.026 C 
ATOM     24  C   UNL     1     -13.197 -18.600  25.090  1.00  0.00     0.010 C 
ATOM     25  C   UNL     1     -15.677 -19.153  25.207  1.00  0.00     0.012 C 
ATOM     26  C   UNL     1     -13.646 -20.173  27.561  1.00  0.00     0.038 C 
ATOM     27  C   UNL     1     -13.015 -17.996  26.481  1.00  0.00     0.032 C 
ATOM     28  C   UNL     1     -12.580 -19.075  27.487  1.00  0.00     0.114 C 
ATOM     29  H   UNL     1     -15.668 -19.473  17.308  1.00  0.00     0.348 HD
ENDROOT
BRANCH   6  30
ATOM     30  O   UNL     1     -15.676 -23.577  17.456  1.00  0.00    -0.384 OA
ATOM     31  H   UNL     1     -15.105 -24.223  17.942  1.00  0.00     0.211 HD
ENDBRANCH   6  30
BRANCH  22  32
ATOM     32  O   UNL     1     -12.763 -22.863  26.810  1.00  0.00    -0.393 OA
ATOM     33  H   UNL     1     -13.118 -23.746  26.519  1.00  0.00     0.210 HD
ENDBRANCH  22  32
BRANCH  28  34
ATOM     34  O   UNL     1     -11.331 -19.649  27.179  1.00  0.00    -0.393 OA
ATOM     35  H   UNL     1     -11.100 -20.312  27.880  1.00  0.00     0.210 HD
ENDBRANCH  28  34
TORSDOF 3
ENDMDL
