MODEL 1
REMARK VINA RESULT:    25.543      0.000      0.000
REMARK INTER + INTRA:          29.771
REMARK INTER:                  30.022
REMARK INTRA:                  -0.252
REMARK UNBOUND:                -0.252
REMARK SMILES Oc1ccc(-c2[o+]c3cc(O)cc(O)c3cc2O)cc1
REMARK SMILES IDX 6 1 7 2 8 3 9 4 10 5 12 6 13 7 15 8 16 9 17 10 5 11 4 12
REMARK SMILES IDX 3 13 2 14 19 15 20 16 1 17 18 19 11 21 14 23
REMARK H PARENT 1 18 18 20 11 22 14 24
REMARK Flexibility Score: inf
ROOT
ATOM      1  C   UNL     1       9.319   2.200   8.625  1.00  0.00     0.401 A 
ATOM      2  O   UNL     1      10.179   1.343   8.080  1.00  0.00    -0.202 OA
ATOM      3  C   UNL     1      11.144   1.711   7.244  1.00  0.00     0.368 A 
ATOM      4  C   UNL     1      12.002   0.736   6.725  1.00  0.00     0.162 A 
ATOM      5  C   UNL     1      13.026   1.093   5.848  1.00  0.00     0.128 A 
ATOM      6  C   UNL     1      13.197   2.434   5.485  1.00  0.00     0.093 A 
ATOM      7  C   UNL     1      12.351   3.428   5.991  1.00  0.00     0.136 A 
ATOM      8  C   UNL     1      11.307   3.069   6.882  1.00  0.00     0.125 A 
ATOM      9  C   UNL     1      10.404   3.996   7.428  1.00  0.00     0.078 A 
ATOM     10  C   UNL     1       9.396   3.566   8.296  1.00  0.00     0.223 A 
ENDROOT
BRANCH   1  11
ATOM     11  C   UNL     1       8.294   1.669   9.551  1.00  0.00     0.084 A 
ATOM     12  C   UNL     1       8.657   1.336  10.867  1.00  0.00     0.022 A 
ATOM     13  C   UNL     1       7.700   0.853  11.766  1.00  0.00     0.047 A 
ATOM     14  C   UNL     1       6.368   0.710  11.366  1.00  0.00     0.115 A 
ATOM     15  C   UNL     1       6.948   1.541   9.161  1.00  0.00     0.022 A 
ATOM     16  C   UNL     1       5.993   1.059  10.061  1.00  0.00     0.047 A 
BRANCH  14  17
ATOM     17  O   UNL     1       5.426   0.227  12.271  1.00  0.00    -0.508 OA
ATOM     18  H   UNL     1       4.630   0.786  12.556  1.00  0.00     0.293 HD
ENDBRANCH  14  17
ENDBRANCH   1  11
BRANCH  10  19
ATOM     19  O   UNL     1       8.469   4.479   8.798  1.00  0.00    -0.500 OA
ATOM     20  H   UNL     1       8.349   4.623   9.795  1.00  0.00     0.294 HD
ENDBRANCH  10  19
BRANCH   5  21
ATOM     21  O   UNL     1      13.870   0.107   5.341  1.00  0.00    -0.507 OA
ATOM     22  H   UNL     1      13.506  -0.759   4.964  1.00  0.00     0.293 HD
ENDBRANCH   5  21
BRANCH   7  23
ATOM     23  O   UNL     1      12.589   4.745   5.583  1.00  0.00    -0.507 OA
ATOM     24  H   UNL     1      12.685   5.035   4.621  1.00  0.00     0.293 HD
ENDBRANCH   7  23
TORSDOF 5
ENDMDL
MODEL 2
REMARK VINA RESULT:    26.058      1.089      2.671
REMARK INTER + INTRA:          30.377
REMARK INTER:                  30.647
REMARK INTRA:                  -0.270
REMARK UNBOUND:                -0.252
REMARK SMILES Oc1ccc(-c2[o+]c3cc(O)cc(O)c3cc2O)cc1
REMARK SMILES IDX 6 1 7 2 8 3 9 4 10 5 12 6 13 7 15 8 16 9 17 10 5 11 4 12
REMARK SMILES IDX 3 13 2 14 19 15 20 16 1 17 18 19 11 21 14 23
REMARK H PARENT 1 18 18 20 11 22 14 24
REMARK Flexibility Score: inf
ROOT
ATOM      1  C   UNL     1       9.326   1.342   8.824  1.00  0.00     0.401 A 
ATOM      2  O   UNL     1       9.605   2.554   8.350  1.00  0.00    -0.202 OA
ATOM      3  C   UNL     1      10.550   2.784   7.445  1.00  0.00     0.368 A 
ATOM      4  C   UNL     1      10.766   4.094   7.006  1.00  0.00     0.162 A 
ATOM      5  C   UNL     1      11.749   4.365   6.055  1.00  0.00     0.128 A 
ATOM      6  C   UNL     1      12.523   3.322   5.536  1.00  0.00     0.093 A 
ATOM      7  C   UNL     1      12.326   2.002   5.959  1.00  0.00     0.136 A 
ATOM      8  C   UNL     1      11.329   1.721   6.928  1.00  0.00     0.125 A 
ATOM      9  C   UNL     1      11.070   0.432   7.421  1.00  0.00     0.078 A 
ATOM     10  C   UNL     1      10.073   0.234   8.380  1.00  0.00     0.223 A 
ENDROOT
BRANCH   1  11
ATOM     11  C   UNL     1       8.242   1.212   9.823  1.00  0.00     0.084 A 
ATOM     12  C   UNL     1       8.567   1.081  11.183  1.00  0.00     0.022 A 
ATOM     13  C   UNL     1       7.559   0.979  12.147  1.00  0.00     0.047 A 
ATOM     14  C   UNL     1       6.214   1.021  11.765  1.00  0.00     0.115 A 
ATOM     15  C   UNL     1       6.887   1.274   9.447  1.00  0.00     0.022 A 
ATOM     16  C   UNL     1       5.881   1.172  10.413  1.00  0.00     0.047 A 
BRANCH  14  17
ATOM     17  O   UNL     1       5.221   0.916  12.736  1.00  0.00    -0.508 OA
ATOM     18  H   UNL     1       4.881   1.730  13.234  1.00  0.00     0.293 HD
ENDBRANCH  14  17
ENDBRANCH   1  11
BRANCH  10  19
ATOM     19  O   UNL     1       9.850  -1.039   8.906  1.00  0.00    -0.500 OA
ATOM     20  H   UNL     1       9.224  -1.189   9.688  1.00  0.00     0.294 HD
ENDBRANCH  10  19
BRANCH   5  21
ATOM     21  O   UNL     1      11.950   5.677   5.630  1.00  0.00    -0.507 OA
ATOM     22  H   UNL     1      12.690   6.251   6.015  1.00  0.00     0.293 HD
ENDBRANCH   5  21
BRANCH   7  23
ATOM     23  O   UNL     1      13.139   1.015   5.390  1.00  0.00    -0.507 OA
ATOM     24  H   UNL     1      12.827   0.349   4.699  1.00  0.00     0.293 HD
ENDBRANCH   7  23
TORSDOF 5
ENDMDL
MODEL 3
REMARK VINA RESULT:    26.274      4.567      7.548
REMARK INTER + INTRA:          30.630
REMARK INTER:                  30.850
REMARK INTRA:                  -0.220
REMARK UNBOUND:                -0.252
REMARK SMILES Oc1ccc(-c2[o+]c3cc(O)cc(O)c3cc2O)cc1
REMARK SMILES IDX 6 1 7 2 8 3 9 4 10 5 12 6 13 7 15 8 16 9 17 10 5 11 4 12
REMARK SMILES IDX 3 13 2 14 19 15 20 16 1 17 18 19 11 21 14 23
REMARK H PARENT 1 18 18 20 11 22 14 24
REMARK Flexibility Score: inf
ROOT
ATOM      1  C   UNL     1      15.120   2.962   8.570  1.00  0.00     0.401 A 
ATOM      2  O   UNL     1      14.201   3.806   8.107  1.00  0.00    -0.202 OA
ATOM      3  C   UNL     1      13.227   3.442   7.279  1.00  0.00     0.368 A 
ATOM      4  C   UNL     1      12.306   4.402   6.849  1.00  0.00     0.162 A 
ATOM      5  C   UNL     1      11.272   4.049   5.983  1.00  0.00     0.128 A 
ATOM      6  C   UNL     1      11.154   2.726   5.541  1.00  0.00     0.093 A 
ATOM      7  C   UNL     1      12.063   1.746   5.957  1.00  0.00     0.136 A 
ATOM      8  C   UNL     1      13.118   2.102   6.836  1.00  0.00     0.125 A 
ATOM      9  C   UNL     1      14.083   1.190   7.295  1.00  0.00     0.078 A 
ATOM     10  C   UNL     1      15.098   1.616   8.158  1.00  0.00     0.223 A 
ENDROOT
BRANCH   1  11
ATOM     11  C   UNL     1      16.148   3.486   9.496  1.00  0.00     0.084 A 
ATOM     12  C   UNL     1      15.793   3.797  10.819  1.00  0.00     0.022 A 
ATOM     13  C   UNL     1      16.754   4.274  11.717  1.00  0.00     0.047 A 
ATOM     14  C   UNL     1      18.082   4.430  11.310  1.00  0.00     0.115 A 
ATOM     15  C   UNL     1      17.491   3.627   9.097  1.00  0.00     0.022 A 
ATOM     16  C   UNL     1      18.449   4.103   9.998  1.00  0.00     0.047 A 
BRANCH  14  17
ATOM     17  O   UNL     1      19.027   4.907  12.215  1.00  0.00    -0.508 OA
ATOM     18  H   UNL     1      18.821   4.981  13.205  1.00  0.00     0.293 HD
ENDBRANCH  14  17
ENDBRANCH   1  11
BRANCH  10  19
ATOM     19  O   UNL     1      16.085   0.722   8.573  1.00  0.00    -0.500 OA
ATOM     20  H   UNL     1      15.932  -0.280   8.567  1.00  0.00     0.294 HD
ENDBRANCH  10  19
BRANCH   5  21
ATOM     21  O   UNL     1      10.364   5.020   5.565  1.00  0.00    -0.507 OA
ATOM     22  H   UNL     1       9.417   5.049   5.924  1.00  0.00     0.293 HD
ENDBRANCH   5  21
BRANCH   7  23
ATOM     23  O   UNL     1      11.876   0.447   5.474  1.00  0.00    -0.507 OA
ATOM     24  H   UNL     1      12.540  -0.048   4.897  1.00  0.00     0.293 HD
ENDBRANCH   7  23
TORSDOF 5
ENDMDL
MODEL 4
REMARK VINA RESULT:    26.863      4.810      7.181
REMARK INTER + INTRA:          31.322
REMARK INTER:                  31.585
REMARK INTRA:                  -0.263
REMARK UNBOUND:                -0.252
REMARK SMILES Oc1ccc(-c2[o+]c3cc(O)cc(O)c3cc2O)cc1
REMARK SMILES IDX 6 1 7 2 8 3 9 4 10 5 12 6 13 7 15 8 16 9 17 10 5 11 4 12
REMARK SMILES IDX 3 13 2 14 19 15 20 16 1 17 18 19 11 21 14 23
REMARK H PARENT 1 18 18 20 11 22 14 24
REMARK Flexibility Score: inf
ROOT
ATOM      1  C   UNL     1      15.091   3.792   8.767  1.00  0.00     0.401 A 
ATOM      2  O   UNL     1      14.801   2.596   8.263  1.00  0.00    -0.202 OA
ATOM      3  C   UNL     1      13.841   2.396   7.366  1.00  0.00     0.368 A 
ATOM      4  C   UNL     1      13.613   1.100   6.892  1.00  0.00     0.162 A 
ATOM      5  C   UNL     1      12.614   0.860   5.948  1.00  0.00     0.128 A 
ATOM      6  C   UNL     1      11.837   1.921   5.472  1.00  0.00     0.093 A 
ATOM      7  C   UNL     1      12.046   3.228   5.930  1.00  0.00     0.136 A 
ATOM      8  C   UNL     1      13.059   3.476   6.891  1.00  0.00     0.125 A 
ATOM      9  C   UNL     1      13.330   4.749   7.418  1.00  0.00     0.078 A 
ATOM     10  C   UNL     1      14.343   4.916   8.367  1.00  0.00     0.223 A 
ENDROOT
BRANCH   1  11
ATOM     11  C   UNL     1      16.191   3.888   9.753  1.00  0.00     0.084 A 
ATOM     12  C   UNL     1      17.523   3.885   9.305  1.00  0.00     0.022 A 
ATOM     13  C   UNL     1      18.578   3.996  10.217  1.00  0.00     0.047 A 
ATOM     14  C   UNL     1      18.315   4.127  11.584  1.00  0.00     0.115 A 
ATOM     15  C   UNL     1      15.933   4.040  11.128  1.00  0.00     0.022 A 
ATOM     16  C   UNL     1      16.989   4.152  12.037  1.00  0.00     0.047 A 
BRANCH  14  17
ATOM     17  O   UNL     1      19.376   4.236  12.480  1.00  0.00    -0.508 OA
ATOM     18  H   UNL     1      19.854   5.116  12.629  1.00  0.00     0.293 HD
ENDBRANCH  14  17
ENDBRANCH   1  11
BRANCH  10  19
ATOM     19  O   UNL     1      14.578   6.171   8.927  1.00  0.00    -0.500 OA
ATOM     20  H   UNL     1      15.321   6.773   8.590  1.00  0.00     0.294 HD
ENDBRANCH  10  19
BRANCH   5  21
ATOM     21  O   UNL     1      12.402  -0.438   5.488  1.00  0.00    -0.507 OA
ATOM     22  H   UNL     1      13.159  -1.108   5.425  1.00  0.00     0.293 HD
ENDBRANCH   5  21
BRANCH   7  23
ATOM     23  O   UNL     1      11.229   4.234   5.403  1.00  0.00    -0.507 OA
ATOM     24  H   UNL     1      10.851   4.229   4.467  1.00  0.00     0.293 HD
ENDBRANCH   7  23
TORSDOF 5
ENDMDL
