MODEL 1
REMARK VINA RESULT:    -5.139      0.000      0.000
REMARK INTER + INTRA:          -8.730
REMARK INTER:                  -7.091
REMARK INTRA:                  -1.639
REMARK UNBOUND:                -1.639
REMARK SMILES CC[C@@H](CC[C@@H](C)[C@@H]1CC[C@H]2[C@H]3CC=C4C[C@@H](O)CC[C@]4(C)[C@@H]3CC[C@@]21C)C(C)C
REMARK SMILES IDX 5 1 4 2 3 3 2 4 1 5 28 6 29 7 30 8 6 9 7 10 8 11 9 12 26 13
REMARK SMILES IDX 10 14 11 15 25 16 27 17 12 18 24 19 23 20 13 21 21 22 14 23
REMARK SMILES IDX 15 24 20 25 22 26 16 27 19 28 17 29 18 30
REMARK H PARENT 18 31
REMARK Flexibility Score: inf
ROOT
ATOM      1  C   UNL     1     132.755   4.543 140.570  1.00  0.00     0.004 C 
ENDROOT
BRANCH   1   2
ATOM      2  C   UNL     1     132.715   5.277 141.928  1.00  0.00     0.004 C 
BRANCH   2   3
ATOM      3  C   UNL     1     132.782   6.833 141.869  1.00  0.00    -0.009 C 
BRANCH   3   4
ATOM      4  C   UNL     1     133.624   7.404 140.688  1.00  0.00     0.000 C 
ATOM      5  C   UNL     1     132.869   8.253 139.662  1.00  0.00     0.004 C 
ENDBRANCH   3   4
BRANCH   3   6
ATOM      6  C   UNL     1     132.980   7.545 143.254  1.00  0.00    -0.014 C 
ATOM      7  C   UNL     1     133.525   8.974 143.074  1.00  0.00     0.007 C 
ATOM      8  C   UNL     1     133.879   6.785 144.244  1.00  0.00     0.007 C 
ENDBRANCH   3   6
ENDBRANCH   2   3
ENDBRANCH   1   2
BRANCH   1   9
ATOM      9  C   UNL     1     131.463   3.773 140.169  1.00  0.00    -0.011 C 
ATOM     10  C   UNL     1     131.685   2.246 140.134  1.00  0.00     0.008 C 
BRANCH   9  11
ATOM     11  C   UNL     1     130.172   4.253 140.930  1.00  0.00    -0.002 C 
ATOM     12  C   UNL     1     129.132   3.130 141.230  1.00  0.00     0.005 C 
ATOM     13  C   UNL     1     129.324   5.438 140.308  1.00  0.00    -0.026 C 
ATOM     14  C   UNL     1     127.768   3.604 140.721  1.00  0.00     0.005 C 
ATOM     15  C   UNL     1     128.120   4.684 139.720  1.00  0.00    -0.001 C 
ATOM     16  C   UNL     1     129.963   6.332 139.174  1.00  0.00     0.007 C 
ATOM     17  C   UNL     1     128.926   6.355 141.513  1.00  0.00     0.012 C 
ATOM     18  C   UNL     1     126.988   5.551 139.099  1.00  0.00     0.000 C 
ATOM     19  C   UNL     1     128.977   6.745 138.037  1.00  0.00     0.005 C 
ATOM     20  C   UNL     1     127.521   6.898 138.542  1.00  0.00     0.003 C 
ATOM     21  C   UNL     1     125.774   5.856 139.979  1.00  0.00     0.031 C 
ATOM     22  C   UNL     1     126.485   7.541 137.546  1.00  0.00    -0.008 C 
ATOM     23  C   UNL     1     124.740   6.594 139.162  1.00  0.00    -0.027 C 
ATOM     24  C   UNL     1     125.042   7.337 138.061  1.00  0.00    -0.065 C 
ATOM     25  C   UNL     1     126.586   6.910 136.123  1.00  0.00     0.014 C 
ATOM     26  C   UNL     1     126.770   9.066 137.461  1.00  0.00     0.016 C 
ATOM     27  C   UNL     1     123.915   7.792 137.161  1.00  0.00     0.063 C 
ATOM     28  C   UNL     1     125.450   7.347 135.175  1.00  0.00     0.033 C 
ATOM     29  C   UNL     1     124.057   7.105 135.792  1.00  0.00     0.118 C 
BRANCH  29  30
ATOM     30  O   UNL     1     123.046   7.534 134.915  1.00  0.00    -0.393 OA
ATOM     31  H   UNL     1     122.233   6.998 135.108  1.00  0.00     0.210 HD
ENDBRANCH  29  30
ENDBRANCH   9  11
ENDBRANCH   1   9
TORSDOF 7
ENDMDL
MODEL 2
REMARK VINA RESULT:    -5.078     12.199     15.641
REMARK INTER + INTRA:          -8.647
REMARK INTER:                  -6.688
REMARK INTRA:                  -1.959
REMARK UNBOUND:                -1.639
REMARK SMILES CC[C@@H](CC[C@@H](C)[C@@H]1CC[C@H]2[C@H]3CC=C4C[C@@H](O)CC[C@]4(C)[C@@H]3CC[C@@]21C)C(C)C
REMARK SMILES IDX 5 1 4 2 3 3 2 4 1 5 28 6 29 7 30 8 6 9 7 10 8 11 9 12 26 13
REMARK SMILES IDX 10 14 11 15 25 16 27 17 12 18 24 19 23 20 13 21 21 22 14 23
REMARK SMILES IDX 15 24 20 25 22 26 16 27 19 28 17 29 18 30
REMARK H PARENT 18 31
REMARK Flexibility Score: inf
ROOT
ATOM      1  C   UNL     1     116.982   9.797 141.217  1.00  0.00     0.004 C 
ENDROOT
BRANCH   1   2
ATOM      2  C   UNL     1     115.593   9.123 141.224  1.00  0.00     0.004 C 
BRANCH   2   3
ATOM      3  C   UNL     1     115.570   7.594 140.924  1.00  0.00    -0.009 C 
BRANCH   3   4
ATOM      4  C   UNL     1     116.843   6.822 141.386  1.00  0.00     0.000 C 
ATOM      5  C   UNL     1     116.875   6.382 142.852  1.00  0.00     0.004 C 
ENDBRANCH   3   4
BRANCH   3   6
ATOM      6  C   UNL     1     115.010   7.200 139.511  1.00  0.00    -0.014 C 
ATOM      7  C   UNL     1     116.134   7.142 138.461  1.00  0.00     0.007 C 
ATOM      8  C   UNL     1     113.882   8.109 138.991  1.00  0.00     0.007 C 
ENDBRANCH   3   6
ENDBRANCH   2   3
ENDBRANCH   1   2
BRANCH   1   9
ATOM      9  C   UNL     1     117.310  10.676 139.975  1.00  0.00    -0.011 C 
ATOM     10  C   UNL     1     118.382  10.029 139.073  1.00  0.00     0.008 C 
BRANCH   9  11
ATOM     11  C   UNL     1     116.039  11.227 139.228  1.00  0.00    -0.002 C 
ATOM     12  C   UNL     1     115.949  10.848 137.718  1.00  0.00     0.005 C 
ATOM     13  C   UNL     1     115.750  12.784 139.275  1.00  0.00    -0.026 C 
ATOM     14  C   UNL     1     115.715  12.135 136.923  1.00  0.00     0.005 C 
ATOM     15  C   UNL     1     116.182  13.223 137.867  1.00  0.00    -0.001 C 
ATOM     16  C   UNL     1     116.506  13.679 140.336  1.00  0.00     0.007 C 
ATOM     17  C   UNL     1     114.208  12.926 139.500  1.00  0.00     0.012 C 
ATOM     18  C   UNL     1     115.941  14.714 137.494  1.00  0.00     0.000 C 
ATOM     19  C   UNL     1     116.945  15.081 139.810  1.00  0.00     0.005 C 
ATOM     20  C   UNL     1     115.980  15.641 138.738  1.00  0.00     0.003 C 
ATOM     21  C   UNL     1     114.675  15.045 136.702  1.00  0.00     0.031 C 
ATOM     22  C   UNL     1     116.182  17.143 138.311  1.00  0.00    -0.008 C 
ATOM     23  C   UNL     1     114.687  16.509 136.332  1.00  0.00    -0.027 C 
ATOM     24  C   UNL     1     115.371  17.456 137.033  1.00  0.00    -0.065 C 
ATOM     25  C   UNL     1     117.682  17.462 138.024  1.00  0.00     0.014 C 
ATOM     26  C   UNL     1     115.666  18.052 139.460  1.00  0.00     0.016 C 
ATOM     27  C   UNL     1     115.548  18.826 136.419  1.00  0.00     0.063 C 
ATOM     28  C   UNL     1     117.903  18.852 137.392  1.00  0.00     0.033 C 
ATOM     29  C   UNL     1     117.041  19.058 136.130  1.00  0.00     0.118 C 
BRANCH  29  30
ATOM     30  O   UNL     1     117.249  20.340 135.592  1.00  0.00    -0.393 OA
ATOM     31  H   UNL     1     118.196  20.393 135.297  1.00  0.00     0.210 HD
ENDBRANCH  29  30
ENDBRANCH   9  11
ENDBRANCH   1   9
TORSDOF 7
ENDMDL
MODEL 3
REMARK VINA RESULT:    -5.038     15.797     18.093
REMARK INTER + INTRA:          -8.591
REMARK INTER:                  -6.862
REMARK INTRA:                  -1.728
REMARK UNBOUND:                -1.639
REMARK SMILES CC[C@@H](CC[C@@H](C)[C@@H]1CC[C@H]2[C@H]3CC=C4C[C@@H](O)CC[C@]4(C)[C@@H]3CC[C@@]21C)C(C)C
REMARK SMILES IDX 5 1 4 2 3 3 2 4 1 5 28 6 29 7 30 8 6 9 7 10 8 11 9 12 26 13
REMARK SMILES IDX 10 14 11 15 25 16 27 17 12 18 24 19 23 20 13 21 21 22 14 23
REMARK SMILES IDX 15 24 20 25 22 26 16 27 19 28 17 29 18 30
REMARK H PARENT 18 31
REMARK Flexibility Score: inf
ROOT
ATOM      1  C   UNL     1     116.196  19.929 147.473  1.00  0.00     0.004 C 
ENDROOT
BRANCH   1   2
ATOM      2  C   UNL     1     115.204  19.020 148.232  1.00  0.00     0.004 C 
BRANCH   2   3
ATOM      3  C   UNL     1     115.823  18.075 149.305  1.00  0.00    -0.009 C 
BRANCH   3   4
ATOM      4  C   UNL     1     117.378  17.975 149.265  1.00  0.00     0.000 C 
ATOM      5  C   UNL     1     118.139  18.777 150.323  1.00  0.00     0.004 C 
ENDBRANCH   3   4
BRANCH   3   6
ATOM      6  C   UNL     1     115.059  16.721 149.522  1.00  0.00    -0.014 C 
ATOM      7  C   UNL     1     115.286  16.173 150.943  1.00  0.00     0.007 C 
ATOM      8  C   UNL     1     115.395  15.622 148.500  1.00  0.00     0.007 C 
ENDBRANCH   3   6
ENDBRANCH   2   3
ENDBRANCH   1   2
BRANCH   1   9
ATOM      9  C   UNL     1     116.529  19.508 146.012  1.00  0.00    -0.011 C 
ATOM     10  C   UNL     1     117.967  19.899 145.609  1.00  0.00     0.008 C 
BRANCH   9  11
ATOM     11  C   UNL     1     116.103  18.036 145.657  1.00  0.00    -0.002 C 
ATOM     12  C   UNL     1     117.223  16.966 145.840  1.00  0.00     0.005 C 
ATOM     13  C   UNL     1     115.497  17.749 144.222  1.00  0.00    -0.026 C 
ATOM     14  C   UNL     1     117.324  16.162 144.542  1.00  0.00     0.005 C 
ATOM     15  C   UNL     1     116.681  17.070 143.514  1.00  0.00    -0.001 C 
ATOM     16  C   UNL     1     115.006  18.960 143.334  1.00  0.00     0.007 C 
ATOM     17  C   UNL     1     114.297  16.770 144.452  1.00  0.00     0.012 C 
ATOM     18  C   UNL     1     116.424  16.537 142.075  1.00  0.00     0.000 C 
ATOM     19  C   UNL     1     115.323  18.823 141.812  1.00  0.00     0.005 C 
ATOM     20  C   UNL     1     115.327  17.349 141.338  1.00  0.00     0.003 C 
ATOM     21  C   UNL     1     116.087  15.052 141.927  1.00  0.00     0.031 C 
ATOM     22  C   UNL     1     115.394  17.100 139.785  1.00  0.00    -0.008 C 
ATOM     23  C   UNL     1     115.999  14.706 140.459  1.00  0.00    -0.027 C 
ATOM     24  C   UNL     1     115.708  15.616 139.489  1.00  0.00    -0.065 C 
ATOM     25  C   UNL     1     116.497  17.973 139.110  1.00  0.00     0.014 C 
ATOM     26  C   UNL     1     114.009  17.446 139.173  1.00  0.00     0.016 C 
ATOM     27  C   UNL     1     115.925  15.229 138.043  1.00  0.00     0.063 C 
ATOM     28  C   UNL     1     116.752  17.606 137.633  1.00  0.00     0.033 C 
ATOM     29  C   UNL     1     117.047  16.102 137.454  1.00  0.00     0.118 C 
BRANCH  29  30
ATOM     30  O   UNL     1     117.252  15.797 136.097  1.00  0.00    -0.393 OA
ATOM     31  H   UNL     1     117.316  16.655 135.602  1.00  0.00     0.210 HD
ENDBRANCH  29  30
ENDBRANCH   9  11
ENDBRANCH   1   9
TORSDOF 7
ENDMDL
MODEL 4
REMARK VINA RESULT:    -5.025     15.478     19.241
REMARK INTER + INTRA:          -8.574
REMARK INTER:                  -7.530
REMARK INTRA:                  -1.043
REMARK UNBOUND:                -1.639
REMARK SMILES CC[C@@H](CC[C@@H](C)[C@@H]1CC[C@H]2[C@H]3CC=C4C[C@@H](O)CC[C@]4(C)[C@@H]3CC[C@@]21C)C(C)C
REMARK SMILES IDX 5 1 4 2 3 3 2 4 1 5 28 6 29 7 30 8 6 9 7 10 8 11 9 12 26 13
REMARK SMILES IDX 10 14 11 15 25 16 27 17 12 18 24 19 23 20 13 21 21 22 14 23
REMARK SMILES IDX 15 24 20 25 22 26 16 27 19 28 17 29 18 30
REMARK H PARENT 18 31
REMARK Flexibility Score: inf
ROOT
ATOM      1  C   UNL     1     115.791  17.574 140.827  1.00  0.00     0.004 C 
ENDROOT
BRANCH   1   2
ATOM      2  C   UNL     1     116.811  16.527 140.329  1.00  0.00     0.004 C 
BRANCH   2   3
ATOM      3  C   UNL     1     116.501  15.870 138.950  1.00  0.00    -0.009 C 
BRANCH   3   4
ATOM      4  C   UNL     1     116.182  14.345 139.014  1.00  0.00     0.000 C 
ATOM      5  C   UNL     1     116.519  13.634 140.327  1.00  0.00     0.004 C 
ENDBRANCH   3   4
BRANCH   3   6
ATOM      6  C   UNL     1     117.434  16.321 137.771  1.00  0.00    -0.014 C 
ATOM      7  C   UNL     1     117.935  17.763 137.975  1.00  0.00     0.007 C 
ATOM      8  C   UNL     1     116.805  16.201 136.372  1.00  0.00     0.007 C 
ENDBRANCH   3   6
ENDBRANCH   2   3
ENDBRANCH   1   2
BRANCH   1   9
ATOM      9  C   UNL     1     115.835  17.902 142.348  1.00  0.00    -0.011 C 
ATOM     10  C   UNL     1     114.706  18.868 142.766  1.00  0.00     0.008 C 
BRANCH   9  11
ATOM     11  C   UNL     1     116.022  16.640 143.269  1.00  0.00    -0.002 C 
ATOM     12  C   UNL     1     114.768  15.720 143.384  1.00  0.00     0.005 C 
ATOM     13  C   UNL     1     116.505  16.858 144.762  1.00  0.00    -0.026 C 
ATOM     14  C   UNL     1     114.483  15.494 144.871  1.00  0.00     0.005 C 
ATOM     15  C   UNL     1     115.199  16.646 145.545  1.00  0.00    -0.001 C 
ATOM     16  C   UNL     1     117.122  18.251 145.179  1.00  0.00     0.007 C 
ATOM     17  C   UNL     1     117.558  15.734 145.039  1.00  0.00     0.012 C 
ATOM     18  C   UNL     1     115.301  16.681 147.097  1.00  0.00     0.000 C 
ATOM     19  C   UNL     1     116.711  18.747 146.600  1.00  0.00     0.005 C 
ATOM     20  C   UNL     1     116.466  17.580 147.588  1.00  0.00     0.003 C 
ATOM     21  C   UNL     1     115.408  15.338 147.824  1.00  0.00     0.031 C 
ATOM     22  C   UNL     1     116.284  17.956 149.105  1.00  0.00    -0.008 C 
ATOM     23  C   UNL     1     115.369  15.575 149.315  1.00  0.00    -0.027 C 
ATOM     24  C   UNL     1     115.740  16.747 149.900  1.00  0.00    -0.065 C 
ATOM     25  C   UNL     1     115.288  19.143 149.287  1.00  0.00     0.014 C 
ATOM     26  C   UNL     1     117.671  18.347 149.683  1.00  0.00     0.016 C 
ATOM     27  C   UNL     1     115.395  16.974 151.355  1.00  0.00     0.063 C 
ATOM     28  C   UNL     1     114.906  19.404 150.760  1.00  0.00     0.033 C 
ATOM     29  C   UNL     1     114.385  18.130 151.456  1.00  0.00     0.118 C 
BRANCH  29  30
ATOM     30  O   UNL     1     114.068  18.395 152.800  1.00  0.00    -0.393 OA
ATOM     31  H   UNL     1     114.920  18.423 153.309  1.00  0.00     0.210 HD
ENDBRANCH  29  30
ENDBRANCH   9  11
ENDBRANCH   1   9
TORSDOF 7
ENDMDL
MODEL 5
REMARK VINA RESULT:    -4.914      2.039      4.566
REMARK INTER + INTRA:          -8.420
REMARK INTER:                  -6.276
REMARK INTRA:                  -2.144
REMARK UNBOUND:                -1.639
REMARK SMILES CC[C@@H](CC[C@@H](C)[C@@H]1CC[C@H]2[C@H]3CC=C4C[C@@H](O)CC[C@]4(C)[C@@H]3CC[C@@]21C)C(C)C
REMARK SMILES IDX 5 1 4 2 3 3 2 4 1 5 28 6 29 7 30 8 6 9 7 10 8 11 9 12 26 13
REMARK SMILES IDX 10 14 11 15 25 16 27 17 12 18 24 19 23 20 13 21 21 22 14 23
REMARK SMILES IDX 15 24 20 25 22 26 16 27 19 28 17 29 18 30
REMARK H PARENT 18 31
REMARK Flexibility Score: inf
ROOT
ATOM      1  C   UNL     1     130.654   5.736 141.237  1.00  0.00     0.004 C 
ENDROOT
BRANCH   1   2
ATOM      2  C   UNL     1     131.263   4.340 140.978  1.00  0.00     0.004 C 
BRANCH   2   3
ATOM      3  C   UNL     1     130.250   3.165 140.840  1.00  0.00    -0.009 C 
BRANCH   3   4
ATOM      4  C   UNL     1     130.159   2.548 139.410  1.00  0.00     0.000 C 
ATOM      5  C   UNL     1     131.339   2.824 138.476  1.00  0.00     0.004 C 
ENDBRANCH   3   4
BRANCH   3   6
ATOM      6  C   UNL     1     128.881   3.373 141.579  1.00  0.00    -0.014 C 
ATOM      7  C   UNL     1     128.576   2.203 142.532  1.00  0.00     0.007 C 
ATOM      8  C   UNL     1     127.675   3.591 140.649  1.00  0.00     0.007 C 
ENDBRANCH   3   6
ENDBRANCH   2   3
ENDBRANCH   1   2
BRANCH   1   9
ATOM      9  C   UNL     1     130.804   6.772 140.085  1.00  0.00    -0.011 C 
ATOM     10  C   UNL     1     132.190   7.452 140.094  1.00  0.00     0.008 C 
BRANCH   9  11
ATOM     11  C   UNL     1     130.316   6.247 138.684  1.00  0.00    -0.002 C 
ATOM     12  C   UNL     1     131.206   6.673 137.477  1.00  0.00     0.005 C 
ATOM     13  C   UNL     1     128.833   6.569 138.231  1.00  0.00    -0.026 C 
ATOM     14  C   UNL     1     130.296   7.297 136.417  1.00  0.00     0.005 C 
ATOM     15  C   UNL     1     129.059   7.688 137.201  1.00  0.00    -0.001 C 
ATOM     16  C   UNL     1     127.790   7.076 139.304  1.00  0.00     0.007 C 
ATOM     17  C   UNL     1     128.291   5.254 137.578  1.00  0.00     0.012 C 
ATOM     18  C   UNL     1     127.803   8.204 136.441  1.00  0.00     0.000 C 
ATOM     19  C   UNL     1     126.817   8.184 138.794  1.00  0.00     0.005 C 
ATOM     20  C   UNL     1     126.508   8.053 137.282  1.00  0.00     0.003 C 
ATOM     21  C   UNL     1     127.532   7.619 135.054  1.00  0.00     0.031 C 
ATOM     22  C   UNL     1     125.358   8.961 136.708  1.00  0.00    -0.008 C 
ATOM     23  C   UNL     1     126.353   8.332 134.435  1.00  0.00    -0.027 C 
ATOM     24  C   UNL     1     125.383   8.952 135.163  1.00  0.00    -0.065 C 
ATOM     25  C   UNL     1     125.500  10.439 137.187  1.00  0.00     0.014 C 
ATOM     26  C   UNL     1     123.996   8.387 137.185  1.00  0.00     0.016 C 
ATOM     27  C   UNL     1     124.416   9.870 134.449  1.00  0.00     0.063 C 
ATOM     28  C   UNL     1     124.531  11.409 136.478  1.00  0.00     0.033 C 
ATOM     29  C   UNL     1     124.636  11.311 134.942  1.00  0.00     0.118 C 
BRANCH  29  30
ATOM     30  O   UNL     1     123.726  12.189 134.327  1.00  0.00    -0.393 OA
ATOM     31  H   UNL     1     123.079  12.485 135.020  1.00  0.00     0.210 HD
ENDBRANCH  29  30
ENDBRANCH   9  11
ENDBRANCH   1   9
TORSDOF 7
ENDMDL
MODEL 6
REMARK VINA RESULT:    -4.747      2.199      3.488
REMARK INTER + INTRA:          -8.190
REMARK INTER:                  -6.176
REMARK INTRA:                  -2.014
REMARK UNBOUND:                -1.639
REMARK SMILES CC[C@@H](CC[C@@H](C)[C@@H]1CC[C@H]2[C@H]3CC=C4C[C@@H](O)CC[C@]4(C)[C@@H]3CC[C@@]21C)C(C)C
REMARK SMILES IDX 5 1 4 2 3 3 2 4 1 5 28 6 29 7 30 8 6 9 7 10 8 11 9 12 26 13
REMARK SMILES IDX 10 14 11 15 25 16 27 17 12 18 24 19 23 20 13 21 21 22 14 23
REMARK SMILES IDX 15 24 20 25 22 26 16 27 19 28 17 29 18 30
REMARK H PARENT 18 31
REMARK Flexibility Score: inf
ROOT
ATOM      1  C   UNL     1     131.073   3.820 137.974  1.00  0.00     0.004 C 
ENDROOT
BRANCH   1   2
ATOM      2  C   UNL     1     131.448   4.840 139.071  1.00  0.00     0.004 C 
BRANCH   2   3
ATOM      3  C   UNL     1     131.331   4.340 140.542  1.00  0.00    -0.009 C 
BRANCH   3   4
ATOM      4  C   UNL     1     130.209   3.285 140.783  1.00  0.00     0.000 C 
ATOM      5  C   UNL     1     129.086   3.695 141.740  1.00  0.00     0.004 C 
ENDBRANCH   3   4
BRANCH   3   6
ATOM      6  C   UNL     1     131.465   5.456 141.638  1.00  0.00    -0.014 C 
ATOM      7  C   UNL     1     131.005   6.824 141.103  1.00  0.00     0.007 C 
ATOM      8  C   UNL     1     132.874   5.599 142.240  1.00  0.00     0.007 C 
ENDBRANCH   3   6
ENDBRANCH   2   3
ENDBRANCH   1   2
BRANCH   1   9
ATOM      9  C   UNL     1     129.832   4.176 137.103  1.00  0.00    -0.011 C 
ATOM     10  C   UNL     1     129.614   3.159 135.962  1.00  0.00     0.008 C 
BRANCH   9  11
ATOM     11  C   UNL     1     128.550   4.545 137.937  1.00  0.00    -0.002 C 
ATOM     12  C   UNL     1     127.274   3.724 137.577  1.00  0.00     0.005 C 
ATOM     13  C   UNL     1     128.071   6.055 137.957  1.00  0.00    -0.026 C 
ATOM     14  C   UNL     1     126.137   4.713 137.310  1.00  0.00     0.005 C 
ATOM     15  C   UNL     1     126.861   6.010 137.010  1.00  0.00    -0.001 C 
ATOM     16  C   UNL     1     129.057   7.186 137.462  1.00  0.00     0.007 C 
ATOM     17  C   UNL     1     127.661   6.353 139.438  1.00  0.00     0.012 C 
ATOM     18  C   UNL     1     126.044   7.325 136.856  1.00  0.00     0.000 C 
ATOM     19  C   UNL     1     128.379   8.327 136.642  1.00  0.00     0.005 C 
ATOM     20  C   UNL     1     126.917   8.587 137.081  1.00  0.00     0.003 C 
ATOM     21  C   UNL     1     124.781   7.470 137.708  1.00  0.00     0.031 C 
ATOM     22  C   UNL     1     126.214   9.867 136.497  1.00  0.00    -0.008 C 
ATOM     23  C   UNL     1     124.067   8.745 137.325  1.00  0.00    -0.027 C 
ATOM     24  C   UNL     1     124.692   9.818 136.766  1.00  0.00    -0.065 C 
ATOM     25  C   UNL     1     126.430   9.990 134.957  1.00  0.00     0.014 C 
ATOM     26  C   UNL     1     126.803  11.117 137.207  1.00  0.00     0.016 C 
ATOM     27  C   UNL     1     123.847  10.919 136.165  1.00  0.00     0.063 C 
ATOM     28  C   UNL     1     125.580  11.101 134.305  1.00  0.00     0.033 C 
ATOM     29  C   UNL     1     124.082  10.958 134.645  1.00  0.00     0.118 C 
BRANCH  29  30
ATOM     30  O   UNL     1     123.340  11.996 134.055  1.00  0.00    -0.393 OA
ATOM     31  H   UNL     1     122.465  11.619 133.776  1.00  0.00     0.210 HD
ENDBRANCH  29  30
ENDBRANCH   9  11
ENDBRANCH   1   9
TORSDOF 7
ENDMDL
MODEL 7
REMARK VINA RESULT:    -4.737      2.978      7.886
REMARK INTER + INTRA:          -8.176
REMARK INTER:                  -6.695
REMARK INTRA:                  -1.481
REMARK UNBOUND:                -1.639
REMARK SMILES CC[C@@H](CC[C@@H](C)[C@@H]1CC[C@H]2[C@H]3CC=C4C[C@@H](O)CC[C@]4(C)[C@@H]3CC[C@@]21C)C(C)C
REMARK SMILES IDX 5 1 4 2 3 3 2 4 1 5 28 6 29 7 30 8 6 9 7 10 8 11 9 12 26 13
REMARK SMILES IDX 10 14 11 15 25 16 27 17 12 18 24 19 23 20 13 21 21 22 14 23
REMARK SMILES IDX 15 24 20 25 22 26 16 27 19 28 17 29 18 30
REMARK H PARENT 18 31
REMARK Flexibility Score: inf
ROOT
ATOM      1  C   UNL     1     127.568   8.180 135.545  1.00  0.00     0.004 C 
ENDROOT
BRANCH   1   2
ATOM      2  C   UNL     1     126.880   9.446 134.989  1.00  0.00     0.004 C 
BRANCH   2   3
ATOM      3  C   UNL     1     125.535   9.849 135.665  1.00  0.00    -0.009 C 
BRANCH   3   4
ATOM      4  C   UNL     1     124.266   9.591 134.795  1.00  0.00     0.000 C 
ATOM      5  C   UNL     1     123.347   8.456 135.254  1.00  0.00     0.004 C 
ENDBRANCH   3   4
BRANCH   3   6
ATOM      6  C   UNL     1     125.561  11.212 136.443  1.00  0.00    -0.014 C 
ATOM      7  C   UNL     1     126.683  11.232 137.497  1.00  0.00     0.007 C 
ATOM      8  C   UNL     1     124.232  11.592 137.118  1.00  0.00     0.007 C 
ENDBRANCH   3   6
ENDBRANCH   2   3
ENDBRANCH   1   2
BRANCH   1   9
ATOM      9  C   UNL     1     126.720   6.875 135.523  1.00  0.00    -0.011 C 
ATOM     10  C   UNL     1     127.112   5.949 134.351  1.00  0.00     0.008 C 
BRANCH   9  11
ATOM     11  C   UNL     1     126.588   6.174 136.925  1.00  0.00    -0.002 C 
ATOM     12  C   UNL     1     125.704   6.937 137.959  1.00  0.00     0.005 C 
ATOM     13  C   UNL     1     127.912   5.807 137.714  1.00  0.00    -0.026 C 
ATOM     14  C   UNL     1     126.511   7.086 139.250  1.00  0.00     0.005 C 
ATOM     15  C   UNL     1     127.943   6.900 138.795  1.00  0.00    -0.001 C 
ATOM     16  C   UNL     1     129.294   5.813 136.950  1.00  0.00     0.007 C 
ATOM     17  C   UNL     1     127.670   4.381 138.313  1.00  0.00     0.012 C 
ATOM     18  C   UNL     1     129.078   6.804 139.855  1.00  0.00     0.000 C 
ATOM     19  C   UNL     1     130.492   6.376 137.776  1.00  0.00     0.005 C 
ATOM     20  C   UNL     1     130.345   6.107 139.294  1.00  0.00     0.003 C 
ATOM     21  C   UNL     1     128.734   6.145 141.193  1.00  0.00     0.031 C 
ATOM     22  C   UNL     1     131.598   6.410 140.197  1.00  0.00    -0.008 C 
ATOM     23  C   UNL     1     129.918   6.261 142.123  1.00  0.00    -0.027 C 
ATOM     24  C   UNL     1     131.203   6.398 141.691  1.00  0.00    -0.065 C 
ATOM     25  C   UNL     1     132.217   7.805 139.870  1.00  0.00     0.014 C 
ATOM     26  C   UNL     1     132.657   5.300 139.955  1.00  0.00     0.016 C 
ATOM     27  C   UNL     1     132.267   6.790 142.692  1.00  0.00     0.063 C 
ATOM     28  C   UNL     1     133.306   8.242 140.873  1.00  0.00     0.033 C 
ATOM     29  C   UNL     1     132.805   8.185 142.331  1.00  0.00     0.118 C 
BRANCH  29  30
ATOM     30  O   UNL     1     133.826   8.567 143.220  1.00  0.00    -0.393 OA
ATOM     31  H   UNL     1     133.481   8.447 144.143  1.00  0.00     0.210 HD
ENDBRANCH  29  30
ENDBRANCH   9  11
ENDBRANCH   1   9
TORSDOF 7
ENDMDL
MODEL 8
REMARK VINA RESULT:    -4.691      2.060      3.980
REMARK INTER + INTRA:          -8.112
REMARK INTER:                  -6.546
REMARK INTRA:                  -1.566
REMARK UNBOUND:                -1.639
REMARK SMILES CC[C@@H](CC[C@@H](C)[C@@H]1CC[C@H]2[C@H]3CC=C4C[C@@H](O)CC[C@]4(C)[C@@H]3CC[C@@]21C)C(C)C
REMARK SMILES IDX 5 1 4 2 3 3 2 4 1 5 28 6 29 7 30 8 6 9 7 10 8 11 9 12 26 13
REMARK SMILES IDX 10 14 11 15 25 16 27 17 12 18 24 19 23 20 13 21 21 22 14 23
REMARK SMILES IDX 15 24 20 25 22 26 16 27 19 28 17 29 18 30
REMARK H PARENT 18 31
REMARK Flexibility Score: inf
ROOT
ATOM      1  C   UNL     1     131.966   5.078 139.226  1.00  0.00     0.004 C 
ENDROOT
BRANCH   1   2
ATOM      2  C   UNL     1     131.553   4.519 140.605  1.00  0.00     0.004 C 
BRANCH   2   3
ATOM      3  C   UNL     1     131.493   5.548 141.773  1.00  0.00    -0.009 C 
BRANCH   3   4
ATOM      4  C   UNL     1     130.156   6.346 141.869  1.00  0.00     0.000 C 
ATOM      5  C   UNL     1     128.875   5.515 141.969  1.00  0.00     0.004 C 
ENDBRANCH   3   4
BRANCH   3   6
ATOM      6  C   UNL     1     132.803   6.386 141.992  1.00  0.00    -0.014 C 
ATOM      7  C   UNL     1     133.800   5.636 142.894  1.00  0.00     0.007 C 
ATOM      8  C   UNL     1     132.575   7.798 142.559  1.00  0.00     0.007 C 
ENDBRANCH   3   6
ENDBRANCH   2   3
ENDBRANCH   1   2
BRANCH   1   9
ATOM      9  C   UNL     1     131.047   6.186 138.634  1.00  0.00    -0.011 C 
ATOM     10  C   UNL     1     131.791   7.528 138.466  1.00  0.00     0.008 C 
BRANCH   9  11
ATOM     11  C   UNL     1     130.203   5.720 137.390  1.00  0.00    -0.002 C 
ATOM     12  C   UNL     1     130.842   6.043 136.005  1.00  0.00     0.005 C 
ATOM     13  C   UNL     1     128.701   6.209 137.270  1.00  0.00    -0.026 C 
ATOM     14  C   UNL     1     129.792   6.767 135.159  1.00  0.00     0.005 C 
ATOM     15  C   UNL     1     128.813   7.295 136.187  1.00  0.00    -0.001 C 
ATOM     16  C   UNL     1     127.987   6.830 138.535  1.00  0.00     0.007 C 
ATOM     17  C   UNL     1     127.884   4.964 136.786  1.00  0.00     0.012 C 
ATOM     18  C   UNL     1     127.484   7.950 135.714  1.00  0.00     0.000 C 
ATOM     19  C   UNL     1     127.053   8.041 138.226  1.00  0.00     0.005 C 
ATOM     20  C   UNL     1     126.401   7.946 136.825  1.00  0.00     0.003 C 
ATOM     21  C   UNL     1     126.846   7.400 134.436  1.00  0.00     0.031 C 
ATOM     22  C   UNL     1     125.260   8.979 136.498  1.00  0.00    -0.008 C 
ATOM     23  C   UNL     1     125.645   8.243 134.077  1.00  0.00    -0.027 C 
ATOM     24  C   UNL     1     124.937   8.968 134.986  1.00  0.00    -0.065 C 
ATOM     25  C   UNL     1     125.667  10.432 136.896  1.00  0.00     0.014 C 
ATOM     26  C   UNL     1     123.984   8.563 137.280  1.00  0.00     0.016 C 
ATOM     27  C   UNL     1     123.943   9.990 134.483  1.00  0.00     0.063 C 
ATOM     28  C   UNL     1     124.678  11.505 136.396  1.00  0.00     0.033 C 
ATOM     29  C   UNL     1     124.425  11.397 134.879  1.00  0.00     0.118 C 
BRANCH  29  30
ATOM     30  O   UNL     1     123.503  12.373 134.460  1.00  0.00    -0.393 OA
ATOM     31  H   UNL     1     123.998  13.227 134.354  1.00  0.00     0.210 HD
ENDBRANCH  29  30
ENDBRANCH   9  11
ENDBRANCH   1   9
TORSDOF 7
ENDMDL
MODEL 9
REMARK VINA RESULT:    -3.612     12.807     16.950
REMARK INTER + INTRA:          -6.623
REMARK INTER:                  -4.851
REMARK INTRA:                  -1.772
REMARK UNBOUND:                -1.639
REMARK SMILES CC[C@@H](CC[C@@H](C)[C@@H]1CC[C@H]2[C@H]3CC=C4C[C@@H](O)CC[C@]4(C)[C@@H]3CC[C@@]21C)C(C)C
REMARK SMILES IDX 5 1 4 2 3 3 2 4 1 5 28 6 29 7 30 8 6 9 7 10 8 11 9 12 26 13
REMARK SMILES IDX 10 14 11 15 25 16 27 17 12 18 24 19 23 20 13 21 21 22 14 23
REMARK SMILES IDX 15 24 20 25 22 26 16 27 19 28 17 29 18 30
REMARK H PARENT 18 31
REMARK Flexibility Score: inf
ROOT
ATOM      1  C   UNL     1     116.660  17.233 136.080  1.00  0.00     0.004 C 
ENDROOT
BRANCH   1   2
ATOM      2  C   UNL     1     115.554  18.311 136.033  1.00  0.00     0.004 C 
BRANCH   2   3
ATOM      3  C   UNL     1     116.029  19.769 135.756  1.00  0.00    -0.009 C 
BRANCH   3   4
ATOM      4  C   UNL     1     117.496  19.889 135.240  1.00  0.00     0.000 C 
ATOM      5  C   UNL     1     118.453  20.714 136.102  1.00  0.00     0.004 C 
ENDBRANCH   3   4
BRANCH   3   6
ATOM      6  C   UNL     1     115.596  20.828 136.831  1.00  0.00    -0.014 C 
ATOM      7  C   UNL     1     115.355  20.166 138.200  1.00  0.00     0.007 C 
ATOM      8  C   UNL     1     114.361  21.662 136.451  1.00  0.00     0.007 C 
ENDBRANCH   3   6
ENDBRANCH   2   3
ENDBRANCH   1   2
BRANCH   1   9
ATOM      9  C   UNL     1     117.085  16.751 137.497  1.00  0.00    -0.011 C 
ATOM     10  C   UNL     1     118.177  17.651 138.113  1.00  0.00     0.008 C 
BRANCH   9  11
ATOM     11  C   UNL     1     115.877  16.406 138.445  1.00  0.00    -0.002 C 
ATOM     12  C   UNL     1     116.022  16.927 139.908  1.00  0.00     0.005 C 
ATOM     13  C   UNL     1     115.440  14.891 138.593  1.00  0.00    -0.026 C 
ATOM     14  C   UNL     1     115.774  15.749 140.853  1.00  0.00     0.005 C 
ATOM     15  C   UNL     1     116.010  14.537 139.976  1.00  0.00    -0.001 C 
ATOM     16  C   UNL     1     115.964  13.830 137.546  1.00  0.00     0.007 C 
ATOM     17  C   UNL     1     113.875  14.894 138.573  1.00  0.00     0.012 C 
ATOM     18  C   UNL     1     115.681  13.119 140.526  1.00  0.00     0.000 C 
ATOM     19  C   UNL     1     116.335  12.442 138.155  1.00  0.00     0.005 C 
ATOM     20  C   UNL     1     115.470  12.085 139.389  1.00  0.00     0.003 C 
ATOM     21  C   UNL     1     114.504  12.997 141.495  1.00  0.00     0.031 C 
ATOM     22  C   UNL     1     115.585  10.615 139.939  1.00  0.00    -0.008 C 
ATOM     23  C   UNL     1     114.427  11.578 142.009  1.00  0.00    -0.027 C 
ATOM     24  C   UNL     1     114.923  10.506 141.331  1.00  0.00    -0.065 C 
ATOM     25  C   UNL     1     117.073  10.166 140.073  1.00  0.00     0.014 C 
ATOM     26  C   UNL     1     114.840   9.666 138.960  1.00  0.00     0.016 C 
ATOM     27  C   UNL     1     115.049   9.185 142.056  1.00  0.00     0.063 C 
ATOM     28  C   UNL     1     117.244   8.823 140.812  1.00  0.00     0.033 C 
ATOM     29  C   UNL     1     116.539   8.824 142.184  1.00  0.00     0.118 C 
BRANCH  29  30
ATOM     30  O   UNL     1     116.695   7.580 142.821  1.00  0.00    -0.393 OA
ATOM     31  H   UNL     1     117.244   7.725 143.636  1.00  0.00     0.210 HD
ENDBRANCH  29  30
ENDBRANCH   9  11
ENDBRANCH   1   9
TORSDOF 7
ENDMDL
