MODEL 1
REMARK VINA RESULT:    -5.429      0.000      0.000
REMARK INTER + INTRA:          -8.959
REMARK INTER:                  -7.492
REMARK INTRA:                  -1.467
REMARK UNBOUND:                -1.467
REMARK SMILES CC[C@H](CC[C@H](C)[C@@H]1CC[C@@H]2[C@H]3CC=C4C[C@H](O)CC[C@@]4(C)[C@@H]3CC[C@]21C)C(C)C
REMARK SMILES IDX 5 1 4 2 3 3 2 4 1 5 28 6 29 7 30 8 6 9 7 10 8 11 9 12 26 13
REMARK SMILES IDX 10 14 11 15 25 16 27 17 12 18 24 19 23 20 13 21 21 22 14 23
REMARK SMILES IDX 15 24 20 25 22 26 16 27 19 28 17 29 18 30
REMARK H PARENT 18 31
REMARK Flexibility Score: inf
ROOT
ATOM      1  C   UNL     1      19.382  -8.775  12.965  1.00  0.00     0.004 C 
ENDROOT
BRANCH   1   2
ATOM      2  C   UNL     1      18.511  -7.724  12.227  1.00  0.00     0.004 C 
BRANCH   2   3
ATOM      3  C   UNL     1      19.157  -7.218  10.907  1.00  0.00    -0.009 C 
BRANCH   3   4
ATOM      4  C   UNL     1      18.186  -7.452   9.715  1.00  0.00     0.000 C 
ATOM      5  C   UNL     1      18.535  -8.685   8.879  1.00  0.00     0.004 C 
ENDBRANCH   3   4
BRANCH   3   6
ATOM      6  C   UNL     1      19.636  -5.729  11.004  1.00  0.00    -0.014 C 
ATOM      7  C   UNL     1      18.495  -4.788  11.422  1.00  0.00     0.007 C 
ATOM      8  C   UNL     1      20.306  -5.210   9.720  1.00  0.00     0.007 C 
ENDBRANCH   3   6
ENDBRANCH   2   3
ENDBRANCH   1   2
BRANCH   1   9
ATOM      9  C   UNL     1      20.645  -8.217  13.676  1.00  0.00    -0.011 C 
ATOM     10  C   UNL     1      21.885  -9.082  13.380  1.00  0.00     0.008 C 
BRANCH   9  11
ATOM     11  C   UNL     1      20.526  -7.899  15.216  1.00  0.00    -0.002 C 
ATOM     12  C   UNL     1      19.224  -8.293  15.964  1.00  0.00     0.005 C 
ATOM     13  C   UNL     1      20.722  -6.412  15.618  1.00  0.00    -0.026 C 
ATOM     14  C   UNL     1      19.107  -7.336  17.167  1.00  0.00     0.005 C 
ATOM     15  C   UNL     1      20.377  -6.494  17.112  1.00  0.00    -0.001 C 
ATOM     16  C   UNL     1      22.172  -5.892  15.505  1.00  0.00     0.007 C 
ATOM     17  C   UNL     1      19.745  -5.488  14.809  1.00  0.00     0.012 C 
ATOM     18  C   UNL     1      20.396  -5.124  17.826  1.00  0.00     0.000 C 
ATOM     19  C   UNL     1      22.312  -4.508  16.178  1.00  0.00     0.005 C 
ATOM     20  C   UNL     1      21.810  -4.484  17.660  1.00  0.00     0.003 C 
ATOM     21  C   UNL     1      20.093  -5.296  19.321  1.00  0.00     0.031 C 
ATOM     22  C   UNL     1      21.881  -3.062  18.339  1.00  0.00    -0.008 C 
ATOM     23  C   UNL     1      20.361  -4.048  20.113  1.00  0.00    -0.027 C 
ATOM     24  C   UNL     1      21.256  -3.104  19.747  1.00  0.00    -0.065 C 
ATOM     25  C   UNL     1      23.377  -2.635  18.470  1.00  0.00     0.014 C 
ATOM     26  C   UNL     1      21.117  -1.998  17.503  1.00  0.00     0.016 C 
ATOM     27  C   UNL     1      21.518  -1.951  20.698  1.00  0.00     0.063 C 
ATOM     28  C   UNL     1      23.598  -1.403  19.360  1.00  0.00     0.033 C 
ATOM     29  C   UNL     1      23.018  -1.632  20.763  1.00  0.00     0.118 C 
BRANCH  29  30
ATOM     30  O   UNL     1      23.253  -0.516  21.585  1.00  0.00    -0.393 OA
ATOM     31  H   UNL     1      22.395  -0.283  22.031  1.00  0.00     0.210 HD
ENDBRANCH  29  30
ENDBRANCH   9  11
ENDBRANCH   1   9
TORSDOF 7
ENDMDL
MODEL 2
REMARK VINA RESULT:    -5.412      4.586      7.228
REMARK INTER + INTRA:          -8.935
REMARK INTER:                  -8.066
REMARK INTRA:                  -0.869
REMARK UNBOUND:                -1.467
REMARK SMILES CC[C@H](CC[C@H](C)[C@@H]1CC[C@@H]2[C@H]3CC=C4C[C@H](O)CC[C@@]4(C)[C@@H]3CC[C@]21C)C(C)C
REMARK SMILES IDX 5 1 4 2 3 3 2 4 1 5 28 6 29 7 30 8 6 9 7 10 8 11 9 12 26 13
REMARK SMILES IDX 10 14 11 15 25 16 27 17 12 18 24 19 23 20 13 21 21 22 14 23
REMARK SMILES IDX 15 24 20 25 22 26 16 27 19 28 17 29 18 30
REMARK H PARENT 18 31
REMARK Flexibility Score: inf
ROOT
ATOM      1  C   UNL     1      25.112  -1.344  16.174  1.00  0.00     0.004 C 
ENDROOT
BRANCH   1   2
ATOM      2  C   UNL     1      24.496  -0.511  15.018  1.00  0.00     0.004 C 
BRANCH   2   3
ATOM      3  C   UNL     1      25.555   0.312  14.232  1.00  0.00    -0.009 C 
BRANCH   3   4
ATOM      4  C   UNL     1      26.827  -0.548  13.991  1.00  0.00     0.000 C 
ATOM      5  C   UNL     1      26.990  -1.002  12.539  1.00  0.00     0.004 C 
ENDBRANCH   3   4
BRANCH   3   6
ATOM      6  C   UNL     1      24.982   0.918  12.905  1.00  0.00    -0.014 C 
ATOM      7  C   UNL     1      25.522   2.334  12.644  1.00  0.00     0.007 C 
ATOM      8  C   UNL     1      23.444   0.918  12.839  1.00  0.00     0.007 C 
ENDBRANCH   3   6
ENDBRANCH   2   3
ENDBRANCH   1   2
BRANCH   1   9
ATOM      9  C   UNL     1      24.210  -1.520  17.426  1.00  0.00    -0.011 C 
ATOM     10  C   UNL     1      24.936  -1.074  18.709  1.00  0.00     0.008 C 
BRANCH   9  11
ATOM     11  C   UNL     1      23.511  -2.921  17.622  1.00  0.00    -0.002 C 
ATOM     12  C   UNL     1      23.335  -3.849  16.391  1.00  0.00     0.005 C 
ATOM     13  C   UNL     1      22.088  -2.887  18.241  1.00  0.00    -0.026 C 
ATOM     14  C   UNL     1      22.124  -4.753  16.698  1.00  0.00     0.005 C 
ATOM     15  C   UNL     1      21.710  -4.371  18.115  1.00  0.00    -0.001 C 
ATOM     16  C   UNL     1      22.038  -2.523  19.741  1.00  0.00     0.007 C 
ATOM     17  C   UNL     1      21.149  -1.939  17.416  1.00  0.00     0.012 C 
ATOM     18  C   UNL     1      20.270  -4.683  18.583  1.00  0.00     0.000 C 
ATOM     19  C   UNL     1      20.629  -2.781  20.321  1.00  0.00     0.005 C 
ATOM     20  C   UNL     1      20.111  -4.236  20.070  1.00  0.00     0.003 C 
ATOM     21  C   UNL     1      19.988  -6.187  18.473  1.00  0.00     0.031 C 
ATOM     22  C   UNL     1      18.646  -4.497  20.594  1.00  0.00    -0.008 C 
ATOM     23  C   UNL     1      18.713  -6.588  19.161  1.00  0.00    -0.027 C 
ATOM     24  C   UNL     1      18.174  -5.908  20.197  1.00  0.00    -0.065 C 
ATOM     25  C   UNL     1      18.637  -4.387  22.152  1.00  0.00     0.014 C 
ATOM     26  C   UNL     1      17.644  -3.468  20.003  1.00  0.00     0.016 C 
ATOM     27  C   UNL     1      16.947  -6.488  20.879  1.00  0.00     0.063 C 
ATOM     28  C   UNL     1      17.341  -4.890  22.804  1.00  0.00     0.033 C 
ATOM     29  C   UNL     1      17.055  -6.344  22.403  1.00  0.00     0.118 C 
BRANCH  29  30
ATOM     30  O   UNL     1      15.887  -6.811  23.030  1.00  0.00    -0.393 OA
ATOM     31  H   UNL     1      15.111  -6.376  22.586  1.00  0.00     0.210 HD
ENDBRANCH  29  30
ENDBRANCH   9  11
ENDBRANCH   1   9
TORSDOF 7
ENDMDL
MODEL 3
REMARK VINA RESULT:    -5.252      2.180      4.933
REMARK INTER + INTRA:          -8.715
REMARK INTER:                  -7.930
REMARK INTRA:                  -0.785
REMARK UNBOUND:                -1.467
REMARK SMILES CC[C@H](CC[C@H](C)[C@@H]1CC[C@@H]2[C@H]3CC=C4C[C@H](O)CC[C@@]4(C)[C@@H]3CC[C@]21C)C(C)C
REMARK SMILES IDX 5 1 4 2 3 3 2 4 1 5 28 6 29 7 30 8 6 9 7 10 8 11 9 12 26 13
REMARK SMILES IDX 10 14 11 15 25 16 27 17 12 18 24 19 23 20 13 21 21 22 14 23
REMARK SMILES IDX 15 24 20 25 22 26 16 27 19 28 17 29 18 30
REMARK H PARENT 18 31
REMARK Flexibility Score: inf
ROOT
ATOM      1  C   UNL     1      19.957  -5.244  15.957  1.00  0.00     0.004 C 
ENDROOT
BRANCH   1   2
ATOM      2  C   UNL     1      20.500  -6.660  15.626  1.00  0.00     0.004 C 
BRANCH   2   3
ATOM      3  C   UNL     1      21.870  -6.629  14.892  1.00  0.00    -0.009 C 
BRANCH   3   4
ATOM      4  C   UNL     1      22.977  -7.224  15.806  1.00  0.00     0.000 C 
ATOM      5  C   UNL     1      22.444  -7.773  17.131  1.00  0.00     0.004 C 
ENDBRANCH   3   4
BRANCH   3   6
ATOM      6  C   UNL     1      21.815  -7.323  13.488  1.00  0.00    -0.014 C 
ATOM      7  C   UNL     1      20.630  -6.820  12.648  1.00  0.00     0.007 C 
ATOM      8  C   UNL     1      21.798  -8.860  13.559  1.00  0.00     0.007 C 
ENDBRANCH   3   6
ENDBRANCH   2   3
ENDBRANCH   1   2
BRANCH   1   9
ATOM      9  C   UNL     1      19.186  -5.119  17.299  1.00  0.00    -0.011 C 
ATOM     10  C   UNL     1      17.775  -4.538  17.085  1.00  0.00     0.008 C 
BRANCH   9  11
ATOM     11  C   UNL     1      19.924  -4.400  18.493  1.00  0.00    -0.002 C 
ATOM     12  C   UNL     1      19.084  -3.590  19.515  1.00  0.00     0.005 C 
ATOM     13  C   UNL     1      21.045  -3.402  18.093  1.00  0.00    -0.026 C 
ATOM     14  C   UNL     1      20.028  -2.525  20.109  1.00  0.00     0.005 C 
ATOM     15  C   UNL     1      21.383  -2.818  19.473  1.00  0.00    -0.001 C 
ATOM     16  C   UNL     1      22.330  -4.053  17.538  1.00  0.00     0.007 C 
ATOM     17  C   UNL     1      20.496  -2.330  17.087  1.00  0.00     0.012 C 
ATOM     18  C   UNL     1      22.444  -1.695  19.425  1.00  0.00     0.000 C 
ATOM     19  C   UNL     1      23.468  -3.013  17.430  1.00  0.00     0.005 C 
ATOM     20  C   UNL     1      23.746  -2.254  18.770  1.00  0.00     0.003 C 
ATOM     21  C   UNL     1      22.763  -1.202  20.843  1.00  0.00     0.031 C 
ATOM     22  C   UNL     1      24.857  -1.140  18.660  1.00  0.00    -0.008 C 
ATOM     23  C   UNL     1      23.972  -0.310  20.886  1.00  0.00    -0.027 C 
ATOM     24  C   UNL     1      24.978  -0.365  19.985  1.00  0.00    -0.065 C 
ATOM     25  C   UNL     1      26.229  -1.819  18.352  1.00  0.00     0.014 C 
ATOM     26  C   UNL     1      24.527  -0.123  17.532  1.00  0.00     0.016 C 
ATOM     27  C   UNL     1      26.197   0.510  20.212  1.00  0.00     0.063 C 
ATOM     28  C   UNL     1      27.435  -0.880  18.495  1.00  0.00     0.033 C 
ATOM     29  C   UNL     1      27.485  -0.264  19.900  1.00  0.00     0.118 C 
BRANCH  29  30
ATOM     30  O   UNL     1      28.610   0.568  20.037  1.00  0.00    -0.393 OA
ATOM     31  H   UNL     1      28.473   1.361  19.453  1.00  0.00     0.210 HD
ENDBRANCH  29  30
ENDBRANCH   9  11
ENDBRANCH   1   9
TORSDOF 7
ENDMDL
MODEL 4
REMARK VINA RESULT:    -5.237      4.316      7.653
REMARK INTER + INTRA:          -8.694
REMARK INTER:                  -8.483
REMARK INTRA:                  -0.211
REMARK UNBOUND:                -1.467
REMARK SMILES CC[C@H](CC[C@H](C)[C@@H]1CC[C@@H]2[C@H]3CC=C4C[C@H](O)CC[C@@]4(C)[C@@H]3CC[C@]21C)C(C)C
REMARK SMILES IDX 5 1 4 2 3 3 2 4 1 5 28 6 29 7 30 8 6 9 7 10 8 11 9 12 26 13
REMARK SMILES IDX 10 14 11 15 25 16 27 17 12 18 24 19 23 20 13 21 21 22 14 23
REMARK SMILES IDX 15 24 20 25 22 26 16 27 19 28 17 29 18 30
REMARK H PARENT 18 31
REMARK Flexibility Score: inf
ROOT
ATOM      1  C   UNL     1      26.002  -1.089  15.943  1.00  0.00     0.004 C 
ENDROOT
BRANCH   1   2
ATOM      2  C   UNL     1      25.178  -0.349  14.855  1.00  0.00     0.004 C 
BRANCH   2   3
ATOM      3  C   UNL     1      26.068   0.342  13.783  1.00  0.00    -0.009 C 
BRANCH   3   4
ATOM      4  C   UNL     1      27.018  -0.700  13.129  1.00  0.00     0.000 C 
ATOM      5  C   UNL     1      26.783  -0.881  11.628  1.00  0.00     0.004 C 
ENDBRANCH   3   4
BRANCH   3   6
ATOM      6  C   UNL     1      25.228   1.134  12.724  1.00  0.00    -0.014 C 
ATOM      7  C   UNL     1      25.685   2.598  12.612  1.00  0.00     0.007 C 
ATOM      8  C   UNL     1      23.709   1.071  12.967  1.00  0.00     0.007 C 
ENDBRANCH   3   6
ENDBRANCH   2   3
ENDBRANCH   1   2
BRANCH   1   9
ATOM      9  C   UNL     1      25.944  -0.468  17.365  1.00  0.00    -0.011 C 
ATOM     10  C   UNL     1      27.069  -1.016  18.264  1.00  0.00     0.008 C 
BRANCH   9  11
ATOM     11  C   UNL     1      24.553  -0.495  18.109  1.00  0.00    -0.002 C 
ATOM     12  C   UNL     1      24.490  -0.057  19.596  1.00  0.00     0.005 C 
ATOM     13  C   UNL     1      23.816  -1.862  18.115  1.00  0.00    -0.026 C 
ATOM     14  C   UNL     1      23.271  -0.774  20.209  1.00  0.00     0.005 C 
ATOM     15  C   UNL     1      22.637  -1.521  19.040  1.00  0.00    -0.001 C 
ATOM     16  C   UNL     1      23.226  -2.291  16.754  1.00  0.00     0.007 C 
ATOM     17  C   UNL     1      24.745  -2.988  18.689  1.00  0.00     0.012 C 
ATOM     18  C   UNL     1      21.716  -2.726  19.335  1.00  0.00     0.000 C 
ATOM     19  C   UNL     1      22.291  -3.510  16.922  1.00  0.00     0.005 C 
ATOM     20  C   UNL     1      21.165  -3.286  17.986  1.00  0.00     0.003 C 
ATOM     21  C   UNL     1      20.539  -2.294  20.221  1.00  0.00     0.031 C 
ATOM     22  C   UNL     1      20.244  -4.545  18.221  1.00  0.00    -0.008 C 
ATOM     23  C   UNL     1      19.472  -3.347  20.319  1.00  0.00    -0.027 C 
ATOM     24  C   UNL     1      19.248  -4.280  19.366  1.00  0.00    -0.065 C 
ATOM     25  C   UNL     1      19.438  -4.835  16.916  1.00  0.00     0.014 C 
ATOM     26  C   UNL     1      21.084  -5.799  18.592  1.00  0.00     0.016 C 
ATOM     27  C   UNL     1      18.061  -5.210  19.533  1.00  0.00     0.063 C 
ATOM     28  C   UNL     1      18.306  -5.856  17.097  1.00  0.00     0.033 C 
ATOM     29  C   UNL     1      17.333  -5.406  18.196  1.00  0.00     0.118 C 
BRANCH  29  30
ATOM     30  O   UNL     1      16.280  -6.327  18.334  1.00  0.00    -0.393 OA
ATOM     31  H   UNL     1      16.053  -6.665  17.427  1.00  0.00     0.210 HD
ENDBRANCH  29  30
ENDBRANCH   9  11
ENDBRANCH   1   9
TORSDOF 7
ENDMDL
MODEL 5
REMARK VINA RESULT:    -5.228      3.242      8.599
REMARK INTER + INTRA:          -8.683
REMARK INTER:                  -8.155
REMARK INTRA:                  -0.528
REMARK UNBOUND:                -1.467
REMARK SMILES CC[C@H](CC[C@H](C)[C@@H]1CC[C@@H]2[C@H]3CC=C4C[C@H](O)CC[C@@]4(C)[C@@H]3CC[C@]21C)C(C)C
REMARK SMILES IDX 5 1 4 2 3 3 2 4 1 5 28 6 29 7 30 8 6 9 7 10 8 11 9 12 26 13
REMARK SMILES IDX 10 14 11 15 25 16 27 17 12 18 24 19 23 20 13 21 21 22 14 23
REMARK SMILES IDX 15 24 20 25 22 26 16 27 19 28 17 29 18 30
REMARK H PARENT 18 31
REMARK Flexibility Score: inf
ROOT
ATOM      1  C   UNL     1      23.245  -2.664  19.016  1.00  0.00     0.004 C 
ENDROOT
BRANCH   1   2
ATOM      2  C   UNL     1      24.456  -1.817  19.489  1.00  0.00     0.004 C 
BRANCH   2   3
ATOM      3  C   UNL     1      25.604  -1.759  18.442  1.00  0.00    -0.009 C 
BRANCH   3   4
ATOM      4  C   UNL     1      25.021  -1.889  17.007  1.00  0.00     0.000 C 
ATOM      5  C   UNL     1      25.840  -1.148  15.948  1.00  0.00     0.004 C 
ENDBRANCH   3   4
BRANCH   3   6
ATOM      6  C   UNL     1      26.507  -0.489  18.610  1.00  0.00    -0.014 C 
ATOM      7  C   UNL     1      27.827  -0.817  19.327  1.00  0.00     0.007 C 
ATOM      8  C   UNL     1      25.801   0.684  19.312  1.00  0.00     0.007 C 
ENDBRANCH   3   6
ENDBRANCH   2   3
ENDBRANCH   1   2
BRANCH   1   9
ATOM      9  C   UNL     1      21.894  -1.904  18.918  1.00  0.00    -0.011 C 
ATOM     10  C   UNL     1      21.229  -1.760  20.301  1.00  0.00     0.008 C 
BRANCH   9  11
ATOM     11  C   UNL     1      20.860  -2.404  17.837  1.00  0.00    -0.002 C 
ATOM     12  C   UNL     1      19.343  -2.234  18.116  1.00  0.00     0.005 C 
ATOM     13  C   UNL     1      20.976  -3.897  17.428  1.00  0.00    -0.026 C 
ATOM     14  C   UNL     1      18.626  -3.327  17.298  1.00  0.00     0.005 C 
ATOM     15  C   UNL     1      19.742  -4.020  16.523  1.00  0.00    -0.001 C 
ATOM     16  C   UNL     1      22.214  -4.246  16.573  1.00  0.00     0.007 C 
ATOM     17  C   UNL     1      20.907  -4.823  18.694  1.00  0.00     0.012 C 
ATOM     18  C   UNL     1      19.505  -5.452  15.992  1.00  0.00     0.000 C 
ATOM     19  C   UNL     1      22.096  -5.674  15.996  1.00  0.00     0.005 C 
ATOM     20  C   UNL     1      20.769  -5.917  15.203  1.00  0.00     0.003 C 
ATOM     21  C   UNL     1      18.288  -5.480  15.057  1.00  0.00     0.031 C 
ATOM     22  C   UNL     1      20.601  -7.390  14.666  1.00  0.00    -0.008 C 
ATOM     23  C   UNL     1      18.169  -6.774  14.303  1.00  0.00    -0.027 C 
ATOM     24  C   UNL     1      19.220  -7.572  14.010  1.00  0.00    -0.065 C 
ATOM     25  C   UNL     1      21.703  -7.670  13.596  1.00  0.00     0.014 C 
ATOM     26  C   UNL     1      20.730  -8.428  15.815  1.00  0.00     0.016 C 
ATOM     27  C   UNL     1      18.979  -8.790  13.137  1.00  0.00     0.063 C 
ATOM     28  C   UNL     1      21.483  -8.963  12.798  1.00  0.00     0.033 C 
ATOM     29  C   UNL     1      20.109  -8.955  12.112  1.00  0.00     0.118 C 
BRANCH  29  30
ATOM     30  O   UNL     1      19.926 -10.125  11.355  1.00  0.00    -0.393 OA
ATOM     31  H   UNL     1      20.740 -10.255  10.798  1.00  0.00     0.210 HD
ENDBRANCH  29  30
ENDBRANCH   9  11
ENDBRANCH   1   9
TORSDOF 7
ENDMDL
MODEL 6
REMARK VINA RESULT:    -5.212      2.443      4.425
REMARK INTER + INTRA:          -8.661
REMARK INTER:                  -6.872
REMARK INTRA:                  -1.789
REMARK UNBOUND:                -1.467
REMARK SMILES CC[C@H](CC[C@H](C)[C@@H]1CC[C@@H]2[C@H]3CC=C4C[C@H](O)CC[C@@]4(C)[C@@H]3CC[C@]21C)C(C)C
REMARK SMILES IDX 5 1 4 2 3 3 2 4 1 5 28 6 29 7 30 8 6 9 7 10 8 11 9 12 26 13
REMARK SMILES IDX 10 14 11 15 25 16 27 17 12 18 24 19 23 20 13 21 21 22 14 23
REMARK SMILES IDX 15 24 20 25 22 26 16 27 19 28 17 29 18 30
REMARK H PARENT 18 31
REMARK Flexibility Score: inf
ROOT
ATOM      1  C   UNL     1      18.166  -7.198  15.919  1.00  0.00     0.004 C 
ENDROOT
BRANCH   1   2
ATOM      2  C   UNL     1      18.884  -8.423  16.545  1.00  0.00     0.004 C 
BRANCH   2   3
ATOM      3  C   UNL     1      19.471  -9.393  15.481  1.00  0.00    -0.009 C 
BRANCH   3   4
ATOM      4  C   UNL     1      19.156  -8.868  14.053  1.00  0.00     0.000 C 
ATOM      5  C   UNL     1      18.356  -9.857  13.203  1.00  0.00     0.004 C 
ENDBRANCH   3   4
BRANCH   3   6
ATOM      6  C   UNL     1      20.998  -9.668  15.696  1.00  0.00    -0.014 C 
ATOM      7  C   UNL     1      21.535  -8.961  16.951  1.00  0.00     0.007 C 
ATOM      8  C   UNL     1      21.868  -9.312  14.476  1.00  0.00     0.007 C 
ENDBRANCH   3   6
ENDBRANCH   2   3
ENDBRANCH   1   2
BRANCH   1   9
ATOM      9  C   UNL     1      18.466  -5.831  16.592  1.00  0.00    -0.011 C 
ATOM     10  C   UNL     1      17.237  -4.902  16.549  1.00  0.00     0.008 C 
BRANCH   9  11
ATOM     11  C   UNL     1      19.772  -5.072  16.136  1.00  0.00    -0.002 C 
ATOM     12  C   UNL     1      20.797  -5.818  15.242  1.00  0.00     0.005 C 
ATOM     13  C   UNL     1      20.655  -4.498  17.277  1.00  0.00    -0.026 C 
ATOM     14  C   UNL     1      22.164  -5.151  15.499  1.00  0.00     0.005 C 
ATOM     15  C   UNL     1      21.857  -4.005  16.458  1.00  0.00    -0.001 C 
ATOM     16  C   UNL     1      20.061  -3.275  18.008  1.00  0.00     0.007 C 
ATOM     17  C   UNL     1      21.028  -5.623  18.306  1.00  0.00     0.012 C 
ATOM     18  C   UNL     1      23.000  -3.430  17.324  1.00  0.00     0.000 C 
ATOM     19  C   UNL     1      21.117  -2.618  18.925  1.00  0.00     0.005 C 
ATOM     20  C   UNL     1      22.443  -2.249  18.180  1.00  0.00     0.003 C 
ATOM     21  C   UNL     1      24.138  -2.914  16.432  1.00  0.00     0.031 C 
ATOM     22  C   UNL     1      23.559  -1.642  19.116  1.00  0.00    -0.008 C 
ATOM     23  C   UNL     1      25.148  -2.104  17.195  1.00  0.00    -0.027 C 
ATOM     24  C   UNL     1      24.864  -1.424  18.328  1.00  0.00    -0.065 C 
ATOM     25  C   UNL     1      23.069  -0.263  19.661  1.00  0.00     0.014 C 
ATOM     26  C   UNL     1      23.867  -2.584  20.312  1.00  0.00     0.016 C 
ATOM     27  C   UNL     1      25.946  -0.548  18.933  1.00  0.00     0.063 C 
ATOM     28  C   UNL     1      24.166   0.557  20.356  1.00  0.00     0.033 C 
ATOM     29  C   UNL     1      25.357   0.785  19.415  1.00  0.00     0.118 C 
BRANCH  29  30
ATOM     30  O   UNL     1      26.343   1.565  20.043  1.00  0.00    -0.393 OA
ATOM     31  H   UNL     1      26.586   1.116  20.896  1.00  0.00     0.210 HD
ENDBRANCH  29  30
ENDBRANCH   9  11
ENDBRANCH   1   9
TORSDOF 7
ENDMDL
MODEL 7
REMARK VINA RESULT:    -5.117      2.923      5.144
REMARK INTER + INTRA:          -8.529
REMARK INTER:                  -6.546
REMARK INTRA:                  -1.983
REMARK UNBOUND:                -1.467
REMARK SMILES CC[C@H](CC[C@H](C)[C@@H]1CC[C@@H]2[C@H]3CC=C4C[C@H](O)CC[C@@]4(C)[C@@H]3CC[C@]21C)C(C)C
REMARK SMILES IDX 5 1 4 2 3 3 2 4 1 5 28 6 29 7 30 8 6 9 7 10 8 11 9 12 26 13
REMARK SMILES IDX 10 14 11 15 25 16 27 17 12 18 24 19 23 20 13 21 21 22 14 23
REMARK SMILES IDX 15 24 20 25 22 26 16 27 19 28 17 29 18 30
REMARK H PARENT 18 31
REMARK Flexibility Score: inf
ROOT
ATOM      1  C   UNL     1      17.819  -6.842  15.895  1.00  0.00     0.004 C 
ENDROOT
BRANCH   1   2
ATOM      2  C   UNL     1      17.966  -8.231  16.573  1.00  0.00     0.004 C 
BRANCH   2   3
ATOM      3  C   UNL     1      19.270  -8.365  17.407  1.00  0.00    -0.009 C 
BRANCH   3   4
ATOM      4  C   UNL     1      18.931  -8.813  18.857  1.00  0.00     0.000 C 
ATOM      5  C   UNL     1      17.849  -7.960  19.521  1.00  0.00     0.004 C 
ENDBRANCH   3   4
BRANCH   3   6
ATOM      6  C   UNL     1      20.327  -9.298  16.724  1.00  0.00    -0.014 C 
ATOM      7  C   UNL     1      21.766  -8.854  17.034  1.00  0.00     0.007 C 
ATOM      8  C   UNL     1      20.135  -9.442  15.204  1.00  0.00     0.007 C 
ENDBRANCH   3   6
ENDBRANCH   2   3
ENDBRANCH   1   2
BRANCH   1   9
ATOM      9  C   UNL     1      18.320  -5.633  16.731  1.00  0.00    -0.011 C 
ATOM     10  C   UNL     1      17.195  -4.607  16.967  1.00  0.00     0.008 C 
BRANCH   9  11
ATOM     11  C   UNL     1      19.647  -4.926  16.255  1.00  0.00    -0.002 C 
ATOM     12  C   UNL     1      20.633  -5.713  15.351  1.00  0.00     0.005 C 
ATOM     13  C   UNL     1      20.566  -4.381  17.382  1.00  0.00    -0.026 C 
ATOM     14  C   UNL     1      22.027  -5.097  15.588  1.00  0.00     0.005 C 
ATOM     15  C   UNL     1      21.775  -3.937  16.545  1.00  0.00    -0.001 C 
ATOM     16  C   UNL     1      20.028  -3.133  18.115  1.00  0.00     0.007 C 
ATOM     17  C   UNL     1      20.911  -5.514  18.411  1.00  0.00     0.012 C 
ATOM     18  C   UNL     1      22.950  -3.401  17.394  1.00  0.00     0.000 C 
ATOM     19  C   UNL     1      21.121  -2.513  19.016  1.00  0.00     0.005 C 
ATOM     20  C   UNL     1      22.449  -2.197  18.252  1.00  0.00     0.003 C 
ATOM     21  C   UNL     1      24.095  -2.932  16.485  1.00  0.00     0.031 C 
ATOM     22  C   UNL     1      23.599  -1.628  19.170  1.00  0.00    -0.008 C 
ATOM     23  C   UNL     1      25.145  -2.158  17.231  1.00  0.00    -0.027 C 
ATOM     24  C   UNL     1      24.901  -1.463  18.364  1.00  0.00    -0.065 C 
ATOM     25  C   UNL     1      23.169  -0.230  19.716  1.00  0.00     0.014 C 
ATOM     26  C   UNL     1      23.888  -2.577  20.366  1.00  0.00     0.016 C 
ATOM     27  C   UNL     1      26.023  -0.625  18.951  1.00  0.00     0.063 C 
ATOM     28  C   UNL     1      24.304   0.551  20.392  1.00  0.00     0.033 C 
ATOM     29  C   UNL     1      25.491   0.731  19.435  1.00  0.00     0.118 C 
BRANCH  29  30
ATOM     30  O   UNL     1      26.514   1.476  20.047  1.00  0.00    -0.393 OA
ATOM     31  H   UNL     1      27.357   1.296  19.551  1.00  0.00     0.210 HD
ENDBRANCH  29  30
ENDBRANCH   9  11
ENDBRANCH   1   9
TORSDOF 7
ENDMDL
MODEL 8
REMARK VINA RESULT:    -5.063      3.302      9.219
REMARK INTER + INTRA:          -8.454
REMARK INTER:                  -7.312
REMARK INTRA:                  -1.142
REMARK UNBOUND:                -1.467
REMARK SMILES CC[C@H](CC[C@H](C)[C@@H]1CC[C@@H]2[C@H]3CC=C4C[C@H](O)CC[C@@]4(C)[C@@H]3CC[C@]21C)C(C)C
REMARK SMILES IDX 5 1 4 2 3 3 2 4 1 5 28 6 29 7 30 8 6 9 7 10 8 11 9 12 26 13
REMARK SMILES IDX 10 14 11 15 25 16 27 17 12 18 24 19 23 20 13 21 21 22 14 23
REMARK SMILES IDX 15 24 20 25 22 26 16 27 19 28 17 29 18 30
REMARK H PARENT 18 31
REMARK Flexibility Score: inf
ROOT
ATOM      1  C   UNL     1      22.582  -1.908  19.742  1.00  0.00     0.004 C 
ENDROOT
BRANCH   1   2
ATOM      2  C   UNL     1      23.826  -1.490  20.570  1.00  0.00     0.004 C 
BRANCH   2   3
ATOM      3  C   UNL     1      23.913   0.044  20.804  1.00  0.00    -0.009 C 
BRANCH   3   4
ATOM      4  C   UNL     1      24.699   0.716  19.643  1.00  0.00     0.000 C 
ATOM      5  C   UNL     1      26.215   0.548  19.756  1.00  0.00     0.004 C 
ENDBRANCH   3   4
BRANCH   3   6
ATOM      6  C   UNL     1      22.508   0.698  21.033  1.00  0.00    -0.014 C 
ATOM      7  C   UNL     1      22.266   1.880  20.080  1.00  0.00     0.007 C 
ATOM      8  C   UNL     1      22.256   1.131  22.488  1.00  0.00     0.007 C 
ENDBRANCH   3   6
ENDBRANCH   2   3
ENDBRANCH   1   2
BRANCH   1   9
ATOM      9  C   UNL     1      22.875  -2.763  18.478  1.00  0.00    -0.011 C 
ATOM     10  C   UNL     1      24.125  -2.256  17.734  1.00  0.00     0.008 C 
BRANCH   9  11
ATOM     11  C   UNL     1      21.678  -3.012  17.481  1.00  0.00    -0.002 C 
ATOM     12  C   UNL     1      20.250  -2.576  17.902  1.00  0.00     0.005 C 
ATOM     13  C   UNL     1      21.474  -4.481  17.022  1.00  0.00    -0.026 C 
ATOM     14  C   UNL     1      19.272  -3.478  17.121  1.00  0.00     0.005 C 
ATOM     15  C   UNL     1      20.168  -4.331  16.228  1.00  0.00    -0.001 C 
ATOM     16  C   UNL     1      22.548  -5.015  16.049  1.00  0.00     0.007 C 
ATOM     17  C   UNL     1      21.337  -5.433  18.261  1.00  0.00     0.012 C 
ATOM     18  C   UNL     1      19.621  -5.668  15.681  1.00  0.00     0.000 C 
ATOM     19  C   UNL     1      22.114  -6.370  15.444  1.00  0.00     0.005 C 
ATOM     20  C   UNL     1      20.704  -6.325  14.768  1.00  0.00     0.003 C 
ATOM     21  C   UNL     1      18.346  -5.428  14.860  1.00  0.00     0.031 C 
ATOM     22  C   UNL     1      20.215  -7.716  14.207  1.00  0.00    -0.008 C 
ATOM     23  C   UNL     1      17.922  -6.641  14.083  1.00  0.00    -0.027 C 
ATOM     24  C   UNL     1      18.774  -7.607  13.673  1.00  0.00    -0.065 C 
ATOM     25  C   UNL     1      21.151  -8.147  13.034  1.00  0.00     0.014 C 
ATOM     26  C   UNL     1      20.241  -8.810  15.310  1.00  0.00     0.016 C 
ATOM     27  C   UNL     1      18.235  -8.719  12.792  1.00  0.00     0.063 C 
ATOM     28  C   UNL     1      20.623  -9.339  12.223  1.00  0.00     0.033 C 
ATOM     29  C   UNL     1      19.224  -9.045  11.664  1.00  0.00     0.118 C 
BRANCH  29  30
ATOM     30  O   UNL     1      18.760 -10.125  10.894  1.00  0.00    -0.393 OA
ATOM     31  H   UNL     1      18.246 -10.727  11.496  1.00  0.00     0.210 HD
ENDBRANCH  29  30
ENDBRANCH   9  11
ENDBRANCH   1   9
TORSDOF 7
ENDMDL
MODEL 9
REMARK VINA RESULT:    -4.966      1.563      2.140
REMARK INTER + INTRA:          -8.321
REMARK INTER:                  -6.467
REMARK INTRA:                  -1.853
REMARK UNBOUND:                -1.467
REMARK SMILES CC[C@H](CC[C@H](C)[C@@H]1CC[C@@H]2[C@H]3CC=C4C[C@H](O)CC[C@@]4(C)[C@@H]3CC[C@]21C)C(C)C
REMARK SMILES IDX 5 1 4 2 3 3 2 4 1 5 28 6 29 7 30 8 6 9 7 10 8 11 9 12 26 13
REMARK SMILES IDX 10 14 11 15 25 16 27 17 12 18 24 19 23 20 13 21 21 22 14 23
REMARK SMILES IDX 15 24 20 25 22 26 16 27 19 28 17 29 18 30
REMARK H PARENT 18 31
REMARK Flexibility Score: inf
ROOT
ATOM      1  C   UNL     1      19.370  -9.596  15.096  1.00  0.00     0.004 C 
ENDROOT
BRANCH   1   2
ATOM      2  C   UNL     1      18.963  -9.261  13.636  1.00  0.00     0.004 C 
BRANCH   2   3
ATOM      3  C   UNL     1      19.018  -7.739  13.324  1.00  0.00    -0.009 C 
BRANCH   3   4
ATOM      4  C   UNL     1      20.034  -7.466  12.180  1.00  0.00     0.000 C 
ATOM      5  C   UNL     1      21.418  -7.047  12.680  1.00  0.00     0.004 C 
ENDBRANCH   3   4
BRANCH   3   6
ATOM      6  C   UNL     1      17.603  -7.135  13.025  1.00  0.00    -0.014 C 
ATOM      7  C   UNL     1      17.701  -5.756  12.352  1.00  0.00     0.007 C 
ATOM      8  C   UNL     1      16.690  -7.056  14.261  1.00  0.00     0.007 C 
ENDBRANCH   3   6
ENDBRANCH   2   3
ENDBRANCH   1   2
BRANCH   1   9
ATOM      9  C   UNL     1      20.643  -8.876  15.618  1.00  0.00    -0.011 C 
ATOM     10  C   UNL     1      21.860  -9.822  15.626  1.00  0.00     0.008 C 
BRANCH   9  11
ATOM     11  C   UNL     1      20.521  -8.090  16.980  1.00  0.00    -0.002 C 
ATOM     12  C   UNL     1      19.183  -8.153  17.764  1.00  0.00     0.005 C 
ATOM     13  C   UNL     1      20.816  -6.567  16.912  1.00  0.00    -0.026 C 
ATOM     14  C   UNL     1      19.114  -6.865  18.610  1.00  0.00     0.005 C 
ATOM     15  C   UNL     1      20.441  -6.162  18.346  1.00  0.00    -0.001 C 
ATOM     16  C   UNL     1      22.300  -6.199  16.700  1.00  0.00     0.007 C 
ATOM     17  C   UNL     1      19.920  -5.880  15.823  1.00  0.00     0.012 C 
ATOM     18  C   UNL     1      20.546  -4.642  18.604  1.00  0.00     0.000 C 
ATOM     19  C   UNL     1      22.526  -4.686  16.919  1.00  0.00     0.005 C 
ATOM     20  C   UNL     1      22.004  -4.174  18.302  1.00  0.00     0.003 C 
ATOM     21  C   UNL     1      20.206  -4.325  20.067  1.00  0.00     0.031 C 
ATOM     22  C   UNL     1      22.163  -2.619  18.514  1.00  0.00    -0.008 C 
ATOM     23  C   UNL     1      20.549  -2.912  20.447  1.00  0.00    -0.027 C 
ATOM     24  C   UNL     1      21.515  -2.185  19.841  1.00  0.00    -0.065 C 
ATOM     25  C   UNL     1      23.684  -2.266  18.562  1.00  0.00     0.014 C 
ATOM     26  C   UNL     1      21.490  -1.820  17.363  1.00  0.00     0.016 C 
ATOM     27  C   UNL     1      21.842  -0.813  20.401  1.00  0.00     0.063 C 
ATOM     28  C   UNL     1      23.976  -0.836  19.038  1.00  0.00     0.033 C 
ATOM     29  C   UNL     1      23.359  -0.583  20.421  1.00  0.00     0.118 C 
BRANCH  29  30
ATOM     30  O   UNL     1      23.660   0.715  20.868  1.00  0.00    -0.393 OA
ATOM     31  H   UNL     1      22.951   1.324  20.526  1.00  0.00     0.210 HD
ENDBRANCH  29  30
ENDBRANCH   9  11
ENDBRANCH   1   9
TORSDOF 7
ENDMDL
