MODEL 1
REMARK VINA RESULT:    -5.395      0.000      0.000
REMARK INTER + INTRA:         -14.255
REMARK INTER:                 -11.387
REMARK INTRA:                  -2.868
REMARK UNBOUND:                -2.868
REMARK SMILES CCC(=O)CCCCC[C@H]1NC(=O)[C@@H]2CCCCN2C(=O)[C@@H]([C@H](C)CC)NC(=O)[C@@H](Cc2cn(OC)c3ccccc23)NC1=O
REMARK SMILES IDX 9 1 10 2 44 3 43 4 45 6 30 7 28 8 27 9 29 11 22 12 23 14
REMARK SMILES IDX 24 15 25 16 26 17 31 18 32 19 33 20 42 21 34 22 37 23 41 24
REMARK SMILES IDX 38 25 40 26 39 27 35 28 36 29 11 30 12 31 13 33 14 34 19 35
REMARK SMILES IDX 15 36 18 37 16 38 17 39 20 40 21 41 8 43 7 44 6 45 5 46 3 47
REMARK SMILES IDX 4 48 2 49 1 50
REMARK H PARENT 43 5 27 10 11 32
REMARK Flexibility Score: 80.00
ROOT
ATOM      1  C   UNL     1     -17.653  -4.162  32.125  1.00  0.00     0.035 C 
ENDROOT
BRANCH   1   2
ATOM      2  C   UNL     1     -16.299  -4.762  32.545  1.00  0.00     0.171 C 
BRANCH   2   3
ATOM      3  C   UNL     1     -16.184  -6.179  32.050  1.00  0.00     0.243 C 
ATOM      4  N   UNL     1     -16.558  -7.272  32.901  1.00  0.00    -0.342 N 
ATOM      5  H   UNL     1     -17.252  -7.091  33.659  1.00  0.00     0.164 HD
ATOM      6  O   UNL     1     -15.737  -6.401  30.892  1.00  0.00    -0.273 OA
BRANCH   4   7
ATOM      7  C   UNL     1     -15.730  -8.475  33.000  1.00  0.00     0.175 C 
BRANCH   7   8
ATOM      8  C   UNL     1     -15.315  -8.670  34.437  1.00  0.00     0.243 C 
ATOM      9  N   UNL     1     -15.807  -7.788  35.462  1.00  0.00    -0.342 N 
ATOM     10  H   UNL     1     -16.509  -7.070  35.184  1.00  0.00     0.164 HD
ATOM     11  O   UNL     1     -14.540  -9.618  34.729  1.00  0.00    -0.273 OA
BRANCH   9  12
ATOM     12  C   UNL     1     -15.293  -7.718  36.838  1.00  0.00     0.174 CG0
ATOM     13  G   UNL     1     -14.813  -6.318  37.185  1.00  0.00     0.000 G0
BRANCH  12  14
ATOM     14  C   UNL     1     -16.289  -8.408  37.850  1.00  0.00     0.018 C 
ATOM     15  C   UNL     1     -16.216  -9.950  37.896  1.00  0.00     0.010 C 
BRANCH  14  16
ATOM     16  C   UNL     1     -17.755  -7.957  37.625  1.00  0.00     0.002 C 
ATOM     17  C   UNL     1     -18.355  -7.308  38.871  1.00  0.00     0.004 C 
ENDBRANCH  14  16
ENDBRANCH  12  14
ENDBRANCH   9  12
ENDBRANCH   7   8
BRANCH   7  18
ATOM     18  C   UNL     1     -16.513  -9.683  32.464  1.00  0.00     0.073 C 
BRANCH  18  19
ATOM     19  C   UNL     1     -17.985  -9.393  32.373  1.00  0.00    -0.016 A 
ATOM     20  C   UNL     1     -18.687  -9.085  31.209  1.00  0.00     0.134 A 
ATOM     21  C   UNL     1     -18.932  -9.443  33.388  1.00  0.00     0.006 A 
ATOM     22  N   UNL     1     -19.999  -8.927  31.494  1.00  0.00    -0.191 N 
ATOM     23  C   UNL     1     -20.152  -9.168  32.812  1.00  0.00     0.087 A 
ATOM     24  C   UNL     1     -18.814  -9.755  34.747  1.00  0.00     0.011 A 
ATOM     25  C   UNL     1     -21.336  -9.229  33.551  1.00  0.00     0.030 A 
ATOM     26  C   UNL     1     -19.990  -9.802  35.514  1.00  0.00     0.001 A 
ATOM     27  C   UNL     1     -21.245  -9.541  34.922  1.00  0.00     0.002 A 
BRANCH  22  28
ATOM     28  O   UNL     1     -20.977  -8.625  30.568  1.00  0.00    -0.417 OA
ATOM     29  C   UNL     1     -20.964  -7.399  29.851  1.00  0.00     0.313 C 
ENDBRANCH  22  28
ENDBRANCH  18  19
ENDBRANCH   7  18
ENDBRANCH   4   7
ENDBRANCH   2   3
BRANCH   2  30
ATOM     30  N   UNL     1     -16.134  -4.747  34.002  1.00  0.00    -0.343 N 
ATOM     31  C   UNL     1     -15.253  -3.808  34.639  1.00  0.00     0.243 C 
ATOM     32  H   UNL     1     -16.527  -5.530  34.573  1.00  0.00     0.164 HD
ATOM     33  O   UNL     1     -14.892  -2.772  34.021  1.00  0.00    -0.273 OA
BRANCH  31  34
ATOM     34  C   UNL     1     -14.754  -4.081  36.040  1.00  0.00     0.174 C 
ATOM     35  N   UNL     1     -14.242  -5.460  36.178  1.00  0.00    -0.329 N 
ATOM     36  C   UNL     1     -13.678  -3.064  36.462  1.00  0.00     0.035 C 
ATOM     37  C   UNL     1     -12.920  -5.798  35.625  1.00  0.00     0.120 C 
ATOM     38  C   UNL     1     -12.320  -3.358  35.813  1.00  0.00     0.004 C 
ATOM     39  C   UNL     1     -11.875  -4.794  36.113  1.00  0.00     0.022 C 
BRANCH  35  40
ATOM     40  C   UNL     1     -14.797  -6.322  37.187  1.00  0.00     0.246 CG0
ATOM     41  O   UNL     1     -14.655  -5.997  38.397  1.00  0.00    -0.272 OA
ATOM     42  G   UNL     1     -15.303  -7.708  36.824  1.00  0.00     0.000 G0
ENDBRANCH  35  40
ENDBRANCH  31  34
ENDBRANCH   2  30
ENDBRANCH   1   2
BRANCH   1  43
ATOM     43  C   UNL     1     -17.568  -2.639  31.917  1.00  0.00     0.003 C 
BRANCH  43  44
ATOM     44  C   UNL     1     -18.492  -1.866  32.877  1.00  0.00     0.001 C 
BRANCH  44  45
ATOM     45  C   UNL     1     -17.883  -1.712  34.282  1.00  0.00     0.008 C 
BRANCH  45  46
ATOM     46  C   UNL     1     -18.386  -0.452  34.996  1.00  0.00     0.075 C 
BRANCH  46  47
ATOM     47  C   UNL     1     -18.061  -0.471  36.465  1.00  0.00     0.132 C 
ATOM     48  O   UNL     1     -17.290  -1.317  36.900  1.00  0.00    -0.300 OA
BRANCH  47  49
ATOM     49  C   UNL     1     -18.667   0.542  37.400  1.00  0.00     0.072 C 
ATOM     50  C   UNL     1     -17.811   1.806  37.487  1.00  0.00     0.012 C 
ENDBRANCH  47  49
ENDBRANCH  46  47
ENDBRANCH  45  46
ENDBRANCH  44  45
ENDBRANCH  43  44
ENDBRANCH   1  43
TORSDOF 12
ENDMDL
MODEL 2
REMARK VINA RESULT:    -5.103      9.781     15.841
REMARK INTER + INTRA:         -13.639
REMARK INTER:                 -11.692
REMARK INTRA:                  -1.947
REMARK UNBOUND:                -2.868
REMARK SMILES CCC(=O)CCCCC[C@H]1NC(=O)[C@@H]2CCCCN2C(=O)[C@@H]([C@H](C)CC)NC(=O)[C@@H](Cc2cn(OC)c3ccccc23)NC1=O
REMARK SMILES IDX 9 1 10 2 44 3 43 4 45 6 30 7 28 8 27 9 29 11 22 12 23 14
REMARK SMILES IDX 24 15 25 16 26 17 31 18 32 19 33 20 42 21 34 22 37 23 41 24
REMARK SMILES IDX 38 25 40 26 39 27 35 28 36 29 11 30 12 31 13 33 14 34 19 35
REMARK SMILES IDX 15 36 18 37 16 38 17 39 20 40 21 41 8 43 7 44 6 45 5 46 3 47
REMARK SMILES IDX 4 48 2 49 1 50
REMARK H PARENT 43 5 27 10 11 32
REMARK Flexibility Score: 80.00
ROOT
ATOM      1  C   UNL     1     -24.179  -6.383  25.903  1.00  0.00     0.035 C 
ENDROOT
BRANCH   1   2
ATOM      2  C   UNL     1     -24.926  -6.361  24.557  1.00  0.00     0.171 C 
BRANCH   2   3
ATOM      3  C   UNL     1     -25.133  -4.941  24.101  1.00  0.00     0.243 C 
ATOM      4  N   UNL     1     -26.361  -4.260  24.396  1.00  0.00    -0.342 N 
ATOM      5  H   UNL     1     -26.912  -4.576  25.225  1.00  0.00     0.164 HD
ATOM      6  O   UNL     1     -24.229  -4.360  23.440  1.00  0.00    -0.273 OA
BRANCH   4   7
ATOM      7  C   UNL     1     -27.042  -3.452  23.385  1.00  0.00     0.175 C 
BRANCH   7   8
ATOM      8  C   UNL     1     -28.438  -3.988  23.184  1.00  0.00     0.243 C 
ATOM      9  N   UNL     1     -28.956  -5.010  24.054  1.00  0.00    -0.342 N 
ATOM     10  H   UNL     1     -28.365  -5.302  24.860  1.00  0.00     0.164 HD
ATOM     11  O   UNL     1     -29.145  -3.526  22.250  1.00  0.00    -0.273 OA
BRANCH   9  12
ATOM     12  C   UNL     1     -30.186  -5.781  23.817  1.00  0.00     0.174 CG0
ATOM     13  G   UNL     1     -29.895  -7.266  23.675  1.00  0.00     0.000 G0
BRANCH  12  14
ATOM     14  C   UNL     1     -31.321  -5.363  24.831  1.00  0.00     0.018 C 
ATOM     15  C   UNL     1     -32.124  -4.105  24.437  1.00  0.00     0.010 C 
BRANCH  14  16
ATOM     16  C   UNL     1     -30.783  -5.214  26.278  1.00  0.00     0.002 C 
ATOM     17  C   UNL     1     -30.878  -3.775  26.781  1.00  0.00     0.004 C 
ENDBRANCH  14  16
ENDBRANCH  12  14
ENDBRANCH   9  12
ENDBRANCH   7   8
BRANCH   7  18
ATOM     18  C   UNL     1     -27.057  -1.981  23.828  1.00  0.00     0.073 C 
BRANCH  18  19
ATOM     19  C   UNL     1     -25.947  -1.683  24.798  1.00  0.00    -0.016 A 
ATOM     20  C   UNL     1     -25.898  -2.089  26.131  1.00  0.00     0.134 A 
ATOM     21  C   UNL     1     -24.748  -1.028  24.553  1.00  0.00     0.006 A 
ATOM     22  N   UNL     1     -24.736  -1.681  26.689  1.00  0.00    -0.191 N 
ATOM     23  C   UNL     1     -24.028  -1.058  25.725  1.00  0.00     0.087 A 
ATOM     24  C   UNL     1     -24.228  -0.458  23.385  1.00  0.00     0.011 A 
ATOM     25  C   UNL     1     -22.724  -0.558  25.793  1.00  0.00     0.030 A 
ATOM     26  C   UNL     1     -22.928   0.068  23.434  1.00  0.00     0.001 A 
ATOM     27  C   UNL     1     -22.177   0.020  24.630  1.00  0.00     0.002 A 
BRANCH  22  28
ATOM     28  O   UNL     1     -24.361  -1.923  27.995  1.00  0.00    -0.417 OA
ATOM     29  C   UNL     1     -23.923  -3.208  28.413  1.00  0.00     0.313 C 
ENDBRANCH  22  28
ENDBRANCH  18  19
ENDBRANCH   7  18
ENDBRANCH   4   7
ENDBRANCH   2   3
BRANCH   2  30
ATOM     30  N   UNL     1     -26.228  -7.028  24.656  1.00  0.00    -0.343 N 
ATOM     31  C   UNL     1     -26.451  -8.312  24.051  1.00  0.00     0.243 C 
ATOM     32  H   UNL     1     -27.052  -6.498  25.022  1.00  0.00     0.164 HD
ATOM     33  O   UNL     1     -25.469  -9.037  23.745  1.00  0.00    -0.273 OA
BRANCH  31  34
ATOM     34  C   UNL     1     -27.864  -8.772  23.771  1.00  0.00     0.174 C 
ATOM     35  N   UNL     1     -28.653  -7.728  23.086  1.00  0.00    -0.329 N 
ATOM     36  C   UNL     1     -27.879 -10.079  22.956  1.00  0.00     0.035 C 
ATOM     37  C   UNL     1     -28.434  -7.482  21.651  1.00  0.00     0.120 C 
ATOM     38  C   UNL     1     -27.557  -9.838  21.476  1.00  0.00     0.004 C 
ATOM     39  C   UNL     1     -28.510  -8.798  20.875  1.00  0.00     0.022 C 
BRANCH  35  40
ATOM     40  C   UNL     1     -29.887  -7.277  23.670  1.00  0.00     0.246 CG0
ATOM     41  O   UNL     1     -30.807  -8.120  23.853  1.00  0.00    -0.272 OA
ATOM     42  G   UNL     1     -30.173  -5.791  23.818  1.00  0.00     0.000 G0
ENDBRANCH  35  40
ENDBRANCH  31  34
ENDBRANCH   2  30
ENDBRANCH   1   2
BRANCH   1  43
ATOM     43  C   UNL     1     -22.809  -7.075  25.790  1.00  0.00     0.003 C 
BRANCH  43  44
ATOM     44  C   UNL     1     -22.926  -8.610  25.819  1.00  0.00     0.001 C 
BRANCH  44  45
ATOM     45  C   UNL     1     -22.649  -9.194  27.215  1.00  0.00     0.008 C 
BRANCH  45  46
ATOM     46  C   UNL     1     -21.170  -9.085  27.606  1.00  0.00     0.075 C 
BRANCH  46  47
ATOM     47  C   UNL     1     -20.986  -9.028  29.097  1.00  0.00     0.132 C 
ATOM     48  O   UNL     1     -19.909  -8.669  29.557  1.00  0.00    -0.300 OA
BRANCH  47  49
ATOM     49  C   UNL     1     -22.110  -9.400  30.026  1.00  0.00     0.072 C 
ATOM     50  C   UNL     1     -22.103  -8.535  31.288  1.00  0.00     0.012 C 
ENDBRANCH  47  49
ENDBRANCH  46  47
ENDBRANCH  45  46
ENDBRANCH  44  45
ENDBRANCH  43  44
ENDBRANCH   1  43
TORSDOF 12
ENDMDL
MODEL 3
REMARK VINA RESULT:    -4.976      2.403      4.823
REMARK INTER + INTRA:         -13.372
REMARK INTER:                 -11.088
REMARK INTRA:                  -2.284
REMARK UNBOUND:                -2.868
REMARK SMILES CCC(=O)CCCCC[C@H]1NC(=O)[C@@H]2CCCCN2C(=O)[C@@H]([C@H](C)CC)NC(=O)[C@@H](Cc2cn(OC)c3ccccc23)NC1=O
REMARK SMILES IDX 9 1 10 2 44 3 43 4 45 6 30 7 28 8 27 9 29 11 22 12 23 14
REMARK SMILES IDX 24 15 25 16 26 17 31 18 32 19 33 20 42 21 34 22 37 23 41 24
REMARK SMILES IDX 38 25 40 26 39 27 35 28 36 29 11 30 12 31 13 33 14 34 19 35
REMARK SMILES IDX 15 36 18 37 16 38 17 39 20 40 21 41 8 43 7 44 6 45 5 46 3 47
REMARK SMILES IDX 4 48 2 49 1 50
REMARK H PARENT 43 5 27 10 11 32
REMARK Flexibility Score: 80.00
ROOT
ATOM      1  C   UNL     1     -16.646  -2.399  36.802  1.00  0.00     0.035 C 
ENDROOT
BRANCH   1   2
ATOM      2  C   UNL     1     -15.327  -3.169  36.994  1.00  0.00     0.171 C 
BRANCH   2   3
ATOM      3  C   UNL     1     -14.579  -3.250  35.689  1.00  0.00     0.243 C 
ATOM      4  N   UNL     1     -14.653  -4.438  34.889  1.00  0.00    -0.342 N 
ATOM      5  H   UNL     1     -15.494  -5.050  34.991  1.00  0.00     0.164 HD
ATOM      6  O   UNL     1     -13.870  -2.277  35.315  1.00  0.00    -0.273 OA
BRANCH   4   7
ATOM      7  C   UNL     1     -13.458  -5.010  34.267  1.00  0.00     0.175 C 
BRANCH   7   8
ATOM      8  C   UNL     1     -13.268  -6.419  34.772  1.00  0.00     0.243 C 
ATOM      9  N   UNL     1     -14.293  -7.056  35.554  1.00  0.00    -0.342 N 
ATOM     10  H   UNL     1     -15.187  -6.540  35.690  1.00  0.00     0.164 HD
ATOM     11  O   UNL     1     -12.204  -7.032  34.494  1.00  0.00    -0.273 OA
BRANCH   9  12
ATOM     12  C   UNL     1     -14.131  -8.311  36.303  1.00  0.00     0.174 CG0
ATOM     13  G   UNL     1     -14.499  -8.140  37.768  1.00  0.00     0.000 G0
BRANCH  12  14
ATOM     14  C   UNL     1     -14.791  -9.521  35.532  1.00  0.00     0.018 C 
ATOM     15  C   UNL     1     -13.933 -10.125  34.400  1.00  0.00     0.010 C 
BRANCH  14  16
ATOM     16  C   UNL     1     -16.201  -9.167  34.993  1.00  0.00     0.002 C 
ATOM     17  C   UNL     1     -16.214  -9.011  33.474  1.00  0.00     0.004 C 
ENDBRANCH  14  16
ENDBRANCH  12  14
ENDBRANCH   9  12
ENDBRANCH   7   8
BRANCH   7  18
ATOM     18  C   UNL     1     -13.604  -4.969  32.738  1.00  0.00     0.073 C 
BRANCH  18  19
ATOM     19  C   UNL     1     -15.043  -4.831  32.323  1.00  0.00    -0.016 A 
ATOM     20  C   UNL     1     -15.919  -5.881  32.053  1.00  0.00     0.134 A 
ATOM     21  C   UNL     1     -15.791  -3.667  32.200  1.00  0.00     0.006 A 
ATOM     22  N   UNL     1     -17.141  -5.389  31.751  1.00  0.00    -0.191 N 
ATOM     23  C   UNL     1     -17.070  -4.047  31.864  1.00  0.00     0.087 A 
ATOM     24  C   UNL     1     -15.451  -2.325  32.403  1.00  0.00     0.011 A 
ATOM     25  C   UNL     1     -18.102  -3.112  31.752  1.00  0.00     0.030 A 
ATOM     26  C   UNL     1     -16.468  -1.365  32.277  1.00  0.00     0.001 A 
ATOM     27  C   UNL     1     -17.787  -1.753  31.954  1.00  0.00     0.002 A 
BRANCH  22  28
ATOM     28  O   UNL     1     -18.246  -6.157  31.441  1.00  0.00    -0.417 OA
ATOM     29  C   UNL     1     -18.114  -7.505  31.013  1.00  0.00     0.313 C 
ENDBRANCH  22  28
ENDBRANCH  18  19
ENDBRANCH   7  18
ENDBRANCH   4   7
ENDBRANCH   2   3
BRANCH   2  30
ATOM     30  N   UNL     1     -15.566  -4.526  37.495  1.00  0.00    -0.343 N 
ATOM     31  C   UNL     1     -15.402  -4.842  38.887  1.00  0.00     0.243 C 
ATOM     32  H   UNL     1     -15.694  -5.311  36.816  1.00  0.00     0.164 HD
ATOM     33  O   UNL     1     -15.403  -3.917  39.742  1.00  0.00    -0.273 OA
BRANCH  31  34
ATOM     34  C   UNL     1     -15.210  -6.281  39.311  1.00  0.00     0.174 C 
ATOM     35  N   UNL     1     -14.163  -6.950  38.513  1.00  0.00    -0.329 N 
ATOM     36  C   UNL     1     -14.892  -6.387  40.814  1.00  0.00     0.035 C 
ATOM     37  C   UNL     1     -12.747  -6.664  38.795  1.00  0.00     0.120 C 
ATOM     38  C   UNL     1     -13.441  -5.998  41.124  1.00  0.00     0.004 C 
ATOM     39  C   UNL     1     -12.465  -6.834  40.289  1.00  0.00     0.022 C 
BRANCH  35  40
ATOM     40  C   UNL     1     -14.482  -8.157  37.798  1.00  0.00     0.246 CG0
ATOM     41  O   UNL     1     -14.853  -9.164  38.459  1.00  0.00    -0.272 OA
ATOM     42  G   UNL     1     -14.131  -8.297  36.326  1.00  0.00     0.000 G0
ENDBRANCH  35  40
ENDBRANCH  31  34
ENDBRANCH   2  30
ENDBRANCH   1   2
BRANCH   1  43
ATOM     43  C   UNL     1     -16.979  -1.516  38.018  1.00  0.00     0.003 C 
BRANCH  43  44
ATOM     44  C   UNL     1     -18.481  -1.186  38.106  1.00  0.00     0.001 C 
BRANCH  44  45
ATOM     45  C   UNL     1     -18.872   0.010  37.220  1.00  0.00     0.008 C 
BRANCH  45  46
ATOM     46  C   UNL     1     -18.996   1.310  38.023  1.00  0.00     0.075 C 
BRANCH  46  47
ATOM     47  C   UNL     1     -17.795   2.198  37.844  1.00  0.00     0.132 C 
ATOM     48  O   UNL     1     -17.142   2.124  36.811  1.00  0.00    -0.300 OA
BRANCH  47  49
ATOM     49  C   UNL     1     -17.395   3.177  38.915  1.00  0.00     0.072 C 
ATOM     50  C   UNL     1     -16.005   2.862  39.470  1.00  0.00     0.012 C 
ENDBRANCH  47  49
ENDBRANCH  46  47
ENDBRANCH  45  46
ENDBRANCH  44  45
ENDBRANCH  43  44
ENDBRANCH   1  43
TORSDOF 12
ENDMDL
MODEL 4
REMARK VINA RESULT:    -4.936      0.940      1.913
REMARK INTER + INTRA:         -13.288
REMARK INTER:                 -10.521
REMARK INTRA:                  -2.766
REMARK UNBOUND:                -2.868
REMARK SMILES CCC(=O)CCCCC[C@H]1NC(=O)[C@@H]2CCCCN2C(=O)[C@@H]([C@H](C)CC)NC(=O)[C@@H](Cc2cn(OC)c3ccccc23)NC1=O
REMARK SMILES IDX 9 1 10 2 44 3 43 4 45 6 30 7 28 8 27 9 29 11 22 12 23 14
REMARK SMILES IDX 24 15 25 16 26 17 31 18 32 19 33 20 42 21 34 22 37 23 41 24
REMARK SMILES IDX 38 25 40 26 39 27 35 28 36 29 11 30 12 31 13 33 14 34 19 35
REMARK SMILES IDX 15 36 18 37 16 38 17 39 20 40 21 41 8 43 7 44 6 45 5 46 3 47
REMARK SMILES IDX 4 48 2 49 1 50
REMARK H PARENT 43 5 27 10 11 32
REMARK Flexibility Score: 80.00
ROOT
ATOM      1  C   UNL     1     -17.483  -4.308  32.046  1.00  0.00     0.035 C 
ENDROOT
BRANCH   1   2
ATOM      2  C   UNL     1     -16.199  -5.027  32.498  1.00  0.00     0.171 C 
BRANCH   2   3
ATOM      3  C   UNL     1     -16.203  -6.451  32.011  1.00  0.00     0.243 C 
ATOM      4  N   UNL     1     -16.669  -7.504  32.866  1.00  0.00    -0.342 N 
ATOM      5  H   UNL     1     -17.347  -7.262  33.622  1.00  0.00     0.164 HD
ATOM      6  O   UNL     1     -15.774  -6.716  30.855  1.00  0.00    -0.273 OA
BRANCH   4   7
ATOM      7  C   UNL     1     -15.945  -8.772  32.973  1.00  0.00     0.175 C 
BRANCH   7   8
ATOM      8  C   UNL     1     -15.574  -9.006  34.416  1.00  0.00     0.243 C 
ATOM      9  N   UNL     1     -16.001  -8.086  35.436  1.00  0.00    -0.342 N 
ATOM     10  H   UNL     1     -16.629  -7.306  35.149  1.00  0.00     0.164 HD
ATOM     11  O   UNL     1     -14.894 -10.022  34.718  1.00  0.00    -0.273 OA
BRANCH   9  12
ATOM     12  C   UNL     1     -15.506  -8.065  36.820  1.00  0.00     0.174 CG0
ATOM     13  G   UNL     1     -14.931  -6.707  37.189  1.00  0.00     0.000 G0
BRANCH  12  14
ATOM     14  C   UNL     1     -16.566  -8.690  37.810  1.00  0.00     0.018 C 
ATOM     15  C   UNL     1     -16.253 -10.125  38.286  1.00  0.00     0.010 C 
BRANCH  14  16
ATOM     16  C   UNL     1     -18.005  -8.626  37.237  1.00  0.00     0.002 C 
ATOM     17  C   UNL     1     -18.880  -7.625  37.990  1.00  0.00     0.004 C 
ENDBRANCH  14  16
ENDBRANCH  12  14
ENDBRANCH   9  12
ENDBRANCH   7   8
BRANCH   7  18
ATOM     18  C   UNL     1     -16.815  -9.909  32.417  1.00  0.00     0.073 C 
BRANCH  18  19
ATOM     19  C   UNL     1     -18.280  -9.582  32.510  1.00  0.00    -0.016 A 
ATOM     20  C   UNL     1     -19.009  -9.430  33.689  1.00  0.00     0.134 A 
ATOM     21  C   UNL     1     -19.163  -9.301  31.475  1.00  0.00     0.006 A 
ATOM     22  N   UNL     1     -20.286  -9.096  33.396  1.00  0.00    -0.191 N 
ATOM     23  C   UNL     1     -20.373  -8.994  32.054  1.00  0.00     0.087 A 
ATOM     24  C   UNL     1     -18.974  -9.247  30.090  1.00  0.00     0.011 A 
ATOM     25  C   UNL     1     -21.462  -8.573  31.285  1.00  0.00     0.030 A 
ATOM     26  C   UNL     1     -20.060  -8.845  29.295  1.00  0.00     0.001 A 
ATOM     27  C   UNL     1     -21.298  -8.509  29.887  1.00  0.00     0.002 A 
BRANCH  22  28
ATOM     28  O   UNL     1     -21.274  -8.862  34.330  1.00  0.00    -0.417 OA
ATOM     29  C   UNL     1     -21.118  -9.253  35.687  1.00  0.00     0.313 C 
ENDBRANCH  22  28
ENDBRANCH  18  19
ENDBRANCH   7  18
ENDBRANCH   4   7
ENDBRANCH   2   3
BRANCH   2  30
ATOM     30  N   UNL     1     -16.067  -5.019  33.958  1.00  0.00    -0.343 N 
ATOM     31  C   UNL     1     -15.120  -4.159  34.612  1.00  0.00     0.243 C 
ATOM     32  H   UNL     1     -16.541  -5.761  34.522  1.00  0.00     0.164 HD
ATOM     33  O   UNL     1     -14.653  -3.163  33.999  1.00  0.00    -0.273 OA
BRANCH  31  34
ATOM     34  C   UNL     1     -14.678  -4.469  36.025  1.00  0.00     0.174 C 
ATOM     35  N   UNL     1     -14.292  -5.886  36.178  1.00  0.00    -0.329 N 
ATOM     36  C   UNL     1     -13.528  -3.547  36.470  1.00  0.00     0.035 C 
ATOM     37  C   UNL     1     -12.993  -6.341  35.657  1.00  0.00     0.120 C 
ATOM     38  C   UNL     1     -12.186  -3.962  35.853  1.00  0.00     0.004 C 
ATOM     39  C   UNL     1     -11.875  -5.430  36.167  1.00  0.00     0.022 C 
BRANCH  35  40
ATOM     40  C   UNL     1     -14.943  -6.692  37.176  1.00  0.00     0.246 CG0
ATOM     41  O   UNL     1     -14.865  -6.332  38.382  1.00  0.00    -0.272 OA
ATOM     42  G   UNL     1     -15.480  -8.070  36.825  1.00  0.00     0.000 G0
ENDBRANCH  35  40
ENDBRANCH  31  34
ENDBRANCH   2  30
ENDBRANCH   1   2
BRANCH   1  43
ATOM     43  C   UNL     1     -17.235  -2.818  31.749  1.00  0.00     0.003 C 
BRANCH  43  44
ATOM     44  C   UNL     1     -18.381  -1.922  32.257  1.00  0.00     0.001 C 
BRANCH  44  45
ATOM     45  C   UNL     1     -18.345  -1.733  33.784  1.00  0.00     0.008 C 
BRANCH  45  46
ATOM     46  C   UNL     1     -17.478  -0.538  34.199  1.00  0.00     0.075 C 
BRANCH  46  47
ATOM     47  C   UNL     1     -17.596  -0.243  35.669  1.00  0.00     0.132 C 
ATOM     48  O   UNL     1     -16.905  -0.866  36.465  1.00  0.00    -0.300 OA
BRANCH  47  49
ATOM     49  C   UNL     1     -18.546   0.813  36.168  1.00  0.00     0.072 C 
ATOM     50  C   UNL     1     -17.987   1.534  37.395  1.00  0.00     0.012 C 
ENDBRANCH  47  49
ENDBRANCH  46  47
ENDBRANCH  45  46
ENDBRANCH  44  45
ENDBRANCH  43  44
ENDBRANCH   1  43
TORSDOF 12
ENDMDL
MODEL 5
REMARK VINA RESULT:    -4.646      2.144      5.148
REMARK INTER + INTRA:         -12.674
REMARK INTER:                 -11.078
REMARK INTRA:                  -1.596
REMARK UNBOUND:                -2.868
REMARK SMILES CCC(=O)CCCCC[C@H]1NC(=O)[C@@H]2CCCCN2C(=O)[C@@H]([C@H](C)CC)NC(=O)[C@@H](Cc2cn(OC)c3ccccc23)NC1=O
REMARK SMILES IDX 9 1 10 2 44 3 43 4 45 6 30 7 28 8 27 9 29 11 22 12 23 14
REMARK SMILES IDX 24 15 25 16 26 17 31 18 32 19 33 20 42 21 34 22 37 23 41 24
REMARK SMILES IDX 38 25 40 26 39 27 35 28 36 29 11 30 12 31 13 33 14 34 19 35
REMARK SMILES IDX 15 36 18 37 16 38 17 39 20 40 21 41 8 43 7 44 6 45 5 46 3 47
REMARK SMILES IDX 4 48 2 49 1 50
REMARK H PARENT 43 5 27 10 11 32
REMARK Flexibility Score: 80.00
ROOT
ATOM      1  C   UNL     1     -15.188  -3.228  37.363  1.00  0.00     0.035 C 
ENDROOT
BRANCH   1   2
ATOM      2  C   UNL     1     -14.506  -4.588  37.596  1.00  0.00     0.171 C 
BRANCH   2   3
ATOM      3  C   UNL     1     -13.572  -4.903  36.458  1.00  0.00     0.243 C 
ATOM      4  N   UNL     1     -13.985  -5.793  35.411  1.00  0.00    -0.342 N 
ATOM      5  H   UNL     1     -15.008  -5.893  35.225  1.00  0.00     0.164 HD
ATOM      6  O   UNL     1     -12.417  -4.398  36.442  1.00  0.00    -0.273 OA
BRANCH   4   7
ATOM      7  C   UNL     1     -13.088  -6.827  34.896  1.00  0.00     0.175 C 
BRANCH   7   8
ATOM      8  C   UNL     1     -13.705  -8.181  35.143  1.00  0.00     0.243 C 
ATOM      9  N   UNL     1     -15.125  -8.310  35.333  1.00  0.00    -0.342 N 
ATOM     10  H   UNL     1     -15.706  -7.453  35.219  1.00  0.00     0.164 HD
ATOM     11  O   UNL     1     -12.962  -9.198  35.173  1.00  0.00    -0.273 OA
BRANCH   9  12
ATOM     12  C   UNL     1     -15.809  -9.517  35.821  1.00  0.00     0.174 CG0
ATOM     13  G   UNL     1     -16.414  -9.299  37.198  1.00  0.00     0.000 G0
BRANCH  12  14
ATOM     14  C   UNL     1     -16.752 -10.122  34.708  1.00  0.00     0.018 C 
ATOM     15  C   UNL     1     -16.172 -10.110  33.277  1.00  0.00     0.010 C 
BRANCH  14  16
ATOM     16  C   UNL     1     -18.156  -9.463  34.713  1.00  0.00     0.002 C 
ATOM     17  C   UNL     1     -18.993  -9.886  33.507  1.00  0.00     0.004 C 
ENDBRANCH  14  16
ENDBRANCH  12  14
ENDBRANCH   9  12
ENDBRANCH   7   8
BRANCH   7  18
ATOM     18  C   UNL     1     -12.828  -6.584  33.401  1.00  0.00     0.073 C 
BRANCH  18  19
ATOM     19  C   UNL     1     -14.036  -6.005  32.716  1.00  0.00    -0.016 A 
ATOM     20  C   UNL     1     -15.062  -6.733  32.116  1.00  0.00     0.134 A 
ATOM     21  C   UNL     1     -14.401  -4.670  32.610  1.00  0.00     0.006 A 
ATOM     22  N   UNL     1     -16.003  -5.888  31.639  1.00  0.00    -0.191 N 
ATOM     23  C   UNL     1     -15.614  -4.637  31.960  1.00  0.00     0.087 A 
ATOM     24  C   UNL     1     -13.785  -3.503  33.076  1.00  0.00     0.011 A 
ATOM     25  C   UNL     1     -16.308  -3.438  31.772  1.00  0.00     0.030 A 
ATOM     26  C   UNL     1     -14.454  -2.284  32.880  1.00  0.00     0.001 A 
ATOM     27  C   UNL     1     -15.709  -2.249  32.233  1.00  0.00     0.002 A 
BRANCH  22  28
ATOM     28  O   UNL     1     -17.159  -6.277  30.994  1.00  0.00    -0.417 OA
ATOM     29  C   UNL     1     -17.495  -7.649  30.841  1.00  0.00     0.313 C 
ENDBRANCH  22  28
ENDBRANCH  18  19
ENDBRANCH   7  18
ENDBRANCH   4   7
ENDBRANCH   2   3
BRANCH   2  30
ATOM     30  N   UNL     1     -15.492  -5.667  37.721  1.00  0.00    -0.343 N 
ATOM     31  C   UNL     1     -15.789  -6.256  38.997  1.00  0.00     0.243 C 
ATOM     32  H   UNL     1     -15.860  -6.130  36.859  1.00  0.00     0.164 HD
ATOM     33  O   UNL     1     -15.493  -5.639  40.054  1.00  0.00    -0.273 OA
BRANCH  31  34
ATOM     34  C   UNL     1     -16.438  -7.621  39.060  1.00  0.00     0.174 C 
ATOM     35  N   UNL     1     -15.712  -8.609  38.237  1.00  0.00    -0.329 N 
ATOM     36  C   UNL     1     -16.563  -8.118  40.512  1.00  0.00     0.035 C 
ATOM     37  C   UNL     1     -14.446  -9.173  38.735  1.00  0.00     0.120 C 
ATOM     38  C   UNL     1     -15.224  -8.620  41.066  1.00  0.00     0.004 C 
ATOM     39  C   UNL     1     -14.632  -9.702  40.157  1.00  0.00     0.022 C 
BRANCH  35  40
ATOM     40  C   UNL     1     -16.416  -9.326  37.208  1.00  0.00     0.246 CG0
ATOM     41  O   UNL     1     -17.441  -9.985  37.532  1.00  0.00    -0.272 OA
ATOM     42  G   UNL     1     -15.800  -9.502  35.830  1.00  0.00     0.000 G0
ENDBRANCH  35  40
ENDBRANCH  31  34
ENDBRANCH   2  30
ENDBRANCH   1   2
BRANCH   1  43
ATOM     43  C   UNL     1     -16.565  -3.150  38.048  1.00  0.00     0.003 C 
BRANCH  43  44
ATOM     44  C   UNL     1     -17.180  -1.740  37.960  1.00  0.00     0.001 C 
BRANCH  44  45
ATOM     45  C   UNL     1     -17.281  -1.232  36.511  1.00  0.00     0.008 C 
BRANCH  45  46
ATOM     46  C   UNL     1     -18.306  -0.102  36.363  1.00  0.00     0.075 C 
BRANCH  46  47
ATOM     47  C   UNL     1     -17.664   1.255  36.455  1.00  0.00     0.132 C 
ATOM     48  O   UNL     1     -17.385   1.859  35.427  1.00  0.00    -0.300 OA
BRANCH  47  49
ATOM     49  C   UNL     1     -17.370   1.878  37.794  1.00  0.00     0.072 C 
ATOM     50  C   UNL     1     -18.655   2.293  38.512  1.00  0.00     0.012 C 
ENDBRANCH  47  49
ENDBRANCH  46  47
ENDBRANCH  45  46
ENDBRANCH  44  45
ENDBRANCH  43  44
ENDBRANCH   1  43
TORSDOF 12
ENDMDL
MODEL 6
REMARK VINA RESULT:    -4.341      2.010      2.963
REMARK INTER + INTRA:         -12.031
REMARK INTER:                 -10.849
REMARK INTRA:                  -1.182
REMARK UNBOUND:                -2.868
REMARK SMILES CCC(=O)CCCCC[C@H]1NC(=O)[C@@H]2CCCCN2C(=O)[C@@H]([C@H](C)CC)NC(=O)[C@@H](Cc2cn(OC)c3ccccc23)NC1=O
REMARK SMILES IDX 9 1 10 2 44 3 43 4 45 6 30 7 28 8 27 9 29 11 22 12 23 14
REMARK SMILES IDX 24 15 25 16 26 17 31 18 32 19 33 20 42 21 34 22 37 23 41 24
REMARK SMILES IDX 38 25 40 26 39 27 35 28 36 29 11 30 12 31 13 33 14 34 19 35
REMARK SMILES IDX 15 36 18 37 16 38 17 39 20 40 21 41 8 43 7 44 6 45 5 46 3 47
REMARK SMILES IDX 4 48 2 49 1 50
REMARK H PARENT 43 5 27 10 11 32
REMARK Flexibility Score: 80.00
ROOT
ATOM      1  C   UNL     1     -16.077  -2.001  32.183  1.00  0.00     0.035 C 
ENDROOT
BRANCH   1   2
ATOM      2  C   UNL     1     -15.042  -2.746  33.046  1.00  0.00     0.171 C 
BRANCH   2   3
ATOM      3  C   UNL     1     -14.227  -3.679  32.190  1.00  0.00     0.243 C 
ATOM      4  N   UNL     1     -14.478  -5.091  32.222  1.00  0.00    -0.342 N 
ATOM      5  H   UNL     1     -15.430  -5.416  32.502  1.00  0.00     0.164 HD
ATOM      6  O   UNL     1     -13.310  -3.214  31.460  1.00  0.00    -0.273 OA
BRANCH   4   7
ATOM      7  C   UNL     1     -13.379  -6.056  32.274  1.00  0.00     0.175 C 
BRANCH   7   8
ATOM      8  C   UNL     1     -12.886  -6.163  33.696  1.00  0.00     0.243 C 
ATOM      9  N   UNL     1     -13.178  -7.332  34.481  1.00  0.00    -0.342 N 
ATOM     10  H   UNL     1     -13.671  -8.119  34.008  1.00  0.00     0.164 HD
ATOM     11  O   UNL     1     -12.209  -5.220  34.184  1.00  0.00    -0.273 OA
BRANCH   9  12
ATOM     12  C   UNL     1     -12.973  -7.452  35.932  1.00  0.00     0.174 CG0
ATOM     13  G   UNL     1     -14.189  -6.975  36.710  1.00  0.00     0.000 G0
BRANCH  12  14
ATOM     14  C   UNL     1     -12.391  -8.871  36.306  1.00  0.00     0.018 C 
ATOM     15  C   UNL     1     -13.337 -10.061  36.039  1.00  0.00     0.010 C 
BRANCH  14  16
ATOM     16  C   UNL     1     -11.878  -8.923  37.769  1.00  0.00     0.002 C 
ATOM     17  C   UNL     1     -12.624  -9.963  38.603  1.00  0.00     0.004 C 
ENDBRANCH  14  16
ENDBRANCH  12  14
ENDBRANCH   9  12
ENDBRANCH   7   8
BRANCH   7  18
ATOM     18  C   UNL     1     -13.859  -7.412  31.735  1.00  0.00     0.073 C 
BRANCH  18  19
ATOM     19  C   UNL     1     -15.354  -7.548  31.832  1.00  0.00    -0.016 A 
ATOM     20  C   UNL     1     -16.281  -7.041  30.923  1.00  0.00     0.134 A 
ATOM     21  C   UNL     1     -16.089  -8.250  32.778  1.00  0.00     0.006 A 
ATOM     22  N   UNL     1     -17.531  -7.390  31.304  1.00  0.00    -0.191 N 
ATOM     23  C   UNL     1     -17.413  -8.144  32.416  1.00  0.00     0.087 A 
ATOM     24  C   UNL     1     -15.688  -9.003  33.888  1.00  0.00     0.011 A 
ATOM     25  C   UNL     1     -18.416  -8.819  33.116  1.00  0.00     0.030 A 
ATOM     26  C   UNL     1     -16.682  -9.674  34.619  1.00  0.00     0.001 A 
ATOM     27  C   UNL     1     -18.039  -9.585  34.237  1.00  0.00     0.002 A 
BRANCH  22  28
ATOM     28  O   UNL     1     -18.684  -7.058  30.623  1.00  0.00    -0.417 OA
ATOM     29  C   UNL     1     -19.366  -8.008  29.817  1.00  0.00     0.313 C 
ENDBRANCH  22  28
ENDBRANCH  18  19
ENDBRANCH   7  18
ENDBRANCH   4   7
ENDBRANCH   2   3
BRANCH   2  30
ATOM     30  N   UNL     1     -15.689  -3.516  34.113  1.00  0.00    -0.343 N 
ATOM     31  C   UNL     1     -15.055  -3.691  35.391  1.00  0.00     0.243 C 
ATOM     32  H   UNL     1     -16.539  -4.085  33.895  1.00  0.00     0.164 HD
ATOM     33  O   UNL     1     -14.129  -2.912  35.740  1.00  0.00    -0.273 OA
BRANCH  31  34
ATOM     34  C   UNL     1     -15.493  -4.819  36.296  1.00  0.00     0.174 C 
ATOM     35  N   UNL     1     -14.339  -5.509  36.907  1.00  0.00    -0.329 N 
ATOM     36  C   UNL     1     -16.461  -4.323  37.386  1.00  0.00     0.035 C 
ATOM     37  C   UNL     1     -13.626  -4.871  38.025  1.00  0.00     0.120 C 
ATOM     38  C   UNL     1     -15.731  -3.574  38.507  1.00  0.00     0.004 C 
ATOM     39  C   UNL     1     -14.619  -4.442  39.106  1.00  0.00     0.022 C 
BRANCH  35  40
ATOM     40  C   UNL     1     -14.188  -6.928  36.727  1.00  0.00     0.246 CG0
ATOM     41  O   UNL     1     -14.923  -7.700  37.401  1.00  0.00    -0.272 OA
ATOM     42  G   UNL     1     -13.005  -7.486  35.952  1.00  0.00     0.000 G0
ENDBRANCH  35  40
ENDBRANCH  31  34
ENDBRANCH   2  30
ENDBRANCH   1   2
BRANCH   1  43
ATOM     43  C   UNL     1     -17.454  -2.689  32.214  1.00  0.00     0.003 C 
BRANCH  43  44
ATOM     44  C   UNL     1     -18.575  -1.732  32.663  1.00  0.00     0.001 C 
BRANCH  44  45
ATOM     45  C   UNL     1     -18.582  -1.509  34.185  1.00  0.00     0.008 C 
BRANCH  45  46
ATOM     46  C   UNL     1     -17.463  -0.564  34.638  1.00  0.00     0.075 C 
BRANCH  46  47
ATOM     47  C   UNL     1     -17.799   0.127  35.930  1.00  0.00     0.132 C 
ATOM     48  O   UNL     1     -18.301  -0.515  36.844  1.00  0.00    -0.300 OA
BRANCH  47  49
ATOM     49  C   UNL     1     -17.519   1.595  36.113  1.00  0.00     0.072 C 
ATOM     50  C   UNL     1     -17.532   1.988  37.591  1.00  0.00     0.012 C 
ENDBRANCH  47  49
ENDBRANCH  46  47
ENDBRANCH  45  46
ENDBRANCH  44  45
ENDBRANCH  43  44
ENDBRANCH   1  43
TORSDOF 12
ENDMDL
MODEL 7
REMARK VINA RESULT:    -4.271     11.567     15.053
REMARK INTER + INTRA:         -11.883
REMARK INTER:                  -9.644
REMARK INTRA:                  -2.239
REMARK UNBOUND:                -2.868
REMARK SMILES CCC(=O)CCCCC[C@H]1NC(=O)[C@@H]2CCCCN2C(=O)[C@@H]([C@H](C)CC)NC(=O)[C@@H](Cc2cn(OC)c3ccccc23)NC1=O
REMARK SMILES IDX 9 1 10 2 44 3 43 4 45 6 30 7 28 8 27 9 29 11 22 12 23 14
REMARK SMILES IDX 24 15 25 16 26 17 31 18 32 19 33 20 42 21 34 22 37 23 41 24
REMARK SMILES IDX 38 25 40 26 39 27 35 28 36 29 11 30 12 31 13 33 14 34 19 35
REMARK SMILES IDX 15 36 18 37 16 38 17 39 20 40 21 41 8 43 7 44 6 45 5 46 3 47
REMARK SMILES IDX 4 48 2 49 1 50
REMARK H PARENT 43 5 27 10 11 32
REMARK Flexibility Score: 80.00
ROOT
ATOM      1  C   UNL     1     -24.261  -3.377  26.192  1.00  0.00     0.035 C 
ENDROOT
BRANCH   1   2
ATOM      2  C   UNL     1     -24.389  -4.493  25.139  1.00  0.00     0.171 C 
BRANCH   2   3
ATOM      3  C   UNL     1     -25.321  -4.063  24.037  1.00  0.00     0.243 C 
ATOM      4  N   UNL     1     -26.633  -4.635  23.939  1.00  0.00    -0.342 N 
ATOM      5  H   UNL     1     -27.071  -5.016  24.807  1.00  0.00     0.164 HD
ATOM      6  O   UNL     1     -24.934  -3.213  23.190  1.00  0.00    -0.273 OA
BRANCH   4   7
ATOM      7  C   UNL     1     -27.182  -5.056  22.649  1.00  0.00     0.175 C 
BRANCH   7   8
ATOM      8  C   UNL     1     -27.482  -6.534  22.702  1.00  0.00     0.243 C 
ATOM      9  N   UNL     1     -27.576  -7.212  23.966  1.00  0.00    -0.342 N 
ATOM     10  H   UNL     1     -27.506  -6.634  24.830  1.00  0.00     0.164 HD
ATOM     11  O   UNL     1     -27.656  -7.163  21.625  1.00  0.00    -0.273 OA
BRANCH   9  12
ATOM     12  C   UNL     1     -27.616  -8.672  24.145  1.00  0.00     0.174 CG0
ATOM     13  G   UNL     1     -26.607  -9.135  25.183  1.00  0.00     0.000 G0
BRANCH  12  14
ATOM     14  C   UNL     1     -29.101  -9.182  24.306  1.00  0.00     0.018 C 
ATOM     15  C   UNL     1     -29.625 -10.055  23.145  1.00  0.00     0.010 C 
BRANCH  14  16
ATOM     16  C   UNL     1     -30.090  -8.020  24.580  1.00  0.00     0.002 C 
ATOM     17  C   UNL     1     -30.988  -7.733  23.378  1.00  0.00     0.004 C 
ENDBRANCH  14  16
ENDBRANCH  12  14
ENDBRANCH   9  12
ENDBRANCH   7   8
BRANCH   7  18
ATOM     18  C   UNL     1     -28.439  -4.231  22.332  1.00  0.00     0.073 C 
BRANCH  18  19
ATOM     19  C   UNL     1     -29.032  -3.625  23.574  1.00  0.00    -0.016 A 
ATOM     20  C   UNL     1     -29.931  -4.248  24.438  1.00  0.00     0.134 A 
ATOM     21  C   UNL     1     -28.756  -2.385  24.137  1.00  0.00     0.006 A 
ATOM     22  N   UNL     1     -30.217  -3.423  25.470  1.00  0.00    -0.191 N 
ATOM     23  C   UNL     1     -29.486  -2.303  25.301  1.00  0.00     0.087 A 
ATOM     24  C   UNL     1     -27.891  -1.361  23.737  1.00  0.00     0.011 A 
ATOM     25  C   UNL     1     -29.364  -1.208  26.161  1.00  0.00     0.030 A 
ATOM     26  C   UNL     1     -27.767  -0.242  24.576  1.00  0.00     0.001 A 
ATOM     27  C   UNL     1     -28.499  -0.163  25.782  1.00  0.00     0.002 A 
BRANCH  22  28
ATOM     28  O   UNL     1     -31.067  -3.731  26.513  1.00  0.00    -0.417 OA
ATOM     29  C   UNL     1     -31.334  -5.078  26.877  1.00  0.00     0.313 C 
ENDBRANCH  22  28
ENDBRANCH  18  19
ENDBRANCH   7  18
ENDBRANCH   4   7
ENDBRANCH   2   3
BRANCH   2  30
ATOM     30  N   UNL     1     -24.891  -5.736  25.734  1.00  0.00    -0.343 N 
ATOM     31  C   UNL     1     -23.994  -6.794  26.108  1.00  0.00     0.243 C 
ATOM     32  H   UNL     1     -25.918  -5.929  25.735  1.00  0.00     0.164 HD
ATOM     33  O   UNL     1     -22.769  -6.548  26.267  1.00  0.00    -0.273 OA
BRANCH  31  34
ATOM     34  C   UNL     1     -24.526  -8.198  26.289  1.00  0.00     0.174 C 
ATOM     35  N   UNL     1     -25.217  -8.680  25.076  1.00  0.00    -0.329 N 
ATOM     36  C   UNL     1     -23.407  -9.175  26.695  1.00  0.00     0.035 C 
ATOM     37  C   UNL     1     -24.421  -9.117  23.917  1.00  0.00     0.120 C 
ATOM     38  C   UNL     1     -22.517  -9.559  25.507  1.00  0.00     0.004 C 
ATOM     39  C   UNL     1     -23.359 -10.125  24.358  1.00  0.00     0.022 C 
BRANCH  35  40
ATOM     40  C   UNL     1     -26.580  -9.129  25.171  1.00  0.00     0.246 CG0
ATOM     41  O   UNL     1     -26.847 -10.072  25.964  1.00  0.00    -0.272 OA
ATOM     42  G   UNL     1     -27.617  -8.666  24.160  1.00  0.00     0.000 G0
ENDBRANCH  35  40
ENDBRANCH  31  34
ENDBRANCH   2  30
ENDBRANCH   1   2
BRANCH   1  43
ATOM     43  C   UNL     1     -25.228  -2.211  25.915  1.00  0.00     0.003 C 
BRANCH  43  44
ATOM     44  C   UNL     1     -24.485  -0.901  25.592  1.00  0.00     0.001 C 
BRANCH  44  45
ATOM     45  C   UNL     1     -22.961  -1.097  25.500  1.00  0.00     0.008 C 
BRANCH  45  46
ATOM     46  C   UNL     1     -22.254   0.131  24.915  1.00  0.00     0.075 C 
BRANCH  46  47
ATOM     47  C   UNL     1     -22.744   0.456  23.531  1.00  0.00     0.132 C 
ATOM     48  O   UNL     1     -23.673  -0.185  23.056  1.00  0.00    -0.300 OA
BRANCH  47  49
ATOM     49  C   UNL     1     -22.111   1.562  22.730  1.00  0.00     0.072 C 
ATOM     50  C   UNL     1     -23.161   2.375  21.970  1.00  0.00     0.012 C 
ENDBRANCH  47  49
ENDBRANCH  46  47
ENDBRANCH  45  46
ENDBRANCH  44  45
ENDBRANCH  43  44
ENDBRANCH   1  43
TORSDOF 12
ENDMDL
MODEL 8
REMARK VINA RESULT:    -3.965     11.279     14.740
REMARK INTER + INTRA:         -11.238
REMARK INTER:                  -9.661
REMARK INTRA:                  -1.577
REMARK UNBOUND:                -2.868
REMARK SMILES CCC(=O)CCCCC[C@H]1NC(=O)[C@@H]2CCCCN2C(=O)[C@@H]([C@H](C)CC)NC(=O)[C@@H](Cc2cn(OC)c3ccccc23)NC1=O
REMARK SMILES IDX 9 1 10 2 44 3 43 4 45 6 30 7 28 8 27 9 29 11 22 12 23 14
REMARK SMILES IDX 24 15 25 16 26 17 31 18 32 19 33 20 42 21 34 22 37 23 41 24
REMARK SMILES IDX 38 25 40 26 39 27 35 28 36 29 11 30 12 31 13 33 14 34 19 35
REMARK SMILES IDX 15 36 18 37 16 38 17 39 20 40 21 41 8 43 7 44 6 45 5 46 3 47
REMARK SMILES IDX 4 48 2 49 1 50
REMARK H PARENT 43 5 27 10 11 32
REMARK Flexibility Score: 80.00
ROOT
ATOM      1  C   UNL     1     -23.967  -3.017  25.735  1.00  0.00     0.035 C 
ENDROOT
BRANCH   1   2
ATOM      2  C   UNL     1     -24.152  -4.255  24.839  1.00  0.00     0.171 C 
BRANCH   2   3
ATOM      3  C   UNL     1     -25.191  -3.981  23.784  1.00  0.00     0.243 C 
ATOM      4  N   UNL     1     -26.382  -4.778  23.722  1.00  0.00    -0.342 N 
ATOM      5  H   UNL     1     -26.709  -5.246  24.597  1.00  0.00     0.164 HD
ATOM      6  O   UNL     1     -24.998  -3.063  22.942  1.00  0.00    -0.273 OA
BRANCH   4   7
ATOM      7  C   UNL     1     -26.900  -5.270  22.445  1.00  0.00     0.175 C 
BRANCH   7   8
ATOM      8  C   UNL     1     -26.601  -6.745  22.328  1.00  0.00     0.243 C 
ATOM      9  N   UNL     1     -26.948  -7.643  23.396  1.00  0.00    -0.342 N 
ATOM     10  H   UNL     1     -27.473  -7.251  24.206  1.00  0.00     0.164 HD
ATOM     11  O   UNL     1     -26.052  -7.179  21.282  1.00  0.00    -0.273 OA
BRANCH   9  12
ATOM     12  C   UNL     1     -26.494  -9.038  23.512  1.00  0.00     0.174 CG0
ATOM     13  G   UNL     1     -25.795  -9.290  24.838  1.00  0.00     0.000 G0
BRANCH  12  14
ATOM     14  C   UNL     1     -27.641 -10.042  23.101  1.00  0.00     0.018 C 
ATOM     15  C   UNL     1     -27.954 -10.099  21.590  1.00  0.00     0.010 C 
BRANCH  14  16
ATOM     16  C   UNL     1     -28.947  -9.795  23.900  1.00  0.00     0.002 C 
ATOM     17  C   UNL     1     -30.194 -10.035  23.052  1.00  0.00     0.004 C 
ENDBRANCH  14  16
ENDBRANCH  12  14
ENDBRANCH   9  12
ENDBRANCH   7   8
BRANCH   7  18
ATOM     18  C   UNL     1     -28.407  -4.987  22.358  1.00  0.00     0.073 C 
BRANCH  18  19
ATOM     19  C   UNL     1     -28.861  -4.062  23.454  1.00  0.00    -0.016 A 
ATOM     20  C   UNL     1     -28.806  -2.670  23.422  1.00  0.00     0.134 A 
ATOM     21  C   UNL     1     -29.477  -4.394  24.654  1.00  0.00     0.006 A 
ATOM     22  N   UNL     1     -29.338  -2.166  24.559  1.00  0.00    -0.191 N 
ATOM     23  C   UNL     1     -29.767  -3.211  25.295  1.00  0.00     0.087 A 
ATOM     24  C   UNL     1     -29.840  -5.632  25.194  1.00  0.00     0.011 A 
ATOM     25  C   UNL     1     -30.477  -3.190  26.499  1.00  0.00     0.030 A 
ATOM     26  C   UNL     1     -30.537  -5.637  26.413  1.00  0.00     0.001 A 
ATOM     27  C   UNL     1     -30.855  -4.424  27.064  1.00  0.00     0.002 A 
BRANCH  22  28
ATOM     28  O   UNL     1     -29.449  -0.821  24.849  1.00  0.00    -0.417 OA
ATOM     29  C   UNL     1     -29.684   0.139  23.829  1.00  0.00     0.313 C 
ENDBRANCH  22  28
ENDBRANCH  18  19
ENDBRANCH   7  18
ENDBRANCH   4   7
ENDBRANCH   2   3
BRANCH   2  30
ATOM     30  N   UNL     1     -24.558  -5.426  25.621  1.00  0.00    -0.343 N 
ATOM     31  C   UNL     1     -23.660  -6.529  25.827  1.00  0.00     0.243 C 
ATOM     32  H   UNL     1     -25.562  -5.543  25.891  1.00  0.00     0.164 HD
ATOM     33  O   UNL     1     -22.423  -6.366  25.659  1.00  0.00    -0.273 OA
BRANCH  31  34
ATOM     34  C   UNL     1     -24.211  -7.879  26.227  1.00  0.00     0.174 C 
ATOM     35  N   UNL     1     -24.460  -8.737  25.052  1.00  0.00    -0.329 N 
ATOM     36  C   UNL     1     -23.282  -8.592  27.227  1.00  0.00     0.035 C 
ATOM     37  C   UNL     1     -23.324  -9.385  24.377  1.00  0.00     0.120 C 
ATOM     38  C   UNL     1     -22.047  -9.188  26.540  1.00  0.00     0.004 C 
ATOM     39  C   UNL     1     -22.459 -10.125  25.399  1.00  0.00     0.022 C 
BRANCH  35  40
ATOM     40  C   UNL     1     -25.775  -9.280  24.839  1.00  0.00     0.246 CG0
ATOM     41  O   UNL     1     -26.218 -10.121  25.667  1.00  0.00    -0.272 OA
ATOM     42  G   UNL     1     -26.500  -9.052  23.523  1.00  0.00     0.000 G0
ENDBRANCH  35  40
ENDBRANCH  31  34
ENDBRANCH   2  30
ENDBRANCH   1   2
BRANCH   1  43
ATOM     43  C   UNL     1     -25.314  -2.372  26.109  1.00  0.00     0.003 C 
BRANCH  43  44
ATOM     44  C   UNL     1     -25.406  -0.904  25.650  1.00  0.00     0.001 C 
BRANCH  44  45
ATOM     45  C   UNL     1     -24.384  -0.569  24.549  1.00  0.00     0.008 C 
BRANCH  45  46
ATOM     46  C   UNL     1     -23.057  -0.061  25.126  1.00  0.00     0.075 C 
BRANCH  46  47
ATOM     47  C   UNL     1     -22.802   1.377  24.766  1.00  0.00     0.132 C 
ATOM     48  O   UNL     1     -22.523   2.178  25.650  1.00  0.00    -0.300 OA
BRANCH  47  49
ATOM     49  C   UNL     1     -22.878   1.837  23.335  1.00  0.00     0.072 C 
ATOM     50  C   UNL     1     -21.708   1.299  22.510  1.00  0.00     0.012 C 
ENDBRANCH  47  49
ENDBRANCH  46  47
ENDBRANCH  45  46
ENDBRANCH  44  45
ENDBRANCH  43  44
ENDBRANCH   1  43
TORSDOF 12
ENDMDL
MODEL 9
REMARK VINA RESULT:    -3.865      2.289      6.932
REMARK INTER + INTRA:         -11.026
REMARK INTER:                  -9.194
REMARK INTRA:                  -1.832
REMARK UNBOUND:                -2.868
REMARK SMILES CCC(=O)CCCCC[C@H]1NC(=O)[C@@H]2CCCCN2C(=O)[C@@H]([C@H](C)CC)NC(=O)[C@@H](Cc2cn(OC)c3ccccc23)NC1=O
REMARK SMILES IDX 9 1 10 2 44 3 43 4 45 6 30 7 28 8 27 9 29 11 22 12 23 14
REMARK SMILES IDX 24 15 25 16 26 17 31 18 32 19 33 20 42 21 34 22 37 23 41 24
REMARK SMILES IDX 38 25 40 26 39 27 35 28 36 29 11 30 12 31 13 33 14 34 19 35
REMARK SMILES IDX 15 36 18 37 16 38 17 39 20 40 21 41 8 43 7 44 6 45 5 46 3 47
REMARK SMILES IDX 4 48 2 49 1 50
REMARK H PARENT 43 5 27 10 11 32
REMARK Flexibility Score: 80.00
ROOT
ATOM      1  C   UNL     1     -15.955  -5.127  37.540  1.00  0.00     0.035 C 
ENDROOT
BRANCH   1   2
ATOM      2  C   UNL     1     -14.735  -5.713  36.807  1.00  0.00     0.171 C 
BRANCH   2   3
ATOM      3  C   UNL     1     -14.212  -4.726  35.798  1.00  0.00     0.243 C 
ATOM      4  N   UNL     1     -15.065  -4.246  34.749  1.00  0.00    -0.342 N 
ATOM      5  H   UNL     1     -16.097  -4.255  34.911  1.00  0.00     0.164 HD
ATOM      6  O   UNL     1     -13.013  -4.340  35.866  1.00  0.00    -0.273 OA
BRANCH   4   7
ATOM      7  C   UNL     1     -14.586  -4.135  33.371  1.00  0.00     0.175 C 
BRANCH   7   8
ATOM      8  C   UNL     1     -15.262  -5.188  32.529  1.00  0.00     0.243 C 
ATOM      9  N   UNL     1     -16.020  -6.241  33.151  1.00  0.00    -0.342 N 
ATOM     10  H   UNL     1     -16.142  -6.202  34.185  1.00  0.00     0.164 HD
ATOM     11  O   UNL     1     -15.162  -5.130  31.276  1.00  0.00    -0.273 OA
BRANCH   9  12
ATOM     12  C   UNL     1     -16.511  -7.449  32.470  1.00  0.00     0.174 CG0
ATOM     13  G   UNL     1     -15.514  -8.591  32.568  1.00  0.00     0.000 G0
BRANCH  12  14
ATOM     14  C   UNL     1     -18.004  -7.760  32.877  1.00  0.00     0.018 C 
ATOM     15  C   UNL     1     -18.188  -8.955  33.838  1.00  0.00     0.010 C 
BRANCH  14  16
ATOM     16  C   UNL     1     -18.922  -7.934  31.639  1.00  0.00     0.002 C 
ATOM     17  C   UNL     1     -20.061  -8.917  31.901  1.00  0.00     0.004 C 
ENDBRANCH  14  16
ENDBRANCH  12  14
ENDBRANCH   9  12
ENDBRANCH   7   8
BRANCH   7  18
ATOM     18  C   UNL     1     -14.863  -2.720  32.843  1.00  0.00     0.073 C 
BRANCH  18  19
ATOM     19  C   UNL     1     -16.192  -2.201  33.319  1.00  0.00    -0.016 A 
ATOM     20  C   UNL     1     -16.450  -1.643  34.570  1.00  0.00     0.134 A 
ATOM     21  C   UNL     1     -17.379  -2.106  32.605  1.00  0.00     0.006 A 
ATOM     22  N   UNL     1     -17.741  -1.247  34.636  1.00  0.00    -0.191 N 
ATOM     23  C   UNL     1     -18.298  -1.506  33.435  1.00  0.00     0.087 A 
ATOM     24  C   UNL     1     -17.696  -2.457  31.288  1.00  0.00     0.011 A 
ATOM     25  C   UNL     1     -19.581  -1.179  32.987  1.00  0.00     0.030 A 
ATOM     26  C   UNL     1     -18.986  -2.156  30.821  1.00  0.00     0.001 A 
ATOM     27  C   UNL     1     -19.925  -1.521  31.664  1.00  0.00     0.002 A 
BRANCH  22  28
ATOM     28  O   UNL     1     -18.327  -0.646  35.731  1.00  0.00    -0.417 OA
ATOM     29  C   UNL     1     -18.348   0.767  35.876  1.00  0.00     0.313 C 
ENDBRANCH  22  28
ENDBRANCH  18  19
ENDBRANCH   7  18
ENDBRANCH   4   7
ENDBRANCH   2   3
BRANCH   2  30
ATOM     30  N   UNL     1     -15.072  -6.966  36.123  1.00  0.00    -0.343 N 
ATOM     31  C   UNL     1     -14.063  -7.944  35.827  1.00  0.00     0.243 C 
ATOM     32  H   UNL     1     -16.020  -7.080  35.695  1.00  0.00     0.164 HD
ATOM     33  O   UNL     1     -12.968  -7.919  36.448  1.00  0.00    -0.273 OA
BRANCH  31  34
ATOM     34  C   UNL     1     -14.318  -8.985  34.760  1.00  0.00     0.174 C 
ATOM     35  N   UNL     1     -14.340  -8.387  33.409  1.00  0.00    -0.329 N 
ATOM     36  C   UNL     1     -13.285 -10.125  34.827  1.00  0.00     0.035 C 
ATOM     37  C   UNL     1     -13.071  -8.016  32.763  1.00  0.00     0.120 C 
ATOM     38  C   UNL     1     -11.931  -9.710  34.239  1.00  0.00     0.004 C 
ATOM     39  C   UNL     1     -12.096  -9.194  32.806  1.00  0.00     0.022 C 
BRANCH  35  40
ATOM     40  C   UNL     1     -15.499  -8.567  32.576  1.00  0.00     0.246 CG0
ATOM     41  O   UNL     1     -15.529  -9.559  31.798  1.00  0.00    -0.272 OA
ATOM     42  G   UNL     1     -16.532  -7.460  32.441  1.00  0.00     0.000 G0
ENDBRANCH  35  40
ENDBRANCH  31  34
ENDBRANCH   2  30
ENDBRANCH   1   2
BRANCH   1  43
ATOM     43  C   UNL     1     -15.564  -4.476  38.879  1.00  0.00     0.003 C 
BRANCH  43  44
ATOM     44  C   UNL     1     -14.186  -4.951  39.378  1.00  0.00     0.001 C 
BRANCH  44  45
ATOM     45  C   UNL     1     -14.290  -6.138  40.351  1.00  0.00     0.008 C 
BRANCH  45  46
ATOM     46  C   UNL     1     -14.554  -7.462  39.623  1.00  0.00     0.075 C 
BRANCH  46  47
ATOM     47  C   UNL     1     -15.342  -8.422  40.471  1.00  0.00     0.132 C 
ATOM     48  O   UNL     1     -14.776  -9.382  40.977  1.00  0.00    -0.300 OA
BRANCH  47  49
ATOM     49  C   UNL     1     -16.814  -8.209  40.709  1.00  0.00     0.072 C 
ATOM     50  C   UNL     1     -17.544  -7.848  39.414  1.00  0.00     0.012 C 
ENDBRANCH  47  49
ENDBRANCH  46  47
ENDBRANCH  45  46
ENDBRANCH  44  45
ENDBRANCH  43  44
ENDBRANCH   1  43
TORSDOF 12
ENDMDL
