MODEL 1
REMARK VINA RESULT:    -7.005      0.000      0.000
REMARK INTER + INTRA:          -7.415
REMARK INTER:                  -7.415
REMARK INTRA:                   0.000
REMARK UNBOUND:                 0.000
REMARK SMILES C[C@@H]1CC[C@@H]2[N@H+](C1)C[C@H]1[C@H]3C[C@@H]4[C@H](CC(=O)[C@@H]5C[C@@H](O)CC[C@@]45C)[C@@H]3CC[C@@H]1[C@@]2(C)O
REMARK SMILES IDX 5 1 6 2 8 3 7 4 4 5 29 6 3 7 28 8 30 9 2 10 27 11 9 12 1 13
REMARK SMILES IDX 26 14 10 15 25 16 11 17 13 18 12 19 14 20 23 21 15 22 17 23
REMARK SMILES IDX 22 24 24 25 16 26 18 27 21 28 19 29 31 31 20 33
REMARK H PARENT 6 30 31 32 20 34
REMARK Flexibility Score: inf
ROOT
ATOM      1  C   UNL     1      -6.852  -6.856   1.653  1.00  0.00     0.216 C 
ATOM      2  N   UNL     1      -5.631  -7.737   1.672  1.00  0.00    -0.330 N 
ATOM      3  C   UNL     1      -4.666  -7.483   0.567  1.00  0.00     0.266 C 
ATOM      4  C   UNL     1      -4.925  -7.795   2.977  1.00  0.00     0.265 C 
ATOM      5  C   UNL     1      -7.801  -7.107   2.866  1.00  0.00     0.069 C 
ATOM      6  C   UNL     1      -6.656  -5.323   1.293  1.00  0.00     0.117 C 
ATOM      7  C   UNL     1      -7.041  -7.204   4.199  1.00  0.00     0.015 C 
ATOM      8  C   UNL     1      -5.618  -5.215   0.140  1.00  0.00     0.036 C 
ATOM      9  C   UNL     1      -6.243  -4.423   2.503  1.00  0.00     0.049 C 
ATOM     10  C   UNL     1      -5.860  -8.181   4.144  1.00  0.00     0.041 C 
ATOM     11  C   UNL     1      -5.284  -3.771  -0.349  1.00  0.00     0.007 C 
ATOM     12  C   UNL     1      -4.310  -5.997   0.486  1.00  0.00     0.054 C 
ATOM     13  C   UNL     1      -6.335  -9.650   4.086  1.00  0.00     0.013 C 
ATOM     14  C   UNL     1      -4.427  -3.754  -1.645  1.00  0.00     0.004 C 
ATOM     15  C   UNL     1      -3.173  -5.637  -0.506  1.00  0.00     0.002 C 
ATOM     16  C   UNL     1      -3.703  -5.110  -1.836  1.00  0.00    -0.004 C 
ATOM     17  C   UNL     1      -2.106  -6.657  -0.894  1.00  0.00     0.009 C 
ATOM     18  C   UNL     1      -2.535  -5.229  -2.821  1.00  0.00     0.003 C 
ATOM     19  C   UNL     1      -1.397  -5.883  -2.016  1.00  0.00    -0.000 C 
ATOM     20  C   UNL     1      -2.020  -4.008  -3.587  1.00  0.00     0.080 C 
ATOM     21  C   UNL     1      -0.384  -6.577  -2.975  1.00  0.00    -0.020 C 
ATOM     22  C   UNL     1      -0.762  -4.356  -4.364  1.00  0.00     0.136 C 
ATOM     23  C   UNL     1       0.238  -5.406  -3.825  1.00  0.00     0.065 C 
ATOM     24  C   UNL     1       0.788  -7.231  -2.186  1.00  0.00     0.010 C 
ATOM     25  C   UNL     1      -1.095  -7.668  -3.843  1.00  0.00     0.012 C 
ATOM     26  O   UNL     1      -0.346  -3.527  -5.156  1.00  0.00    -0.299 OA
ATOM     27  C   UNL     1       1.187  -5.979  -4.895  1.00  0.00     0.043 C 
ATOM     28  C   UNL     1       1.915  -7.752  -3.130  1.00  0.00     0.032 C 
ATOM     29  C   UNL     1       2.365  -6.738  -4.218  1.00  0.00     0.115 C 
ATOM     30  H   UNL     1      -5.961  -8.710   1.480  1.00  0.00     0.348 HD
ENDROOT
BRANCH   6  31
ATOM     31  O   UNL     1      -7.899  -4.884   0.771  1.00  0.00    -0.384 OA
ATOM     32  H   UNL     1      -8.550  -4.677   1.497  1.00  0.00     0.211 HD
ENDBRANCH   6  31
BRANCH  29  33
ATOM     33  O   UNL     1       3.265  -5.809  -3.640  1.00  0.00    -0.393 OA
ATOM     34  H   UNL     1       3.928  -6.366  -3.132  1.00  0.00     0.210 HD
ENDBRANCH  29  33
TORSDOF 2
ENDMDL
MODEL 2
REMARK VINA RESULT:    -6.876      5.442      9.921
REMARK INTER + INTRA:          -7.278
REMARK INTER:                  -7.278
REMARK INTRA:                   0.000
REMARK UNBOUND:                 0.000
REMARK SMILES C[C@@H]1CC[C@@H]2[N@H+](C1)C[C@H]1[C@H]3C[C@@H]4[C@H](CC(=O)[C@@H]5C[C@@H](O)CC[C@@]45C)[C@@H]3CC[C@@H]1[C@@]2(C)O
REMARK SMILES IDX 5 1 6 2 8 3 7 4 4 5 29 6 3 7 28 8 30 9 2 10 27 11 9 12 1 13
REMARK SMILES IDX 26 14 10 15 25 16 11 17 13 18 12 19 14 20 23 21 15 22 17 23
REMARK SMILES IDX 22 24 24 25 16 26 18 27 21 28 19 29 31 31 20 33
REMARK H PARENT 6 30 31 32 20 34
REMARK Flexibility Score: inf
ROOT
ATOM      1  C   UNL     1       1.021  -6.848  -3.488  1.00  0.00     0.216 C 
ATOM      2  N   UNL     1       1.326  -5.376  -3.388  1.00  0.00    -0.330 N 
ATOM      3  C   UNL     1       2.724  -5.008  -3.741  1.00  0.00     0.266 C 
ATOM      4  C   UNL     1       0.362  -4.491  -4.089  1.00  0.00     0.265 C 
ATOM      5  C   UNL     1      -0.472  -7.180  -3.178  1.00  0.00     0.069 C 
ATOM      6  C   UNL     1       1.619  -7.647  -4.722  1.00  0.00     0.117 C 
ATOM      7  C   UNL     1      -1.448  -6.224  -3.883  1.00  0.00     0.015 C 
ATOM      8  C   UNL     1       3.069  -7.149  -4.978  1.00  0.00     0.036 C 
ATOM      9  C   UNL     1       0.759  -7.560  -6.025  1.00  0.00     0.049 C 
ATOM     10  C   UNL     1      -1.101  -4.746  -3.663  1.00  0.00     0.041 C 
ATOM     11  C   UNL     1       3.824  -7.817  -6.168  1.00  0.00     0.007 C 
ATOM     12  C   UNL     1       3.115  -5.591  -5.101  1.00  0.00     0.054 C 
ATOM     13  C   UNL     1      -1.402  -4.298  -2.215  1.00  0.00     0.013 C 
ATOM     14  C   UNL     1       5.331  -7.442  -6.217  1.00  0.00     0.004 C 
ATOM     15  C   UNL     1       4.484  -5.121  -5.659  1.00  0.00     0.002 C 
ATOM     16  C   UNL     1       5.593  -6.141  -5.419  1.00  0.00    -0.004 C 
ATOM     17  C   UNL     1       5.093  -3.785  -5.245  1.00  0.00     0.009 C 
ATOM     18  C   UNL     1       6.906  -5.372  -5.607  1.00  0.00     0.003 C 
ATOM     19  C   UNL     1       6.483  -3.918  -5.888  1.00  0.00    -0.000 C 
ATOM     20  C   UNL     1       7.954  -5.834  -6.623  1.00  0.00     0.080 C 
ATOM     21  C   UNL     1       7.643  -2.939  -5.539  1.00  0.00    -0.020 C 
ATOM     22  C   UNL     1       9.077  -4.817  -6.733  1.00  0.00     0.136 C 
ATOM     23  C   UNL     1       8.800  -3.307  -6.542  1.00  0.00     0.065 C 
ATOM     24  C   UNL     1       7.247  -1.462  -5.832  1.00  0.00     0.010 C 
ATOM     25  C   UNL     1       8.055  -3.076  -4.035  1.00  0.00     0.012 C 
ATOM     26  O   UNL     1      10.063  -5.140  -7.373  1.00  0.00    -0.299 OA
ATOM     27  C   UNL     1      10.056  -2.472  -6.226  1.00  0.00     0.043 C 
ATOM     28  C   UNL     1       8.455  -0.488  -5.685  1.00  0.00     0.032 C 
ATOM     29  C   UNL     1       9.752  -0.956  -6.403  1.00  0.00     0.115 C 
ATOM     30  H   UNL     1       1.262  -5.125  -2.375  1.00  0.00     0.348 HD
ENDROOT
BRANCH   6  31
ATOM     31  O   UNL     1       1.716  -8.997  -4.300  1.00  0.00    -0.384 OA
ATOM     32  H   UNL     1       1.705  -9.626  -5.074  1.00  0.00     0.211 HD
ENDBRANCH   6  31
BRANCH  29  33
ATOM     33  O   UNL     1       9.655  -0.643  -7.782  1.00  0.00    -0.393 OA
ATOM     34  H   UNL     1      10.540  -0.908  -8.174  1.00  0.00     0.210 HD
ENDBRANCH  29  33
TORSDOF 2
ENDMDL
MODEL 3
REMARK VINA RESULT:    -6.744      2.173      8.560
REMARK INTER + INTRA:          -7.139
REMARK INTER:                  -7.139
REMARK INTRA:                   0.000
REMARK UNBOUND:                 0.000
REMARK SMILES C[C@@H]1CC[C@@H]2[N@H+](C1)C[C@H]1[C@H]3C[C@@H]4[C@H](CC(=O)[C@@H]5C[C@@H](O)CC[C@@]45C)[C@@H]3CC[C@@H]1[C@@]2(C)O
REMARK SMILES IDX 5 1 6 2 8 3 7 4 4 5 29 6 3 7 28 8 30 9 2 10 27 11 9 12 1 13
REMARK SMILES IDX 26 14 10 15 25 16 11 17 13 18 12 19 14 20 23 21 15 22 17 23
REMARK SMILES IDX 22 24 24 25 16 26 18 27 21 28 19 29 31 31 20 33
REMARK H PARENT 6 30 31 32 20 34
REMARK Flexibility Score: inf
ROOT
ATOM      1  C   UNL     1       0.433  -6.643  -3.878  1.00  0.00     0.216 C 
ATOM      2  N   UNL     1      -0.621  -7.718  -3.930  1.00  0.00    -0.330 N 
ATOM      3  C   UNL     1      -1.672  -7.605  -2.881  1.00  0.00     0.266 C 
ATOM      4  C   UNL     1      -1.238  -7.922  -5.265  1.00  0.00     0.265 C 
ATOM      5  C   UNL     1       1.473  -6.759  -5.037  1.00  0.00     0.069 C 
ATOM      6  C   UNL     1      -0.034  -5.157  -3.576  1.00  0.00     0.117 C 
ATOM      7  C   UNL     1       0.811  -7.012  -6.401  1.00  0.00     0.015 C 
ATOM      8  C   UNL     1      -1.135  -5.200  -2.479  1.00  0.00     0.036 C 
ATOM      9  C   UNL     1      -0.528  -4.367  -4.832  1.00  0.00     0.049 C 
ATOM     10  C   UNL     1      -0.191  -8.172  -6.373  1.00  0.00     0.041 C 
ATOM     11  C   UNL     1      -1.731  -3.823  -2.051  1.00  0.00     0.007 C 
ATOM     12  C   UNL     1      -2.275  -6.198  -2.863  1.00  0.00     0.054 C 
ATOM     13  C   UNL     1       0.519  -9.538  -6.246  1.00  0.00     0.013 C 
ATOM     14  C   UNL     1      -2.646  -3.921  -0.799  1.00  0.00     0.004 C 
ATOM     15  C   UNL     1      -3.507  -6.013  -1.938  1.00  0.00     0.002 C 
ATOM     16  C   UNL     1      -3.143  -5.374  -0.602  1.00  0.00    -0.004 C 
ATOM     17  C   UNL     1      -4.407  -7.189  -1.571  1.00  0.00     0.009 C 
ATOM     18  C   UNL     1      -4.325  -5.666   0.329  1.00  0.00     0.003 C 
ATOM     19  C   UNL     1      -5.294  -6.520  -0.509  1.00  0.00    -0.000 C 
ATOM     20  C   UNL     1      -5.076  -4.532   1.031  1.00  0.00     0.080 C 
ATOM     21  C   UNL     1      -6.226  -7.353   0.421  1.00  0.00    -0.020 C 
ATOM     22  C   UNL     1      -6.298  -5.069   1.757  1.00  0.00     0.136 C 
ATOM     23  C   UNL     1      -7.078  -6.285   1.203  1.00  0.00     0.065 C 
ATOM     24  C   UNL     1      -7.229  -8.212  -0.403  1.00  0.00     0.010 C 
ATOM     25  C   UNL     1      -5.389  -8.289   1.356  1.00  0.00     0.012 C 
ATOM     26  O   UNL     1      -6.887  -4.304   2.502  1.00  0.00    -0.299 OA
ATOM     27  C   UNL     1      -7.974  -6.985   2.244  1.00  0.00     0.043 C 
ATOM     28  C   UNL     1      -8.301  -8.894   0.500  1.00  0.00     0.032 C 
ATOM     29  C   UNL     1      -8.971  -7.946   1.534  1.00  0.00     0.115 C 
ATOM     30  H   UNL     1      -0.144  -8.617  -3.692  1.00  0.00     0.348 HD
ENDROOT
BRANCH   6  31
ATOM     31  O   UNL     1       1.088  -4.504  -3.008  1.00  0.00    -0.384 OA
ATOM     32  H   UNL     1       1.936  -4.770  -3.461  1.00  0.00     0.211 HD
ENDBRANCH   6  31
BRANCH  29  33
ATOM     33  O   UNL     1      -9.982  -7.195   0.885  1.00  0.00    -0.393 OA
ATOM     34  H   UNL     1     -10.047  -7.585  -0.038  1.00  0.00     0.210 HD
ENDBRANCH  29  33
TORSDOF 2
ENDMDL
MODEL 4
REMARK VINA RESULT:    -6.619      1.531      2.007
REMARK INTER + INTRA:          -7.006
REMARK INTER:                  -7.006
REMARK INTRA:                   0.000
REMARK UNBOUND:                 0.000
REMARK SMILES C[C@@H]1CC[C@@H]2[N@H+](C1)C[C@H]1[C@H]3C[C@@H]4[C@H](CC(=O)[C@@H]5C[C@@H](O)CC[C@@]45C)[C@@H]3CC[C@@H]1[C@@]2(C)O
REMARK SMILES IDX 5 1 6 2 8 3 7 4 4 5 29 6 3 7 28 8 30 9 2 10 27 11 9 12 1 13
REMARK SMILES IDX 26 14 10 15 25 16 11 17 13 18 12 19 14 20 23 21 15 22 17 23
REMARK SMILES IDX 22 24 24 25 16 26 18 27 21 28 19 29 31 31 20 33
REMARK H PARENT 6 30 31 32 20 34
REMARK Flexibility Score: inf
ROOT
ATOM      1  C   UNL     1      -6.130  -5.863   0.346  1.00  0.00     0.216 C 
ATOM      2  N   UNL     1      -5.495  -7.192   0.033  1.00  0.00    -0.330 N 
ATOM      3  C   UNL     1      -4.313  -7.116  -0.868  1.00  0.00     0.266 C 
ATOM      4  C   UNL     1      -5.193  -8.033   1.219  1.00  0.00     0.265 C 
ATOM      5  C   UNL     1      -7.321  -5.981   1.349  1.00  0.00     0.069 C 
ATOM      6  C   UNL     1      -5.172  -4.629   0.624  1.00  0.00     0.117 C 
ATOM      7  C   UNL     1      -6.996  -6.890   2.545  1.00  0.00     0.015 C 
ATOM      8  C   UNL     1      -3.985  -4.691  -0.378  1.00  0.00     0.036 C 
ATOM      9  C   UNL     1      -4.656  -4.530   2.097  1.00  0.00     0.049 C 
ATOM     10  C   UNL     1      -6.425  -8.250   2.126  1.00  0.00     0.041 C 
ATOM     11  C   UNL     1      -2.922  -3.555  -0.252  1.00  0.00     0.007 C 
ATOM     12  C   UNL     1      -3.298  -6.094  -0.351  1.00  0.00     0.054 C 
ATOM     13  C   UNL     1      -7.504  -9.151   1.485  1.00  0.00     0.013 C 
ATOM     14  C   UNL     1      -1.902  -3.549  -1.424  1.00  0.00     0.004 C 
ATOM     15  C   UNL     1      -1.942  -6.060  -1.105  1.00  0.00     0.002 C 
ATOM     16  C   UNL     1      -1.870  -4.929  -2.125  1.00  0.00    -0.004 C 
ATOM     17  C   UNL     1      -1.418  -7.285  -1.849  1.00  0.00     0.009 C 
ATOM     18  C   UNL     1      -0.711  -5.293  -3.061  1.00  0.00     0.003 C 
ATOM     19  C   UNL     1      -0.209  -6.661  -2.564  1.00  0.00    -0.000 C 
ATOM     20  C   UNL     1       0.462  -4.334  -3.275  1.00  0.00     0.080 C 
ATOM     21  C   UNL     1       0.543  -7.410  -3.705  1.00  0.00    -0.020 C 
ATOM     22  C   UNL     1       1.547  -4.994  -4.109  1.00  0.00     0.136 C 
ATOM     23  C   UNL     1       1.802  -6.517  -4.015  1.00  0.00     0.065 C 
ATOM     24  C   UNL     1       1.077  -8.790  -3.222  1.00  0.00     0.010 C 
ATOM     25  C   UNL     1      -0.392  -7.621  -4.944  1.00  0.00     0.012 C 
ATOM     26  O   UNL     1       2.458  -4.286  -4.503  1.00  0.00    -0.299 OA
ATOM     27  C   UNL     1       2.579  -7.100  -5.211  1.00  0.00     0.043 C 
ATOM     28  C   UNL     1       2.004  -9.465  -4.279  1.00  0.00     0.032 C 
ATOM     29  C   UNL     1       3.094  -8.529  -4.873  1.00  0.00     0.115 C 
ATOM     30  H   UNL     1      -6.190  -7.731  -0.532  1.00  0.00     0.348 HD
ENDROOT
BRANCH   6  31
ATOM     31  O   UNL     1      -5.924  -3.472   0.300  1.00  0.00    -0.384 OA
ATOM     32  H   UNL     1      -6.567  -3.647  -0.442  1.00  0.00     0.211 HD
ENDBRANCH   6  31
BRANCH  29  33
ATOM     33  O   UNL     1       4.177  -8.446  -3.962  1.00  0.00    -0.393 OA
ATOM     34  H   UNL     1       4.956  -8.126  -4.509  1.00  0.00     0.210 HD
ENDBRANCH  29  33
TORSDOF 2
ENDMDL
MODEL 5
REMARK VINA RESULT:    -6.455      4.784     11.263
REMARK INTER + INTRA:          -6.832
REMARK INTER:                  -6.832
REMARK INTRA:                   0.000
REMARK UNBOUND:                 0.000
REMARK SMILES C[C@@H]1CC[C@@H]2[N@H+](C1)C[C@H]1[C@H]3C[C@@H]4[C@H](CC(=O)[C@@H]5C[C@@H](O)CC[C@@]45C)[C@@H]3CC[C@@H]1[C@@]2(C)O
REMARK SMILES IDX 5 1 6 2 8 3 7 4 4 5 29 6 3 7 28 8 30 9 2 10 27 11 9 12 1 13
REMARK SMILES IDX 26 14 10 15 25 16 11 17 13 18 12 19 14 20 23 21 15 22 17 23
REMARK SMILES IDX 22 24 24 25 16 26 18 27 21 28 19 29 31 31 20 33
REMARK H PARENT 6 30 31 32 20 34
REMARK Flexibility Score: inf
ROOT
ATOM      1  C   UNL     1       6.684  -4.368  -6.828  1.00  0.00     0.216 C 
ATOM      2  N   UNL     1       5.894  -3.376  -6.015  1.00  0.00    -0.330 N 
ATOM      3  C   UNL     1       4.523  -3.824  -5.651  1.00  0.00     0.266 C 
ATOM      4  C   UNL     1       6.602  -2.844  -4.822  1.00  0.00     0.265 C 
ATOM      5  C   UNL     1       8.138  -3.888  -7.126  1.00  0.00     0.069 C 
ATOM      6  C   UNL     1       6.578  -5.902  -6.434  1.00  0.00     0.117 C 
ATOM      7  C   UNL     1       8.833  -3.305  -5.885  1.00  0.00     0.015 C 
ATOM      8  C   UNL     1       5.100  -6.217  -6.068  1.00  0.00     0.036 C 
ATOM      9  C   UNL     1       7.543  -6.342  -5.285  1.00  0.00     0.049 C 
ATOM     10  C   UNL     1       7.985  -2.248  -5.166  1.00  0.00     0.041 C 
ATOM     11  C   UNL     1       4.798  -7.687  -5.641  1.00  0.00     0.007 C 
ATOM     12  C   UNL     1       4.557  -5.211  -5.004  1.00  0.00     0.054 C 
ATOM     13  C   UNL     1       7.900  -0.935  -5.975  1.00  0.00     0.013 C 
ATOM     14  C   UNL     1       3.277  -7.982  -5.519  1.00  0.00     0.004 C 
ATOM     15  C   UNL     1       3.208  -5.704  -4.414  1.00  0.00     0.002 C 
ATOM     16  C   UNL     1       2.480  -6.665  -5.348  1.00  0.00    -0.004 C 
ATOM     17  C   UNL     1       2.134  -4.721  -3.959  1.00  0.00     0.009 C 
ATOM     18  C   UNL     1       1.030  -6.700  -4.853  1.00  0.00     0.003 C 
ATOM     19  C   UNL     1       0.981  -5.698  -3.684  1.00  0.00    -0.000 C 
ATOM     20  C   UNL     1       0.360  -8.019  -4.461  1.00  0.00     0.080 C 
ATOM     21  C   UNL     1      -0.478  -5.200  -3.457  1.00  0.00    -0.020 C 
ATOM     22  C   UNL     1      -1.008  -7.763  -3.852  1.00  0.00     0.136 C 
ATOM     23  C   UNL     1      -1.282  -6.484  -3.027  1.00  0.00     0.065 C 
ATOM     24  C   UNL     1      -0.557  -4.200  -2.267  1.00  0.00     0.010 C 
ATOM     25  C   UNL     1      -1.040  -4.515  -4.748  1.00  0.00     0.012 C 
ATOM     26  O   UNL     1      -1.723  -8.732  -3.657  1.00  0.00    -0.299 OA
ATOM     27  C   UNL     1      -2.777  -6.141  -2.874  1.00  0.00     0.043 C 
ATOM     28  C   UNL     1      -2.028  -3.847  -1.892  1.00  0.00     0.032 C 
ATOM     29  C   UNL     1      -2.973  -5.074  -1.759  1.00  0.00     0.115 C 
ATOM     30  H   UNL     1       5.719  -2.553  -6.635  1.00  0.00     0.348 HD
ENDROOT
BRANCH   6  31
ATOM     31  O   UNL     1       6.874  -6.628  -7.614  1.00  0.00    -0.384 OA
ATOM     32  H   UNL     1       6.076  -6.710  -8.206  1.00  0.00     0.211 HD
ENDBRANCH   6  31
BRANCH  29  33
ATOM     33  O   UNL     1      -2.781  -5.669  -0.487  1.00  0.00    -0.393 OA
ATOM     34  H   UNL     1      -3.607  -5.442   0.037  1.00  0.00     0.210 HD
ENDBRANCH  29  33
TORSDOF 2
ENDMDL
MODEL 6
REMARK VINA RESULT:    -6.423      3.968      7.297
REMARK INTER + INTRA:          -6.799
REMARK INTER:                  -6.799
REMARK INTRA:                   0.000
REMARK UNBOUND:                 0.000
REMARK SMILES C[C@@H]1CC[C@@H]2[N@H+](C1)C[C@H]1[C@H]3C[C@@H]4[C@H](CC(=O)[C@@H]5C[C@@H](O)CC[C@@]45C)[C@@H]3CC[C@@H]1[C@@]2(C)O
REMARK SMILES IDX 5 1 6 2 8 3 7 4 4 5 29 6 3 7 28 8 30 9 2 10 27 11 9 12 1 13
REMARK SMILES IDX 26 14 10 15 25 16 11 17 13 18 12 19 14 20 23 21 15 22 17 23
REMARK SMILES IDX 22 24 24 25 16 26 18 27 21 28 19 29 31 31 20 33
REMARK H PARENT 6 30 31 32 20 34
REMARK Flexibility Score: inf
ROOT
ATOM      1  C   UNL     1      -6.377  -2.393   7.073  1.00  0.00     0.216 C 
ATOM      2  N   UNL     1      -5.444  -2.104   5.926  1.00  0.00    -0.330 N 
ATOM      3  C   UNL     1      -5.422  -3.149   4.866  1.00  0.00     0.266 C 
ATOM      4  C   UNL     1      -5.595  -0.755   5.324  1.00  0.00     0.265 C 
ATOM      5  C   UNL     1      -6.421  -1.241   8.124  1.00  0.00     0.069 C 
ATOM      6  C   UNL     1      -7.798  -3.014   6.735  1.00  0.00     0.117 C 
ATOM      7  C   UNL     1      -6.536   0.147   7.474  1.00  0.00     0.015 C 
ATOM      8  C   UNL     1      -7.619  -4.072   5.610  1.00  0.00     0.036 C 
ATOM      9  C   UNL     1      -8.887  -1.962   6.345  1.00  0.00     0.049 C 
ATOM     10  C   UNL     1      -5.498   0.379   6.369  1.00  0.00     0.041 C 
ATOM     11  C   UNL     1      -8.919  -4.791   5.132  1.00  0.00     0.007 C 
ATOM     12  C   UNL     1      -6.841  -3.475   4.394  1.00  0.00     0.054 C 
ATOM     13  C   UNL     1      -4.077   0.554   6.949  1.00  0.00     0.013 C 
ATOM     14  C   UNL     1      -8.635  -5.988   4.183  1.00  0.00     0.004 C 
ATOM     15  C   UNL     1      -6.934  -4.414   3.162  1.00  0.00     0.002 C 
ATOM     16  C   UNL     1      -7.227  -5.859   3.552  1.00  0.00    -0.004 C 
ATOM     17  C   UNL     1      -5.797  -4.511   2.151  1.00  0.00     0.009 C 
ATOM     18  C   UNL     1      -6.851  -6.700   2.327  1.00  0.00     0.003 C 
ATOM     19  C   UNL     1      -6.296  -5.692   1.304  1.00  0.00    -0.000 C 
ATOM     20  C   UNL     1      -7.869  -7.633   1.666  1.00  0.00     0.080 C 
ATOM     21  C   UNL     1      -5.371  -6.413   0.278  1.00  0.00    -0.020 C 
ATOM     22  C   UNL     1      -7.303  -8.219   0.384  1.00  0.00     0.136 C 
ATOM     23  C   UNL     1      -6.318  -7.409  -0.491  1.00  0.00     0.065 C 
ATOM     24  C   UNL     1      -4.812  -5.417  -0.780  1.00  0.00     0.010 C 
ATOM     25  C   UNL     1      -4.178  -7.121   1.004  1.00  0.00     0.012 C 
ATOM     26  O   UNL     1      -7.938  -9.113  -0.150  1.00  0.00    -0.299 OA
ATOM     27  C   UNL     1      -5.493  -8.268  -1.471  1.00  0.00     0.043 C 
ATOM     28  C   UNL     1      -4.052  -6.146  -1.930  1.00  0.00     0.032 C 
ATOM     29  C   UNL     1      -4.809  -7.362  -2.534  1.00  0.00     0.115 C 
ATOM     30  H   UNL     1      -4.473  -2.138   6.313  1.00  0.00     0.348 HD
ENDROOT
BRANCH   6  31
ATOM     31  O   UNL     1      -8.202  -3.715   7.899  1.00  0.00    -0.384 OA
ATOM     32  H   UNL     1      -7.434  -4.177   8.336  1.00  0.00     0.211 HD
ENDBRANCH   6  31
BRANCH  29  33
ATOM     33  O   UNL     1      -5.776  -6.891  -3.458  1.00  0.00    -0.393 OA
ATOM     34  H   UNL     1      -5.558  -7.350  -4.324  1.00  0.00     0.210 HD
ENDBRANCH  29  33
TORSDOF 2
ENDMDL
MODEL 7
REMARK VINA RESULT:    -6.400      3.892      6.780
REMARK INTER + INTRA:          -6.774
REMARK INTER:                  -6.774
REMARK INTRA:                   0.000
REMARK UNBOUND:                 0.000
REMARK SMILES C[C@@H]1CC[C@@H]2[N@H+](C1)C[C@H]1[C@H]3C[C@@H]4[C@H](CC(=O)[C@@H]5C[C@@H](O)CC[C@@]45C)[C@@H]3CC[C@@H]1[C@@]2(C)O
REMARK SMILES IDX 5 1 6 2 8 3 7 4 4 5 29 6 3 7 28 8 30 9 2 10 27 11 9 12 1 13
REMARK SMILES IDX 26 14 10 15 25 16 11 17 13 18 12 19 14 20 23 21 15 22 17 23
REMARK SMILES IDX 22 24 24 25 16 26 18 27 21 28 19 29 31 31 20 33
REMARK H PARENT 6 30 31 32 20 34
REMARK Flexibility Score: inf
ROOT
ATOM      1  C   UNL     1      -6.812  -3.492   7.590  1.00  0.00     0.216 C 
ATOM      2  N   UNL     1      -6.873  -2.490   6.466  1.00  0.00    -0.330 N 
ATOM      3  C   UNL     1      -6.282  -2.961   5.184  1.00  0.00     0.266 C 
ATOM      4  C   UNL     1      -8.214  -1.895   6.234  1.00  0.00     0.265 C 
ATOM      5  C   UNL     1      -7.505  -2.985   8.893  1.00  0.00     0.069 C 
ATOM      6  C   UNL     1      -7.114  -5.012   7.247  1.00  0.00     0.117 C 
ATOM      7  C   UNL     1      -8.872  -2.336   8.620  1.00  0.00     0.015 C 
ATOM      8  C   UNL     1      -6.449  -5.352   5.883  1.00  0.00     0.036 C 
ATOM      9  C   UNL     1      -8.634  -5.382   7.236  1.00  0.00     0.049 C 
ATOM     10  C   UNL     1      -8.821  -1.276   7.513  1.00  0.00     0.041 C 
ATOM     11  C   UNL     1      -6.647  -6.812   5.370  1.00  0.00     0.007 C 
ATOM     12  C   UNL     1      -6.861  -4.321   4.784  1.00  0.00     0.054 C 
ATOM     13  C   UNL     1      -8.089   0.002   7.979  1.00  0.00     0.013 C 
ATOM     14  C   UNL     1      -5.768  -7.142   4.132  1.00  0.00     0.004 C 
ATOM     15  C   UNL     1      -6.459  -4.827   3.373  1.00  0.00     0.002 C 
ATOM     16  C   UNL     1      -5.321  -5.842   3.420  1.00  0.00    -0.004 C 
ATOM     17  C   UNL     1      -6.064  -3.856   2.265  1.00  0.00     0.009 C 
ATOM     18  C   UNL     1      -4.760  -5.896   1.994  1.00  0.00     0.003 C 
ATOM     19  C   UNL     1      -5.571  -4.853   1.204  1.00  0.00    -0.000 C 
ATOM     20  C   UNL     1      -4.686  -7.217   1.224  1.00  0.00     0.080 C 
ATOM     21  C   UNL     1      -4.776  -4.385  -0.052  1.00  0.00    -0.020 C 
ATOM     22  C   UNL     1      -4.251  -6.975  -0.211  1.00  0.00     0.136 C 
ATOM     23  C   UNL     1      -4.642  -5.672  -0.949  1.00  0.00     0.065 C 
ATOM     24  C   UNL     1      -5.584  -3.343  -0.879  1.00  0.00     0.010 C 
ATOM     25  C   UNL     1      -3.399  -3.765   0.359  1.00  0.00     0.012 C 
ATOM     26  O   UNL     1      -3.981  -7.954  -0.886  1.00  0.00    -0.299 OA
ATOM     27  C   UNL     1      -3.774  -5.364  -2.185  1.00  0.00     0.043 C 
ATOM     28  C   UNL     1      -4.900  -3.015  -2.241  1.00  0.00     0.032 C 
ATOM     29  C   UNL     1      -4.446  -4.261  -3.052  1.00  0.00     0.115 C 
ATOM     30  H   UNL     1      -6.250  -1.697   6.738  1.00  0.00     0.348 HD
ENDROOT
BRANCH   6  31
ATOM     31  O   UNL     1      -6.442  -5.774   8.235  1.00  0.00    -0.384 OA
ATOM     32  H   UNL     1      -5.492  -5.489   8.337  1.00  0.00     0.211 HD
ENDBRANCH   6  31
BRANCH  29  33
ATOM     33  O   UNL     1      -5.565  -4.801  -3.733  1.00  0.00    -0.393 OA
ATOM     34  H   UNL     1      -5.644  -5.746  -3.401  1.00  0.00     0.210 HD
ENDBRANCH  29  33
TORSDOF 2
ENDMDL
MODEL 8
REMARK VINA RESULT:    -6.249     11.161     13.126
REMARK INTER + INTRA:          -6.614
REMARK INTER:                  -6.614
REMARK INTRA:                   0.000
REMARK UNBOUND:                 0.000
REMARK SMILES C[C@@H]1CC[C@@H]2[N@H+](C1)C[C@H]1[C@H]3C[C@@H]4[C@H](CC(=O)[C@@H]5C[C@@H](O)CC[C@@]45C)[C@@H]3CC[C@@H]1[C@@]2(C)O
REMARK SMILES IDX 5 1 6 2 8 3 7 4 4 5 29 6 3 7 28 8 30 9 2 10 27 11 9 12 1 13
REMARK SMILES IDX 26 14 10 15 25 16 11 17 13 18 12 19 14 20 23 21 15 22 17 23
REMARK SMILES IDX 22 24 24 25 16 26 18 27 21 28 19 29 31 31 20 33
REMARK H PARENT 6 30 31 32 20 34
REMARK Flexibility Score: inf
ROOT
ATOM      1  C   UNL     1       7.510   0.115  -2.327  1.00  0.00     0.216 C 
ATOM      2  N   UNL     1       6.773  -1.185  -2.138  1.00  0.00    -0.330 N 
ATOM      3  C   UNL     1       6.796  -2.087  -3.321  1.00  0.00     0.266 C 
ATOM      4  C   UNL     1       7.132  -1.932  -0.906  1.00  0.00     0.265 C 
ATOM      5  C   UNL     1       7.521   0.999  -1.040  1.00  0.00     0.069 C 
ATOM      6  C   UNL     1       8.898   0.076  -3.096  1.00  0.00     0.117 C 
ATOM      7  C   UNL     1       7.855   0.193   0.226  1.00  0.00     0.015 C 
ATOM      8  C   UNL     1       8.774  -0.912  -4.290  1.00  0.00     0.036 C 
ATOM      9  C   UNL     1      10.125  -0.286  -2.196  1.00  0.00     0.049 C 
ATOM     10  C   UNL     1       7.002  -1.073   0.371  1.00  0.00     0.041 C 
ATOM     11  C   UNL     1      10.052  -1.092  -5.166  1.00  0.00     0.007 C 
ATOM     12  C   UNL     1       8.228  -2.298  -3.818  1.00  0.00     0.054 C 
ATOM     13  C   UNL     1       5.539  -0.738   0.736  1.00  0.00     0.013 C 
ATOM     14  C   UNL     1       9.786  -1.905  -6.464  1.00  0.00     0.004 C 
ATOM     15  C   UNL     1       8.397  -3.366  -4.932  1.00  0.00     0.002 C 
ATOM     16  C   UNL     1       8.495  -2.748  -6.323  1.00  0.00    -0.004 C 
ATOM     17  C   UNL     1       7.402  -4.512  -5.089  1.00  0.00     0.009 C 
ATOM     18  C   UNL     1       8.210  -3.892  -7.302  1.00  0.00     0.003 C 
ATOM     19  C   UNL     1       7.897  -5.111  -6.415  1.00  0.00    -0.000 C 
ATOM     20  C   UNL     1       9.214  -4.265  -8.395  1.00  0.00     0.080 C 
ATOM     21  C   UNL     1       7.055  -6.156  -7.206  1.00  0.00    -0.020 C 
ATOM     22  C   UNL     1       8.774  -5.527  -9.118  1.00  0.00     0.136 C 
ATOM     23  C   UNL     1       7.998  -6.638  -8.371  1.00  0.00     0.065 C 
ATOM     24  C   UNL     1       6.742  -7.408  -6.335  1.00  0.00     0.010 C 
ATOM     25  C   UNL     1       5.713  -5.526  -7.708  1.00  0.00     0.012 C 
ATOM     26  O   UNL     1       9.388  -5.838 -10.125  1.00  0.00    -0.299 OA
ATOM     27  C   UNL     1       7.236  -7.605  -9.299  1.00  0.00     0.043 C 
ATOM     28  C   UNL     1       6.078  -8.550  -7.164  1.00  0.00     0.032 C 
ATOM     29  C   UNL     1       6.791  -8.869  -8.508  1.00  0.00     0.115 C 
ATOM     30  H   UNL     1       5.760  -0.944  -2.043  1.00  0.00     0.348 HD
ENDROOT
BRANCH   6  31
ATOM     31  O   UNL     1       9.072   1.370  -3.648  1.00  0.00    -0.384 OA
ATOM     32  H   UNL     1       8.578   2.062  -3.127  1.00  0.00     0.211 HD
ENDBRANCH   6  31
BRANCH  29  33
ATOM     33  O   UNL     1       7.914  -9.694  -8.251  1.00  0.00    -0.393 OA
ATOM     34  H   UNL     1       8.474  -9.644  -9.083  1.00  0.00     0.210 HD
ENDBRANCH  29  33
TORSDOF 2
ENDMDL
MODEL 9
REMARK VINA RESULT:    -6.247      3.904      9.819
REMARK INTER + INTRA:          -6.612
REMARK INTER:                  -6.612
REMARK INTRA:                   0.000
REMARK UNBOUND:                 0.000
REMARK SMILES C[C@@H]1CC[C@@H]2[N@H+](C1)C[C@H]1[C@H]3C[C@@H]4[C@H](CC(=O)[C@@H]5C[C@@H](O)CC[C@@]45C)[C@@H]3CC[C@@H]1[C@@]2(C)O
REMARK SMILES IDX 5 1 6 2 8 3 7 4 4 5 29 6 3 7 28 8 30 9 2 10 27 11 9 12 1 13
REMARK SMILES IDX 26 14 10 15 25 16 11 17 13 18 12 19 14 20 23 21 15 22 17 23
REMARK SMILES IDX 22 24 24 25 16 26 18 27 21 28 19 29 31 31 20 33
REMARK H PARENT 6 30 31 32 20 34
REMARK Flexibility Score: inf
ROOT
ATOM      1  C   UNL     1       3.409  -7.787  -6.822  1.00  0.00     0.216 C 
ATOM      2  N   UNL     1       3.178  -6.396  -6.292  1.00  0.00    -0.330 N 
ATOM      3  C   UNL     1       1.902  -6.221  -5.546  1.00  0.00     0.266 C 
ATOM      4  C   UNL     1       4.313  -5.825  -5.524  1.00  0.00     0.265 C 
ATOM      5  C   UNL     1       4.789  -7.943  -7.536  1.00  0.00     0.069 C 
ATOM      6  C   UNL     1       3.023  -9.010  -5.888  1.00  0.00     0.117 C 
ATOM      7  C   UNL     1       5.940  -7.307  -6.739  1.00  0.00     0.015 C 
ATOM      8  C   UNL     1       1.685  -8.680  -5.169  1.00  0.00     0.036 C 
ATOM      9  C   UNL     1       4.128  -9.410  -4.856  1.00  0.00     0.049 C 
ATOM     10  C   UNL     1       5.644  -5.866  -6.307  1.00  0.00     0.041 C 
ATOM     11  C   UNL     1       1.144  -9.769  -4.192  1.00  0.00     0.007 C 
ATOM     12  C   UNL     1       1.757  -7.289  -4.459  1.00  0.00     0.054 C 
ATOM     13  C   UNL     1       5.677  -4.892  -7.506  1.00  0.00     0.013 C 
ATOM     14  C   UNL     1      -0.298  -9.474  -3.695  1.00  0.00     0.004 C 
ATOM     15  C   UNL     1       0.556  -7.099  -3.494  1.00  0.00     0.002 C 
ATOM     16  C   UNL     1      -0.636  -7.973  -3.867  1.00  0.00    -0.004 C 
ATOM     17  C   UNL     1      -0.043  -5.720  -3.236  1.00  0.00     0.009 C 
ATOM     18  C   UNL     1      -1.838  -7.364  -3.136  1.00  0.00     0.003 C 
ATOM     19  C   UNL     1      -1.282  -6.119  -2.420  1.00  0.00    -0.000 C 
ATOM     20  C   UNL     1      -2.688  -8.202  -2.178  1.00  0.00     0.080 C 
ATOM     21  C   UNL     1      -2.429  -5.106  -2.124  1.00  0.00    -0.020 C 
ATOM     22  C   UNL     1      -3.704  -7.329  -1.462  1.00  0.00     0.136 C 
ATOM     23  C   UNL     1      -3.382  -5.855  -1.119  1.00  0.00     0.065 C 
ATOM     24  C   UNL     1      -1.895  -3.846  -1.383  1.00  0.00     0.010 C 
ATOM     25  C   UNL     1      -3.140  -4.666  -3.448  1.00  0.00     0.012 C 
ATOM     26  O   UNL     1      -4.560  -7.894  -0.802  1.00  0.00    -0.299 OA
ATOM     27  C   UNL     1      -4.625  -4.991  -0.829  1.00  0.00     0.043 C 
ATOM     28  C   UNL     1      -3.049  -2.916  -0.897  1.00  0.00     0.032 C 
ATOM     29  C   UNL     1      -4.202  -3.651  -0.159  1.00  0.00     0.115 C 
ATOM     30  H   UNL     1       3.054  -5.775  -7.124  1.00  0.00     0.348 HD
ENDROOT
BRANCH   6  31
ATOM     31  O   UNL     1       2.764 -10.098  -6.760  1.00  0.00    -0.384 OA
ATOM     32  H   UNL     1       3.145 -10.950  -6.408  1.00  0.00     0.211 HD
ENDBRANCH   6  31
BRANCH  29  33
ATOM     33  O   UNL     1      -3.814  -3.888   1.184  1.00  0.00    -0.393 OA
ATOM     34  H   UNL     1      -4.622  -4.290   1.624  1.00  0.00     0.210 HD
ENDBRANCH  29  33
TORSDOF 2
ENDMDL
