MODEL 1
REMARK VINA RESULT:    -4.221      0.000      0.000
REMARK INTER + INTRA:         -11.184
REMARK INTER:                  -8.908
REMARK INTRA:                  -2.275
REMARK UNBOUND:                -2.275
REMARK SMILES CCC(=O)CCCCC[C@@H]1NC(=O)[C@H]2CCCCN2C(=O)[C@H]([C@@H](C)CC)NC(=O)[C@@H](Cc2cn(OC)c3ccccc23)NC1=O
REMARK SMILES IDX 9 1 10 2 44 3 43 4 45 6 30 7 28 8 27 9 29 11 22 12 23 14
REMARK SMILES IDX 24 15 25 16 26 17 31 18 32 19 33 20 42 21 34 22 37 23 41 24
REMARK SMILES IDX 38 25 40 26 39 27 35 28 36 29 11 30 12 31 13 33 14 34 19 35
REMARK SMILES IDX 15 36 18 37 16 38 17 39 20 40 21 41 8 43 7 44 6 45 5 46 3 47
REMARK SMILES IDX 4 48 2 49 1 50
REMARK H PARENT 43 5 27 10 11 32
REMARK Flexibility Score: 80.00
ROOT
ATOM      1  C   UNL     1      61.660  32.128  60.874  1.00  0.00     0.035 C 
ENDROOT
BRANCH   1   2
ATOM      2  C   UNL     1      62.532  30.846  60.820  1.00  0.00     0.171 C 
BRANCH   2   3
ATOM      3  C   UNL     1      61.748  29.558  60.733  1.00  0.00     0.243 C 
ATOM      4  N   UNL     1      61.753  28.647  61.843  1.00  0.00    -0.342 N 
ATOM      5  H   UNL     1      62.119  28.991  62.759  1.00  0.00     0.164 HD
ATOM      6  O   UNL     1      61.163  29.238  59.661  1.00  0.00    -0.273 OA
BRANCH   4   7
ATOM      7  C   UNL     1      61.611  27.199  61.651  1.00  0.00     0.175 C 
BRANCH   7   8
ATOM      8  C   UNL     1      62.873  26.600  61.061  1.00  0.00     0.243 C 
ATOM      9  N   UNL     1      63.773  27.382  60.254  1.00  0.00    -0.342 N 
ATOM     10  H   UNL     1      63.806  28.406  60.433  1.00  0.00     0.164 HD
ATOM     11  O   UNL     1      63.114  25.380  61.265  1.00  0.00    -0.273 OA
BRANCH   9  12
ATOM     12  C   UNL     1      64.761  26.793  59.335  1.00  0.00     0.174 CG0
ATOM     13  G   UNL     1      66.038  27.642  59.320  1.00  0.00     0.000 G0
BRANCH  12  14
ATOM     14  C   UNL     1      64.119  26.463  57.944  1.00  0.00     0.018 C 
ATOM     15  C   UNL     1      63.747  24.981  57.763  1.00  0.00     0.010 C 
BRANCH  14  16
ATOM     16  C   UNL     1      62.942  27.409  57.590  1.00  0.00     0.002 C 
ATOM     17  C   UNL     1      63.061  28.000  56.185  1.00  0.00     0.004 C 
ENDBRANCH  14  16
ENDBRANCH  12  14
ENDBRANCH   9  12
ENDBRANCH   7   8
BRANCH   7  18
ATOM     18  C   UNL     1      61.271  26.510  62.988  1.00  0.00     0.073 C 
BRANCH  18  19
ATOM     19  C   UNL     1      59.997  25.718  62.887  1.00  0.00    -0.016 A 
ATOM     20  C   UNL     1      58.844  26.101  62.205  1.00  0.00     0.134 A 
ATOM     21  C   UNL     1      59.679  24.527  63.523  1.00  0.00     0.006 A 
ATOM     22  N   UNL     1      57.877  25.177  62.381  1.00  0.00    -0.191 N 
ATOM     23  C   UNL     1      58.378  24.229  63.197  1.00  0.00     0.087 A 
ATOM     24  C   UNL     1      60.426  23.711  64.375  1.00  0.00     0.011 A 
ATOM     25  C   UNL     1      57.721  23.129  63.748  1.00  0.00     0.030 A 
ATOM     26  C   UNL     1      59.793  22.580  64.926  1.00  0.00     0.001 A 
ATOM     27  C   UNL     1      58.444  22.295  64.618  1.00  0.00     0.002 A 
BRANCH  22  28
ATOM     28  O   UNL     1      56.603  25.250  61.854  1.00  0.00    -0.417 OA
ATOM     29  C   UNL     1      56.369  25.739  60.541  1.00  0.00     0.313 C 
ENDBRANCH  22  28
ENDBRANCH  18  19
ENDBRANCH   7  18
ENDBRANCH   4   7
ENDBRANCH   2   3
BRANCH   2  30
ATOM     30  N   UNL     1      63.538  30.896  59.749  1.00  0.00    -0.343 N 
ATOM     31  C   UNL     1      64.836  30.285  59.862  1.00  0.00     0.243 C 
ATOM     32  H   UNL     1      63.256  31.257  58.813  1.00  0.00     0.164 HD
ATOM     33  O   UNL     1      65.266  29.907  60.990  1.00  0.00    -0.273 OA
BRANCH  31  34
ATOM     34  C   UNL     1      65.723  30.148  58.643  1.00  0.00     0.174 C 
ATOM     35  N   UNL     1      66.230  28.772  58.422  1.00  0.00    -0.329 N 
ATOM     36  C   UNL     1      66.892  31.146  58.748  1.00  0.00     0.035 C 
ATOM     37  C   UNL     1      67.221  28.575  57.352  1.00  0.00     0.120 C 
ATOM     38  C   UNL     1      67.872  30.985  57.584  1.00  0.00     0.004 C 
ATOM     39  C   UNL     1      68.389  29.550  57.514  1.00  0.00     0.022 C 
BRANCH  35  40
ATOM     40  C   UNL     1      66.011  27.685  59.342  1.00  0.00     0.246 CG0
ATOM     41  O   UNL     1      66.907  27.435  60.191  1.00  0.00    -0.272 OA
ATOM     42  G   UNL     1      64.746  26.819  59.342  1.00  0.00     0.000 G0
ENDBRANCH  35  40
ENDBRANCH  31  34
ENDBRANCH   2  30
ENDBRANCH   1   2
BRANCH   1  43
ATOM     43  C   UNL     1      60.862  32.531  59.611  1.00  0.00     0.003 C 
BRANCH  43  44
ATOM     44  C   UNL     1      60.744  34.042  59.323  1.00  0.00     0.001 C 
BRANCH  44  45
ATOM     45  C   UNL     1      61.491  34.958  60.314  1.00  0.00     0.008 C 
BRANCH  45  46
ATOM     46  C   UNL     1      62.855  35.409  59.774  1.00  0.00     0.075 C 
BRANCH  46  47
ATOM     47  C   UNL     1      63.983  34.825  60.583  1.00  0.00     0.132 C 
ATOM     48  O   UNL     1      64.514  33.788  60.211  1.00  0.00    -0.300 OA
BRANCH  47  49
ATOM     49  C   UNL     1      64.499  35.558  61.800  1.00  0.00     0.072 C 
ATOM     50  C   UNL     1      65.193  36.880  61.460  1.00  0.00     0.012 C 
ENDBRANCH  47  49
ENDBRANCH  46  47
ENDBRANCH  45  46
ENDBRANCH  44  45
ENDBRANCH  43  44
ENDBRANCH   1  43
TORSDOF 12
ENDMDL
MODEL 2
REMARK VINA RESULT:    -4.185      8.988     11.190
REMARK INTER + INTRA:         -11.110
REMARK INTER:                  -8.476
REMARK INTRA:                  -2.634
REMARK UNBOUND:                -2.275
REMARK SMILES CCC(=O)CCCCC[C@@H]1NC(=O)[C@H]2CCCCN2C(=O)[C@H]([C@@H](C)CC)NC(=O)[C@@H](Cc2cn(OC)c3ccccc23)NC1=O
REMARK SMILES IDX 9 1 10 2 44 3 43 4 45 6 30 7 28 8 27 9 29 11 22 12 23 14
REMARK SMILES IDX 24 15 25 16 26 17 31 18 32 19 33 20 42 21 34 22 37 23 41 24
REMARK SMILES IDX 38 25 40 26 39 27 35 28 36 29 11 30 12 31 13 33 14 34 19 35
REMARK SMILES IDX 15 36 18 37 16 38 17 39 20 40 21 41 8 43 7 44 6 45 5 46 3 47
REMARK SMILES IDX 4 48 2 49 1 50
REMARK H PARENT 43 5 27 10 11 32
REMARK Flexibility Score: 80.00
ROOT
ATOM      1  C   UNL     1      58.562  29.176  49.507  1.00  0.00     0.035 C 
ENDROOT
BRANCH   1   2
ATOM      2  C   UNL     1      59.992  29.323  50.092  1.00  0.00     0.171 C 
BRANCH   2   3
ATOM      3  C   UNL     1      60.809  28.053  50.074  1.00  0.00     0.243 C 
ATOM      4  N   UNL     1      61.182  27.431  51.313  1.00  0.00    -0.342 N 
ATOM      5  H   UNL     1      60.702  27.748  52.186  1.00  0.00     0.164 HD
ATOM      6  O   UNL     1      61.239  27.586  48.983  1.00  0.00    -0.273 OA
BRANCH   4   7
ATOM      7  C   UNL     1      62.423  26.659  51.445  1.00  0.00     0.175 C 
BRANCH   7   8
ATOM      8  C   UNL     1      63.625  27.574  51.569  1.00  0.00     0.243 C 
ATOM      9  N   UNL     1      63.657  28.867  50.936  1.00  0.00    -0.342 N 
ATOM     10  H   UNL     1      62.747  29.345  50.781  1.00  0.00     0.164 HD
ATOM     11  O   UNL     1      64.625  27.171  52.221  1.00  0.00    -0.273 OA
BRANCH   9  12
ATOM     12  C   UNL     1      64.899  29.612  50.671  1.00  0.00     0.174 CG0
ATOM     13  G   UNL     1      64.652  31.118  50.810  1.00  0.00     0.000 G0
BRANCH  12  14
ATOM     14  C   UNL     1      65.578  29.130  49.343  1.00  0.00     0.018 C 
ATOM     15  C   UNL     1      66.748  28.153  49.558  1.00  0.00     0.010 C 
BRANCH  14  16
ATOM     16  C   UNL     1      64.555  28.598  48.307  1.00  0.00     0.002 C 
ATOM     17  C   UNL     1      65.064  27.371  47.549  1.00  0.00     0.004 C 
ENDBRANCH  14  16
ENDBRANCH  12  14
ENDBRANCH   9  12
ENDBRANCH   7   8
BRANCH   7  18
ATOM     18  C   UNL     1      62.344  25.716  52.663  1.00  0.00     0.073 C 
BRANCH  18  19
ATOM     19  C   UNL     1      61.278  24.673  52.480  1.00  0.00    -0.016 A 
ATOM     20  C   UNL     1      61.355  23.558  51.647  1.00  0.00     0.134 A 
ATOM     21  C   UNL     1      59.994  24.662  53.004  1.00  0.00     0.006 A 
ATOM     22  N   UNL     1      60.192  22.875  51.683  1.00  0.00    -0.191 N 
ATOM     23  C   UNL     1      59.358  23.556  52.494  1.00  0.00     0.087 A 
ATOM     24  C   UNL     1      59.342  25.552  53.861  1.00  0.00     0.011 A 
ATOM     25  C   UNL     1      58.013  23.299  52.760  1.00  0.00     0.030 A 
ATOM     26  C   UNL     1      57.991  25.302  54.165  1.00  0.00     0.001 A 
ATOM     27  C   UNL     1      57.328  24.184  53.611  1.00  0.00     0.002 A 
BRANCH  22  28
ATOM     28  O   UNL     1      59.922  21.726  50.967  1.00  0.00    -0.417 OA
ATOM     29  C   UNL     1      60.010  20.441  51.563  1.00  0.00     0.313 C 
ENDBRANCH  22  28
ENDBRANCH  18  19
ENDBRANCH   7  18
ENDBRANCH   4   7
ENDBRANCH   2   3
BRANCH   2  30
ATOM     30  N   UNL     1      60.745  30.416  49.460  1.00  0.00    -0.343 N 
ATOM     31  C   UNL     1      61.771  31.159  50.145  1.00  0.00     0.243 C 
ATOM     32  H   UNL     1      60.645  30.567  48.435  1.00  0.00     0.164 HD
ATOM     33  O   UNL     1      61.884  31.080  51.401  1.00  0.00    -0.273 OA
BRANCH  31  34
ATOM     34  C   UNL     1      62.683  32.089  49.372  1.00  0.00     0.174 C 
ATOM     35  N   UNL     1      64.115  31.962  49.735  1.00  0.00    -0.329 N 
ATOM     36  C   UNL     1      62.203  33.541  49.555  1.00  0.00     0.035 C 
ATOM     37  C   UNL     1      65.054  32.931  49.148  1.00  0.00     0.120 C 
ATOM     38  C   UNL     1      63.145  34.533  48.869  1.00  0.00     0.004 C 
ATOM     39  C   UNL     1      64.571  34.363  49.388  1.00  0.00     0.022 C 
BRANCH  35  40
ATOM     40  C   UNL     1      64.594  31.129  50.808  1.00  0.00     0.246 CG0
ATOM     41  O   UNL     1      64.800  31.663  51.930  1.00  0.00    -0.272 OA
ATOM     42  G   UNL     1      64.867  29.628  50.655  1.00  0.00     0.000 G0
ENDBRANCH  35  40
ENDBRANCH  31  34
ENDBRANCH   2  30
ENDBRANCH   1   2
BRANCH   1  43
ATOM     43  C   UNL     1      57.502  28.407  50.331  1.00  0.00     0.003 C 
BRANCH  43  44
ATOM     44  C   UNL     1      57.449  26.878  50.132  1.00  0.00     0.001 C 
BRANCH  44  45
ATOM     45  C   UNL     1      56.055  26.243  50.310  1.00  0.00     0.008 C 
BRANCH  45  46
ATOM     46  C   UNL     1      55.415  26.614  51.655  1.00  0.00     0.075 C 
BRANCH  46  47
ATOM     47  C   UNL     1      54.170  27.440  51.458  1.00  0.00     0.132 C 
ATOM     48  O   UNL     1      53.464  27.699  52.423  1.00  0.00    -0.300 OA
BRANCH  47  49
ATOM     49  C   UNL     1      53.844  28.002  50.094  1.00  0.00     0.072 C 
ATOM     50  C   UNL     1      53.445  29.480  50.129  1.00  0.00     0.012 C 
ENDBRANCH  47  49
ENDBRANCH  46  47
ENDBRANCH  45  46
ENDBRANCH  44  45
ENDBRANCH  43  44
ENDBRANCH   1  43
TORSDOF 12
ENDMDL
MODEL 3
REMARK VINA RESULT:    -4.041      8.435     13.368
REMARK INTER + INTRA:         -10.805
REMARK INTER:                  -7.939
REMARK INTRA:                  -2.867
REMARK UNBOUND:                -2.275
REMARK SMILES CCC(=O)CCCCC[C@@H]1NC(=O)[C@H]2CCCCN2C(=O)[C@H]([C@@H](C)CC)NC(=O)[C@@H](Cc2cn(OC)c3ccccc23)NC1=O
REMARK SMILES IDX 9 1 10 2 44 3 43 4 45 6 30 7 28 8 27 9 29 11 22 12 23 14
REMARK SMILES IDX 24 15 25 16 26 17 31 18 32 19 33 20 42 21 34 22 37 23 41 24
REMARK SMILES IDX 38 25 40 26 39 27 35 28 36 29 11 30 12 31 13 33 14 34 19 35
REMARK SMILES IDX 15 36 18 37 16 38 17 39 20 40 21 41 8 43 7 44 6 45 5 46 3 47
REMARK SMILES IDX 4 48 2 49 1 50
REMARK H PARENT 43 5 27 10 11 32
REMARK Flexibility Score: 80.00
ROOT
ATOM      1  C   UNL     1      58.565  28.785  49.880  1.00  0.00     0.035 C 
ENDROOT
BRANCH   1   2
ATOM      2  C   UNL     1      59.707  27.735  49.913  1.00  0.00     0.171 C 
BRANCH   2   3
ATOM      3  C   UNL     1      61.098  28.323  49.903  1.00  0.00     0.243 C 
ATOM      4  N   UNL     1      61.944  28.126  48.760  1.00  0.00    -0.342 N 
ATOM      5  H   UNL     1      61.507  27.768  47.882  1.00  0.00     0.164 HD
ATOM      6  O   UNL     1      61.551  28.908  50.926  1.00  0.00    -0.273 OA
BRANCH   4   7
ATOM      7  C   UNL     1      63.405  28.060  48.886  1.00  0.00     0.175 C 
BRANCH   7   8
ATOM      8  C   UNL     1      63.844  26.733  49.471  1.00  0.00     0.243 C 
ATOM      9  N   UNL     1      62.954  25.928  50.269  1.00  0.00    -0.342 N 
ATOM     10  H   UNL     1      61.935  26.019  50.084  1.00  0.00     0.164 HD
ATOM     11  O   UNL     1      65.028  26.348  49.273  1.00  0.00    -0.273 OA
BRANCH   9  12
ATOM     12  C   UNL     1      63.415  24.871  51.184  1.00  0.00     0.174 CG0
ATOM     13  G   UNL     1      62.351  23.774  51.300  1.00  0.00     0.000 G0
BRANCH  12  14
ATOM     14  C   UNL     1      63.951  25.476  52.527  1.00  0.00     0.018 C 
ATOM     15  C   UNL     1      65.485  25.573  52.600  1.00  0.00     0.010 C 
BRANCH  14  16
ATOM     16  C   UNL     1      63.261  26.814  52.898  1.00  0.00     0.002 C 
ATOM     17  C   UNL     1      64.118  27.685  53.817  1.00  0.00     0.004 C 
ENDBRANCH  14  16
ENDBRANCH  12  14
ENDBRANCH   9  12
ENDBRANCH   7   8
BRANCH   7  18
ATOM     18  C   UNL     1      64.074  28.284  47.514  1.00  0.00     0.073 C 
BRANCH  18  19
ATOM     19  C   UNL     1      65.004  29.464  47.544  1.00  0.00    -0.016 A 
ATOM     20  C   UNL     1      64.790  30.661  48.226  1.00  0.00     0.134 A 
ATOM     21  C   UNL     1      66.183  29.641  46.834  1.00  0.00     0.006 A 
ATOM     22  N   UNL     1      65.802  31.518  47.977  1.00  0.00    -0.191 N 
ATOM     23  C   UNL     1      66.639  30.905  47.117  1.00  0.00     0.087 A 
ATOM     24  C   UNL     1      66.859  28.798  45.951  1.00  0.00     0.011 A 
ATOM     25  C   UNL     1      67.769  31.431  46.491  1.00  0.00     0.030 A 
ATOM     26  C   UNL     1      68.018  29.295  45.324  1.00  0.00     0.001 A 
ATOM     27  C   UNL     1      68.466  30.609  45.588  1.00  0.00     0.002 A 
BRANCH  22  28
ATOM     28  O   UNL     1      65.900  32.799  48.483  1.00  0.00    -0.417 OA
ATOM     29  C   UNL     1      64.840  33.734  48.347  1.00  0.00     0.313 C 
ENDBRANCH  22  28
ENDBRANCH  18  19
ENDBRANCH   7  18
ENDBRANCH   4   7
ENDBRANCH   2   3
BRANCH   2  30
ATOM     30  N   UNL     1      59.567  26.791  51.031  1.00  0.00    -0.343 N 
ATOM     31  C   UNL     1      59.915  25.397  50.929  1.00  0.00     0.243 C 
ATOM     32  H   UNL     1      59.350  27.164  51.979  1.00  0.00     0.164 HD
ATOM     33  O   UNL     1      60.105  24.870  49.796  1.00  0.00    -0.273 OA
BRANCH  31  34
ATOM     34  C   UNL     1      59.995  24.538  52.173  1.00  0.00     0.174 C 
ATOM     35  N   UNL     1      61.274  23.803  52.313  1.00  0.00    -0.329 N 
ATOM     36  C   UNL     1      58.803  23.563  52.195  1.00  0.00     0.035 C 
ATOM     37  C   UNL     1      61.382  22.826  53.408  1.00  0.00     0.120 C 
ATOM     38  C   UNL     1      58.884  22.606  53.387  1.00  0.00     0.004 C 
ATOM     39  C   UNL     1      60.209  21.845  53.373  1.00  0.00     0.022 C 
BRANCH  35  40
ATOM     40  C   UNL     1      62.304  23.797  51.305  1.00  0.00     0.246 CG0
ATOM     41  O   UNL     1      62.324  22.845  50.481  1.00  0.00    -0.272 OA
ATOM     42  G   UNL     1      63.375  24.887  51.184  1.00  0.00     0.000 G0
ENDBRANCH  35  40
ENDBRANCH  31  34
ENDBRANCH   2  30
ENDBRANCH   1   2
BRANCH   1  43
ATOM     43  C   UNL     1      57.111  28.302  50.093  1.00  0.00     0.003 C 
BRANCH  43  44
ATOM     44  C   UNL     1      56.310  28.997  51.214  1.00  0.00     0.001 C 
BRANCH  44  45
ATOM     45  C   UNL     1      57.165  29.673  52.306  1.00  0.00     0.008 C 
BRANCH  45  46
ATOM     46  C   UNL     1      56.970  29.023  53.682  1.00  0.00     0.075 C 
BRANCH  46  47
ATOM     47  C   UNL     1      57.523  27.622  53.707  1.00  0.00     0.132 C 
ATOM     48  O   UNL     1      58.736  27.456  53.715  1.00  0.00    -0.300 OA
BRANCH  47  49
ATOM     49  C   UNL     1      56.587  26.440  53.797  1.00  0.00     0.072 C 
ATOM     50  C   UNL     1      56.779  25.612  55.071  1.00  0.00     0.012 C 
ENDBRANCH  47  49
ENDBRANCH  46  47
ENDBRANCH  45  46
ENDBRANCH  44  45
ENDBRANCH  43  44
ENDBRANCH   1  43
TORSDOF 12
ENDMDL
MODEL 4
REMARK VINA RESULT:    -4.036      9.004     11.199
REMARK INTER + INTRA:         -10.793
REMARK INTER:                  -8.272
REMARK INTRA:                  -2.521
REMARK UNBOUND:                -2.275
REMARK SMILES CCC(=O)CCCCC[C@@H]1NC(=O)[C@H]2CCCCN2C(=O)[C@H]([C@@H](C)CC)NC(=O)[C@@H](Cc2cn(OC)c3ccccc23)NC1=O
REMARK SMILES IDX 9 1 10 2 44 3 43 4 45 6 30 7 28 8 27 9 29 11 22 12 23 14
REMARK SMILES IDX 24 15 25 16 26 17 31 18 32 19 33 20 42 21 34 22 37 23 41 24
REMARK SMILES IDX 38 25 40 26 39 27 35 28 36 29 11 30 12 31 13 33 14 34 19 35
REMARK SMILES IDX 15 36 18 37 16 38 17 39 20 40 21 41 8 43 7 44 6 45 5 46 3 47
REMARK SMILES IDX 4 48 2 49 1 50
REMARK H PARENT 43 5 27 10 11 32
REMARK Flexibility Score: 80.00
ROOT
ATOM      1  C   UNL     1      58.028  29.233  49.469  1.00  0.00     0.035 C 
ENDROOT
BRANCH   1   2
ATOM      2  C   UNL     1      59.436  29.264  50.121  1.00  0.00     0.171 C 
BRANCH   2   3
ATOM      3  C   UNL     1      60.087  27.909  50.267  1.00  0.00     0.243 C 
ATOM      4  N   UNL     1      60.331  27.376  51.578  1.00  0.00    -0.342 N 
ATOM      5  H   UNL     1      59.860  27.835  52.390  1.00  0.00     0.164 HD
ATOM      6  O   UNL     1      60.499  27.286  49.249  1.00  0.00    -0.273 OA
BRANCH   4   7
ATOM      7  C   UNL     1      61.459  26.477  51.846  1.00  0.00     0.175 C 
BRANCH   7   8
ATOM      8  C   UNL     1      62.758  27.251  51.959  1.00  0.00     0.243 C 
ATOM      9  N   UNL     1      62.905  28.566  51.391  1.00  0.00    -0.342 N 
ATOM     10  H   UNL     1      62.046  29.146  51.305  1.00  0.00     0.164 HD
ATOM     11  O   UNL     1      63.735  26.707  52.541  1.00  0.00    -0.273 OA
BRANCH   9  12
ATOM     12  C   UNL     1      64.209  29.187  51.105  1.00  0.00     0.174 CG0
ATOM     13  G   UNL     1      64.067  30.713  51.057  1.00  0.00     0.000 G0
BRANCH  12  14
ATOM     14  C   UNL     1      64.906  28.506  49.877  1.00  0.00     0.018 C 
ATOM     15  C   UNL     1      66.019  27.516  50.262  1.00  0.00     0.010 C 
BRANCH  14  16
ATOM     16  C   UNL     1      63.891  27.888  48.881  1.00  0.00     0.002 C 
ATOM     17  C   UNL     1      63.711  28.734  47.620  1.00  0.00     0.004 C 
ENDBRANCH  14  16
ENDBRANCH  12  14
ENDBRANCH   9  12
ENDBRANCH   7   8
BRANCH   7  18
ATOM     18  C   UNL     1      61.209  25.668  53.135  1.00  0.00     0.073 C 
BRANCH  18  19
ATOM     19  C   UNL     1      61.389  24.195  52.901  1.00  0.00    -0.016 A 
ATOM     20  C   UNL     1      61.998  23.293  53.773  1.00  0.00     0.134 A 
ATOM     21  C   UNL     1      61.092  23.469  51.757  1.00  0.00     0.006 A 
ATOM     22  N   UNL     1      62.042  22.068  53.210  1.00  0.00    -0.191 N 
ATOM     23  C   UNL     1      61.508  22.178  51.977  1.00  0.00     0.087 A 
ATOM     24  C   UNL     1      60.518  23.857  50.545  1.00  0.00     0.011 A 
ATOM     25  C   UNL     1      61.430  21.206  50.980  1.00  0.00     0.030 A 
ATOM     26  C   UNL     1      60.405  22.888  49.530  1.00  0.00     0.001 A 
ATOM     27  C   UNL     1      60.866  21.570  49.745  1.00  0.00     0.002 A 
BRANCH  22  28
ATOM     28  O   UNL     1      62.590  20.944  53.795  1.00  0.00    -0.417 OA
ATOM     29  C   UNL     1      61.889  20.204  54.783  1.00  0.00     0.313 C 
ENDBRANCH  22  28
ENDBRANCH  18  19
ENDBRANCH   7  18
ENDBRANCH   4   7
ENDBRANCH   2   3
BRANCH   2  30
ATOM     30  N   UNL     1      60.349  30.192  49.439  1.00  0.00    -0.343 N 
ATOM     31  C   UNL     1      61.307  31.007  50.139  1.00  0.00     0.243 C 
ATOM     32  H   UNL     1      60.417  30.156  48.400  1.00  0.00     0.164 HD
ATOM     33  O   UNL     1      61.221  31.155  51.392  1.00  0.00    -0.273 OA
BRANCH  31  34
ATOM     34  C   UNL     1      62.386  31.743  49.374  1.00  0.00     0.174 C 
ATOM     35  N   UNL     1      63.758  31.489  49.878  1.00  0.00    -0.329 N 
ATOM     36  C   UNL     1      62.076  33.251  49.380  1.00  0.00     0.035 C 
ATOM     37  C   UNL     1      64.854  32.279  49.296  1.00  0.00     0.120 C 
ATOM     38  C   UNL     1      63.187  34.054  48.698  1.00  0.00     0.004 C 
ATOM     39  C   UNL     1      64.534  33.773  49.360  1.00  0.00     0.022 C 
BRANCH  35  40
ATOM     40  C   UNL     1      64.041  30.717  51.061  1.00  0.00     0.246 CG0
ATOM     41  O   UNL     1      64.189  31.333  52.150  1.00  0.00    -0.272 OA
ATOM     42  G   UNL     1      64.172  29.190  51.064  1.00  0.00     0.000 G0
ENDBRANCH  35  40
ENDBRANCH  31  34
ENDBRANCH   2  30
ENDBRANCH   1   2
BRANCH   1  43
ATOM     43  C   UNL     1      56.790  29.450  50.371  1.00  0.00     0.003 C 
BRANCH  43  44
ATOM     44  C   UNL     1      57.018  29.343  51.893  1.00  0.00     0.001 C 
BRANCH  44  45
ATOM     45  C   UNL     1      56.273  28.184  52.586  1.00  0.00     0.008 C 
BRANCH  45  46
ATOM     46  C   UNL     1      56.998  26.842  52.414  1.00  0.00     0.075 C 
BRANCH  46  47
ATOM     47  C   UNL     1      56.592  26.162  51.133  1.00  0.00     0.132 C 
ATOM     48  O   UNL     1      57.457  25.792  50.351  1.00  0.00    -0.300 OA
BRANCH  47  49
ATOM     49  C   UNL     1      55.134  25.875  50.859  1.00  0.00     0.072 C 
ATOM     50  C   UNL     1      54.629  26.505  49.558  1.00  0.00     0.012 C 
ENDBRANCH  47  49
ENDBRANCH  46  47
ENDBRANCH  45  46
ENDBRANCH  44  45
ENDBRANCH  43  44
ENDBRANCH   1  43
TORSDOF 12
ENDMDL
MODEL 5
REMARK VINA RESULT:    -3.831      9.055     12.029
REMARK INTER + INTRA:         -10.361
REMARK INTER:                  -7.571
REMARK INTRA:                  -2.790
REMARK UNBOUND:                -2.275
REMARK SMILES CCC(=O)CCCCC[C@@H]1NC(=O)[C@H]2CCCCN2C(=O)[C@H]([C@@H](C)CC)NC(=O)[C@@H](Cc2cn(OC)c3ccccc23)NC1=O
REMARK SMILES IDX 9 1 10 2 44 3 43 4 45 6 30 7 28 8 27 9 29 11 22 12 23 14
REMARK SMILES IDX 24 15 25 16 26 17 31 18 32 19 33 20 42 21 34 22 37 23 41 24
REMARK SMILES IDX 38 25 40 26 39 27 35 28 36 29 11 30 12 31 13 33 14 34 19 35
REMARK SMILES IDX 15 36 18 37 16 38 17 39 20 40 21 41 8 43 7 44 6 45 5 46 3 47
REMARK SMILES IDX 4 48 2 49 1 50
REMARK H PARENT 43 5 27 10 11 32
REMARK Flexibility Score: 80.00
ROOT
ATOM      1  C   UNL     1      65.120  28.997  47.095  1.00  0.00     0.035 C 
ENDROOT
BRANCH   1   2
ATOM      2  C   UNL     1      64.554  30.058  48.075  1.00  0.00     0.171 C 
BRANCH   2   3
ATOM      3  C   UNL     1      63.621  29.505  49.125  1.00  0.00     0.243 C 
ATOM      4  N   UNL     1      62.226  29.844  49.085  1.00  0.00    -0.342 N 
ATOM      5  H   UNL     1      61.853  30.285  48.215  1.00  0.00     0.164 HD
ATOM      6  O   UNL     1      64.074  28.823  50.086  1.00  0.00    -0.273 OA
BRANCH   4   7
ATOM      7  C   UNL     1      61.419  29.927  50.308  1.00  0.00     0.175 C 
BRANCH   7   8
ATOM      8  C   UNL     1      61.770  31.163  51.111  1.00  0.00     0.243 C 
ATOM      9  N   UNL     1      63.071  31.774  51.027  1.00  0.00    -0.342 N 
ATOM     10  H   UNL     1      63.596  31.656  50.137  1.00  0.00     0.164 HD
ATOM     11  O   UNL     1      60.902  31.643  51.890  1.00  0.00    -0.273 OA
BRANCH   9  12
ATOM     12  C   UNL     1      63.606  32.691  52.047  1.00  0.00     0.174 CG0
ATOM     13  G   UNL     1      64.468  33.772  51.383  1.00  0.00     0.000 G0
BRANCH  12  14
ATOM     14  C   UNL     1      64.257  31.903  53.235  1.00  0.00     0.018 C 
ATOM     15  C   UNL     1      63.354  31.787  54.476  1.00  0.00     0.010 C 
BRANCH  14  16
ATOM     16  C   UNL     1      64.832  30.531  52.799  1.00  0.00     0.002 C 
ATOM     17  C   UNL     1      66.324  30.392  53.105  1.00  0.00     0.004 C 
ENDBRANCH  14  16
ENDBRANCH  12  14
ENDBRANCH   9  12
ENDBRANCH   7   8
BRANCH   7  18
ATOM     18  C   UNL     1      59.916  29.927  49.961  1.00  0.00     0.073 C 
BRANCH  18  19
ATOM     19  C   UNL     1      59.329  28.547  50.067  1.00  0.00    -0.016 A 
ATOM     20  C   UNL     1      60.036  27.347  50.000  1.00  0.00     0.134 A 
ATOM     21  C   UNL     1      57.991  28.191  50.143  1.00  0.00     0.006 A 
ATOM     22  N   UNL     1      59.181  26.306  50.068  1.00  0.00    -0.191 N 
ATOM     23  C   UNL     1      57.937  26.818  50.136  1.00  0.00     0.087 A 
ATOM     24  C   UNL     1      56.833  28.970  50.189  1.00  0.00     0.011 A 
ATOM     25  C   UNL     1      56.720  26.136  50.117  1.00  0.00     0.030 A 
ATOM     26  C   UNL     1      55.592  28.305  50.195  1.00  0.00     0.001 A 
ATOM     27  C   UNL     1      55.537  26.894  50.152  1.00  0.00     0.002 A 
BRANCH  22  28
ATOM     28  O   UNL     1      59.544  24.975  50.017  1.00  0.00    -0.417 OA
ATOM     29  C   UNL     1      60.203  24.343  51.104  1.00  0.00     0.313 C 
ENDBRANCH  22  28
ENDBRANCH  18  19
ENDBRANCH   7  18
ENDBRANCH   4   7
ENDBRANCH   2   3
BRANCH   2  30
ATOM     30  N   UNL     1      65.614  30.855  48.711  1.00  0.00    -0.343 N 
ATOM     31  C   UNL     1      65.449  32.241  49.062  1.00  0.00     0.243 C 
ATOM     32  H   UNL     1      66.466  30.368  49.060  1.00  0.00     0.164 HD
ATOM     33  O   UNL     1      64.479  32.905  48.598  1.00  0.00    -0.273 OA
BRANCH  31  34
ATOM     34  C   UNL     1      66.471  32.931  49.941  1.00  0.00     0.174 C 
ATOM     35  N   UNL     1      65.884  33.627  51.111  1.00  0.00    -0.329 N 
ATOM     36  C   UNL     1      67.299  33.910  49.087  1.00  0.00     0.035 C 
ATOM     37  C   UNL     1      66.782  34.453  51.934  1.00  0.00     0.120 C 
ATOM     38  C   UNL     1      68.288  34.703  49.944  1.00  0.00     0.004 C 
ATOM     39  C   UNL     1      67.553  35.444  51.061  1.00  0.00     0.022 C 
BRANCH  35  40
ATOM     40  C   UNL     1      64.466  33.751  51.335  1.00  0.00     0.246 CG0
ATOM     41  O   UNL     1      63.892  34.802  50.944  1.00  0.00    -0.272 OA
ATOM     42  G   UNL     1      63.621  32.672  52.022  1.00  0.00     0.000 G0
ENDBRANCH  35  40
ENDBRANCH  31  34
ENDBRANCH   2  30
ENDBRANCH   1   2
BRANCH   1  43
ATOM     43  C   UNL     1      66.596  29.118  46.646  1.00  0.00     0.003 C 
BRANCH  43  44
ATOM     44  C   UNL     1      67.508  27.909  46.939  1.00  0.00     0.001 C 
BRANCH  44  45
ATOM     45  C   UNL     1      68.907  28.263  47.484  1.00  0.00     0.008 C 
BRANCH  45  46
ATOM     46  C   UNL     1      69.121  27.747  48.913  1.00  0.00     0.075 C 
BRANCH  46  47
ATOM     47  C   UNL     1      68.021  28.211  49.831  1.00  0.00     0.132 C 
ATOM     48  O   UNL     1      67.824  29.410  49.973  1.00  0.00    -0.300 OA
BRANCH  47  49
ATOM     49  C   UNL     1      67.123  27.201  50.507  1.00  0.00     0.072 C 
ATOM     50  C   UNL     1      66.373  26.303  49.520  1.00  0.00     0.012 C 
ENDBRANCH  47  49
ENDBRANCH  46  47
ENDBRANCH  45  46
ENDBRANCH  44  45
ENDBRANCH  43  44
ENDBRANCH   1  43
TORSDOF 12
ENDMDL
MODEL 6
REMARK VINA RESULT:    -3.771      2.389      7.544
REMARK INTER + INTRA:         -10.235
REMARK INTER:                  -8.921
REMARK INTRA:                  -1.314
REMARK UNBOUND:                -2.275
REMARK SMILES CCC(=O)CCCCC[C@@H]1NC(=O)[C@H]2CCCCN2C(=O)[C@H]([C@@H](C)CC)NC(=O)[C@@H](Cc2cn(OC)c3ccccc23)NC1=O
REMARK SMILES IDX 9 1 10 2 44 3 43 4 45 6 30 7 28 8 27 9 29 11 22 12 23 14
REMARK SMILES IDX 24 15 25 16 26 17 31 18 32 19 33 20 42 21 34 22 37 23 41 24
REMARK SMILES IDX 38 25 40 26 39 27 35 28 36 29 11 30 12 31 13 33 14 34 19 35
REMARK SMILES IDX 15 36 18 37 16 38 17 39 20 40 21 41 8 43 7 44 6 45 5 46 3 47
REMARK SMILES IDX 4 48 2 49 1 50
REMARK H PARENT 43 5 27 10 11 32
REMARK Flexibility Score: 80.00
ROOT
ATOM      1  C   UNL     1      60.940  31.477  61.282  1.00  0.00     0.035 C 
ENDROOT
BRANCH   1   2
ATOM      2  C   UNL     1      60.624  30.038  60.795  1.00  0.00     0.171 C 
BRANCH   2   3
ATOM      3  C   UNL     1      61.747  29.049  60.994  1.00  0.00     0.243 C 
ATOM      4  N   UNL     1      62.486  28.575  59.858  1.00  0.00    -0.342 N 
ATOM      5  H   UNL     1      62.373  29.084  58.952  1.00  0.00     0.164 HD
ATOM      6  O   UNL     1      61.980  28.570  62.138  1.00  0.00    -0.273 OA
BRANCH   4   7
ATOM      7  C   UNL     1      63.084  27.235  59.832  1.00  0.00     0.175 C 
BRANCH   7   8
ATOM      8  C   UNL     1      62.016  26.160  59.869  1.00  0.00     0.243 C 
ATOM      9  N   UNL     1      60.699  26.422  60.390  1.00  0.00    -0.342 N 
ATOM     10  H   UNL     1      60.347  27.399  60.326  1.00  0.00     0.164 HD
ATOM     11  O   UNL     1      62.308  25.005  59.459  1.00  0.00    -0.273 OA
BRANCH   9  12
ATOM     12  C   UNL     1      59.773  25.365  60.830  1.00  0.00     0.174 CG0
ATOM     13  G   UNL     1      58.341  25.707  60.402  1.00  0.00     0.000 G0
BRANCH  12  14
ATOM     14  C   UNL     1      59.991  25.013  62.342  1.00  0.00     0.018 C 
ATOM     15  C   UNL     1      59.552  23.587  62.720  1.00  0.00     0.010 C 
BRANCH  14  16
ATOM     16  C   UNL     1      61.428  25.331  62.829  1.00  0.00     0.002 C 
ATOM     17  C   UNL     1      62.087  24.148  63.538  1.00  0.00     0.004 C 
ENDBRANCH  14  16
ENDBRANCH  12  14
ENDBRANCH   9  12
ENDBRANCH   7   8
BRANCH   7  18
ATOM     18  C   UNL     1      63.966  27.064  58.578  1.00  0.00     0.073 C 
BRANCH  18  19
ATOM     19  C   UNL     1      65.403  26.822  58.949  1.00  0.00    -0.016 A 
ATOM     20  C   UNL     1      66.132  25.661  58.697  1.00  0.00     0.134 A 
ATOM     21  C   UNL     1      66.242  27.639  59.692  1.00  0.00     0.006 A 
ATOM     22  N   UNL     1      67.368  25.771  59.226  1.00  0.00    -0.191 N 
ATOM     23  C   UNL     1      67.430  26.966  59.846  1.00  0.00     0.087 A 
ATOM     24  C   UNL     1      66.036  28.899  60.257  1.00  0.00     0.011 A 
ATOM     25  C   UNL     1      68.466  27.482  60.624  1.00  0.00     0.030 A 
ATOM     26  C   UNL     1      67.076  29.454  61.027  1.00  0.00     0.001 A 
ATOM     27  C   UNL     1      68.283  28.744  61.215  1.00  0.00     0.002 A 
BRANCH  22  28
ATOM     28  O   UNL     1      68.345  24.797  59.171  1.00  0.00    -0.417 OA
ATOM     29  C   UNL     1      68.596  23.934  60.271  1.00  0.00     0.313 C 
ENDBRANCH  22  28
ENDBRANCH  18  19
ENDBRANCH   7  18
ENDBRANCH   4   7
ENDBRANCH   2   3
BRANCH   2  30
ATOM     30  N   UNL     1      59.380  29.511  61.375  1.00  0.00    -0.343 N 
ATOM     31  C   UNL     1      58.500  28.619  60.665  1.00  0.00     0.243 C 
ATOM     32  H   UNL     1      59.194  29.664  62.388  1.00  0.00     0.164 HD
ATOM     33  O   UNL     1      58.624  28.461  59.417  1.00  0.00    -0.273 OA
BRANCH  31  34
ATOM     34  C   UNL     1      57.380  27.911  61.398  1.00  0.00     0.174 C 
ATOM     35  N   UNL     1      57.412  26.435  61.260  1.00  0.00    -0.329 N 
ATOM     36  C   UNL     1      56.026  28.471  60.922  1.00  0.00     0.035 C 
ATOM     37  C   UNL     1      56.278  25.675  61.809  1.00  0.00     0.120 C 
ATOM     38  C   UNL     1      54.855  27.725  61.564  1.00  0.00     0.004 C 
ATOM     39  C   UNL     1      54.953  26.228  61.280  1.00  0.00     0.022 C 
BRANCH  35  40
ATOM     40  C   UNL     1      58.340  25.735  60.410  1.00  0.00     0.246 CG0
ATOM     41  O   UNL     1      57.946  25.374  59.269  1.00  0.00    -0.272 OA
ATOM     42  G   UNL     1      59.780  25.406  60.820  1.00  0.00     0.000 G0
ENDBRANCH  35  40
ENDBRANCH  31  34
ENDBRANCH   2  30
ENDBRANCH   1   2
BRANCH   1  43
ATOM     43  C   UNL     1      60.507  32.669  60.397  1.00  0.00     0.003 C 
BRANCH  43  44
ATOM     44  C   UNL     1      61.399  33.926  60.447  1.00  0.00     0.001 C 
BRANCH  44  45
ATOM     45  C   UNL     1      62.663  33.868  59.565  1.00  0.00     0.008 C 
BRANCH  45  46
ATOM     46  C   UNL     1      63.953  33.900  60.395  1.00  0.00     0.075 C 
BRANCH  46  47
ATOM     47  C   UNL     1      64.529  35.290  60.455  1.00  0.00     0.132 C 
ATOM     48  O   UNL     1      65.088  35.750  59.468  1.00  0.00    -0.300 OA
BRANCH  47  49
ATOM     49  C   UNL     1      64.349  36.131  61.697  1.00  0.00     0.072 C 
ATOM     50  C   UNL     1      62.998  36.849  61.750  1.00  0.00     0.012 C 
ENDBRANCH  47  49
ENDBRANCH  46  47
ENDBRANCH  45  46
ENDBRANCH  44  45
ENDBRANCH  43  44
ENDBRANCH   1  43
TORSDOF 12
ENDMDL
MODEL 7
REMARK VINA RESULT:    -3.715      9.227     13.830
REMARK INTER + INTRA:         -10.118
REMARK INTER:                  -8.260
REMARK INTRA:                  -1.858
REMARK UNBOUND:                -2.275
REMARK SMILES CCC(=O)CCCCC[C@@H]1NC(=O)[C@H]2CCCCN2C(=O)[C@H]([C@@H](C)CC)NC(=O)[C@@H](Cc2cn(OC)c3ccccc23)NC1=O
REMARK SMILES IDX 9 1 10 2 44 3 43 4 45 6 30 7 28 8 27 9 29 11 22 12 23 14
REMARK SMILES IDX 24 15 25 16 26 17 31 18 32 19 33 20 42 21 34 22 37 23 41 24
REMARK SMILES IDX 38 25 40 26 39 27 35 28 36 29 11 30 12 31 13 33 14 34 19 35
REMARK SMILES IDX 15 36 18 37 16 38 17 39 20 40 21 41 8 43 7 44 6 45 5 46 3 47
REMARK SMILES IDX 4 48 2 49 1 50
REMARK H PARENT 43 5 27 10 11 32
REMARK Flexibility Score: 80.00
ROOT
ATOM      1  C   UNL     1      58.783  27.377  50.339  1.00  0.00     0.035 C 
ENDROOT
BRANCH   1   2
ATOM      2  C   UNL     1      60.075  26.519  50.316  1.00  0.00     0.171 C 
BRANCH   2   3
ATOM      3  C   UNL     1      61.357  27.317  50.312  1.00  0.00     0.243 C 
ATOM      4  N   UNL     1      62.202  27.298  49.152  1.00  0.00    -0.342 N 
ATOM      5  H   UNL     1      61.810  26.909  48.265  1.00  0.00     0.164 HD
ATOM      6  O   UNL     1      61.732  27.927  51.352  1.00  0.00    -0.273 OA
BRANCH   4   7
ATOM      7  C   UNL     1      63.658  27.457  49.257  1.00  0.00     0.175 C 
BRANCH   7   8
ATOM      8  C   UNL     1      64.305  26.207  49.821  1.00  0.00     0.243 C 
ATOM      9  N   UNL     1      63.524  25.163  50.431  1.00  0.00    -0.342 N 
ATOM     10  H   UNL     1      62.542  25.049  50.106  1.00  0.00     0.164 HD
ATOM     11  O   UNL     1      65.560  26.105  49.774  1.00  0.00    -0.273 OA
BRANCH   9  12
ATOM     12  C   UNL     1      64.088  24.151  51.340  1.00  0.00     0.174 CG0
ATOM     13  G   UNL     1      63.174  22.922  51.393  1.00  0.00     0.000 G0
BRANCH  12  14
ATOM     14  C   UNL     1      64.494  24.786  52.715  1.00  0.00     0.018 C 
ATOM     15  C   UNL     1      66.014  24.933  52.910  1.00  0.00     0.010 C 
BRANCH  14  16
ATOM     16  C   UNL     1      63.736  26.105  53.012  1.00  0.00     0.002 C 
ATOM     17  C   UNL     1      64.669  27.242  53.428  1.00  0.00     0.004 C 
ENDBRANCH  14  16
ENDBRANCH  12  14
ENDBRANCH   9  12
ENDBRANCH   7   8
BRANCH   7  18
ATOM     18  C   UNL     1      64.263  27.794  47.878  1.00  0.00     0.073 C 
BRANCH  18  19
ATOM     19  C   UNL     1      64.900  29.155  47.878  1.00  0.00    -0.016 A 
ATOM     20  C   UNL     1      64.407  30.293  48.514  1.00  0.00     0.134 A 
ATOM     21  C   UNL     1      66.022  29.572  47.177  1.00  0.00     0.006 A 
ATOM     22  N   UNL     1      65.202  31.349  48.248  1.00  0.00    -0.191 N 
ATOM     23  C   UNL     1      66.174  30.916  47.421  1.00  0.00     0.087 A 
ATOM     24  C   UNL     1      66.890  28.878  46.333  1.00  0.00     0.011 A 
ATOM     25  C   UNL     1      67.168  31.664  46.790  1.00  0.00     0.030 A 
ATOM     26  C   UNL     1      67.918  29.605  45.703  1.00  0.00     0.001 A 
ATOM     27  C   UNL     1      68.051  30.994  45.926  1.00  0.00     0.002 A 
BRANCH  22  28
ATOM     28  O   UNL     1      64.997  32.634  48.709  1.00  0.00    -0.417 OA
ATOM     29  C   UNL     1      65.800  33.191  49.739  1.00  0.00     0.313 C 
ENDBRANCH  22  28
ENDBRANCH  18  19
ENDBRANCH   7  18
ENDBRANCH   4   7
ENDBRANCH   2   3
BRANCH   2  30
ATOM     30  N   UNL     1      60.105  25.523  51.397  1.00  0.00    -0.343 N 
ATOM     31  C   UNL     1      60.517  24.158  51.195  1.00  0.00     0.243 C 
ATOM     32  H   UNL     1      59.968  25.843  52.379  1.00  0.00     0.164 HD
ATOM     33  O   UNL     1      60.618  23.690  50.025  1.00  0.00    -0.273 OA
BRANCH  31  34
ATOM     34  C   UNL     1      60.774  23.255  52.382  1.00  0.00     0.174 C 
ATOM     35  N   UNL     1      62.153  22.715  52.439  1.00  0.00    -0.329 N 
ATOM     36  C   UNL     1      59.742  22.111  52.384  1.00  0.00     0.035 C 
ATOM     37  C   UNL     1      62.449  21.708  53.470  1.00  0.00     0.120 C 
ATOM     38  C   UNL     1      60.013  21.115  53.515  1.00  0.00     0.004 C 
ATOM     39  C   UNL     1      61.434  20.565  53.414  1.00  0.00     0.022 C 
BRANCH  35  40
ATOM     40  C   UNL     1      63.132  22.919  51.401  1.00  0.00     0.246 CG0
ATOM     41  O   UNL     1      63.233  22.045  50.499  1.00  0.00    -0.272 OA
ATOM     42  G   UNL     1      64.053  24.142  51.336  1.00  0.00     0.000 G0
ENDBRANCH  35  40
ENDBRANCH  31  34
ENDBRANCH   2  30
ENDBRANCH   1   2
BRANCH   1  43
ATOM     43  C   UNL     1      57.418  26.663  50.200  1.00  0.00     0.003 C 
BRANCH  43  44
ATOM     44  C   UNL     1      56.336  27.033  51.234  1.00  0.00     0.001 C 
BRANCH  44  45
ATOM     45  C   UNL     1      55.338  25.905  51.569  1.00  0.00     0.008 C 
BRANCH  45  46
ATOM     46  C   UNL     1      53.881  26.338  51.359  1.00  0.00     0.075 C 
BRANCH  46  47
ATOM     47  C   UNL     1      53.598  26.613  49.905  1.00  0.00     0.132 C 
ATOM     48  O   UNL     1      53.679  25.699  49.095  1.00  0.00    -0.300 OA
BRANCH  47  49
ATOM     49  C   UNL     1      53.145  27.987  49.469  1.00  0.00     0.072 C 
ATOM     50  C   UNL     1      53.203  29.026  50.592  1.00  0.00     0.012 C 
ENDBRANCH  47  49
ENDBRANCH  46  47
ENDBRANCH  45  46
ENDBRANCH  44  45
ENDBRANCH  43  44
ENDBRANCH   1  43
TORSDOF 12
ENDMDL
MODEL 8
REMARK VINA RESULT:    -3.614      2.325      6.367
REMARK INTER + INTRA:          -9.904
REMARK INTER:                  -7.240
REMARK INTRA:                  -2.664
REMARK UNBOUND:                -2.275
REMARK SMILES CCC(=O)CCCCC[C@@H]1NC(=O)[C@H]2CCCCN2C(=O)[C@H]([C@@H](C)CC)NC(=O)[C@@H](Cc2cn(OC)c3ccccc23)NC1=O
REMARK SMILES IDX 9 1 10 2 44 3 43 4 45 6 30 7 28 8 27 9 29 11 22 12 23 14
REMARK SMILES IDX 24 15 25 16 26 17 31 18 32 19 33 20 42 21 34 22 37 23 41 24
REMARK SMILES IDX 38 25 40 26 39 27 35 28 36 29 11 30 12 31 13 33 14 34 19 35
REMARK SMILES IDX 15 36 18 37 16 38 17 39 20 40 21 41 8 43 7 44 6 45 5 46 3 47
REMARK SMILES IDX 4 48 2 49 1 50
REMARK H PARENT 43 5 27 10 11 32
REMARK Flexibility Score: 80.00
ROOT
ATOM      1  C   UNL     1      58.785  29.747  58.692  1.00  0.00     0.035 C 
ENDROOT
BRANCH   1   2
ATOM      2  C   UNL     1      60.151  30.211  59.264  1.00  0.00     0.171 C 
BRANCH   2   3
ATOM      3  C   UNL     1      61.309  29.299  58.934  1.00  0.00     0.243 C 
ATOM      4  N   UNL     1      61.947  28.553  59.982  1.00  0.00    -0.342 N 
ATOM      5  H   UNL     1      61.463  28.492  60.906  1.00  0.00     0.164 HD
ATOM      6  O   UNL     1      61.775  29.259  57.761  1.00  0.00    -0.273 OA
BRANCH   4   7
ATOM      7  C   UNL     1      63.369  28.198  59.918  1.00  0.00     0.175 C 
BRANCH   7   8
ATOM      8  C   UNL     1      64.246  29.403  60.195  1.00  0.00     0.243 C 
ATOM      9  N   UNL     1      63.766  30.747  59.999  1.00  0.00    -0.342 N 
ATOM     10  H   UNL     1      62.743  30.906  60.099  1.00  0.00     0.164 HD
ATOM     11  O   UNL     1      65.432  29.211  60.578  1.00  0.00    -0.273 OA
BRANCH   9  12
ATOM     12  C   UNL     1      64.652  31.913  59.851  1.00  0.00     0.174 CG0
ATOM     13  G   UNL     1      63.949  33.177  60.358  1.00  0.00     0.000 G0
BRANCH  12  14
ATOM     14  C   UNL     1      65.267  31.980  58.410  1.00  0.00     0.018 C 
ATOM     15  C   UNL     1      66.735  31.522  58.336  1.00  0.00     0.010 C 
BRANCH  14  16
ATOM     16  C   UNL     1      64.381  31.278  57.349  1.00  0.00     0.002 C 
ATOM     17  C   UNL     1      65.177  30.337  56.444  1.00  0.00     0.004 C 
ENDBRANCH  14  16
ENDBRANCH  12  14
ENDBRANCH   9  12
ENDBRANCH   7   8
BRANCH   7  18
ATOM     18  C   UNL     1      63.687  27.068  60.920  1.00  0.00     0.073 C 
BRANCH  18  19
ATOM     19  C   UNL     1      62.726  25.921  60.774  1.00  0.00    -0.016 A 
ATOM     20  C   UNL     1      62.546  25.141  59.633  1.00  0.00     0.134 A 
ATOM     21  C   UNL     1      61.773  25.485  61.682  1.00  0.00     0.006 A 
ATOM     22  N   UNL     1      61.557  24.247  59.839  1.00  0.00    -0.191 N 
ATOM     23  C   UNL     1      61.075  24.467  61.078  1.00  0.00     0.087 A 
ATOM     24  C   UNL     1      61.459  25.926  62.969  1.00  0.00     0.011 A 
ATOM     25  C   UNL     1      59.981  23.864  61.699  1.00  0.00     0.030 A 
ATOM     26  C   UNL     1      60.374  25.316  63.628  1.00  0.00     0.001 A 
ATOM     27  C   UNL     1      59.634  24.294  62.991  1.00  0.00     0.002 A 
BRANCH  22  28
ATOM     28  O   UNL     1      61.110  23.328  58.911  1.00  0.00    -0.417 OA
ATOM     29  C   UNL     1      61.968  22.813  57.903  1.00  0.00     0.313 C 
ENDBRANCH  22  28
ENDBRANCH  18  19
ENDBRANCH   7  18
ENDBRANCH   4   7
ENDBRANCH   2   3
BRANCH   2  30
ATOM     30  N   UNL     1      60.476  31.594  58.888  1.00  0.00    -0.343 N 
ATOM     31  C   UNL     1      61.181  32.499  59.758  1.00  0.00     0.243 C 
ATOM     32  H   UNL     1      60.326  31.895  57.902  1.00  0.00     0.164 HD
ATOM     33  O   UNL     1      61.318  32.225  60.985  1.00  0.00    -0.273 OA
BRANCH  31  34
ATOM     34  C   UNL     1      61.710  33.813  59.225  1.00  0.00     0.174 C 
ATOM     35  N   UNL     1      63.143  34.049  59.524  1.00  0.00    -0.329 N 
ATOM     36  C   UNL     1      60.846  34.967  59.767  1.00  0.00     0.035 C 
ATOM     37  C   UNL     1      63.703  35.365  59.179  1.00  0.00     0.120 C 
ATOM     38  C   UNL     1      61.393  36.328  59.331  1.00  0.00     0.004 C 
ATOM     39  C   UNL     1      62.848  36.486  59.771  1.00  0.00     0.022 C 
BRANCH  35  40
ATOM     40  C   UNL     1      63.938  33.177  60.351  1.00  0.00     0.246 CG0
ATOM     41  O   UNL     1      64.084  33.480  61.565  1.00  0.00    -0.272 OA
ATOM     42  G   UNL     1      64.614  31.903  59.833  1.00  0.00     0.000 G0
ENDBRANCH  35  40
ENDBRANCH  31  34
ENDBRANCH   2  30
ENDBRANCH   1   2
BRANCH   1  43
ATOM     43  C   UNL     1      58.187  28.413  59.197  1.00  0.00     0.003 C 
BRANCH  43  44
ATOM     44  C   UNL     1      56.789  28.485  59.845  1.00  0.00     0.001 C 
BRANCH  44  45
ATOM     45  C   UNL     1      56.758  28.219  61.364  1.00  0.00     0.008 C 
BRANCH  45  46
ATOM     46  C   UNL     1      57.540  26.956  61.749  1.00  0.00     0.075 C 
BRANCH  46  47
ATOM     47  C   UNL     1      56.729  25.713  61.492  1.00  0.00     0.132 C 
ATOM     48  O   UNL     1      56.769  25.189  60.387  1.00  0.00    -0.300 OA
BRANCH  47  49
ATOM     49  C   UNL     1      55.937  25.081  62.613  1.00  0.00     0.072 C 
ATOM     50  C   UNL     1      54.444  25.413  62.559  1.00  0.00     0.012 C 
ENDBRANCH  47  49
ENDBRANCH  46  47
ENDBRANCH  45  46
ENDBRANCH  44  45
ENDBRANCH  43  44
ENDBRANCH   1  43
TORSDOF 12
ENDMDL
MODEL 9
REMARK VINA RESULT:    -3.597      3.172     10.259
REMARK INTER + INTRA:          -9.867
REMARK INTER:                  -7.685
REMARK INTRA:                  -2.182
REMARK UNBOUND:                -2.275
REMARK SMILES CCC(=O)CCCCC[C@@H]1NC(=O)[C@H]2CCCCN2C(=O)[C@H]([C@@H](C)CC)NC(=O)[C@@H](Cc2cn(OC)c3ccccc23)NC1=O
REMARK SMILES IDX 9 1 10 2 44 3 43 4 45 6 30 7 28 8 27 9 29 11 22 12 23 14
REMARK SMILES IDX 24 15 25 16 26 17 31 18 32 19 33 20 42 21 34 22 37 23 41 24
REMARK SMILES IDX 38 25 40 26 39 27 35 28 36 29 11 30 12 31 13 33 14 34 19 35
REMARK SMILES IDX 15 36 18 37 16 38 17 39 20 40 21 41 8 43 7 44 6 45 5 46 3 47
REMARK SMILES IDX 4 48 2 49 1 50
REMARK H PARENT 43 5 27 10 11 32
REMARK Flexibility Score: 80.00
ROOT
ATOM      1  C   UNL     1      61.567  26.382  62.381  1.00  0.00     0.035 C 
ENDROOT
BRANCH   1   2
ATOM      2  C   UNL     1      60.526  27.328  61.726  1.00  0.00     0.171 C 
BRANCH   2   3
ATOM      3  C   UNL     1      61.116  28.365  60.800  1.00  0.00     0.243 C 
ATOM      4  N   UNL     1      61.125  29.745  61.194  1.00  0.00    -0.342 N 
ATOM      5  H   UNL     1      60.922  29.972  62.193  1.00  0.00     0.164 HD
ATOM      6  O   UNL     1      61.519  28.037  59.650  1.00  0.00    -0.273 OA
BRANCH   4   7
ATOM      7  C   UNL     1      61.050  30.828  60.206  1.00  0.00     0.175 C 
BRANCH   7   8
ATOM      8  C   UNL     1      59.699  30.847  59.519  1.00  0.00     0.243 C 
ATOM      9  N   UNL     1      58.857  29.679  59.477  1.00  0.00    -0.342 N 
ATOM     10  H   UNL     1      58.953  28.995  60.254  1.00  0.00     0.164 HD
ATOM     11  O   UNL     1      59.327  31.908  58.949  1.00  0.00    -0.273 OA
BRANCH   9  12
ATOM     12  C   UNL     1      57.762  29.501  58.510  1.00  0.00     0.174 CG0
ATOM     13  G   UNL     1      56.592  28.761  59.168  1.00  0.00     0.000 G0
BRANCH  12  14
ATOM     14  C   UNL     1      58.289  28.918  57.154  1.00  0.00     0.018 C 
ATOM     15  C   UNL     1      58.575  29.986  56.084  1.00  0.00     0.010 C 
BRANCH  14  16
ATOM     16  C   UNL     1      59.483  27.947  57.346  1.00  0.00     0.002 C 
ATOM     17  C   UNL     1      59.985  27.360  56.026  1.00  0.00     0.004 C 
ENDBRANCH  14  16
ENDBRANCH  12  14
ENDBRANCH   9  12
ENDBRANCH   7   8
BRANCH   7  18
ATOM     18  C   UNL     1      61.324  32.190  60.878  1.00  0.00     0.073 C 
BRANCH  18  19
ATOM     19  C   UNL     1      62.509  32.876  60.260  1.00  0.00    -0.016 A 
ATOM     20  C   UNL     1      63.534  32.259  59.545  1.00  0.00     0.134 A 
ATOM     21  C   UNL     1      62.873  34.211  60.363  1.00  0.00     0.006 A 
ATOM     22  N   UNL     1      64.464  33.172  59.194  1.00  0.00    -0.191 N 
ATOM     23  C   UNL     1      64.072  34.355  59.707  1.00  0.00     0.087 A 
ATOM     24  C   UNL     1      62.254  35.286  61.003  1.00  0.00     0.011 A 
ATOM     25  C   UNL     1      64.757  35.570  59.697  1.00  0.00     0.030 A 
ATOM     26  C   UNL     1      62.914  36.530  60.987  1.00  0.00     0.001 A 
ATOM     27  C   UNL     1      64.164  36.668  60.343  1.00  0.00     0.002 A 
BRANCH  22  28
ATOM     28  O   UNL     1      65.619  32.899  58.489  1.00  0.00    -0.417 OA
ATOM     29  C   UNL     1      65.636  32.882  57.069  1.00  0.00     0.313 C 
ENDBRANCH  22  28
ENDBRANCH  18  19
ENDBRANCH   7  18
ENDBRANCH   4   7
ENDBRANCH   2   3
BRANCH   2  30
ATOM     30  N   UNL     1      59.454  26.592  61.040  1.00  0.00    -0.343 N 
ATOM     31  C   UNL     1      58.089  27.048  61.001  1.00  0.00     0.243 C 
ATOM     32  H   UNL     1      59.709  25.787  60.430  1.00  0.00     0.164 HD
ATOM     33  O   UNL     1      57.702  27.965  61.781  1.00  0.00    -0.273 OA
BRANCH  31  34
ATOM     34  C   UNL     1      57.092  26.391  60.071  1.00  0.00     0.174 C 
ATOM     35  N   UNL     1      56.426  27.336  59.142  1.00  0.00    -0.329 N 
ATOM     36  C   UNL     1      56.048  25.623  60.904  1.00  0.00     0.035 C 
ATOM     37  C   UNL     1      55.332  26.813  58.308  1.00  0.00     0.120 C 
ATOM     38  C   UNL     1      54.961  25.014  60.015  1.00  0.00     0.004 C 
ATOM     39  C   UNL     1      54.291  26.097  59.171  1.00  0.00     0.022 C 
BRANCH  35  40
ATOM     40  C   UNL     1      56.607  28.764  59.193  1.00  0.00     0.246 CG0
ATOM     41  O   UNL     1      55.749  29.450  59.810  1.00  0.00    -0.272 OA
ATOM     42  G   UNL     1      57.787  29.491  58.538  1.00  0.00     0.000 G0
ENDBRANCH  35  40
ENDBRANCH  31  34
ENDBRANCH   2  30
ENDBRANCH   1   2
BRANCH   1  43
ATOM     43  C   UNL     1      61.125  24.951  62.767  1.00  0.00     0.003 C 
BRANCH  43  44
ATOM     44  C   UNL     1      60.188  24.824  63.985  1.00  0.00     0.001 C 
BRANCH  44  45
ATOM     45  C   UNL     1      59.368  23.518  64.047  1.00  0.00     0.008 C 
BRANCH  45  46
ATOM     46  C   UNL     1      58.444  23.355  62.833  1.00  0.00     0.075 C 
BRANCH  46  47
ATOM     47  C   UNL     1      57.058  22.942  63.254  1.00  0.00     0.132 C 
ATOM     48  O   UNL     1      56.644  23.270  64.358  1.00  0.00    -0.300 OA
BRANCH  47  49
ATOM     49  C   UNL     1      56.165  22.195  62.291  1.00  0.00     0.072 C 
ATOM     50  C   UNL     1      54.674  22.437  62.538  1.00  0.00     0.012 C 
ENDBRANCH  47  49
ENDBRANCH  46  47
ENDBRANCH  45  46
ENDBRANCH  44  45
ENDBRANCH  43  44
ENDBRANCH   1  43
TORSDOF 12
ENDMDL
