MODEL 1
REMARK VINA RESULT:    -7.494      0.000      0.000
REMARK INTER + INTRA:         -11.651
REMARK INTER:                 -10.342
REMARK INTRA:                  -1.309
REMARK UNBOUND:                -1.309
REMARK SMILES CC[C@@H](CC[C@@H](C)[C@@H]1CC[C@@H]2[C@@H]3CC=C4C[C@@H](O)CC[C@]4(C)[C@H]3CC[C@@]21C)C(C)C
REMARK SMILES IDX 5 1 4 2 3 3 2 4 1 5 28 6 29 7 30 8 6 9 7 10 8 11 9 12 26 13
REMARK SMILES IDX 10 14 11 15 25 16 27 17 12 18 24 19 23 20 13 21 21 22 14 23
REMARK SMILES IDX 15 24 20 25 22 26 16 27 19 28 17 29 18 30
REMARK H PARENT 18 31
REMARK Flexibility Score: inf
ROOT
ATOM      1  C   UNL     1     183.561 174.610 182.138  1.00  0.00     0.004 C 
ENDROOT
BRANCH   1   2
ATOM      2  C   UNL     1     183.169 173.143 181.855  1.00  0.00     0.004 C 
BRANCH   2   3
ATOM      3  C   UNL     1     183.863 172.490 180.625  1.00  0.00    -0.009 C 
BRANCH   3   4
ATOM      4  C   UNL     1     184.879 173.422 179.909  1.00  0.00     0.000 C 
ATOM      5  C   UNL     1     186.213 172.774 179.530  1.00  0.00     0.004 C 
ENDBRANCH   3   4
BRANCH   3   6
ATOM      6  C   UNL     1     182.852 171.822 179.626  1.00  0.00    -0.014 C 
ATOM      7  C   UNL     1     181.614 171.292 180.372  1.00  0.00     0.007 C 
ATOM      8  C   UNL     1     182.397 172.743 178.473  1.00  0.00     0.007 C 
ENDBRANCH   3   6
ENDBRANCH   2   3
ENDBRANCH   1   2
BRANCH   1   9
ATOM      9  C   UNL     1     182.513 175.708 181.779  1.00  0.00    -0.011 C 
ATOM     10  C   UNL     1     181.283 175.004 181.153  1.00  0.00     0.008 C 
BRANCH   9  11
ATOM     11  C   UNL     1     182.214 176.647 183.008  1.00  0.00    -0.002 C 
ATOM     12  C   UNL     1     180.894 176.370 183.741  1.00  0.00     0.005 C 
ATOM     13  C   UNL     1     182.319 178.200 182.879  1.00  0.00    -0.026 C 
ATOM     14  C   UNL     1     180.523 177.670 184.456  1.00  0.00     0.005 C 
ATOM     15  C   UNL     1     181.686 178.649 184.218  1.00  0.00    -0.001 C 
ATOM     16  C   UNL     1     181.503 178.772 181.684  1.00  0.00     0.007 C 
ATOM     17  C   UNL     1     183.801 178.636 182.787  1.00  0.00     0.012 C 
ATOM     18  C   UNL     1     181.316 180.160 184.306  1.00  0.00     0.000 C 
ATOM     19  C   UNL     1     181.236 180.278 181.782  1.00  0.00     0.005 C 
ATOM     20  C   UNL     1     180.507 180.666 183.089  1.00  0.00     0.003 C 
ATOM     21  C   UNL     1     180.570 180.462 185.617  1.00  0.00     0.031 C 
ATOM     22  C   UNL     1     180.189 182.215 183.193  1.00  0.00    -0.008 C 
ATOM     23  C   UNL     1     180.059 181.869 185.693  1.00  0.00    -0.027 C 
ATOM     24  C   UNL     1     179.736 182.600 184.610  1.00  0.00    -0.065 C 
ATOM     25  C   UNL     1     179.038 182.560 182.193  1.00  0.00     0.014 C 
ATOM     26  C   UNL     1     181.441 183.072 182.846  1.00  0.00     0.016 C 
ATOM     27  C   UNL     1     179.076 183.950 184.824  1.00  0.00     0.063 C 
ATOM     28  C   UNL     1     178.457 183.971 182.379  1.00  0.00     0.033 C 
ATOM     29  C   UNL     1     177.950 184.176 183.809  1.00  0.00     0.118 C 
BRANCH  29  30
ATOM     30  O   UNL     1     177.458 185.484 183.935  1.00  0.00    -0.393 OA
ATOM     31  H   UNL     1     176.791 185.613 183.211  1.00  0.00     0.210 HD
ENDBRANCH  29  30
ENDBRANCH   9  11
ENDBRANCH   1   9
TORSDOF 7
ENDMDL
MODEL 2
REMARK VINA RESULT:    -7.473      3.178      9.089
REMARK INTER + INTRA:         -11.621
REMARK INTER:                  -9.585
REMARK INTRA:                  -2.036
REMARK UNBOUND:                -1.309
REMARK SMILES CC[C@@H](CC[C@@H](C)[C@@H]1CC[C@@H]2[C@@H]3CC=C4C[C@@H](O)CC[C@]4(C)[C@H]3CC[C@@]21C)C(C)C
REMARK SMILES IDX 5 1 4 2 3 3 2 4 1 5 28 6 29 7 30 8 6 9 7 10 8 11 9 12 26 13
REMARK SMILES IDX 10 14 11 15 25 16 27 17 12 18 24 19 23 20 13 21 21 22 14 23
REMARK SMILES IDX 15 24 20 25 22 26 16 27 19 28 17 29 18 30
REMARK H PARENT 18 31
REMARK Flexibility Score: inf
ROOT
ATOM      1  C   UNL     1     180.940 181.810 185.409  1.00  0.00     0.004 C 
ENDROOT
BRANCH   1   2
ATOM      2  C   UNL     1     181.721 182.635 184.361  1.00  0.00     0.004 C 
BRANCH   2   3
ATOM      3  C   UNL     1     180.874 183.647 183.538  1.00  0.00    -0.009 C 
BRANCH   3   4
ATOM      4  C   UNL     1     179.388 183.734 183.987  1.00  0.00     0.000 C 
ATOM      5  C   UNL     1     178.379 183.059 183.053  1.00  0.00     0.004 C 
ENDBRANCH   3   4
BRANCH   3   6
ATOM      6  C   UNL     1     181.023 183.462 181.986  1.00  0.00    -0.014 C 
ATOM      7  C   UNL     1     180.891 184.811 181.258  1.00  0.00     0.007 C 
ATOM      8  C   UNL     1     182.336 182.774 181.553  1.00  0.00     0.007 C 
ENDBRANCH   3   6
ENDBRANCH   2   3
ENDBRANCH   1   2
BRANCH   1   9
ATOM      9  C   UNL     1     180.791 180.281 185.140  1.00  0.00    -0.011 C 
ATOM     10  C   UNL     1     179.341 179.873 185.503  1.00  0.00     0.008 C 
BRANCH   9  11
ATOM     11  C   UNL     1     181.267 179.899 183.687  1.00  0.00    -0.002 C 
ATOM     12  C   UNL     1     180.182 179.956 182.603  1.00  0.00     0.005 C 
ATOM     13  C   UNL     1     182.074 178.588 183.423  1.00  0.00    -0.026 C 
ATOM     14  C   UNL     1     180.654 179.035 181.479  1.00  0.00     0.005 C 
ATOM     15  C   UNL     1     182.056 178.540 181.876  1.00  0.00    -0.001 C 
ATOM     16  C   UNL     1     181.387 177.319 184.005  1.00  0.00     0.007 C 
ATOM     17  C   UNL     1     183.518 178.725 183.962  1.00  0.00     0.012 C 
ATOM     18  C   UNL     1     182.490 177.182 181.247  1.00  0.00     0.000 C 
ATOM     19  C   UNL     1     181.908 176.007 183.408  1.00  0.00     0.005 C 
ATOM     20  C   UNL     1     181.772 175.962 181.868  1.00  0.00     0.003 C 
ATOM     21  C   UNL     1     182.299 177.204 179.720  1.00  0.00     0.031 C 
ATOM     22  C   UNL     1     182.272 174.597 181.236  1.00  0.00    -0.008 C 
ATOM     23  C   UNL     1     182.560 175.877 179.075  1.00  0.00    -0.027 C 
ATOM     24  C   UNL     1     182.394 174.699 179.707  1.00  0.00    -0.065 C 
ATOM     25  C   UNL     1     181.237 173.477 181.576  1.00  0.00     0.014 C 
ATOM     26  C   UNL     1     183.666 174.192 181.796  1.00  0.00     0.016 C 
ATOM     27  C   UNL     1     182.532 173.424 178.898  1.00  0.00     0.063 C 
ATOM     28  C   UNL     1     181.465 172.166 180.807  1.00  0.00     0.033 C 
ATOM     29  C   UNL     1     181.458 172.405 179.295  1.00  0.00     0.118 C 
BRANCH  29  30
ATOM     30  O   UNL     1     181.699 171.187 178.639  1.00  0.00    -0.393 OA
ATOM     31  H   UNL     1     182.642 170.939 178.830  1.00  0.00     0.210 HD
ENDBRANCH  29  30
ENDBRANCH   9  11
ENDBRANCH   1   9
TORSDOF 7
ENDMDL
MODEL 3
REMARK VINA RESULT:    -7.329      5.743      7.859
REMARK INTER + INTRA:         -11.422
REMARK INTER:                  -9.849
REMARK INTRA:                  -1.574
REMARK UNBOUND:                -1.309
REMARK SMILES CC[C@@H](CC[C@@H](C)[C@@H]1CC[C@@H]2[C@@H]3CC=C4C[C@@H](O)CC[C@]4(C)[C@H]3CC[C@@]21C)C(C)C
REMARK SMILES IDX 5 1 4 2 3 3 2 4 1 5 28 6 29 7 30 8 6 9 7 10 8 11 9 12 26 13
REMARK SMILES IDX 10 14 11 15 25 16 27 17 12 18 24 19 23 20 13 21 21 22 14 23
REMARK SMILES IDX 15 24 20 25 22 26 16 27 19 28 17 29 18 30
REMARK H PARENT 18 31
REMARK Flexibility Score: inf
ROOT
ATOM      1  C   UNL     1     180.516 179.071 185.562  1.00  0.00     0.004 C 
ENDROOT
BRANCH   1   2
ATOM      2  C   UNL     1     179.832 178.771 184.208  1.00  0.00     0.004 C 
BRANCH   2   3
ATOM      3  C   UNL     1     180.763 178.200 183.100  1.00  0.00    -0.009 C 
BRANCH   3   4
ATOM      4  C   UNL     1     181.954 177.366 183.649  1.00  0.00     0.000 C 
ATOM      5  C   UNL     1     181.945 175.882 183.275  1.00  0.00     0.004 C 
ENDBRANCH   3   4
BRANCH   3   6
ATOM      6  C   UNL     1     181.217 179.281 182.055  1.00  0.00    -0.014 C 
ATOM      7  C   UNL     1     180.158 180.389 181.919  1.00  0.00     0.007 C 
ATOM      8  C   UNL     1     182.589 179.920 182.358  1.00  0.00     0.007 C 
ENDBRANCH   3   6
ENDBRANCH   2   3
ENDBRANCH   1   2
BRANCH   1   9
ATOM      9  C   UNL     1     181.172 180.475 185.730  1.00  0.00    -0.011 C 
ATOM     10  C   UNL     1     180.037 181.510 185.932  1.00  0.00     0.008 C 
BRANCH   9  11
ATOM     11  C   UNL     1     182.293 180.462 186.838  1.00  0.00    -0.002 C 
ATOM     12  C   UNL     1     181.842 180.908 188.235  1.00  0.00     0.005 C 
ATOM     13  C   UNL     1     183.676 181.144 186.592  1.00  0.00    -0.026 C 
ATOM     14  C   UNL     1     183.103 181.377 188.960  1.00  0.00     0.005 C 
ATOM     15  C   UNL     1     184.284 181.096 188.014  1.00  0.00    -0.001 C 
ATOM     16  C   UNL     1     183.555 182.619 186.112  1.00  0.00     0.007 C 
ATOM     17  C   UNL     1     184.519 180.311 185.595  1.00  0.00     0.012 C 
ATOM     18  C   UNL     1     185.543 181.988 188.231  1.00  0.00     0.000 C 
ATOM     19  C   UNL     1     184.846 183.429 186.275  1.00  0.00     0.005 C 
ATOM     20  C   UNL     1     185.358 183.441 187.733  1.00  0.00     0.003 C 
ATOM     21  C   UNL     1     185.973 181.972 189.708  1.00  0.00     0.031 C 
ATOM     22  C   UNL     1     186.672 184.304 187.928  1.00  0.00    -0.008 C 
ATOM     23  C   UNL     1     187.088 182.927 190.007  1.00  0.00    -0.027 C 
ATOM     24  C   UNL     1     187.305 184.057 189.307  1.00  0.00    -0.065 C 
ATOM     25  C   UNL     1     186.300 185.818 187.819  1.00  0.00     0.014 C 
ATOM     26  C   UNL     1     187.739 183.961 186.849  1.00  0.00     0.016 C 
ATOM     27  C   UNL     1     188.364 185.021 189.809  1.00  0.00     0.063 C 
ATOM     28  C   UNL     1     187.430 186.768 188.247  1.00  0.00     0.033 C 
ATOM     29  C   UNL     1     187.888 186.472 189.677  1.00  0.00     0.118 C 
BRANCH  29  30
ATOM     30  O   UNL     1     188.937 187.344 190.009  1.00  0.00    -0.393 OA
ATOM     31  H   UNL     1     189.784 186.849 189.850  1.00  0.00     0.210 HD
ENDBRANCH  29  30
ENDBRANCH   9  11
ENDBRANCH   1   9
TORSDOF 7
ENDMDL
MODEL 4
REMARK VINA RESULT:    -7.306      3.542      8.950
REMARK INTER + INTRA:         -11.390
REMARK INTER:                 -10.128
REMARK INTRA:                  -1.263
REMARK UNBOUND:                -1.309
REMARK SMILES CC[C@@H](CC[C@@H](C)[C@@H]1CC[C@@H]2[C@@H]3CC=C4C[C@@H](O)CC[C@]4(C)[C@H]3CC[C@@]21C)C(C)C
REMARK SMILES IDX 5 1 4 2 3 3 2 4 1 5 28 6 29 7 30 8 6 9 7 10 8 11 9 12 26 13
REMARK SMILES IDX 10 14 11 15 25 16 27 17 12 18 24 19 23 20 13 21 21 22 14 23
REMARK SMILES IDX 15 24 20 25 22 26 16 27 19 28 17 29 18 30
REMARK H PARENT 18 31
REMARK Flexibility Score: inf
ROOT
ATOM      1  C   UNL     1     180.905 180.185 186.095  1.00  0.00     0.004 C 
ENDROOT
BRANCH   1   2
ATOM      2  C   UNL     1     181.403 181.463 186.807  1.00  0.00     0.004 C 
BRANCH   2   3
ATOM      3  C   UNL     1     182.942 181.556 187.016  1.00  0.00    -0.009 C 
BRANCH   3   4
ATOM      4  C   UNL     1     183.712 182.097 185.779  1.00  0.00     0.000 C 
ATOM      5  C   UNL     1     182.938 183.089 184.906  1.00  0.00     0.004 C 
ENDBRANCH   3   4
BRANCH   3   6
ATOM      6  C   UNL     1     183.571 180.235 187.585  1.00  0.00    -0.014 C 
ATOM      7  C   UNL     1     185.109 180.297 187.542  1.00  0.00     0.007 C 
ATOM      8  C   UNL     1     183.115 179.880 189.016  1.00  0.00     0.007 C 
ENDBRANCH   3   6
ENDBRANCH   2   3
ENDBRANCH   1   2
BRANCH   1   9
ATOM      9  C   UNL     1     180.087 180.377 184.782  1.00  0.00    -0.011 C 
ATOM     10  C   UNL     1     179.532 181.824 184.775  1.00  0.00     0.008 C 
BRANCH   9  11
ATOM     11  C   UNL     1     180.922 179.957 183.513  1.00  0.00    -0.002 C 
ATOM     12  C   UNL     1     180.169 180.027 182.178  1.00  0.00     0.005 C 
ATOM     13  C   UNL     1     181.726 178.619 183.486  1.00  0.00    -0.026 C 
ATOM     14  C   UNL     1     180.894 179.072 181.229  1.00  0.00     0.005 C 
ATOM     15  C   UNL     1     182.122 178.544 181.992  1.00  0.00    -0.001 C 
ATOM     16  C   UNL     1     180.868 177.380 183.874  1.00  0.00     0.007 C 
ATOM     17  C   UNL     1     182.977 178.722 184.392  1.00  0.00     0.012 C 
ATOM     18  C   UNL     1     182.663 177.163 181.514  1.00  0.00     0.000 C 
ATOM     19  C   UNL     1     181.486 176.043 183.450  1.00  0.00     0.005 C 
ATOM     20  C   UNL     1     181.765 175.975 181.931  1.00  0.00     0.003 C 
ATOM     21  C   UNL     1     182.889 177.165 179.992  1.00  0.00     0.031 C 
ATOM     22  C   UNL     1     182.371 174.586 181.468  1.00  0.00    -0.008 C 
ATOM     23  C   UNL     1     183.269 175.820 179.452  1.00  0.00    -0.027 C 
ATOM     24  C   UNL     1     182.901 174.658 180.027  1.00  0.00    -0.065 C 
ATOM     25  C   UNL     1     181.247 173.502 181.528  1.00  0.00     0.014 C 
ATOM     26  C   UNL     1     183.551 174.150 182.384  1.00  0.00     0.016 C 
ATOM     27  C   UNL     1     183.209 173.365 179.295  1.00  0.00     0.063 C 
ATOM     28  C   UNL     1     181.630 172.172 180.859  1.00  0.00     0.033 C 
ATOM     29  C   UNL     1     182.035 172.386 179.398  1.00  0.00     0.118 C 
BRANCH  29  30
ATOM     30  O   UNL     1     182.403 171.150 178.843  1.00  0.00    -0.393 OA
ATOM     31  H   UNL     1     181.695 170.499 179.092  1.00  0.00     0.210 HD
ENDBRANCH  29  30
ENDBRANCH   9  11
ENDBRANCH   1   9
TORSDOF 7
ENDMDL
MODEL 5
REMARK VINA RESULT:    -7.228      1.297      2.030
REMARK INTER + INTRA:         -11.283
REMARK INTER:                  -9.575
REMARK INTRA:                  -1.709
REMARK UNBOUND:                -1.309
REMARK SMILES CC[C@@H](CC[C@@H](C)[C@@H]1CC[C@@H]2[C@@H]3CC=C4C[C@@H](O)CC[C@]4(C)[C@H]3CC[C@@]21C)C(C)C
REMARK SMILES IDX 5 1 4 2 3 3 2 4 1 5 28 6 29 7 30 8 6 9 7 10 8 11 9 12 26 13
REMARK SMILES IDX 10 14 11 15 25 16 27 17 12 18 24 19 23 20 13 21 21 22 14 23
REMARK SMILES IDX 15 24 20 25 22 26 16 27 19 28 17 29 18 30
REMARK H PARENT 18 31
REMARK Flexibility Score: inf
ROOT
ATOM      1  C   UNL     1     183.586 174.784 181.241  1.00  0.00     0.004 C 
ENDROOT
BRANCH   1   2
ATOM      2  C   UNL     1     183.959 174.702 179.744  1.00  0.00     0.004 C 
BRANCH   2   3
ATOM      3  C   UNL     1     182.766 174.495 178.767  1.00  0.00    -0.009 C 
BRANCH   3   4
ATOM      4  C   UNL     1     182.930 173.270 177.825  1.00  0.00     0.000 C 
ATOM      5  C   UNL     1     181.685 172.394 177.663  1.00  0.00     0.004 C 
ENDBRANCH   3   4
BRANCH   3   6
ATOM      6  C   UNL     1     182.368 175.801 177.991  1.00  0.00    -0.014 C 
ATOM      7  C   UNL     1     180.875 176.122 178.188  1.00  0.00     0.007 C 
ATOM      8  C   UNL     1     183.209 177.042 178.363  1.00  0.00     0.007 C 
ENDBRANCH   3   6
ENDBRANCH   2   3
ENDBRANCH   1   2
BRANCH   1   9
ATOM      9  C   UNL     1     182.145 175.269 181.588  1.00  0.00    -0.011 C 
ATOM     10  C   UNL     1     181.267 174.015 181.827  1.00  0.00     0.008 C 
BRANCH   9  11
ATOM     11  C   UNL     1     182.156 176.330 182.754  1.00  0.00    -0.002 C 
ATOM     12  C   UNL     1     181.059 176.156 183.812  1.00  0.00     0.005 C 
ATOM     13  C   UNL     1     182.222 177.860 182.447  1.00  0.00    -0.026 C 
ATOM     14  C   UNL     1     180.872 177.526 184.463  1.00  0.00     0.005 C 
ATOM     15  C   UNL     1     181.938 178.452 183.849  1.00  0.00    -0.001 C 
ATOM     16  C   UNL     1     181.134 178.330 181.439  1.00  0.00     0.007 C 
ATOM     17  C   UNL     1     183.635 178.251 181.951  1.00  0.00     0.012 C 
ATOM     18  C   UNL     1     181.597 179.972 183.874  1.00  0.00     0.000 C 
ATOM     19  C   UNL     1     180.896 179.844 181.449  1.00  0.00     0.005 C 
ATOM     20  C   UNL     1     180.511 180.374 182.849  1.00  0.00     0.003 C 
ATOM     21  C   UNL     1     181.197 180.417 185.291  1.00  0.00     0.031 C 
ATOM     22  C   UNL     1     180.226 181.933 182.871  1.00  0.00    -0.008 C 
ATOM     23  C   UNL     1     180.717 181.835 185.349  1.00  0.00    -0.027 C 
ATOM     24  C   UNL     1     180.135 182.465 184.310  1.00  0.00    -0.065 C 
ATOM     25  C   UNL     1     178.863 182.204 182.157  1.00  0.00     0.014 C 
ATOM     26  C   UNL     1     181.350 182.724 182.144  1.00  0.00     0.016 C 
ATOM     27  C   UNL     1     179.545 183.843 184.545  1.00  0.00     0.063 C 
ATOM     28  C   UNL     1     178.342 183.639 182.337  1.00  0.00     0.033 C 
ATOM     29  C   UNL     1     178.203 183.994 183.820  1.00  0.00     0.118 C 
BRANCH  29  30
ATOM     30  O   UNL     1     177.754 185.319 183.931  1.00  0.00    -0.393 OA
ATOM     31  H   UNL     1     177.837 185.729 183.030  1.00  0.00     0.210 HD
ENDBRANCH  29  30
ENDBRANCH   9  11
ENDBRANCH   1   9
TORSDOF 7
ENDMDL
MODEL 6
REMARK VINA RESULT:    -7.216      1.404      2.303
REMARK INTER + INTRA:         -11.266
REMARK INTER:                  -9.564
REMARK INTRA:                  -1.702
REMARK UNBOUND:                -1.309
REMARK SMILES CC[C@@H](CC[C@@H](C)[C@@H]1CC[C@@H]2[C@@H]3CC=C4C[C@@H](O)CC[C@]4(C)[C@H]3CC[C@@]21C)C(C)C
REMARK SMILES IDX 5 1 4 2 3 3 2 4 1 5 28 6 29 7 30 8 6 9 7 10 8 11 9 12 26 13
REMARK SMILES IDX 10 14 11 15 25 16 27 17 12 18 24 19 23 20 13 21 21 22 14 23
REMARK SMILES IDX 15 24 20 25 22 26 16 27 19 28 17 29 18 30
REMARK H PARENT 18 31
REMARK Flexibility Score: inf
ROOT
ATOM      1  C   UNL     1     184.395 174.024 179.581  1.00  0.00     0.004 C 
ENDROOT
BRANCH   1   2
ATOM      2  C   UNL     1     184.081 172.740 180.383  1.00  0.00     0.004 C 
BRANCH   2   3
ATOM      3  C   UNL     1     183.883 171.452 179.534  1.00  0.00    -0.009 C 
BRANCH   3   4
ATOM      4  C   UNL     1     184.461 171.553 178.095  1.00  0.00     0.000 C 
ATOM      5  C   UNL     1     185.950 171.222 177.960  1.00  0.00     0.004 C 
ENDBRANCH   3   4
BRANCH   3   6
ATOM      6  C   UNL     1     182.406 170.920 179.551  1.00  0.00    -0.014 C 
ATOM      7  C   UNL     1     181.598 171.584 180.681  1.00  0.00     0.007 C 
ATOM      8  C   UNL     1     181.652 171.093 178.215  1.00  0.00     0.007 C 
ENDBRANCH   3   6
ENDBRANCH   2   3
ENDBRANCH   1   2
BRANCH   1   9
ATOM      9  C   UNL     1     183.311 175.145 179.583  1.00  0.00    -0.011 C 
ATOM     10  C   UNL     1     182.247 174.780 178.518  1.00  0.00     0.008 C 
BRANCH   9  11
ATOM     11  C   UNL     1     182.761 175.416 181.036  1.00  0.00    -0.002 C 
ATOM     12  C   UNL     1     181.260 175.161 181.229  1.00  0.00     0.005 C 
ATOM     13  C   UNL     1     183.072 176.755 181.776  1.00  0.00    -0.026 C 
ATOM     14  C   UNL     1     180.838 176.000 182.435  1.00  0.00     0.005 C 
ATOM     15  C   UNL     1     182.119 176.646 182.991  1.00  0.00    -0.001 C 
ATOM     16  C   UNL     1     182.721 178.016 180.934  1.00  0.00     0.007 C 
ATOM     17  C   UNL     1     184.552 176.793 182.227  1.00  0.00     0.012 C 
ATOM     18  C   UNL     1     181.910 177.965 183.794  1.00  0.00     0.000 C 
ATOM     19  C   UNL     1     182.605 179.300 181.764  1.00  0.00     0.005 C 
ATOM     20  C   UNL     1     181.565 179.178 182.901  1.00  0.00     0.003 C 
ATOM     21  C   UNL     1     180.842 177.773 184.886  1.00  0.00     0.031 C 
ATOM     22  C   UNL     1     181.405 180.509 183.747  1.00  0.00    -0.008 C 
ATOM     23  C   UNL     1     180.491 179.045 185.595  1.00  0.00    -0.027 C 
ATOM     24  C   UNL     1     180.592 180.263 185.028  1.00  0.00    -0.065 C 
ATOM     25  C   UNL     1     180.653 181.569 182.880  1.00  0.00     0.014 C 
ATOM     26  C   UNL     1     182.789 181.081 184.167  1.00  0.00     0.016 C 
ATOM     27  C   UNL     1     180.051 181.458 185.792  1.00  0.00     0.063 C 
ATOM     28  C   UNL     1     180.202 182.810 183.667  1.00  0.00     0.033 C 
ATOM     29  C   UNL     1     179.315 182.419 184.852  1.00  0.00     0.118 C 
BRANCH  29  30
ATOM     30  O   UNL     1     178.956 183.581 185.555  1.00  0.00    -0.393 OA
ATOM     31  H   UNL     1     178.077 183.874 185.197  1.00  0.00     0.210 HD
ENDBRANCH  29  30
ENDBRANCH   9  11
ENDBRANCH   1   9
TORSDOF 7
ENDMDL
MODEL 7
REMARK VINA RESULT:    -7.213      1.756      3.660
REMARK INTER + INTRA:         -11.262
REMARK INTER:                 -10.043
REMARK INTRA:                  -1.219
REMARK UNBOUND:                -1.309
REMARK SMILES CC[C@@H](CC[C@@H](C)[C@@H]1CC[C@@H]2[C@@H]3CC=C4C[C@@H](O)CC[C@]4(C)[C@H]3CC[C@@]21C)C(C)C
REMARK SMILES IDX 5 1 4 2 3 3 2 4 1 5 28 6 29 7 30 8 6 9 7 10 8 11 9 12 26 13
REMARK SMILES IDX 10 14 11 15 25 16 27 17 12 18 24 19 23 20 13 21 21 22 14 23
REMARK SMILES IDX 15 24 20 25 22 26 16 27 19 28 17 29 18 30
REMARK H PARENT 18 31
REMARK Flexibility Score: inf
ROOT
ATOM      1  C   UNL     1     183.551 174.205 178.622  1.00  0.00     0.004 C 
ENDROOT
BRANCH   1   2
ATOM      2  C   UNL     1     182.860 173.513 177.425  1.00  0.00     0.004 C 
BRANCH   2   3
ATOM      3  C   UNL     1     181.305 173.579 177.420  1.00  0.00    -0.009 C 
BRANCH   3   4
ATOM      4  C   UNL     1     180.728 174.833 178.135  1.00  0.00     0.000 C 
ATOM      5  C   UNL     1     180.475 176.045 177.234  1.00  0.00     0.004 C 
ENDBRANCH   3   4
BRANCH   3   6
ATOM      6  C   UNL     1     180.628 172.247 177.902  1.00  0.00    -0.014 C 
ATOM      7  C   UNL     1     179.375 171.936 177.064  1.00  0.00     0.007 C 
ATOM      8  C   UNL     1     181.564 171.020 177.895  1.00  0.00     0.007 C 
ENDBRANCH   3   6
ENDBRANCH   2   3
ENDBRANCH   1   2
BRANCH   1   9
ATOM      9  C   UNL     1     183.850 173.325 179.874  1.00  0.00    -0.011 C 
ATOM     10  C   UNL     1     185.378 173.072 179.924  1.00  0.00     0.008 C 
BRANCH   9  11
ATOM     11  C   UNL     1     183.214 173.940 181.179  1.00  0.00    -0.002 C 
ATOM     12  C   UNL     1     181.735 173.603 181.411  1.00  0.00     0.005 C 
ATOM     13  C   UNL     1     183.369 175.458 181.510  1.00  0.00    -0.026 C 
ATOM     14  C   UNL     1     181.185 174.703 182.319  1.00  0.00     0.005 C 
ATOM     15  C   UNL     1     182.377 175.603 182.689  1.00  0.00    -0.001 C 
ATOM     16  C   UNL     1     182.944 176.388 180.337  1.00  0.00     0.007 C 
ATOM     17  C   UNL     1     184.818 175.769 181.957  1.00  0.00     0.012 C 
ATOM     18  C   UNL     1     182.014 177.068 183.078  1.00  0.00     0.000 C 
ATOM     19  C   UNL     1     182.676 177.836 180.763  1.00  0.00     0.005 C 
ATOM     20  C   UNL     1     181.600 177.939 181.869  1.00  0.00     0.003 C 
ATOM     21  C   UNL     1     180.920 177.088 184.160  1.00  0.00     0.031 C 
ATOM     22  C   UNL     1     181.283 179.432 182.296  1.00  0.00    -0.008 C 
ATOM     23  C   UNL     1     180.424 178.468 184.470  1.00  0.00    -0.027 C 
ATOM     24  C   UNL     1     180.440 179.479 183.580  1.00  0.00    -0.065 C 
ATOM     25  C   UNL     1     180.478 180.123 181.149  1.00  0.00     0.014 C 
ATOM     26  C   UNL     1     182.590 180.234 182.558  1.00  0.00     0.016 C 
ATOM     27  C   UNL     1     179.760 180.781 183.961  1.00  0.00     0.063 C 
ATOM     28  C   UNL     1     179.883 181.485 181.541  1.00  0.00     0.033 C 
ATOM     29  C   UNL     1     178.983 181.360 182.773  1.00  0.00     0.118 C 
BRANCH  29  30
ATOM     30  O   UNL     1     178.489 182.630 183.107  1.00  0.00    -0.393 OA
ATOM     31  H   UNL     1     178.667 182.763 184.075  1.00  0.00     0.210 HD
ENDBRANCH  29  30
ENDBRANCH   9  11
ENDBRANCH   1   9
TORSDOF 7
ENDMDL
MODEL 8
REMARK VINA RESULT:    -7.195      3.263      9.003
REMARK INTER + INTRA:         -11.238
REMARK INTER:                  -9.125
REMARK INTRA:                  -2.113
REMARK UNBOUND:                -1.309
REMARK SMILES CC[C@@H](CC[C@@H](C)[C@@H]1CC[C@@H]2[C@@H]3CC=C4C[C@@H](O)CC[C@]4(C)[C@H]3CC[C@@]21C)C(C)C
REMARK SMILES IDX 5 1 4 2 3 3 2 4 1 5 28 6 29 7 30 8 6 9 7 10 8 11 9 12 26 13
REMARK SMILES IDX 10 14 11 15 25 16 27 17 12 18 24 19 23 20 13 21 21 22 14 23
REMARK SMILES IDX 15 24 20 25 22 26 16 27 19 28 17 29 18 30
REMARK H PARENT 18 31
REMARK Flexibility Score: inf
ROOT
ATOM      1  C   UNL     1     181.829 183.008 182.763  1.00  0.00     0.004 C 
ENDROOT
BRANCH   1   2
ATOM      2  C   UNL     1     181.252 183.094 184.194  1.00  0.00     0.004 C 
BRANCH   2   3
ATOM      3  C   UNL     1     179.856 182.436 184.394  1.00  0.00    -0.009 C 
BRANCH   3   4
ATOM      4  C   UNL     1     178.683 183.455 184.437  1.00  0.00     0.000 C 
ATOM      5  C   UNL     1     178.077 183.817 183.078  1.00  0.00     0.004 C 
ENDBRANCH   3   4
BRANCH   3   6
ATOM      6  C   UNL     1     179.815 181.422 185.591  1.00  0.00    -0.014 C 
ATOM      7  C   UNL     1     179.469 180.005 185.097  1.00  0.00     0.007 C 
ATOM      8  C   UNL     1     181.115 181.368 186.422  1.00  0.00     0.007 C 
ENDBRANCH   3   6
ENDBRANCH   2   3
ENDBRANCH   1   2
BRANCH   1   9
ATOM      9  C   UNL     1     182.896 181.903 182.493  1.00  0.00    -0.011 C 
ATOM     10  C   UNL     1     184.255 182.411 183.037  1.00  0.00     0.008 C 
BRANCH   9  11
ATOM     11  C   UNL     1     182.424 180.499 183.031  1.00  0.00    -0.002 C 
ATOM     12  C   UNL     1     183.403 179.795 183.979  1.00  0.00     0.005 C 
ATOM     13  C   UNL     1     181.900 179.399 182.055  1.00  0.00    -0.026 C 
ATOM     14  C   UNL     1     183.070 178.304 183.907  1.00  0.00     0.005 C 
ATOM     15  C   UNL     1     181.832 178.176 183.001  1.00  0.00    -0.001 C 
ATOM     16  C   UNL     1     182.875 179.109 180.877  1.00  0.00     0.007 C 
ATOM     17  C   UNL     1     180.495 179.773 181.523  1.00  0.00     0.012 C 
ATOM     18  C   UNL     1     181.659 176.797 182.297  1.00  0.00     0.000 C 
ATOM     19  C   UNL     1     182.609 177.776 180.169  1.00  0.00     0.005 C 
ATOM     20  C   UNL     1     182.656 176.572 181.137  1.00  0.00     0.003 C 
ATOM     21  C   UNL     1     181.746 175.649 183.318  1.00  0.00     0.031 C 
ATOM     22  C   UNL     1     182.420 175.180 180.415  1.00  0.00    -0.008 C 
ATOM     23  C   UNL     1     181.734 174.293 182.681  1.00  0.00    -0.027 C 
ATOM     24  C   UNL     1     182.186 174.054 181.435  1.00  0.00    -0.065 C 
ATOM     25  C   UNL     1     183.688 174.829 179.573  1.00  0.00     0.014 C 
ATOM     26  C   UNL     1     181.181 175.234 179.476  1.00  0.00     0.016 C 
ATOM     27  C   UNL     1     182.272 172.614 180.965  1.00  0.00     0.063 C 
ATOM     28  C   UNL     1     183.697 173.390 179.034  1.00  0.00     0.033 C 
ATOM     29  C   UNL     1     183.561 172.374 180.171  1.00  0.00     0.118 C 
BRANCH  29  30
ATOM     30  O   UNL     1     183.544 171.080 179.626  1.00  0.00    -0.393 OA
ATOM     31  H   UNL     1     183.068 170.499 180.277  1.00  0.00     0.210 HD
ENDBRANCH  29  30
ENDBRANCH   9  11
ENDBRANCH   1   9
TORSDOF 7
ENDMDL
MODEL 9
REMARK VINA RESULT:    -7.166      3.275      9.190
REMARK INTER + INTRA:         -11.198
REMARK INTER:                  -9.428
REMARK INTRA:                  -1.770
REMARK UNBOUND:                -1.309
REMARK SMILES CC[C@@H](CC[C@@H](C)[C@@H]1CC[C@@H]2[C@@H]3CC=C4C[C@@H](O)CC[C@]4(C)[C@H]3CC[C@@]21C)C(C)C
REMARK SMILES IDX 5 1 4 2 3 3 2 4 1 5 28 6 29 7 30 8 6 9 7 10 8 11 9 12 26 13
REMARK SMILES IDX 10 14 11 15 25 16 27 17 12 18 24 19 23 20 13 21 21 22 14 23
REMARK SMILES IDX 15 24 20 25 22 26 16 27 19 28 17 29 18 30
REMARK H PARENT 18 31
REMARK Flexibility Score: inf
ROOT
ATOM      1  C   UNL     1     181.524 182.054 185.448  1.00  0.00     0.004 C 
ENDROOT
BRANCH   1   2
ATOM      2  C   UNL     1     180.015 182.119 185.120  1.00  0.00     0.004 C 
BRANCH   2   3
ATOM      3  C   UNL     1     179.593 183.242 184.129  1.00  0.00    -0.009 C 
BRANCH   3   4
ATOM      4  C   UNL     1     178.594 184.268 184.732  1.00  0.00     0.000 C 
ATOM      5  C   UNL     1     177.453 184.697 183.806  1.00  0.00     0.004 C 
ENDBRANCH   3   4
BRANCH   3   6
ATOM      6  C   UNL     1     179.122 182.692 182.736  1.00  0.00    -0.014 C 
ATOM      7  C   UNL     1     180.098 183.114 181.623  1.00  0.00     0.007 C 
ATOM      8  C   UNL     1     178.928 181.161 182.690  1.00  0.00     0.007 C 
ENDBRANCH   3   6
ENDBRANCH   2   3
ENDBRANCH   1   2
BRANCH   1   9
ATOM      9  C   UNL     1     182.164 180.637 185.568  1.00  0.00    -0.011 C 
ATOM     10  C   UNL     1     182.104 180.213 187.057  1.00  0.00     0.008 C 
BRANCH   9  11
ATOM     11  C   UNL     1     181.526 179.625 184.541  1.00  0.00    -0.002 C 
ATOM     12  C   UNL     1     180.894 178.371 185.159  1.00  0.00     0.005 C 
ATOM     13  C   UNL     1     182.327 179.135 183.293  1.00  0.00    -0.026 C 
ATOM     14  C   UNL     1     180.882 177.312 184.057  1.00  0.00     0.005 C 
ATOM     15  C   UNL     1     181.409 177.998 182.784  1.00  0.00    -0.001 C 
ATOM     16  C   UNL     1     183.731 178.568 183.649  1.00  0.00     0.007 C 
ATOM     17  C   UNL     1     182.445 180.269 182.246  1.00  0.00     0.012 C 
ATOM     18  C   UNL     1     182.048 177.047 181.728  1.00  0.00     0.000 C 
ATOM     19  C   UNL     1     184.348 177.705 182.543  1.00  0.00     0.005 C 
ATOM     20  C   UNL     1     183.441 176.519 182.142  1.00  0.00     0.003 C 
ATOM     21  C   UNL     1     181.100 175.879 181.402  1.00  0.00     0.031 C 
ATOM     22  C   UNL     1     184.079 175.594 181.024  1.00  0.00    -0.008 C 
ATOM     23  C   UNL     1     181.719 174.853 180.503  1.00  0.00    -0.027 C 
ATOM     24  C   UNL     1     183.043 174.613 180.451  1.00  0.00    -0.065 C 
ATOM     25  C   UNL     1     185.244 174.768 181.660  1.00  0.00     0.014 C 
ATOM     26  C   UNL     1     184.637 176.438 179.842  1.00  0.00     0.016 C 
ATOM     27  C   UNL     1     183.529 173.438 179.623  1.00  0.00     0.063 C 
ATOM     28  C   UNL     1     185.774 173.645 180.754  1.00  0.00     0.033 C 
ATOM     29  C   UNL     1     184.652 172.687 180.347  1.00  0.00     0.118 C 
BRANCH  29  30
ATOM     30  O   UNL     1     185.180 171.700 179.500  1.00  0.00    -0.393 OA
ATOM     31  H   UNL     1     184.622 170.888 179.620  1.00  0.00     0.210 HD
ENDBRANCH  29  30
ENDBRANCH   9  11
ENDBRANCH   1   9
TORSDOF 7
ENDMDL
