MODEL 1
REMARK VINA RESULT:    -6.944      0.000      0.000
REMARK INTER + INTRA:         -10.741
REMARK INTER:                  -9.583
REMARK INTRA:                  -1.158
REMARK UNBOUND:                -1.158
REMARK SMILES CC[C@H](CC[C@@H](C)[C@@H]1CC[C@H]2[C@@H]3CC=C4C[C@H](O)CC[C@]4(C)[C@@H]3CC[C@]21C)C(C)C
REMARK SMILES IDX 5 1 4 2 3 3 2 4 1 5 28 6 29 7 30 8 6 9 7 10 8 11 9 12 26 13
REMARK SMILES IDX 10 14 11 15 25 16 27 17 12 18 24 19 23 20 13 21 21 22 14 23
REMARK SMILES IDX 15 24 20 25 22 26 16 27 19 28 17 29 18 30
REMARK H PARENT 18 31
REMARK Flexibility Score: inf
ROOT
ATOM      1  C   UNL     1     134.050 130.840 144.233  1.00  0.00     0.004 C 
ENDROOT
BRANCH   1   2
ATOM      2  C   UNL     1     133.816 129.380 143.800  1.00  0.00     0.004 C 
BRANCH   2   3
ATOM      3  C   UNL     1     135.146 128.602 143.563  1.00  0.00    -0.009 C 
BRANCH   3   4
ATOM      4  C   UNL     1     135.775 128.145 144.917  1.00  0.00     0.000 C 
ATOM      5  C   UNL     1     137.299 128.295 145.005  1.00  0.00     0.004 C 
ENDBRANCH   3   4
BRANCH   3   6
ATOM      6  C   UNL     1     134.959 127.437 142.524  1.00  0.00    -0.014 C 
ATOM      7  C   UNL     1     133.506 127.298 142.025  1.00  0.00     0.007 C 
ATOM      8  C   UNL     1     135.385 126.075 143.118  1.00  0.00     0.007 C 
ENDBRANCH   3   6
ENDBRANCH   2   3
ENDBRANCH   1   2
BRANCH   1   9
ATOM      9  C   UNL     1     133.272 131.854 143.347  1.00  0.00    -0.011 C 
ATOM     10  C   UNL     1     133.137 133.180 144.129  1.00  0.00     0.008 C 
BRANCH   9  11
ATOM     11  C   UNL     1     133.998 132.057 141.968  1.00  0.00    -0.002 C 
ATOM     12  C   UNL     1     133.913 133.495 141.440  1.00  0.00     0.005 C 
ATOM     13  C   UNL     1     133.566 131.133 140.746  1.00  0.00    -0.026 C 
ATOM     14  C   UNL     1     134.161 133.383 139.955  1.00  0.00     0.005 C 
ATOM     15  C   UNL     1     133.383 132.140 139.557  1.00  0.00    -0.001 C 
ATOM     16  C   UNL     1     134.690 130.087 140.470  1.00  0.00     0.007 C 
ATOM     17  C   UNL     1     132.226 130.382 140.989  1.00  0.00     0.012 C 
ATOM     18  C   UNL     1     133.722 131.661 138.106  1.00  0.00     0.000 C 
ATOM     19  C   UNL     1     134.711 129.536 139.043  1.00  0.00     0.005 C 
ATOM     20  C   UNL     1     134.920 130.681 138.029  1.00  0.00     0.003 C 
ATOM     21  C   UNL     1     132.475 131.077 137.417  1.00  0.00     0.031 C 
ATOM     22  C   UNL     1     135.230 130.248 136.530  1.00  0.00    -0.008 C 
ATOM     23  C   UNL     1     132.761 130.509 136.061  1.00  0.00    -0.027 C 
ATOM     24  C   UNL     1     133.962 130.022 135.696  1.00  0.00    -0.065 C 
ATOM     25  C   UNL     1     136.084 128.939 136.474  1.00  0.00     0.014 C 
ATOM     26  C   UNL     1     136.039 131.401 135.870  1.00  0.00     0.016 C 
ATOM     27  C   UNL     1     134.108 129.419 134.308  1.00  0.00     0.063 C 
ATOM     28  C   UNL     1     136.301 128.393 135.054  1.00  0.00     0.033 C 
ATOM     29  C   UNL     1     134.959 128.144 134.341  1.00  0.00     0.118 C 
BRANCH  29  30
ATOM     30  O   UNL     1     134.238 127.125 134.986  1.00  0.00    -0.393 OA
ATOM     31  H   UNL     1     134.199 127.365 135.950  1.00  0.00     0.210 HD
ENDBRANCH  29  30
ENDBRANCH   9  11
ENDBRANCH   1   9
TORSDOF 7
ENDMDL
MODEL 2
REMARK VINA RESULT:    -6.523      2.629      4.951
REMARK INTER + INTRA:         -10.160
REMARK INTER:                  -8.404
REMARK INTRA:                  -1.755
REMARK UNBOUND:                -1.158
REMARK SMILES CC[C@H](CC[C@@H](C)[C@@H]1CC[C@H]2[C@@H]3CC=C4C[C@H](O)CC[C@]4(C)[C@@H]3CC[C@]21C)C(C)C
REMARK SMILES IDX 5 1 4 2 3 3 2 4 1 5 28 6 29 7 30 8 6 9 7 10 8 11 9 12 26 13
REMARK SMILES IDX 10 14 11 15 25 16 27 17 12 18 24 19 23 20 13 21 21 22 14 23
REMARK SMILES IDX 15 24 20 25 22 26 16 27 19 28 17 29 18 30
REMARK H PARENT 18 31
REMARK Flexibility Score: inf
ROOT
ATOM      1  C   UNL     1     132.382 132.832 139.732  1.00  0.00     0.004 C 
ENDROOT
BRANCH   1   2
ATOM      2  C   UNL     1     133.345 131.992 140.594  1.00  0.00     0.004 C 
BRANCH   2   3
ATOM      3  C   UNL     1     134.517 132.835 141.183  1.00  0.00    -0.009 C 
BRANCH   3   4
ATOM      4  C   UNL     1     134.749 134.132 140.343  1.00  0.00     0.000 C 
ATOM      5  C   UNL     1     136.098 134.197 139.616  1.00  0.00     0.004 C 
ENDBRANCH   3   4
BRANCH   3   6
ATOM      6  C   UNL     1     134.326 133.100 142.721  1.00  0.00    -0.014 C 
ATOM      7  C   UNL     1     133.274 132.175 143.368  1.00  0.00     0.007 C 
ATOM      8  C   UNL     1     133.900 134.560 142.996  1.00  0.00     0.007 C 
ENDBRANCH   3   6
ENDBRANCH   2   3
ENDBRANCH   1   2
BRANCH   1   9
ATOM      9  C   UNL     1     132.180 132.232 138.312  1.00  0.00    -0.011 C 
ATOM     10  C   UNL     1     131.631 133.342 137.389  1.00  0.00     0.008 C 
BRANCH   9  11
ATOM     11  C   UNL     1     133.525 131.628 137.768  1.00  0.00    -0.002 C 
ATOM     12  C   UNL     1     134.133 132.433 136.613  1.00  0.00     0.005 C 
ATOM     13  C   UNL     1     133.524 130.114 137.273  1.00  0.00    -0.026 C 
ATOM     14  C   UNL     1     135.051 131.469 135.902  1.00  0.00     0.005 C 
ATOM     15  C   UNL     1     134.263 130.170 135.890  1.00  0.00    -0.001 C 
ATOM     16  C   UNL     1     134.282 129.233 138.314  1.00  0.00     0.007 C 
ATOM     17  C   UNL     1     132.096 129.537 137.066  1.00  0.00     0.012 C 
ATOM     18  C   UNL     1     135.134 128.946 135.451  1.00  0.00     0.000 C 
ATOM     19  C   UNL     1     134.861 127.935 137.749  1.00  0.00     0.005 C 
ATOM     20  C   UNL     1     135.869 128.244 136.621  1.00  0.00     0.003 C 
ATOM     21  C   UNL     1     134.298 127.944 134.634  1.00  0.00     0.031 C 
ATOM     22  C   UNL     1     136.754 127.024 136.113  1.00  0.00    -0.008 C 
ATOM     23  C   UNL     1     135.053 126.702 134.273  1.00  0.00    -0.027 C 
ATOM     24  C   UNL     1     136.077 126.214 134.998  1.00  0.00    -0.065 C 
ATOM     25  C   UNL     1     137.104 126.041 137.277  1.00  0.00     0.014 C 
ATOM     26  C   UNL     1     138.075 127.612 135.541  1.00  0.00     0.016 C 
ATOM     27  C   UNL     1     136.723 124.912 134.557  1.00  0.00     0.063 C 
ATOM     28  C   UNL     1     137.841 124.770 136.825  1.00  0.00     0.033 C 
ATOM     29  C   UNL     1     137.035 124.009 135.757  1.00  0.00     0.118 C 
BRANCH  29  30
ATOM     30  O   UNL     1     135.831 123.526 136.296  1.00  0.00    -0.393 OA
ATOM     31  H   UNL     1     135.406 122.966 135.594  1.00  0.00     0.210 HD
ENDBRANCH  29  30
ENDBRANCH   9  11
ENDBRANCH   1   9
TORSDOF 7
ENDMDL
MODEL 3
REMARK VINA RESULT:    -6.490      0.465      1.503
REMARK INTER + INTRA:         -10.114
REMARK INTER:                  -9.642
REMARK INTRA:                  -0.472
REMARK UNBOUND:                -1.158
REMARK SMILES CC[C@H](CC[C@@H](C)[C@@H]1CC[C@H]2[C@@H]3CC=C4C[C@H](O)CC[C@]4(C)[C@@H]3CC[C@]21C)C(C)C
REMARK SMILES IDX 5 1 4 2 3 3 2 4 1 5 28 6 29 7 30 8 6 9 7 10 8 11 9 12 26 13
REMARK SMILES IDX 10 14 11 15 25 16 27 17 12 18 24 19 23 20 13 21 21 22 14 23
REMARK SMILES IDX 15 24 20 25 22 26 16 27 19 28 17 29 18 30
REMARK H PARENT 18 31
REMARK Flexibility Score: inf
ROOT
ATOM      1  C   UNL     1     133.587 130.735 144.119  1.00  0.00     0.004 C 
ENDROOT
BRANCH   1   2
ATOM      2  C   UNL     1     134.817 130.035 143.508  1.00  0.00     0.004 C 
BRANCH   2   3
ATOM      3  C   UNL     1     134.766 128.485 143.664  1.00  0.00    -0.009 C 
BRANCH   3   4
ATOM      4  C   UNL     1     134.825 127.780 142.272  1.00  0.00     0.000 C 
ATOM      5  C   UNL     1     133.560 127.001 141.888  1.00  0.00     0.004 C 
ENDBRANCH   3   4
BRANCH   3   6
ATOM      6  C   UNL     1     135.846 127.969 144.683  1.00  0.00    -0.014 C 
ATOM      7  C   UNL     1     137.047 128.927 144.829  1.00  0.00     0.007 C 
ATOM      8  C   UNL     1     136.397 126.584 144.273  1.00  0.00     0.007 C 
ENDBRANCH   3   6
ENDBRANCH   2   3
ENDBRANCH   1   2
BRANCH   1   9
ATOM      9  C   UNL     1     133.108 131.944 143.268  1.00  0.00    -0.011 C 
ATOM     10  C   UNL     1     133.205 133.219 144.135  1.00  0.00     0.008 C 
BRANCH   9  11
ATOM     11  C   UNL     1     133.954 132.065 141.949  1.00  0.00    -0.002 C 
ATOM     12  C   UNL     1     134.075 133.504 141.432  1.00  0.00     0.005 C 
ATOM     13  C   UNL     1     133.511 131.199 140.688  1.00  0.00    -0.026 C 
ATOM     14  C   UNL     1     134.420 133.367 139.968  1.00  0.00     0.005 C 
ATOM     15  C   UNL     1     133.536 132.223 139.500  1.00  0.00    -0.001 C 
ATOM     16  C   UNL     1     134.526 130.031 140.485  1.00  0.00     0.007 C 
ATOM     17  C   UNL     1     132.080 130.608 140.822  1.00  0.00     0.012 C 
ATOM     18  C   UNL     1     133.927 131.712 138.073  1.00  0.00     0.000 C 
ATOM     19  C   UNL     1     134.591 129.484 139.058  1.00  0.00     0.005 C 
ATOM     20  C   UNL     1     135.006 130.601 138.074  1.00  0.00     0.003 C 
ATOM     21  C   UNL     1     132.676 131.277 137.286  1.00  0.00     0.031 C 
ATOM     22  C   UNL     1     135.377 130.138 136.599  1.00  0.00    -0.008 C 
ATOM     23  C   UNL     1     132.997 130.683 135.949  1.00  0.00    -0.027 C 
ATOM     24  C   UNL     1     134.158 130.062 135.669  1.00  0.00    -0.065 C 
ATOM     25  C   UNL     1     136.076 128.739 136.592  1.00  0.00     0.014 C 
ATOM     26  C   UNL     1     136.361 131.191 136.013  1.00  0.00     0.016 C 
ATOM     27  C   UNL     1     134.338 129.449 134.290  1.00  0.00     0.063 C 
ATOM     28  C   UNL     1     136.335 128.175 135.186  1.00  0.00     0.033 C 
ATOM     29  C   UNL     1     135.031 128.084 134.373  1.00  0.00     0.118 C 
BRANCH  29  30
ATOM     30  O   UNL     1     134.151 127.154 134.951  1.00  0.00    -0.393 OA
ATOM     31  H   UNL     1     134.547 126.884 135.821  1.00  0.00     0.210 HD
ENDBRANCH  29  30
ENDBRANCH   9  11
ENDBRANCH   1   9
TORSDOF 7
ENDMDL
MODEL 4
REMARK VINA RESULT:    -6.184      2.092      4.634
REMARK INTER + INTRA:          -9.691
REMARK INTER:                  -8.109
REMARK INTRA:                  -1.582
REMARK UNBOUND:                -1.158
REMARK SMILES CC[C@H](CC[C@@H](C)[C@@H]1CC[C@H]2[C@@H]3CC=C4C[C@H](O)CC[C@]4(C)[C@@H]3CC[C@]21C)C(C)C
REMARK SMILES IDX 5 1 4 2 3 3 2 4 1 5 28 6 29 7 30 8 6 9 7 10 8 11 9 12 26 13
REMARK SMILES IDX 10 14 11 15 25 16 27 17 12 18 24 19 23 20 13 21 21 22 14 23
REMARK SMILES IDX 15 24 20 25 22 26 16 27 19 28 17 29 18 30
REMARK H PARENT 18 31
REMARK Flexibility Score: inf
ROOT
ATOM      1  C   UNL     1     132.390 133.087 139.568  1.00  0.00     0.004 C 
ENDROOT
BRANCH   1   2
ATOM      2  C   UNL     1     133.600 132.633 140.407  1.00  0.00     0.004 C 
BRANCH   2   3
ATOM      3  C   UNL     1     133.186 131.804 141.661  1.00  0.00    -0.009 C 
BRANCH   3   4
ATOM      4  C   UNL     1     133.814 130.375 141.619  1.00  0.00     0.000 C 
ATOM      5  C   UNL     1     132.802 129.228 141.498  1.00  0.00     0.004 C 
ENDBRANCH   3   4
BRANCH   3   6
ATOM      6  C   UNL     1     133.473 132.586 142.994  1.00  0.00    -0.014 C 
ATOM      7  C   UNL     1     134.249 133.900 142.769  1.00  0.00     0.007 C 
ATOM      8  C   UNL     1     134.283 131.726 143.992  1.00  0.00     0.007 C 
ENDBRANCH   3   6
ENDBRANCH   2   3
ENDBRANCH   1   2
BRANCH   1   9
ATOM      9  C   UNL     1     132.133 132.161 138.346  1.00  0.00    -0.011 C 
ATOM     10  C   UNL     1     131.384 132.974 137.267  1.00  0.00     0.008 C 
BRANCH   9  11
ATOM     11  C   UNL     1     133.485 131.571 137.803  1.00  0.00    -0.002 C 
ATOM     12  C   UNL     1     134.095 132.394 136.662  1.00  0.00     0.005 C 
ATOM     13  C   UNL     1     133.496 130.064 137.290  1.00  0.00    -0.026 C 
ATOM     14  C   UNL     1     135.023 131.443 135.945  1.00  0.00     0.005 C 
ATOM     15  C   UNL     1     134.242 130.140 135.912  1.00  0.00    -0.001 C 
ATOM     16  C   UNL     1     134.252 129.174 138.324  1.00  0.00     0.007 C 
ATOM     17  C   UNL     1     132.072 129.481 137.066  1.00  0.00     0.012 C 
ATOM     18  C   UNL     1     135.123 128.926 135.464  1.00  0.00     0.000 C 
ATOM     19  C   UNL     1     134.842 127.886 137.747  1.00  0.00     0.005 C 
ATOM     20  C   UNL     1     135.855 128.214 136.629  1.00  0.00     0.003 C 
ATOM     21  C   UNL     1     134.298 127.930 134.629  1.00  0.00     0.031 C 
ATOM     22  C   UNL     1     136.750 127.006 136.112  1.00  0.00    -0.008 C 
ATOM     23  C   UNL     1     135.062 126.697 134.257  1.00  0.00    -0.027 C 
ATOM     24  C   UNL     1     136.084 126.206 134.983  1.00  0.00    -0.065 C 
ATOM     25  C   UNL     1     137.099 126.010 137.267  1.00  0.00     0.014 C 
ATOM     26  C   UNL     1     138.072 127.608 135.556  1.00  0.00     0.016 C 
ATOM     27  C   UNL     1     136.741 124.912 134.530  1.00  0.00     0.063 C 
ATOM     28  C   UNL     1     137.845 124.750 136.803  1.00  0.00     0.033 C 
ATOM     29  C   UNL     1     137.050 123.997 135.721  1.00  0.00     0.118 C 
BRANCH  29  30
ATOM     30  O   UNL     1     135.846 123.500 136.246  1.00  0.00    -0.393 OA
ATOM     31  H   UNL     1     135.818 123.765 137.203  1.00  0.00     0.210 HD
ENDBRANCH  29  30
ENDBRANCH   9  11
ENDBRANCH   1   9
TORSDOF 7
ENDMDL
MODEL 5
REMARK VINA RESULT:    -6.117      2.245      7.213
REMARK INTER + INTRA:          -9.599
REMARK INTER:                  -7.901
REMARK INTRA:                  -1.698
REMARK UNBOUND:                -1.158
REMARK SMILES CC[C@H](CC[C@@H](C)[C@@H]1CC[C@H]2[C@@H]3CC=C4C[C@H](O)CC[C@]4(C)[C@@H]3CC[C@]21C)C(C)C
REMARK SMILES IDX 5 1 4 2 3 3 2 4 1 5 28 6 29 7 30 8 6 9 7 10 8 11 9 12 26 13
REMARK SMILES IDX 10 14 11 15 25 16 27 17 12 18 24 19 23 20 13 21 21 22 14 23
REMARK SMILES IDX 15 24 20 25 22 26 16 27 19 28 17 29 18 30
REMARK H PARENT 18 31
REMARK Flexibility Score: inf
ROOT
ATOM      1  C   UNL     1     133.215 131.228 135.547  1.00  0.00     0.004 C 
ENDROOT
BRANCH   1   2
ATOM      2  C   UNL     1     133.727 129.774 135.518  1.00  0.00     0.004 C 
BRANCH   2   3
ATOM      3  C   UNL     1     135.211 129.668 135.056  1.00  0.00    -0.009 C 
BRANCH   3   4
ATOM      4  C   UNL     1     136.133 130.584 135.922  1.00  0.00     0.000 C 
ATOM      5  C   UNL     1     136.901 131.655 135.136  1.00  0.00     0.004 C 
ENDBRANCH   3   4
BRANCH   3   6
ATOM      6  C   UNL     1     135.690 128.172 134.984  1.00  0.00    -0.014 C 
ATOM      7  C   UNL     1     135.393 127.507 133.624  1.00  0.00     0.007 C 
ATOM      8  C   UNL     1     135.027 127.311 136.083  1.00  0.00     0.007 C 
ENDBRANCH   3   6
ENDBRANCH   2   3
ENDBRANCH   1   2
BRANCH   1   9
ATOM      9  C   UNL     1     132.167 131.467 136.669  1.00  0.00    -0.011 C 
ATOM     10  C   UNL     1     130.773 131.594 136.014  1.00  0.00     0.008 C 
BRANCH   9  11
ATOM     11  C   UNL     1     132.214 130.308 137.729  1.00  0.00    -0.002 C 
ATOM     12  C   UNL     1     130.830 129.904 138.253  1.00  0.00     0.005 C 
ATOM     13  C   UNL     1     133.113 130.511 139.027  1.00  0.00    -0.026 C 
ATOM     14  C   UNL     1     131.094 129.219 139.572  1.00  0.00     0.005 C 
ATOM     15  C   UNL     1     132.176 130.076 140.207  1.00  0.00    -0.001 C 
ATOM     16  C   UNL     1     134.384 129.612 138.917  1.00  0.00     0.007 C 
ATOM     17  C   UNL     1     133.554 131.986 139.244  1.00  0.00     0.012 C 
ATOM     18  C   UNL     1     132.814 129.397 141.465  1.00  0.00     0.000 C 
ATOM     19  C   UNL     1     135.027 129.250 140.257  1.00  0.00     0.005 C 
ATOM     20  C   UNL     1     134.022 128.481 141.143  1.00  0.00     0.003 C 
ATOM     21  C   UNL     1     133.178 130.449 142.530  1.00  0.00     0.031 C 
ATOM     22  C   UNL     1     134.614 127.804 142.455  1.00  0.00    -0.008 C 
ATOM     23  C   UNL     1     133.886 129.869 143.715  1.00  0.00    -0.027 C 
ATOM     24  C   UNL     1     134.633 128.750 143.663  1.00  0.00    -0.065 C 
ATOM     25  C   UNL     1     136.071 127.283 142.228  1.00  0.00     0.014 C 
ATOM     26  C   UNL     1     133.701 126.595 142.808  1.00  0.00     0.016 C 
ATOM     27  C   UNL     1     135.349 128.297 144.925  1.00  0.00     0.063 C 
ATOM     28  C   UNL     1     136.748 126.742 143.497  1.00  0.00     0.033 C 
ATOM     29  C   UNL     1     136.766 127.801 144.614  1.00  0.00     0.118 C 
BRANCH  29  30
ATOM     30  O   UNL     1     137.567 128.894 144.246  1.00  0.00    -0.393 OA
ATOM     31  H   UNL     1     137.168 129.280 143.422  1.00  0.00     0.210 HD
ENDBRANCH  29  30
ENDBRANCH   9  11
ENDBRANCH   1   9
TORSDOF 7
ENDMDL
MODEL 6
REMARK VINA RESULT:    -5.974      2.329      4.661
REMARK INTER + INTRA:          -9.403
REMARK INTER:                  -9.464
REMARK INTRA:                   0.061
REMARK UNBOUND:                -1.158
REMARK SMILES CC[C@H](CC[C@@H](C)[C@@H]1CC[C@H]2[C@@H]3CC=C4C[C@H](O)CC[C@]4(C)[C@@H]3CC[C@]21C)C(C)C
REMARK SMILES IDX 5 1 4 2 3 3 2 4 1 5 28 6 29 7 30 8 6 9 7 10 8 11 9 12 26 13
REMARK SMILES IDX 10 14 11 15 25 16 27 17 12 18 24 19 23 20 13 21 21 22 14 23
REMARK SMILES IDX 15 24 20 25 22 26 16 27 19 28 17 29 18 30
REMARK H PARENT 18 31
REMARK Flexibility Score: inf
ROOT
ATOM      1  C   UNL     1     133.498 133.132 141.079  1.00  0.00     0.004 C 
ENDROOT
BRANCH   1   2
ATOM      2  C   UNL     1     134.314 133.920 142.123  1.00  0.00     0.004 C 
BRANCH   2   3
ATOM      3  C   UNL     1     133.622 133.964 143.519  1.00  0.00    -0.009 C 
BRANCH   3   4
ATOM      4  C   UNL     1     134.266 132.929 144.495  1.00  0.00     0.000 C 
ATOM      5  C   UNL     1     134.083 131.460 144.091  1.00  0.00     0.004 C 
ENDBRANCH   3   4
BRANCH   3   6
ATOM      6  C   UNL     1     133.565 135.427 144.092  1.00  0.00    -0.014 C 
ATOM      7  C   UNL     1     134.744 135.755 145.032  1.00  0.00     0.007 C 
ATOM      8  C   UNL     1     132.256 135.678 144.875  1.00  0.00     0.007 C 
ENDBRANCH   3   6
ENDBRANCH   2   3
ENDBRANCH   1   2
BRANCH   1   9
ATOM      9  C   UNL     1     133.669 133.698 139.642  1.00  0.00    -0.011 C 
ATOM     10  C   UNL     1     135.109 134.237 139.498  1.00  0.00     0.008 C 
BRANCH   9  11
ATOM     11  C   UNL     1     133.345 132.595 138.569  1.00  0.00    -0.002 C 
ATOM     12  C   UNL     1     131.920 132.038 138.678  1.00  0.00     0.005 C 
ATOM     13  C   UNL     1     134.293 131.318 138.493  1.00  0.00    -0.026 C 
ATOM     14  C   UNL     1     131.969 130.698 137.985  1.00  0.00     0.005 C 
ATOM     15  C   UNL     1     133.293 130.110 138.440  1.00  0.00    -0.001 C 
ATOM     16  C   UNL     1     135.178 131.411 137.211  1.00  0.00     0.007 C 
ATOM     17  C   UNL     1     135.215 131.163 139.735  1.00  0.00     0.012 C 
ATOM     18  C   UNL     1     133.694 128.836 137.624  1.00  0.00     0.000 C 
ATOM     19  C   UNL     1     135.692 130.067 136.693  1.00  0.00     0.005 C 
ATOM     20  C   UNL     1     134.508 129.139 136.341  1.00  0.00     0.003 C 
ATOM     21  C   UNL     1     134.421 127.817 138.521  1.00  0.00     0.031 C 
ATOM     22  C   UNL     1     134.867 127.811 135.543  1.00  0.00    -0.008 C 
ATOM     23  C   UNL     1     134.919 126.620 137.770  1.00  0.00    -0.027 C 
ATOM     24  C   UNL     1     135.238 126.640 136.463  1.00  0.00    -0.065 C 
ATOM     25  C   UNL     1     136.053 128.038 134.549  1.00  0.00     0.014 C 
ATOM     26  C   UNL     1     133.606 127.401 134.730  1.00  0.00     0.016 C 
ATOM     27  C   UNL     1     135.788 125.371 135.831  1.00  0.00     0.063 C 
ATOM     28  C   UNL     1     136.537 126.758 133.849  1.00  0.00     0.033 C 
ATOM     29  C   UNL     1     136.943 125.682 134.872  1.00  0.00     0.118 C 
BRANCH  29  30
ATOM     30  O   UNL     1     138.060 126.101 135.614  1.00  0.00    -0.393 OA
ATOM     31  H   UNL     1     137.715 126.646 136.371  1.00  0.00     0.210 HD
ENDBRANCH  29  30
ENDBRANCH   9  11
ENDBRANCH   1   9
TORSDOF 7
ENDMDL
MODEL 7
REMARK VINA RESULT:    -5.807      2.204      4.334
REMARK INTER + INTRA:          -9.172
REMARK INTER:                  -7.679
REMARK INTRA:                  -1.492
REMARK UNBOUND:                -1.158
REMARK SMILES CC[C@H](CC[C@@H](C)[C@@H]1CC[C@H]2[C@@H]3CC=C4C[C@H](O)CC[C@]4(C)[C@@H]3CC[C@]21C)C(C)C
REMARK SMILES IDX 5 1 4 2 3 3 2 4 1 5 28 6 29 7 30 8 6 9 7 10 8 11 9 12 26 13
REMARK SMILES IDX 10 14 11 15 25 16 27 17 12 18 24 19 23 20 13 21 21 22 14 23
REMARK SMILES IDX 15 24 20 25 22 26 16 27 19 28 17 29 18 30
REMARK H PARENT 18 31
REMARK Flexibility Score: inf
ROOT
ATOM      1  C   UNL     1     135.071 125.168 143.513  1.00  0.00     0.004 C 
ENDROOT
BRANCH   1   2
ATOM      2  C   UNL     1     135.994 126.388 143.324  1.00  0.00     0.004 C 
BRANCH   2   3
ATOM      3  C   UNL     1     135.632 127.568 144.276  1.00  0.00    -0.009 C 
BRANCH   3   4
ATOM      4  C   UNL     1     136.794 127.855 145.278  1.00  0.00     0.000 C 
ATOM      5  C   UNL     1     138.190 127.458 144.780  1.00  0.00     0.004 C 
ENDBRANCH   3   4
BRANCH   3   6
ATOM      6  C   UNL     1     135.157 128.835 143.474  1.00  0.00    -0.014 C 
ATOM      7  C   UNL     1     136.020 130.084 143.750  1.00  0.00     0.007 C 
ATOM      8  C   UNL     1     133.690 129.195 143.801  1.00  0.00     0.007 C 
ENDBRANCH   3   6
ENDBRANCH   2   3
ENDBRANCH   1   2
BRANCH   1   9
ATOM      9  C   UNL     1     134.182 124.898 142.267  1.00  0.00    -0.011 C 
ATOM     10  C   UNL     1     133.055 123.922 142.675  1.00  0.00     0.008 C 
BRANCH   9  11
ATOM     11  C   UNL     1     133.612 126.245 141.690  1.00  0.00    -0.002 C 
ATOM     12  C   UNL     1     132.082 126.262 141.582  1.00  0.00     0.005 C 
ATOM     13  C   UNL     1     134.141 126.740 140.272  1.00  0.00    -0.026 C 
ATOM     14  C   UNL     1     131.773 127.333 140.563  1.00  0.00     0.005 C 
ATOM     15  C   UNL     1     132.834 127.125 139.495  1.00  0.00    -0.001 C 
ATOM     16  C   UNL     1     135.090 127.962 140.477  1.00  0.00     0.007 C 
ATOM     17  C   UNL     1     134.899 125.637 139.481  1.00  0.00     0.012 C 
ATOM     18  C   UNL     1     132.888 128.305 138.469  1.00  0.00     0.000 C 
ATOM     19  C   UNL     1     135.214 128.883 139.262  1.00  0.00     0.005 C 
ATOM     20  C   UNL     1     133.832 129.461 138.885  1.00  0.00     0.003 C 
ATOM     21  C   UNL     1     133.224 127.788 137.057  1.00  0.00     0.031 C 
ATOM     22  C   UNL     1     133.829 130.638 137.816  1.00  0.00    -0.008 C 
ATOM     23  C   UNL     1     133.390 128.885 136.051  1.00  0.00    -0.027 C 
ATOM     24  C   UNL     1     133.780 130.134 136.367  1.00  0.00    -0.065 C 
ATOM     25  C   UNL     1     135.087 131.555 137.964  1.00  0.00     0.014 C 
ATOM     26  C   UNL     1     132.555 131.494 138.069  1.00  0.00     0.016 C 
ATOM     27  C   UNL     1     133.967 131.141 135.244  1.00  0.00     0.063 C 
ATOM     28  C   UNL     1     135.212 132.629 136.872  1.00  0.00     0.033 C 
ATOM     29  C   UNL     1     135.218 131.999 135.468  1.00  0.00     0.118 C 
BRANCH  29  30
ATOM     30  O   UNL     1     136.361 131.202 135.288  1.00  0.00    -0.393 OA
ATOM     31  H   UNL     1     136.931 131.662 134.616  1.00  0.00     0.210 HD
ENDBRANCH  29  30
ENDBRANCH   9  11
ENDBRANCH   1   9
TORSDOF 7
ENDMDL
MODEL 8
REMARK VINA RESULT:    -5.718      2.068      4.056
REMARK INTER + INTRA:          -9.048
REMARK INTER:                  -8.652
REMARK INTRA:                  -0.396
REMARK UNBOUND:                -1.158
REMARK SMILES CC[C@H](CC[C@@H](C)[C@@H]1CC[C@H]2[C@@H]3CC=C4C[C@H](O)CC[C@]4(C)[C@@H]3CC[C@]21C)C(C)C
REMARK SMILES IDX 5 1 4 2 3 3 2 4 1 5 28 6 29 7 30 8 6 9 7 10 8 11 9 12 26 13
REMARK SMILES IDX 10 14 11 15 25 16 27 17 12 18 24 19 23 20 13 21 21 22 14 23
REMARK SMILES IDX 15 24 20 25 22 26 16 27 19 28 17 29 18 30
REMARK H PARENT 18 31
REMARK Flexibility Score: inf
ROOT
ATOM      1  C   UNL     1     133.378 132.967 141.026  1.00  0.00     0.004 C 
ENDROOT
BRANCH   1   2
ATOM      2  C   UNL     1     134.268 133.684 142.061  1.00  0.00     0.004 C 
BRANCH   2   3
ATOM      3  C   UNL     1     134.388 132.895 143.400  1.00  0.00    -0.009 C 
BRANCH   3   4
ATOM      4  C   UNL     1     133.407 133.463 144.474  1.00  0.00     0.000 C 
ATOM      5  C   UNL     1     133.072 134.952 144.320  1.00  0.00     0.004 C 
ENDBRANCH   3   4
BRANCH   3   6
ATOM      6  C   UNL     1     134.255 131.345 143.174  1.00  0.00    -0.014 C 
ATOM      7  C   UNL     1     133.199 130.689 144.087  1.00  0.00     0.007 C 
ATOM      8  C   UNL     1     135.599 130.620 143.413  1.00  0.00     0.007 C 
ENDBRANCH   3   6
ENDBRANCH   2   3
ENDBRANCH   1   2
BRANCH   1   9
ATOM      9  C   UNL     1     133.536 133.557 139.597  1.00  0.00    -0.011 C 
ATOM     10  C   UNL     1     134.965 134.129 139.462  1.00  0.00     0.008 C 
BRANCH   9  11
ATOM     11  C   UNL     1     133.236 132.463 138.509  1.00  0.00    -0.002 C 
ATOM     12  C   UNL     1     131.817 131.888 138.597  1.00  0.00     0.005 C 
ATOM     13  C   UNL     1     134.199 131.198 138.426  1.00  0.00    -0.026 C 
ATOM     14  C   UNL     1     131.888 130.557 137.889  1.00  0.00     0.005 C 
ATOM     15  C   UNL     1     133.215 129.979 138.350  1.00  0.00    -0.001 C 
ATOM     16  C   UNL     1     135.095 131.316 137.154  1.00  0.00     0.007 C 
ATOM     17  C   UNL     1     135.112 131.040 139.675  1.00  0.00     0.012 C 
ATOM     18  C   UNL     1     133.639 128.720 137.523  1.00  0.00     0.000 C 
ATOM     19  C   UNL     1     135.631 129.985 136.626  1.00  0.00     0.005 C 
ATOM     20  C   UNL     1     134.462 129.047 136.252  1.00  0.00     0.003 C 
ATOM     21  C   UNL     1     134.369 127.699 138.415  1.00  0.00     0.031 C 
ATOM     22  C   UNL     1     134.844 127.733 135.442  1.00  0.00    -0.008 C 
ATOM     23  C   UNL     1     134.888 126.517 137.656  1.00  0.00    -0.027 C 
ATOM     24  C   UNL     1     135.220 126.556 136.351  1.00  0.00    -0.065 C 
ATOM     25  C   UNL     1     136.036 127.985 134.462  1.00  0.00     0.014 C 
ATOM     26  C   UNL     1     133.595 127.318 134.612  1.00  0.00     0.016 C 
ATOM     27  C   UNL     1     135.791 125.301 135.710  1.00  0.00     0.063 C 
ATOM     28  C   UNL     1     136.542 126.720 133.752  1.00  0.00     0.033 C 
ATOM     29  C   UNL     1     136.951 125.637 134.766  1.00  0.00     0.118 C 
BRANCH  29  30
ATOM     30  O   UNL     1     138.056 126.061 135.524  1.00  0.00    -0.393 OA
ATOM     31  H   UNL     1     138.865 125.898 134.971  1.00  0.00     0.210 HD
ENDBRANCH  29  30
ENDBRANCH   9  11
ENDBRANCH   1   9
TORSDOF 7
ENDMDL
MODEL 9
REMARK VINA RESULT:    -5.651      2.389      7.256
REMARK INTER + INTRA:          -8.956
REMARK INTER:                  -7.473
REMARK INTRA:                  -1.483
REMARK UNBOUND:                -1.158
REMARK SMILES CC[C@H](CC[C@@H](C)[C@@H]1CC[C@H]2[C@@H]3CC=C4C[C@H](O)CC[C@]4(C)[C@@H]3CC[C@]21C)C(C)C
REMARK SMILES IDX 5 1 4 2 3 3 2 4 1 5 28 6 29 7 30 8 6 9 7 10 8 11 9 12 26 13
REMARK SMILES IDX 10 14 11 15 25 16 27 17 12 18 24 19 23 20 13 21 21 22 14 23
REMARK SMILES IDX 15 24 20 25 22 26 16 27 19 28 17 29 18 30
REMARK H PARENT 18 31
REMARK Flexibility Score: inf
ROOT
ATOM      1  C   UNL     1     133.230 129.357 135.472  1.00  0.00     0.004 C 
ENDROOT
BRANCH   1   2
ATOM      2  C   UNL     1     134.714 128.944 135.526  1.00  0.00     0.004 C 
BRANCH   2   3
ATOM      3  C   UNL     1     134.906 127.400 135.618  1.00  0.00    -0.009 C 
BRANCH   3   4
ATOM      4  C   UNL     1     135.318 126.804 134.235  1.00  0.00     0.000 C 
ATOM      5  C   UNL     1     135.748 127.840 133.188  1.00  0.00     0.004 C 
ENDBRANCH   3   4
BRANCH   3   6
ATOM      6  C   UNL     1     135.872 127.004 136.794  1.00  0.00    -0.014 C 
ATOM      7  C   UNL     1     137.350 126.920 136.360  1.00  0.00     0.007 C 
ATOM      8  C   UNL     1     135.485 125.641 137.411  1.00  0.00     0.007 C 
ENDBRANCH   3   6
ENDBRANCH   2   3
ENDBRANCH   1   2
BRANCH   1   9
ATOM      9  C   UNL     1     132.945 130.656 136.277  1.00  0.00    -0.011 C 
ATOM     10  C   UNL     1     131.748 131.381 135.624  1.00  0.00     0.008 C 
BRANCH   9  11
ATOM     11  C   UNL     1     132.677 130.324 137.790  1.00  0.00    -0.002 C 
ATOM     12  C   UNL     1     131.620 131.230 138.434  1.00  0.00     0.005 C 
ATOM     13  C   UNL     1     133.912 130.336 138.794  1.00  0.00    -0.026 C 
ATOM     14  C   UNL     1     131.880 131.142 139.919  1.00  0.00     0.005 C 
ATOM     15  C   UNL     1     133.396 131.172 140.017  1.00  0.00    -0.001 C 
ATOM     16  C   UNL     1     134.268 128.869 139.188  1.00  0.00     0.007 C 
ATOM     17  C   UNL     1     135.176 131.023 138.204  1.00  0.00     0.012 C 
ATOM     18  C   UNL     1     133.909 130.807 141.450  1.00  0.00     0.000 C 
ATOM     19  C   UNL     1     135.000 128.727 140.523  1.00  0.00     0.005 C 
ATOM     20  C   UNL     1     134.134 129.290 141.672  1.00  0.00     0.003 C 
ATOM     21  C   UNL     1     135.170 131.617 141.803  1.00  0.00     0.031 C 
ATOM     22  C   UNL     1     134.634 128.978 143.149  1.00  0.00    -0.008 C 
ATOM     23  C   UNL     1     135.766 131.236 143.123  1.00  0.00    -0.027 C 
ATOM     24  C   UNL     1     135.634 130.016 143.676  1.00  0.00    -0.065 C 
ATOM     25  C   UNL     1     135.306 127.569 143.245  1.00  0.00     0.014 C 
ATOM     26  C   UNL     1     133.386 129.000 144.077  1.00  0.00     0.016 C 
ATOM     27  C   UNL     1     136.337 129.737 144.994  1.00  0.00     0.063 C 
ATOM     28  C   UNL     1     135.932 127.266 144.615  1.00  0.00     0.033 C 
ATOM     29  C   UNL     1     136.965 128.339 145.006  1.00  0.00     0.118 C 
BRANCH  29  30
ATOM     30  O   UNL     1     138.059 128.317 144.124  1.00  0.00    -0.393 OA
ATOM     31  H   UNL     1     138.873 128.475 144.671  1.00  0.00     0.210 HD
ENDBRANCH  29  30
ENDBRANCH   9  11
ENDBRANCH   1   9
TORSDOF 7
ENDMDL
