MODEL 1
REMARK VINA RESULT:    58.664      0.000      0.000
REMARK INTER + INTRA:          79.964
REMARK INTER:                  80.956
REMARK INTRA:                  -0.992
REMARK UNBOUND:                -0.992
REMARK SMILES CC[C@H](CC[C@@H](C)[C@H]1CC[C@H]2[C@H]3CC=C4C[C@H](O)CC[C@@]4(C)[C@H]3CC[C@@]12C)C(C)C
REMARK SMILES IDX 5 1 4 2 3 3 2 4 1 5 28 6 29 7 30 8 6 9 7 10 8 11 9 12 26 13
REMARK SMILES IDX 10 14 11 15 25 16 27 17 12 18 24 19 23 20 13 21 21 22 14 23
REMARK SMILES IDX 15 24 20 25 22 26 16 27 19 28 17 29 18 30
REMARK H PARENT 18 31
REMARK Flexibility Score: inf
ROOT
ATOM      1  C   UNL     1     -30.895  31.401  -2.379  1.00  0.00     0.004 C 
ENDROOT
BRANCH   1   2
ATOM      2  C   UNL     1     -32.083  31.122  -3.337  1.00  0.00     0.004 C 
BRANCH   2   3
ATOM      3  C   UNL     1     -33.139  30.085  -2.839  1.00  0.00    -0.009 C 
BRANCH   3   4
ATOM      4  C   UNL     1     -32.899  29.653  -1.367  1.00  0.00     0.000 C 
ATOM      5  C   UNL     1     -32.332  28.237  -1.226  1.00  0.00     0.004 C 
ENDBRANCH   3   4
BRANCH   3   6
ATOM      6  C   UNL     1     -34.628  30.475  -3.139  1.00  0.00    -0.014 C 
ATOM      7  C   UNL     1     -35.011  30.427  -4.625  1.00  0.00     0.007 C 
ATOM      8  C   UNL     1     -35.622  29.638  -2.315  1.00  0.00     0.007 C 
ENDBRANCH   3   6
ENDBRANCH   2   3
ENDBRANCH   1   2
BRANCH   1   9
ATOM      9  C   UNL     1     -29.786  32.305  -3.003  1.00  0.00    -0.011 C 
ATOM     10  C   UNL     1     -29.713  33.634  -2.219  1.00  0.00     0.008 C 
BRANCH   9  11
ATOM     11  C   UNL     1     -28.375  31.592  -3.016  1.00  0.00    -0.002 C 
ATOM     12  C   UNL     1     -28.465  30.068  -3.135  1.00  0.00     0.005 C 
ATOM     13  C   UNL     1     -27.334  32.008  -4.127  1.00  0.00    -0.026 C 
ATOM     14  C   UNL     1     -27.080  29.598  -3.519  1.00  0.00     0.005 C 
ATOM     15  C   UNL     1     -26.472  30.718  -4.367  1.00  0.00    -0.001 C 
ATOM     16  C   UNL     1     -28.013  32.462  -5.450  1.00  0.00     0.007 C 
ATOM     17  C   UNL     1     -26.413  33.145  -3.602  1.00  0.00     0.012 C 
ATOM     18  C   UNL     1     -26.221  30.322  -5.860  1.00  0.00     0.000 C 
ATOM     19  C   UNL     1     -27.044  32.622  -6.637  1.00  0.00     0.005 C 
ATOM     20  C   UNL     1     -25.887  31.578  -6.700  1.00  0.00     0.003 C 
ATOM     21  C   UNL     1     -27.316  29.443  -6.536  1.00  0.00     0.031 C 
ATOM     22  C   UNL     1     -25.500  31.168  -8.167  1.00  0.00    -0.008 C 
ATOM     23  C   UNL     1     -27.460  29.618  -8.035  1.00  0.00    -0.027 C 
ATOM     24  C   UNL     1     -26.668  30.414  -8.789  1.00  0.00    -0.065 C 
ATOM     25  C   UNL     1     -25.170  32.430  -9.023  1.00  0.00     0.014 C 
ATOM     26  C   UNL     1     -24.247  30.246  -8.151  1.00  0.00     0.016 C 
ATOM     27  C   UNL     1     -27.068  30.701 -10.221  1.00  0.00     0.063 C 
ATOM     28  C   UNL     1     -24.947  32.132 -10.521  1.00  0.00     0.033 C 
ATOM     29  C   UNL     1     -25.853  31.015 -11.104  1.00  0.00     0.118 C 
BRANCH  29  30
ATOM     30  O   UNL     1     -25.114  29.836 -11.298  1.00  0.00    -0.393 OA
ATOM     31  H   UNL     1     -24.186  30.022 -10.996  1.00  0.00     0.210 HD
ENDBRANCH  29  30
ENDBRANCH   9  11
ENDBRANCH   1   9
TORSDOF 7
ENDMDL
MODEL 2
REMARK VINA RESULT:    60.390      2.948      8.702
REMARK INTER + INTRA:          82.345
REMARK INTER:                  83.327
REMARK INTRA:                  -0.982
REMARK UNBOUND:                -0.992
REMARK SMILES CC[C@H](CC[C@@H](C)[C@H]1CC[C@H]2[C@H]3CC=C4C[C@H](O)CC[C@@]4(C)[C@H]3CC[C@@]12C)C(C)C
REMARK SMILES IDX 5 1 4 2 3 3 2 4 1 5 28 6 29 7 30 8 6 9 7 10 8 11 9 12 26 13
REMARK SMILES IDX 10 14 11 15 25 16 27 17 12 18 24 19 23 20 13 21 21 22 14 23
REMARK SMILES IDX 15 24 20 25 22 26 16 27 19 28 17 29 18 30
REMARK H PARENT 18 31
REMARK Flexibility Score: inf
ROOT
ATOM      1  C   UNL     1     -27.583  31.346  -5.207  1.00  0.00     0.004 C 
ENDROOT
BRANCH   1   2
ATOM      2  C   UNL     1     -26.202  31.268  -5.910  1.00  0.00     0.004 C 
BRANCH   2   3
ATOM      3  C   UNL     1     -26.173  30.538  -7.290  1.00  0.00    -0.009 C 
BRANCH   3   4
ATOM      4  C   UNL     1     -27.510  29.814  -7.607  1.00  0.00     0.000 C 
ATOM      5  C   UNL     1     -27.610  28.413  -6.998  1.00  0.00     0.004 C 
ENDBRANCH   3   4
BRANCH   3   6
ATOM      6  C   UNL     1     -25.640  31.411  -8.479  1.00  0.00    -0.014 C 
ATOM      7  C   UNL     1     -24.113  31.566  -8.519  1.00  0.00     0.007 C 
ATOM      8  C   UNL     1     -26.151  30.909  -9.840  1.00  0.00     0.007 C 
ENDBRANCH   3   6
ENDBRANCH   2   3
ENDBRANCH   1   2
BRANCH   1   9
ATOM      9  C   UNL     1     -27.538  30.961  -3.695  1.00  0.00    -0.011 C 
ATOM     10  C   UNL     1     -26.081  31.054  -3.190  1.00  0.00     0.008 C 
BRANCH   9  11
ATOM     11  C   UNL     1     -28.486  31.875  -2.820  1.00  0.00    -0.002 C 
ATOM     12  C   UNL     1     -29.112  33.030  -3.606  1.00  0.00     0.005 C 
ATOM     13  C   UNL     1     -29.707  31.200  -2.081  1.00  0.00    -0.026 C 
ATOM     14  C   UNL     1     -30.252  33.543  -2.755  1.00  0.00     0.005 C 
ATOM     15  C   UNL     1     -30.792  32.331  -1.993  1.00  0.00    -0.001 C 
ATOM     16  C   UNL     1     -30.266  29.967  -2.845  1.00  0.00     0.007 C 
ATOM     17  C   UNL     1     -29.297  30.776  -0.643  1.00  0.00     0.012 C 
ATOM     18  C   UNL     1     -32.249  31.923  -2.396  1.00  0.00     0.000 C 
ATOM     19  C   UNL     1     -31.610  29.442  -2.303  1.00  0.00     0.005 C 
ATOM     20  C   UNL     1     -32.602  30.538  -1.804  1.00  0.00     0.003 C 
ATOM     21  C   UNL     1     -32.599  32.016  -3.912  1.00  0.00     0.031 C 
ATOM     22  C   UNL     1     -34.107  30.188  -2.090  1.00  0.00    -0.008 C 
ATOM     23  C   UNL     1     -33.658  31.045  -4.397  1.00  0.00    -0.027 C 
ATOM     24  C   UNL     1     -34.333  30.191  -3.596  1.00  0.00    -0.065 C 
ATOM     25  C   UNL     1     -34.469  28.789  -1.503  1.00  0.00     0.014 C 
ATOM     26  C   UNL     1     -35.036  31.250  -1.433  1.00  0.00     0.016 C 
ATOM     27  C   UNL     1     -35.174  29.102  -4.229  1.00  0.00     0.063 C 
ATOM     28  C   UNL     1     -35.880  28.292  -1.887  1.00  0.00     0.033 C 
ATOM     29  C   UNL     1     -36.335  28.673  -3.321  1.00  0.00     0.118 C 
BRANCH  29  30
ATOM     30  O   UNL     1     -37.284  29.708  -3.275  1.00  0.00    -0.393 OA
ATOM     31  H   UNL     1     -36.927  30.402  -2.661  1.00  0.00     0.210 HD
ENDBRANCH  29  30
ENDBRANCH   9  11
ENDBRANCH   1   9
TORSDOF 7
ENDMDL
