MODEL 1
REMARK VINA RESULT:    14.284      0.000      0.000
REMARK INTER + INTRA:          34.249
REMARK INTER:                  30.151
REMARK INTRA:                   4.098
REMARK UNBOUND:                 4.098
REMARK SMILES CCC(=O)CCCCC[C@H]1NC(=O)[C@@H]2CCCCN2C(=O)[C@@H]([C@@H](C)CC)NC(=O)[C@H](Cc2cn(OC)c3ccccc23)NC1=O
REMARK SMILES IDX 9 1 10 2 44 3 43 4 45 6 30 7 28 8 27 9 29 11 22 12 23 14
REMARK SMILES IDX 24 15 25 16 26 17 31 18 32 19 33 20 42 21 34 22 37 23 41 24
REMARK SMILES IDX 38 25 40 26 39 27 35 28 36 29 11 30 12 31 13 33 14 34 19 35
REMARK SMILES IDX 15 36 18 37 16 38 17 39 20 40 21 41 8 43 7 44 6 45 5 46 3 47
REMARK SMILES IDX 4 48 2 49 1 50
REMARK H PARENT 43 5 27 10 11 32
REMARK Flexibility Score: 80.00
ROOT
ATOM      1  C   UNL     1      12.456   9.699 -20.023  1.00  0.00     0.035 C 
ENDROOT
BRANCH   1   2
ATOM      2  C   UNL     1      11.222  10.232 -19.255  1.00  0.00     0.171 C 
BRANCH   2   3
ATOM      3  C   UNL     1      10.252  11.041 -20.085  1.00  0.00     0.243 C 
ATOM      4  N   UNL     1      10.260  12.481 -20.101  1.00  0.00    -0.342 N 
ATOM      5  H   UNL     1      11.148  12.990 -19.896  1.00  0.00     0.164 HD
ATOM      6  O   UNL     1       9.410  10.420 -20.787  1.00  0.00    -0.273 OA
BRANCH   4   7
ATOM      7  C   UNL     1       9.030  13.279 -20.160  1.00  0.00     0.175 C 
BRANCH   7   8
ATOM      8  C   UNL     1       8.945  14.149 -18.923  1.00  0.00     0.243 C 
ATOM      9  N   UNL     1       8.567  13.645 -17.620  1.00  0.00    -0.342 N 
ATOM     10  H   UNL     1       8.122  12.705 -17.554  1.00  0.00     0.164 HD
ATOM     11  O   UNL     1       9.234  15.363 -19.070  1.00  0.00    -0.273 OA
BRANCH   9  12
ATOM     12  C   UNL     1       8.914  14.271 -16.329  1.00  0.00     0.174 CG0
ATOM     13  G   UNL     1      10.438  14.349 -16.241  1.00  0.00     0.000 G0
BRANCH  12  14
ATOM     14  C   UNL     1       8.054  15.563 -16.057  1.00  0.00     0.018 C 
ATOM     15  C   UNL     1       6.834  15.620 -17.010  1.00  0.00     0.010 C 
BRANCH  14  16
ATOM     16  C   UNL     1       7.543  15.764 -14.607  1.00  0.00     0.002 C 
ATOM     17  C   UNL     1       6.059  16.125 -14.469  1.00  0.00     0.004 C 
ENDBRANCH  14  16
ENDBRANCH  12  14
ENDBRANCH   9  12
ENDBRANCH   7   8
BRANCH   7  18
ATOM     18  C   UNL     1       7.802  12.388 -20.456  1.00  0.00     0.073 C 
BRANCH  18  19
ATOM     19  C   UNL     1       6.670  13.150 -21.103  1.00  0.00    -0.016 A 
ATOM     20  C   UNL     1       6.085  14.336 -20.651  1.00  0.00     0.134 A 
ATOM     21  C   UNL     1       6.046  12.865 -22.309  1.00  0.00     0.006 A 
ATOM     22  N   UNL     1       5.130  14.741 -21.523  1.00  0.00    -0.191 N 
ATOM     23  C   UNL     1       5.114  13.848 -22.527  1.00  0.00     0.087 A 
ATOM     24  C   UNL     1       6.236  11.825 -23.223  1.00  0.00     0.011 A 
ATOM     25  C   UNL     1       4.303  13.857 -23.663  1.00  0.00     0.030 A 
ATOM     26  C   UNL     1       5.434  11.811 -24.379  1.00  0.00     0.001 A 
ATOM     27  C   UNL     1       4.470  12.820 -24.597  1.00  0.00     0.002 A 
BRANCH  22  28
ATOM     28  O   UNL     1       4.319  15.858 -21.433  1.00  0.00    -0.417 OA
ATOM     29  C   UNL     1       2.924  15.767 -21.165  1.00  0.00     0.313 C 
ENDBRANCH  22  28
ENDBRANCH  18  19
ENDBRANCH   7  18
ENDBRANCH   4   7
ENDBRANCH   2   3
BRANCH   2  30
ATOM     30  N   UNL     1      11.612  11.006 -18.066  1.00  0.00    -0.343 N 
ATOM     31  C   UNL     1      10.685  11.545 -17.097  1.00  0.00     0.243 C 
ATOM     32  H   UNL     1      12.639  11.120 -17.924  1.00  0.00     0.164 HD
ATOM     33  O   UNL     1       9.478  11.705 -17.411  1.00  0.00    -0.273 OA
BRANCH  31  34
ATOM     34  C   UNL     1      11.113  11.952 -15.695  1.00  0.00     0.174 C 
ATOM     35  N   UNL     1      11.241  13.421 -15.546  1.00  0.00    -0.329 N 
ATOM     36  C   UNL     1      10.189  11.392 -14.591  1.00  0.00     0.035 C 
ATOM     37  C   UNL     1      11.677  13.887 -14.217  1.00  0.00     0.120 C 
ATOM     38  C   UNL     1      10.668  11.823 -13.202  1.00  0.00     0.004 C 
ATOM     39  C   UNL     1      10.756  13.348 -13.120  1.00  0.00     0.022 C 
BRANCH  35  40
ATOM     40  C   UNL     1      10.399  14.305 -16.313  1.00  0.00     0.246 CG0
ATOM     41  O   UNL     1      10.958  15.119 -17.098  1.00  0.00    -0.272 OA
ATOM     42  G   UNL     1       8.871  14.274 -16.300  1.00  0.00     0.000 G0
ENDBRANCH  35  40
ENDBRANCH  31  34
ENDBRANCH   2  30
ENDBRANCH   1   2
BRANCH   1  43
ATOM     43  C   UNL     1      12.438   8.165 -20.134  1.00  0.00     0.003 C 
BRANCH  43  44
ATOM     44  C   UNL     1      13.365   7.517 -19.096  1.00  0.00     0.001 C 
BRANCH  44  45
ATOM     45  C   UNL     1      14.737   7.141 -19.681  1.00  0.00     0.008 C 
BRANCH  45  46
ATOM     46  C   UNL     1      14.870   7.499 -21.169  1.00  0.00     0.075 C 
BRANCH  46  47
ATOM     47  C   UNL     1      16.101   8.329 -21.422  1.00  0.00     0.132 C 
ATOM     48  O   UNL     1      17.181   7.779 -21.557  1.00  0.00    -0.300 OA
BRANCH  47  49
ATOM     49  C   UNL     1      16.024   9.830 -21.496  1.00  0.00     0.072 C 
ATOM     50  C   UNL     1      17.323  10.404 -22.055  1.00  0.00     0.012 C 
ENDBRANCH  47  49
ENDBRANCH  46  47
ENDBRANCH  45  46
ENDBRANCH  44  45
ENDBRANCH  43  44
ENDBRANCH   1  43
TORSDOF 12
ENDMDL
MODEL 2
REMARK VINA RESULT:    14.923      4.402      8.584
REMARK INTER + INTRA:          35.597
REMARK INTER:                  29.713
REMARK INTRA:                   5.884
REMARK UNBOUND:                 4.098
REMARK SMILES CCC(=O)CCCCC[C@H]1NC(=O)[C@@H]2CCCCN2C(=O)[C@@H]([C@@H](C)CC)NC(=O)[C@H](Cc2cn(OC)c3ccccc23)NC1=O
REMARK SMILES IDX 9 1 10 2 44 3 43 4 45 6 30 7 28 8 27 9 29 11 22 12 23 14
REMARK SMILES IDX 24 15 25 16 26 17 31 18 32 19 33 20 42 21 34 22 37 23 41 24
REMARK SMILES IDX 38 25 40 26 39 27 35 28 36 29 11 30 12 31 13 33 14 34 19 35
REMARK SMILES IDX 15 36 18 37 16 38 17 39 20 40 21 41 8 43 7 44 6 45 5 46 3 47
REMARK SMILES IDX 4 48 2 49 1 50
REMARK H PARENT 43 5 27 10 11 32
REMARK Flexibility Score: 80.00
ROOT
ATOM      1  C   UNL     1      14.111   5.382 -21.192  1.00  0.00     0.035 C 
ENDROOT
BRANCH   1   2
ATOM      2  C   UNL     1      14.521   6.039 -19.851  1.00  0.00     0.171 C 
BRANCH   2   3
ATOM      3  C   UNL     1      13.604   7.141 -19.371  1.00  0.00     0.243 C 
ATOM      4  N   UNL     1      12.394   7.498 -20.064  1.00  0.00    -0.342 N 
ATOM      5  H   UNL     1      11.904   6.779 -20.641  1.00  0.00     0.164 HD
ATOM      6  O   UNL     1      13.921   7.762 -18.321  1.00  0.00    -0.273 OA
BRANCH   4   7
ATOM      7  C   UNL     1      11.934   8.885 -20.193  1.00  0.00     0.175 C 
BRANCH   7   8
ATOM      8  C   UNL     1      13.082   9.744 -20.683  1.00  0.00     0.243 C 
ATOM      9  N   UNL     1      14.262   9.204 -21.322  1.00  0.00    -0.342 N 
ATOM     10  H   UNL     1      14.449   8.181 -21.251  1.00  0.00     0.164 HD
ATOM     11  O   UNL     1      12.963  10.984 -20.521  1.00  0.00    -0.273 OA
BRANCH   9  12
ATOM     12  C   UNL     1      15.159   9.949 -22.228  1.00  0.00     0.174 CG0
ATOM     13  G   UNL     1      16.389  10.372 -21.426  1.00  0.00     0.000 G0
BRANCH  12  14
ATOM     14  C   UNL     1      15.347   9.205 -23.604  1.00  0.00     0.018 C 
ATOM     15  C   UNL     1      14.108   8.335 -23.931  1.00  0.00     0.010 C 
BRANCH  14  16
ATOM     16  C   UNL     1      15.652  10.093 -24.838  1.00  0.00     0.002 C 
ATOM     17  C   UNL     1      17.015  10.795 -24.830  1.00  0.00     0.004 C 
ENDBRANCH  14  16
ENDBRANCH  12  14
ENDBRANCH   9  12
ENDBRANCH   7   8
BRANCH   7  18
ATOM     18  C   UNL     1      11.228   9.359 -18.901  1.00  0.00     0.073 C 
BRANCH  18  19
ATOM     19  C   UNL     1      10.622  10.736 -19.039  1.00  0.00    -0.016 A 
ATOM     20  C   UNL     1      10.057  11.298 -20.188  1.00  0.00     0.134 A 
ATOM     21  C   UNL     1      10.439  11.677 -18.037  1.00  0.00     0.006 A 
ATOM     22  N   UNL     1       9.577  12.534 -19.908  1.00  0.00    -0.191 N 
ATOM     23  C   UNL     1       9.807  12.757 -18.604  1.00  0.00     0.087 A 
ATOM     24  C   UNL     1      10.772  11.658 -16.680  1.00  0.00     0.011 A 
ATOM     25  C   UNL     1       9.475  13.891 -17.861  1.00  0.00     0.030 A 
ATOM     26  C   UNL     1      10.446  12.788 -15.907  1.00  0.00     0.001 A 
ATOM     27  C   UNL     1       9.804  13.900 -16.494  1.00  0.00     0.002 A 
BRANCH  22  28
ATOM     28  O   UNL     1       8.955  13.416 -20.773  1.00  0.00    -0.417 OA
ATOM     29  C   UNL     1       9.684  14.246 -21.670  1.00  0.00     0.313 C 
ENDBRANCH  22  28
ENDBRANCH  18  19
ENDBRANCH   7  18
ENDBRANCH   4   7
ENDBRANCH   2   3
BRANCH   2  30
ATOM     30  N   UNL     1      15.905   6.538 -19.890  1.00  0.00    -0.343 N 
ATOM     31  C   UNL     1      16.399   7.516 -20.833  1.00  0.00     0.243 C 
ATOM     32  H   UNL     1      16.535   6.169 -19.146  1.00  0.00     0.164 HD
ATOM     33  O   UNL     1      15.776   7.716 -21.907  1.00  0.00    -0.273 OA
BRANCH  31  34
ATOM     34  C   UNL     1      17.670   8.315 -20.592  1.00  0.00     0.174 C 
ATOM     35  N   UNL     1      17.626   9.654 -21.228  1.00  0.00    -0.329 N 
ATOM     36  C   UNL     1      18.024   8.458 -19.095  1.00  0.00     0.035 C 
ATOM     37  C   UNL     1      18.838  10.476 -21.056  1.00  0.00     0.120 C 
ATOM     38  C   UNL     1      19.314   9.262 -18.909  1.00  0.00     0.004 C 
ATOM     39  C   UNL     1      19.185  10.634 -19.574  1.00  0.00     0.022 C 
BRANCH  35  40
ATOM     40  C   UNL     1      16.372  10.348 -21.374  1.00  0.00     0.246 CG0
ATOM     41  O   UNL     1      16.243  11.461 -20.794  1.00  0.00    -0.272 OA
ATOM     42  G   UNL     1      15.211   9.869 -22.246  1.00  0.00     0.000 G0
ENDBRANCH  35  40
ENDBRANCH  31  34
ENDBRANCH   2  30
ENDBRANCH   1   2
BRANCH   1  43
ATOM     43  C   UNL     1      14.007   3.853 -21.066  1.00  0.00     0.003 C 
BRANCH  43  44
ATOM     44  C   UNL     1      12.567   3.369 -21.291  1.00  0.00     0.001 C 
BRANCH  44  45
ATOM     45  C   UNL     1      12.449   2.394 -22.475  1.00  0.00     0.008 C 
BRANCH  45  46
ATOM     46  C   UNL     1      11.195   1.510 -22.398  1.00  0.00     0.075 C 
BRANCH  46  47
ATOM     47  C   UNL     1      10.854   0.929 -23.745  1.00  0.00     0.132 C 
ATOM     48  O   UNL     1      11.338   1.419 -24.753  1.00  0.00    -0.300 OA
BRANCH  47  49
ATOM     49  C   UNL     1       9.913  -0.239 -23.873  1.00  0.00     0.072 C 
ATOM     50  C   UNL     1      10.342  -1.148 -25.022  1.00  0.00     0.012 C 
ENDBRANCH  47  49
ENDBRANCH  46  47
ENDBRANCH  45  46
ENDBRANCH  44  45
ENDBRANCH  43  44
ENDBRANCH   1  43
TORSDOF 12
ENDMDL
MODEL 3
REMARK VINA RESULT:    15.052      4.101      8.656
REMARK INTER + INTRA:          35.869
REMARK INTER:                  30.170
REMARK INTRA:                   5.699
REMARK UNBOUND:                 4.098
REMARK SMILES CCC(=O)CCCCC[C@H]1NC(=O)[C@@H]2CCCCN2C(=O)[C@@H]([C@@H](C)CC)NC(=O)[C@H](Cc2cn(OC)c3ccccc23)NC1=O
REMARK SMILES IDX 9 1 10 2 44 3 43 4 45 6 30 7 28 8 27 9 29 11 22 12 23 14
REMARK SMILES IDX 24 15 25 16 26 17 31 18 32 19 33 20 42 21 34 22 37 23 41 24
REMARK SMILES IDX 38 25 40 26 39 27 35 28 36 29 11 30 12 31 13 33 14 34 19 35
REMARK SMILES IDX 15 36 18 37 16 38 17 39 20 40 21 41 8 43 7 44 6 45 5 46 3 47
REMARK SMILES IDX 4 48 2 49 1 50
REMARK H PARENT 43 5 27 10 11 32
REMARK Flexibility Score: 80.00
ROOT
ATOM      1  C   UNL     1      16.046  11.047 -23.863  1.00  0.00     0.035 C 
ENDROOT
BRANCH   1   2
ATOM      2  C   UNL     1      15.882   9.656 -23.204  1.00  0.00     0.171 C 
BRANCH   2   3
ATOM      3  C   UNL     1      14.527   9.398 -22.585  1.00  0.00     0.243 C 
ATOM      4  N   UNL     1      13.973  10.238 -21.556  1.00  0.00    -0.342 N 
ATOM      5  H   UNL     1      14.264  11.239 -21.501  1.00  0.00     0.164 HD
ATOM      6  O   UNL     1      13.867   8.406 -22.995  1.00  0.00    -0.273 OA
BRANCH   4   7
ATOM      7  C   UNL     1      13.194   9.706 -20.432  1.00  0.00     0.175 C 
BRANCH   7   8
ATOM      8  C   UNL     1      13.725   8.335 -20.067  1.00  0.00     0.243 C 
ATOM      9  N   UNL     1      14.541   7.536 -20.955  1.00  0.00    -0.342 N 
ATOM     10  H   UNL     1      14.591   7.796 -21.963  1.00  0.00     0.164 HD
ATOM     11  O   UNL     1      13.432   7.907 -18.922  1.00  0.00    -0.273 OA
BRANCH   9  12
ATOM     12  C   UNL     1      15.466   6.465 -20.533  1.00  0.00     0.174 CG0
ATOM     13  G   UNL     1      16.851   7.087 -20.354  1.00  0.00     0.000 G0
BRANCH  12  14
ATOM     14  C   UNL     1      14.854   5.587 -19.377  1.00  0.00     0.018 C 
ATOM     15  C   UNL     1      14.185   6.482 -18.304  1.00  0.00     0.010 C 
BRANCH  14  16
ATOM     16  C   UNL     1      13.837   4.496 -19.798  1.00  0.00     0.002 C 
ATOM     17  C   UNL     1      14.401   3.357 -20.656  1.00  0.00     0.004 C 
ENDBRANCH  14  16
ENDBRANCH  12  14
ENDBRANCH   9  12
ENDBRANCH   7   8
BRANCH   7  18
ATOM     18  C   UNL     1      11.677   9.800 -20.712  1.00  0.00     0.073 C 
BRANCH  18  19
ATOM     19  C   UNL     1      11.010  10.919 -19.946  1.00  0.00    -0.016 A 
ATOM     20  C   UNL     1      10.252  11.967 -20.475  1.00  0.00     0.134 A 
ATOM     21  C   UNL     1      10.956  11.079 -18.570  1.00  0.00     0.006 A 
ATOM     22  N   UNL     1       9.780  12.747 -19.473  1.00  0.00    -0.191 N 
ATOM     23  C   UNL     1      10.206  12.202 -18.321  1.00  0.00     0.087 A 
ATOM     24  C   UNL     1      11.500  10.322 -17.530  1.00  0.00     0.011 A 
ATOM     25  C   UNL     1       9.957  12.650 -17.022  1.00  0.00     0.030 A 
ATOM     26  C   UNL     1      11.262  10.748 -16.210  1.00  0.00     0.001 A 
ATOM     27  C   UNL     1      10.498  11.908 -15.957  1.00  0.00     0.002 A 
BRANCH  22  28
ATOM     28  O   UNL     1       8.999  13.884 -19.579  1.00  0.00    -0.417 OA
ATOM     29  C   UNL     1       9.493  15.180 -19.260  1.00  0.00     0.313 C 
ENDBRANCH  22  28
ENDBRANCH  18  19
ENDBRANCH   7  18
ENDBRANCH   4   7
ENDBRANCH   2   3
BRANCH   2  30
ATOM     30  N   UNL     1      16.932   9.398 -22.207  1.00  0.00    -0.343 N 
ATOM     31  C   UNL     1      16.968   9.979 -20.884  1.00  0.00     0.243 C 
ATOM     32  H   UNL     1      17.663   8.713 -22.495  1.00  0.00     0.164 HD
ATOM     33  O   UNL     1      16.311  11.024 -20.643  1.00  0.00    -0.273 OA
BRANCH  31  34
ATOM     34  C   UNL     1      17.793   9.385 -19.752  1.00  0.00     0.174 C 
ATOM     35  N   UNL     1      17.388   7.997 -19.424  1.00  0.00    -0.329 N 
ATOM     36  C   UNL     1      19.314   9.439 -20.017  1.00  0.00     0.035 C 
ATOM     37  C   UNL     1      18.131   7.367 -18.317  1.00  0.00     0.120 C 
ATOM     38  C   UNL     1      20.097   8.838 -18.846  1.00  0.00     0.004 C 
ATOM     39  C   UNL     1      19.638   7.402 -18.580  1.00  0.00     0.022 C 
BRANCH  35  40
ATOM     40  C   UNL     1      16.870   7.129 -20.451  1.00  0.00     0.246 CG0
ATOM     41  O   UNL     1      17.645   6.798 -21.389  1.00  0.00    -0.272 OA
ATOM     42  G   UNL     1      15.469   6.517 -20.445  1.00  0.00     0.000 G0
ENDBRANCH  35  40
ENDBRANCH  31  34
ENDBRANCH   2  30
ENDBRANCH   1   2
BRANCH   1  43
ATOM     43  C   UNL     1      17.372  11.157 -24.636  1.00  0.00     0.003 C 
BRANCH  43  44
ATOM     44  C   UNL     1      18.187  12.375 -24.179  1.00  0.00     0.001 C 
BRANCH  44  45
ATOM     45  C   UNL     1      18.666  12.255 -22.722  1.00  0.00     0.008 C 
BRANCH  45  46
ATOM     46  C   UNL     1      18.478  13.553 -21.923  1.00  0.00     0.075 C 
BRANCH  46  47
ATOM     47  C   UNL     1      18.768  13.339 -20.461  1.00  0.00     0.132 C 
ATOM     48  O   UNL     1      19.403  12.358 -20.109  1.00  0.00    -0.300 OA
BRANCH  47  49
ATOM     49  C   UNL     1      18.273  14.307 -19.420  1.00  0.00     0.072 C 
ATOM     50  C   UNL     1      19.230  15.489 -19.291  1.00  0.00     0.012 C 
ENDBRANCH  47  49
ENDBRANCH  46  47
ENDBRANCH  45  46
ENDBRANCH  44  45
ENDBRANCH  43  44
ENDBRANCH   1  43
TORSDOF 12
ENDMDL
MODEL 4
REMARK VINA RESULT:    15.635      3.906      8.519
REMARK INTER + INTRA:          37.099
REMARK INTER:                  29.909
REMARK INTRA:                   7.190
REMARK UNBOUND:                 4.098
REMARK SMILES CCC(=O)CCCCC[C@H]1NC(=O)[C@@H]2CCCCN2C(=O)[C@@H]([C@@H](C)CC)NC(=O)[C@H](Cc2cn(OC)c3ccccc23)NC1=O
REMARK SMILES IDX 9 1 10 2 44 3 43 4 45 6 30 7 28 8 27 9 29 11 22 12 23 14
REMARK SMILES IDX 24 15 25 16 26 17 31 18 32 19 33 20 42 21 34 22 37 23 41 24
REMARK SMILES IDX 38 25 40 26 39 27 35 28 36 29 11 30 12 31 13 33 14 34 19 35
REMARK SMILES IDX 15 36 18 37 16 38 17 39 20 40 21 41 8 43 7 44 6 45 5 46 3 47
REMARK SMILES IDX 4 48 2 49 1 50
REMARK H PARENT 43 5 27 10 11 32
REMARK Flexibility Score: 80.00
ROOT
ATOM      1  C   UNL     1      16.080  11.442 -23.146  1.00  0.00     0.035 C 
ENDROOT
BRANCH   1   2
ATOM      2  C   UNL     1      15.808   9.968 -22.756  1.00  0.00     0.171 C 
BRANCH   2   3
ATOM      3  C   UNL     1      14.421   9.693 -22.221  1.00  0.00     0.243 C 
ATOM      4  N   UNL     1      13.873  10.400 -21.093  1.00  0.00    -0.342 N 
ATOM      5  H   UNL     1      14.210  11.364 -20.879  1.00  0.00     0.164 HD
ATOM      6  O   UNL     1      13.728   8.810 -22.793  1.00  0.00    -0.273 OA
BRANCH   4   7
ATOM      7  C   UNL     1      13.030   9.748 -20.083  1.00  0.00     0.175 C 
BRANCH   7   8
ATOM      8  C   UNL     1      13.592   8.375 -19.779  1.00  0.00     0.243 C 
ATOM      9  N   UNL     1      14.264   7.555 -20.764  1.00  0.00    -0.342 N 
ATOM     10  H   UNL     1      14.172   7.803 -21.772  1.00  0.00     0.164 HD
ATOM     11  O   UNL     1      13.461   7.964 -18.600  1.00  0.00    -0.273 OA
BRANCH   9  12
ATOM     12  C   UNL     1      15.228   6.478 -20.464  1.00  0.00     0.174 CG0
ATOM     13  G   UNL     1      16.602   7.120 -20.272  1.00  0.00     0.000 G0
BRANCH  12  14
ATOM     14  C   UNL     1      14.675   5.486 -19.373  1.00  0.00     0.018 C 
ATOM     15  C   UNL     1      13.427   6.081 -18.673  1.00  0.00     0.010 C 
BRANCH  14  16
ATOM     16  C   UNL     1      14.323   4.054 -19.850  1.00  0.00     0.002 C 
ATOM     17  C   UNL     1      13.732   3.950 -21.261  1.00  0.00     0.004 C 
ENDBRANCH  14  16
ENDBRANCH  12  14
ENDBRANCH   9  12
ENDBRANCH   7   8
BRANCH   7  18
ATOM     18  C   UNL     1      11.538   9.803 -20.484  1.00  0.00     0.073 C 
BRANCH  18  19
ATOM     19  C   UNL     1      10.876  11.104 -20.094  1.00  0.00    -0.016 A 
ATOM     20  C   UNL     1      10.242  12.015 -20.943  1.00  0.00     0.134 A 
ATOM     21  C   UNL     1      10.702  11.607 -18.813  1.00  0.00     0.006 A 
ATOM     22  N   UNL     1       9.728  13.039 -20.220  1.00  0.00    -0.191 N 
ATOM     23  C   UNL     1      10.006  12.785 -18.930  1.00  0.00     0.087 A 
ATOM     24  C   UNL     1      11.094  11.113 -17.566  1.00  0.00     0.011 A 
ATOM     25  C   UNL     1       9.665  13.553 -17.817  1.00  0.00     0.030 A 
ATOM     26  C   UNL     1      10.760  11.867 -16.426  1.00  0.00     0.001 A 
ATOM     27  C   UNL     1      10.052  13.082 -16.550  1.00  0.00     0.002 A 
BRANCH  22  28
ATOM     28  O   UNL     1       9.037  14.143 -20.686  1.00  0.00    -0.417 OA
ATOM     29  C   UNL     1       8.342  15.030 -19.816  1.00  0.00     0.313 C 
ENDBRANCH  22  28
ENDBRANCH  18  19
ENDBRANCH   7  18
ENDBRANCH   4   7
ENDBRANCH   2   3
BRANCH   2  30
ATOM     30  N   UNL     1      16.809   9.463 -21.803  1.00  0.00    -0.343 N 
ATOM     31  C   UNL     1      17.016   9.990 -20.474  1.00  0.00     0.243 C 
ATOM     32  H   UNL     1      17.362   8.641 -22.129  1.00  0.00     0.164 HD
ATOM     33  O   UNL     1      16.613  11.148 -20.192  1.00  0.00    -0.273 OA
BRANCH  31  34
ATOM     34  C   UNL     1      17.728   9.204 -19.383  1.00  0.00     0.174 C 
ATOM     35  N   UNL     1      17.177   7.837 -19.220  1.00  0.00    -0.329 N 
ATOM     36  C   UNL     1      19.257   9.133 -19.586  1.00  0.00     0.035 C 
ATOM     37  C   UNL     1      17.804   7.025 -18.161  1.00  0.00     0.120 C 
ATOM     38  C   UNL     1      19.924   8.339 -18.459  1.00  0.00     0.004 C 
ATOM     39  C   UNL     1      19.319   6.937 -18.365  1.00  0.00     0.022 C 
BRANCH  35  40
ATOM     40  C   UNL     1      16.627   7.135 -20.353  1.00  0.00     0.246 CG0
ATOM     41  O   UNL     1      17.362   6.984 -21.366  1.00  0.00    -0.272 OA
ATOM     42  G   UNL     1      15.241   6.492 -20.384  1.00  0.00     0.000 G0
ENDBRANCH  35  40
ENDBRANCH  31  34
ENDBRANCH   2  30
ENDBRANCH   1   2
BRANCH   1  43
ATOM     43  C   UNL     1      17.455  11.916 -22.647  1.00  0.00     0.003 C 
BRANCH  43  44
ATOM     44  C   UNL     1      18.563  11.580 -23.655  1.00  0.00     0.001 C 
BRANCH  44  45
ATOM     45  C   UNL     1      18.675  12.622 -24.781  1.00  0.00     0.008 C 
BRANCH  45  46
ATOM     46  C   UNL     1      19.676  12.217 -25.873  1.00  0.00     0.075 C 
BRANCH  46  47
ATOM     47  C   UNL     1      19.597  10.741 -26.164  1.00  0.00     0.132 C 
ATOM     48  O   UNL     1      20.125   9.947 -25.403  1.00  0.00    -0.300 OA
BRANCH  47  49
ATOM     49  C   UNL     1      18.890  10.228 -27.390  1.00  0.00     0.072 C 
ATOM     50  C   UNL     1      19.823   9.343 -28.213  1.00  0.00     0.012 C 
ENDBRANCH  47  49
ENDBRANCH  46  47
ENDBRANCH  45  46
ENDBRANCH  44  45
ENDBRANCH  43  44
ENDBRANCH   1  43
TORSDOF 12
ENDMDL
MODEL 5
REMARK VINA RESULT:    16.998      3.933      8.169
REMARK INTER + INTRA:          39.977
REMARK INTER:                  37.249
REMARK INTRA:                   2.727
REMARK UNBOUND:                 4.098
REMARK SMILES CCC(=O)CCCCC[C@H]1NC(=O)[C@@H]2CCCCN2C(=O)[C@@H]([C@@H](C)CC)NC(=O)[C@H](Cc2cn(OC)c3ccccc23)NC1=O
REMARK SMILES IDX 9 1 10 2 44 3 43 4 45 6 30 7 28 8 27 9 29 11 22 12 23 14
REMARK SMILES IDX 24 15 25 16 26 17 31 18 32 19 33 20 42 21 34 22 37 23 41 24
REMARK SMILES IDX 38 25 40 26 39 27 35 28 36 29 11 30 12 31 13 33 14 34 19 35
REMARK SMILES IDX 15 36 18 37 16 38 17 39 20 40 21 41 8 43 7 44 6 45 5 46 3 47
REMARK SMILES IDX 4 48 2 49 1 50
REMARK H PARENT 43 5 27 10 11 32
REMARK Flexibility Score: 80.00
ROOT
ATOM      1  C   UNL     1      14.039   5.586 -21.521  1.00  0.00     0.035 C 
ENDROOT
BRANCH   1   2
ATOM      2  C   UNL     1      14.442   6.542 -20.371  1.00  0.00     0.171 C 
BRANCH   2   3
ATOM      3  C   UNL     1      13.358   7.494 -19.921  1.00  0.00     0.243 C 
ATOM      4  N   UNL     1      12.476   8.156 -20.845  1.00  0.00    -0.342 N 
ATOM      5  H   UNL     1      12.272   7.711 -21.767  1.00  0.00     0.164 HD
ATOM      6  O   UNL     1      13.231   7.706 -18.685  1.00  0.00    -0.273 OA
BRANCH   4   7
ATOM      7  C   UNL     1      12.028   9.541 -20.659  1.00  0.00     0.175 C 
BRANCH   7   8
ATOM      8  C   UNL     1      13.209  10.472 -20.837  1.00  0.00     0.243 C 
ATOM      9  N   UNL     1      14.566  10.007 -21.031  1.00  0.00    -0.342 N 
ATOM     10  H   UNL     1      14.791   9.011 -20.824  1.00  0.00     0.164 HD
ATOM     11  O   UNL     1      12.961  11.704 -20.820  1.00  0.00    -0.273 OA
BRANCH   9  12
ATOM     12  C   UNL     1      15.649  10.779 -21.671  1.00  0.00     0.174 CG0
ATOM     13  G   UNL     1      16.879  10.697 -20.767  1.00  0.00     0.000 G0
BRANCH  12  14
ATOM     14  C   UNL     1      15.786  10.435 -23.202  1.00  0.00     0.018 C 
ATOM     15  C   UNL     1      17.269  10.497 -23.648  1.00  0.00     0.010 C 
BRANCH  14  16
ATOM     16  C   UNL     1      15.201   9.075 -23.663  1.00  0.00     0.002 C 
ATOM     17  C   UNL     1      15.228   8.818 -25.174  1.00  0.00     0.004 C 
ENDBRANCH  14  16
ENDBRANCH  12  14
ENDBRANCH   9  12
ENDBRANCH   7   8
BRANCH   7  18
ATOM     18  C   UNL     1      11.226   9.695 -19.346  1.00  0.00     0.073 C 
BRANCH  18  19
ATOM     19  C   UNL     1      10.600  11.062 -19.201  1.00  0.00    -0.016 A 
ATOM     20  C   UNL     1       9.915  11.784 -20.182  1.00  0.00     0.134 A 
ATOM     21  C   UNL     1      10.516  11.829 -18.048  1.00  0.00     0.006 A 
ATOM     22  N   UNL     1       9.458  12.949 -19.662  1.00  0.00    -0.191 N 
ATOM     23  C   UNL     1       9.822  12.969 -18.369  1.00  0.00     0.087 A 
ATOM     24  C   UNL     1      10.989  11.605 -16.753  1.00  0.00     0.011 A 
ATOM     25  C   UNL     1       9.561  13.964 -17.426  1.00  0.00     0.030 A 
ATOM     26  C   UNL     1      10.738  12.591 -15.781  1.00  0.00     0.001 A 
ATOM     27  C   UNL     1      10.031  13.766 -16.115  1.00  0.00     0.002 A 
BRANCH  22  28
ATOM     28  O   UNL     1       8.743  13.942 -20.308  1.00  0.00    -0.417 OA
ATOM     29  C   UNL     1       8.537  15.228 -19.733  1.00  0.00     0.313 C 
ENDBRANCH  22  28
ENDBRANCH  18  19
ENDBRANCH   7  18
ENDBRANCH   4   7
ENDBRANCH   2   3
BRANCH   2  30
ATOM     30  N   UNL     1      15.658   7.304 -20.697  1.00  0.00    -0.343 N 
ATOM     31  C   UNL     1      16.401   8.107 -19.753  1.00  0.00     0.243 C 
ATOM     32  H   UNL     1      16.000   7.203 -21.677  1.00  0.00     0.164 HD
ATOM     33  O   UNL     1      15.844   8.501 -18.696  1.00  0.00    -0.273 OA
BRANCH  31  34
ATOM     34  C   UNL     1      17.845   8.521 -19.990  1.00  0.00     0.174 C 
ATOM     35  N   UNL     1      17.955   9.743 -20.822  1.00  0.00    -0.329 N 
ATOM     36  C   UNL     1      18.647   8.704 -18.682  1.00  0.00     0.035 C 
ATOM     37  C   UNL     1      19.330  10.189 -21.114  1.00  0.00     0.120 C 
ATOM     38  C   UNL     1      20.094   9.112 -18.977  1.00  0.00     0.004 C 
ATOM     39  C   UNL     1      20.125  10.387 -19.821  1.00  0.00     0.022 C 
BRANCH  35  40
ATOM     40  C   UNL     1      16.930  10.755 -20.766  1.00  0.00     0.246 CG0
ATOM     41  O   UNL     1      17.115  11.740 -20.000  1.00  0.00    -0.272 OA
ATOM     42  G   UNL     1      15.667  10.759 -21.627  1.00  0.00     0.000 G0
ENDBRANCH  35  40
ENDBRANCH  31  34
ENDBRANCH   2  30
ENDBRANCH   1   2
BRANCH   1  43
ATOM     43  C   UNL     1      15.272   4.997 -22.228  1.00  0.00     0.003 C 
BRANCH  43  44
ATOM     44  C   UNL     1      15.745   5.900 -23.376  1.00  0.00     0.001 C 
BRANCH  44  45
ATOM     45  C   UNL     1      16.135   5.103 -24.633  1.00  0.00     0.008 C 
BRANCH  45  46
ATOM     46  C   UNL     1      16.860   3.789 -24.305  1.00  0.00     0.075 C 
BRANCH  46  47
ATOM     47  C   UNL     1      17.603   3.263 -25.506  1.00  0.00     0.132 C 
ATOM     48  O   UNL     1      17.259   3.607 -26.625  1.00  0.00    -0.300 OA
BRANCH  47  49
ATOM     49  C   UNL     1      18.753   2.305 -25.350  1.00  0.00     0.072 C 
ATOM     50  C   UNL     1      18.252   0.863 -25.362  1.00  0.00     0.012 C 
ENDBRANCH  47  49
ENDBRANCH  46  47
ENDBRANCH  45  46
ENDBRANCH  44  45
ENDBRANCH  43  44
ENDBRANCH   1  43
TORSDOF 12
ENDMDL
MODEL 6
REMARK VINA RESULT:    17.155      6.108     10.234
REMARK INTER + INTRA:          40.307
REMARK INTER:                  33.344
REMARK INTRA:                   6.963
REMARK UNBOUND:                 4.098
REMARK SMILES CCC(=O)CCCCC[C@H]1NC(=O)[C@@H]2CCCCN2C(=O)[C@@H]([C@@H](C)CC)NC(=O)[C@H](Cc2cn(OC)c3ccccc23)NC1=O
REMARK SMILES IDX 9 1 10 2 44 3 43 4 45 6 30 7 28 8 27 9 29 11 22 12 23 14
REMARK SMILES IDX 24 15 25 16 26 17 31 18 32 19 33 20 42 21 34 22 37 23 41 24
REMARK SMILES IDX 38 25 40 26 39 27 35 28 36 29 11 30 12 31 13 33 14 34 19 35
REMARK SMILES IDX 15 36 18 37 16 38 17 39 20 40 21 41 8 43 7 44 6 45 5 46 3 47
REMARK SMILES IDX 4 48 2 49 1 50
REMARK H PARENT 43 5 27 10 11 32
REMARK Flexibility Score: 80.00
ROOT
ATOM      1  C   UNL     1      15.526   8.251 -23.761  1.00  0.00     0.035 C 
ENDROOT
BRANCH   1   2
ATOM      2  C   UNL     1      15.296   9.502 -22.878  1.00  0.00     0.171 C 
BRANCH   2   3
ATOM      3  C   UNL     1      16.344   9.735 -21.814  1.00  0.00     0.243 C 
ATOM      4  N   UNL     1      17.598   9.027 -21.793  1.00  0.00    -0.342 N 
ATOM      5  H   UNL     1      17.996   8.665 -22.687  1.00  0.00     0.164 HD
ATOM      6  O   UNL     1      16.099  10.585 -20.917  1.00  0.00    -0.273 OA
BRANCH   4   7
ATOM      7  C   UNL     1      18.235   8.581 -20.549  1.00  0.00     0.175 C 
BRANCH   7   8
ATOM      8  C   UNL     1      17.173   8.035 -19.617  1.00  0.00     0.243 C 
ATOM      9  N   UNL     1      15.823   7.733 -20.039  1.00  0.00    -0.342 N 
ATOM     10  H   UNL     1      15.487   8.103 -20.953  1.00  0.00     0.164 HD
ATOM     11  O   UNL     1      17.521   7.835 -18.426  1.00  0.00    -0.273 OA
BRANCH   9  12
ATOM     12  C   UNL     1      14.910   6.787 -19.367  1.00  0.00     0.174 CG0
ATOM     13  G   UNL     1      13.737   7.589 -18.804  1.00  0.00     0.000 G0
BRANCH  12  14
ATOM     14  C   UNL     1      14.626   5.518 -20.256  1.00  0.00     0.018 C 
ATOM     15  C   UNL     1      14.992   4.220 -19.492  1.00  0.00     0.010 C 
BRANCH  14  16
ATOM     16  C   UNL     1      13.185   5.363 -20.807  1.00  0.00     0.002 C 
ATOM     17  C   UNL     1      12.738   3.927 -21.106  1.00  0.00     0.004 C 
ENDBRANCH  14  16
ENDBRANCH  12  14
ENDBRANCH   9  12
ENDBRANCH   7   8
BRANCH   7  18
ATOM     18  C   UNL     1      19.154   9.681 -19.969  1.00  0.00     0.073 C 
BRANCH  18  19
ATOM     19  C   UNL     1      19.224  10.907 -20.849  1.00  0.00    -0.016 A 
ATOM     20  C   UNL     1      19.826  11.009 -22.106  1.00  0.00     0.134 A 
ATOM     21  C   UNL     1      18.640  12.143 -20.615  1.00  0.00     0.006 A 
ATOM     22  N   UNL     1      19.643  12.255 -22.605  1.00  0.00    -0.191 N 
ATOM     23  C   UNL     1      18.920  12.936 -21.699  1.00  0.00     0.087 A 
ATOM     24  C   UNL     1      17.883  12.618 -19.541  1.00  0.00     0.011 A 
ATOM     25  C   UNL     1      18.475  14.257 -21.782  1.00  0.00     0.030 A 
ATOM     26  C   UNL     1      17.419  13.945 -19.599  1.00  0.00     0.001 A 
ATOM     27  C   UNL     1      17.716  14.762 -20.712  1.00  0.00     0.002 A 
BRANCH  22  28
ATOM     28  O   UNL     1      20.090  12.759 -23.813  1.00  0.00    -0.417 OA
ATOM     29  C   UNL     1      19.204  13.068 -24.884  1.00  0.00     0.313 C 
ENDBRANCH  22  28
ENDBRANCH  18  19
ENDBRANCH   7  18
ENDBRANCH   4   7
ENDBRANCH   2   3
BRANCH   2  30
ATOM     30  N   UNL     1      13.963   9.492 -22.258  1.00  0.00    -0.343 N 
ATOM     31  C   UNL     1      13.412   8.384 -21.512  1.00  0.00     0.243 C 
ATOM     32  H   UNL     1      13.421  10.379 -22.348  1.00  0.00     0.164 HD
ATOM     33  O   UNL     1      13.887   7.229 -21.668  1.00  0.00    -0.273 OA
BRANCH  31  34
ATOM     34  C   UNL     1      12.252   8.546 -20.541  1.00  0.00     0.174 C 
ATOM     35  N   UNL     1      12.468   7.813 -19.271  1.00  0.00    -0.329 N 
ATOM     36  C   UNL     1      11.912  10.023 -20.243  1.00  0.00     0.035 C 
ATOM     37  C   UNL     1      11.370   7.906 -18.292  1.00  0.00     0.120 C 
ATOM     38  C   UNL     1      10.734  10.130 -19.270  1.00  0.00     0.004 C 
ATOM     39  C   UNL     1      11.039   9.367 -17.980  1.00  0.00     0.022 C 
BRANCH  35  40
ATOM     40  C   UNL     1      13.802   7.634 -18.754  1.00  0.00     0.246 CG0
ATOM     41  O   UNL     1      14.096   8.209 -17.671  1.00  0.00    -0.272 OA
ATOM     42  G   UNL     1      14.863   6.733 -19.385  1.00  0.00     0.000 G0
ENDBRANCH  35  40
ENDBRANCH  31  34
ENDBRANCH   2  30
ENDBRANCH   1   2
BRANCH   1  43
ATOM     43  C   UNL     1      15.133   8.509 -25.226  1.00  0.00     0.003 C 
BRANCH  43  44
ATOM     44  C   UNL     1      15.791   9.788 -25.765  1.00  0.00     0.001 C 
BRANCH  44  45
ATOM     45  C   UNL     1      17.327   9.704 -25.772  1.00  0.00     0.008 C 
BRANCH  45  46
ATOM     46  C   UNL     1      17.953  10.319 -27.033  1.00  0.00     0.075 C 
BRANCH  46  47
ATOM     47  C   UNL     1      19.442  10.095 -27.067  1.00  0.00     0.132 C 
ATOM     48  O   UNL     1      20.125  10.438 -26.116  1.00  0.00    -0.300 OA
BRANCH  47  49
ATOM     49  C   UNL     1      20.107   9.469 -28.263  1.00  0.00     0.072 C 
ATOM     50  C   UNL     1      19.709  10.203 -29.541  1.00  0.00     0.012 C 
ENDBRANCH  47  49
ENDBRANCH  46  47
ENDBRANCH  45  46
ENDBRANCH  44  45
ENDBRANCH  43  44
ENDBRANCH   1  43
TORSDOF 12
ENDMDL
