MODEL 1
REMARK VINA RESULT:    -6.869      0.000      0.000
REMARK INTER + INTRA:         -10.846
REMARK INTER:                  -9.480
REMARK INTRA:                  -1.366
REMARK UNBOUND:                -1.366
REMARK SMILES CC[C@H](CC[C@H](C)[C@H]1CC[C@H]2[C@@H]3CC=C4C[C@@H](O)CC[C@@]4(C)[C@H]3CC[C@]12C)C(C)C
REMARK SMILES IDX 5 1 4 2 3 3 2 4 1 5 28 6 29 7 30 8 6 9 7 10 8 11 9 12 26 13
REMARK SMILES IDX 10 14 11 15 25 16 27 17 12 18 24 19 23 20 13 21 21 22 14 23
REMARK SMILES IDX 15 24 20 25 22 26 16 27 19 28 17 29 18 30
REMARK H PARENT 18 31
REMARK Flexibility Score: inf
ROOT
ATOM      1  C   UNL     1     160.285 172.713 152.608  1.00  0.00     0.004 C 
ENDROOT
BRANCH   1   2
ATOM      2  C   UNL     1     159.835 171.825 151.421  1.00  0.00     0.004 C 
BRANCH   2   3
ATOM      3  C   UNL     1     160.918 170.840 150.873  1.00  0.00    -0.009 C 
BRANCH   3   4
ATOM      4  C   UNL     1     161.911 170.469 152.017  1.00  0.00     0.000 C 
ATOM      5  C   UNL     1     161.463 169.265 152.860  1.00  0.00     0.004 C 
ENDBRANCH   3   4
BRANCH   3   6
ATOM      6  C   UNL     1     160.312 169.575 150.157  1.00  0.00    -0.014 C 
ATOM      7  C   UNL     1     161.190 169.109 148.979  1.00  0.00     0.007 C 
ATOM      8  C   UNL     1     158.890 169.824 149.630  1.00  0.00     0.007 C 
ENDBRANCH   3   6
ENDBRANCH   2   3
ENDBRANCH   1   2
BRANCH   1   9
ATOM      9  C   UNL     1     160.360 174.251 152.369  1.00  0.00    -0.011 C 
ATOM     10  C   UNL     1     159.002 174.783 151.872  1.00  0.00     0.008 C 
BRANCH   9  11
ATOM     11  C   UNL     1     161.523 174.758 151.443  1.00  0.00    -0.002 C 
ATOM     12  C   UNL     1     161.253 176.206 150.933  1.00  0.00     0.005 C 
ATOM     13  C   UNL     1     162.975 174.839 152.020  1.00  0.00    -0.026 C 
ATOM     14  C   UNL     1     162.612 176.902 150.787  1.00  0.00     0.005 C 
ATOM     15  C   UNL     1     163.617 175.782 150.986  1.00  0.00    -0.001 C 
ATOM     16  C   UNL     1     163.790 173.517 151.974  1.00  0.00     0.007 C 
ATOM     17  C   UNL     1     162.960 175.440 153.458  1.00  0.00     0.012 C 
ATOM     18  C   UNL     1     165.087 176.154 151.299  1.00  0.00     0.000 C 
ATOM     19  C   UNL     1     165.298 173.766 152.235  1.00  0.00     0.005 C 
ATOM     20  C   UNL     1     165.927 174.849 151.298  1.00  0.00     0.003 C 
ATOM     21  C   UNL     1     165.649 177.103 150.230  1.00  0.00     0.031 C 
ATOM     22  C   UNL     1     167.481 175.113 151.527  1.00  0.00    -0.008 C 
ATOM     23  C   UNL     1     167.086 177.410 150.506  1.00  0.00    -0.027 C 
ATOM     24  C   UNL     1     167.923 176.523 151.086  1.00  0.00    -0.065 C 
ATOM     25  C   UNL     1     167.877 174.955 153.032  1.00  0.00     0.014 C 
ATOM     26  C   UNL     1     168.259 174.071 150.678  1.00  0.00     0.016 C 
ATOM     27  C   UNL     1     169.339 176.966 151.393  1.00  0.00     0.063 C 
ATOM     28  C   UNL     1     169.324 175.365 153.354  1.00  0.00     0.033 C 
ATOM     29  C   UNL     1     169.643 176.795 152.884  1.00  0.00     0.118 C 
BRANCH  29  30
ATOM     30  O   UNL     1     168.905 177.732 153.629  1.00  0.00    -0.393 OA
ATOM     31  H   UNL     1     169.449 178.562 153.676  1.00  0.00     0.210 HD
ENDBRANCH  29  30
ENDBRANCH   9  11
ENDBRANCH   1   9
TORSDOF 7
ENDMDL
MODEL 2
REMARK VINA RESULT:    -6.837      5.800     10.018
REMARK INTER + INTRA:         -10.801
REMARK INTER:                  -9.446
REMARK INTRA:                  -1.356
REMARK UNBOUND:                -1.366
REMARK SMILES CC[C@H](CC[C@H](C)[C@H]1CC[C@H]2[C@@H]3CC=C4C[C@@H](O)CC[C@@]4(C)[C@H]3CC[C@]12C)C(C)C
REMARK SMILES IDX 5 1 4 2 3 3 2 4 1 5 28 6 29 7 30 8 6 9 7 10 8 11 9 12 26 13
REMARK SMILES IDX 10 14 11 15 25 16 27 17 12 18 24 19 23 20 13 21 21 22 14 23
REMARK SMILES IDX 15 24 20 25 22 26 16 27 19 28 17 29 18 30
REMARK H PARENT 18 31
REMARK Flexibility Score: inf
ROOT
ATOM      1  C   UNL     1     161.168 162.125 152.503  1.00  0.00     0.004 C 
ENDROOT
BRANCH   1   2
ATOM      2  C   UNL     1     161.847 161.572 151.224  1.00  0.00     0.004 C 
BRANCH   2   3
ATOM      3  C   UNL     1     163.271 162.141 150.923  1.00  0.00    -0.009 C 
BRANCH   3   4
ATOM      4  C   UNL     1     163.916 162.658 152.245  1.00  0.00     0.000 C 
ATOM      5  C   UNL     1     164.952 161.696 152.847  1.00  0.00     0.004 C 
ENDBRANCH   3   4
BRANCH   3   6
ATOM      6  C   UNL     1     164.199 161.133 150.145  1.00  0.00    -0.014 C 
ATOM      7  C   UNL     1     164.927 161.817 148.970  1.00  0.00     0.007 C 
ATOM      8  C   UNL     1     163.423 159.927 149.595  1.00  0.00     0.007 C 
ENDBRANCH   3   6
ENDBRANCH   2   3
ENDBRANCH   1   2
BRANCH   1   9
ATOM      9  C   UNL     1     159.735 162.718 152.357  1.00  0.00    -0.011 C 
ATOM     10  C   UNL     1     158.743 161.624 151.918  1.00  0.00     0.008 C 
BRANCH   9  11
ATOM     11  C   UNL     1     159.594 163.989 151.444  1.00  0.00    -0.002 C 
ATOM     12  C   UNL     1     158.127 164.177 150.956  1.00  0.00     0.005 C 
ATOM     13  C   UNL     1     159.967 165.391 152.029  1.00  0.00    -0.026 C 
ATOM     14  C   UNL     1     157.876 165.685 150.826  1.00  0.00     0.005 C 
ATOM     15  C   UNL     1     159.252 166.299 151.012  1.00  0.00    -0.001 C 
ATOM     16  C   UNL     1     161.475 165.765 151.967  1.00  0.00     0.007 C 
ATOM     17  C   UNL     1     159.409 165.547 153.476  1.00  0.00     0.012 C 
ATOM     18  C   UNL     1     159.350 167.810 151.337  1.00  0.00     0.000 C 
ATOM     19  C   UNL     1     161.700 167.274 152.238  1.00  0.00     0.005 C 
ATOM     20  C   UNL     1     160.849 168.212 151.321  1.00  0.00     0.003 C 
ATOM     21  C   UNL     1     158.604 168.643 150.286  1.00  0.00     0.031 C 
ATOM     22  C   UNL     1     161.074 169.771 151.560  1.00  0.00    -0.008 C 
ATOM     23  C   UNL     1     158.753 170.103 150.573  1.00  0.00    -0.027 C 
ATOM     24  C   UNL     1     159.860 170.624 151.143  1.00  0.00    -0.065 C 
ATOM     25  C   UNL     1     161.366 170.086 153.064  1.00  0.00     0.014 C 
ATOM     26  C   UNL     1     162.292 170.201 150.699  1.00  0.00     0.016 C 
ATOM     27  C   UNL     1     159.875 172.106 151.462  1.00  0.00     0.063 C 
ATOM     28  C   UNL     1     161.420 171.587 153.400  1.00  0.00     0.033 C 
ATOM     29  C   UNL     1     160.150 172.330 152.952  1.00  0.00     0.118 C 
BRANCH  29  30
ATOM     30  O   UNL     1     159.042 171.906 153.708  1.00  0.00    -0.393 OA
ATOM     31  H   UNL     1     159.137 172.302 154.614  1.00  0.00     0.210 HD
ENDBRANCH  29  30
ENDBRANCH   9  11
ENDBRANCH   1   9
TORSDOF 7
ENDMDL
MODEL 3
REMARK VINA RESULT:    -6.825     11.274     15.120
REMARK INTER + INTRA:         -10.785
REMARK INTER:                  -8.956
REMARK INTRA:                  -1.829
REMARK UNBOUND:                -1.366
REMARK SMILES CC[C@H](CC[C@H](C)[C@H]1CC[C@H]2[C@@H]3CC=C4C[C@@H](O)CC[C@@]4(C)[C@H]3CC[C@]12C)C(C)C
REMARK SMILES IDX 5 1 4 2 3 3 2 4 1 5 28 6 29 7 30 8 6 9 7 10 8 11 9 12 26 13
REMARK SMILES IDX 10 14 11 15 25 16 27 17 12 18 24 19 23 20 13 21 21 22 14 23
REMARK SMILES IDX 15 24 20 25 22 26 16 27 19 28 17 29 18 30
REMARK H PARENT 18 31
REMARK Flexibility Score: inf
ROOT
ATOM      1  C   UNL     1     173.920 171.805 152.816  1.00  0.00     0.004 C 
ENDROOT
BRANCH   1   2
ATOM      2  C   UNL     1     173.925 171.954 151.273  1.00  0.00     0.004 C 
BRANCH   2   3
ATOM      3  C   UNL     1     174.941 172.998 150.705  1.00  0.00    -0.009 C 
BRANCH   3   4
ATOM      4  C   UNL     1     175.064 174.196 151.694  1.00  0.00     0.000 C 
ATOM      5  C   UNL     1     174.573 175.532 151.114  1.00  0.00     0.004 C 
ENDBRANCH   3   4
BRANCH   3   6
ATOM      6  C   UNL     1     176.336 172.374 150.325  1.00  0.00    -0.014 C 
ATOM      7  C   UNL     1     177.343 173.454 149.881  1.00  0.00     0.007 C 
ATOM      8  C   UNL     1     176.227 171.327 149.206  1.00  0.00     0.007 C 
ENDBRANCH   3   6
ENDBRANCH   2   3
ENDBRANCH   1   2
BRANCH   1   9
ATOM      9  C   UNL     1     174.894 170.764 153.442  1.00  0.00    -0.011 C 
ATOM     10  C   UNL     1     176.009 171.478 154.230  1.00  0.00     0.008 C 
BRANCH   9  11
ATOM     11  C   UNL     1     175.507 169.702 152.460  1.00  0.00    -0.002 C 
ATOM     12  C   UNL     1     177.064 169.701 152.524  1.00  0.00     0.005 C 
ATOM     13  C   UNL     1     175.134 168.194 152.641  1.00  0.00    -0.026 C 
ATOM     14  C   UNL     1     177.534 168.264 152.263  1.00  0.00     0.005 C 
ATOM     15  C   UNL     1     176.270 167.543 151.832  1.00  0.00    -0.001 C 
ATOM     16  C   UNL     1     173.805 167.746 151.971  1.00  0.00     0.007 C 
ATOM     17  C   UNL     1     175.163 167.799 154.149  1.00  0.00     0.012 C 
ATOM     18  C   UNL     1     176.257 165.994 151.859  1.00  0.00     0.000 C 
ATOM     19  C   UNL     1     173.692 166.201 151.903  1.00  0.00     0.005 C 
ATOM     20  C   UNL     1     174.924 165.510 151.230  1.00  0.00     0.003 C 
ATOM     21  C   UNL     1     177.424 165.424 151.042  1.00  0.00     0.031 C 
ATOM     22  C   UNL     1     174.828 163.923 151.125  1.00  0.00    -0.008 C 
ATOM     23  C   UNL     1     177.371 163.930 151.023  1.00  0.00    -0.027 C 
ATOM     24  C   UNL     1     176.209 163.242 151.057  1.00  0.00    -0.065 C 
ATOM     25  C   UNL     1     174.070 163.310 152.348  1.00  0.00     0.014 C 
ATOM     26  C   UNL     1     174.056 163.591 149.820  1.00  0.00     0.016 C 
ATOM     27  C   UNL     1     176.272 161.729 151.115  1.00  0.00     0.063 C 
ATOM     28  C   UNL     1     174.092 161.772 152.402  1.00  0.00     0.033 C 
ATOM     29  C   UNL     1     175.522 161.208 152.345  1.00  0.00     0.118 C 
BRANCH  29  30
ATOM     30  O   UNL     1     176.230 161.548 153.511  1.00  0.00    -0.393 OA
ATOM     31  H   UNL     1     175.642 162.145 154.046  1.00  0.00     0.210 HD
ENDBRANCH  29  30
ENDBRANCH   9  11
ENDBRANCH   1   9
TORSDOF 7
ENDMDL
MODEL 4
REMARK VINA RESULT:    -6.791      4.201      7.738
REMARK INTER + INTRA:         -10.738
REMARK INTER:                  -9.020
REMARK INTRA:                  -1.718
REMARK UNBOUND:                -1.366
REMARK SMILES CC[C@H](CC[C@H](C)[C@H]1CC[C@H]2[C@@H]3CC=C4C[C@@H](O)CC[C@@]4(C)[C@H]3CC[C@]12C)C(C)C
REMARK SMILES IDX 5 1 4 2 3 3 2 4 1 5 28 6 29 7 30 8 6 9 7 10 8 11 9 12 26 13
REMARK SMILES IDX 10 14 11 15 25 16 27 17 12 18 24 19 23 20 13 21 21 22 14 23
REMARK SMILES IDX 15 24 20 25 22 26 16 27 19 28 17 29 18 30
REMARK H PARENT 18 31
REMARK Flexibility Score: inf
ROOT
ATOM      1  C   UNL     1     166.251 174.945 152.784  1.00  0.00     0.004 C 
ENDROOT
BRANCH   1   2
ATOM      2  C   UNL     1     165.950 175.454 151.352  1.00  0.00     0.004 C 
BRANCH   2   3
ATOM      3  C   UNL     1     165.505 176.949 151.252  1.00  0.00    -0.009 C 
BRANCH   3   4
ATOM      4  C   UNL     1     166.264 177.642 150.080  1.00  0.00     0.000 C 
ATOM      5  C   UNL     1     167.233 176.712 149.334  1.00  0.00     0.004 C 
ENDBRANCH   3   4
BRANCH   3   6
ATOM      6  C   UNL     1     163.944 177.134 151.161  1.00  0.00    -0.014 C 
ATOM      7  C   UNL     1     163.352 177.656 152.486  1.00  0.00     0.007 C 
ATOM      8  C   UNL     1     163.218 175.832 150.789  1.00  0.00     0.007 C 
ENDBRANCH   3   6
ENDBRANCH   2   3
ENDBRANCH   1   2
BRANCH   1   9
ATOM      9  C   UNL     1     167.590 175.394 153.441  1.00  0.00    -0.011 C 
ATOM     10  C   UNL     1     167.355 176.605 154.365  1.00  0.00     0.008 C 
BRANCH   9  11
ATOM     11  C   UNL     1     168.789 175.670 152.465  1.00  0.00    -0.002 C 
ATOM     12  C   UNL     1     169.266 177.151 152.556  1.00  0.00     0.005 C 
ATOM     13  C   UNL     1     170.110 174.850 152.631  1.00  0.00    -0.026 C 
ATOM     14  C   UNL     1     170.778 177.163 152.296  1.00  0.00     0.005 C 
ATOM     15  C   UNL     1     171.079 175.747 151.839  1.00  0.00    -0.001 C 
ATOM     16  C   UNL     1     170.130 173.460 151.935  1.00  0.00     0.007 C 
ATOM     17  C   UNL     1     170.494 174.729 154.137  1.00  0.00     0.012 C 
ATOM     18  C   UNL     1     172.549 175.259 151.857  1.00  0.00     0.000 C 
ATOM     19  C   UNL     1     171.566 172.881 151.857  1.00  0.00     0.005 C 
ATOM     20  C   UNL     1     172.601 173.854 151.202  1.00  0.00     0.003 C 
ATOM     21  C   UNL     1     173.449 176.211 151.057  1.00  0.00     0.031 C 
ATOM     22  C   UNL     1     174.083 173.279 151.087  1.00  0.00    -0.008 C 
ATOM     23  C   UNL     1     174.855 175.703 151.030  1.00  0.00    -0.027 C 
ATOM     24  C   UNL     1     175.154 174.386 151.040  1.00  0.00    -0.065 C 
ATOM     25  C   UNL     1     174.434 172.347 152.293  1.00  0.00     0.014 C 
ATOM     26  C   UNL     1     174.163 172.466 149.767  1.00  0.00     0.016 C 
ATOM     27  C   UNL     1     176.614 173.982 151.091  1.00  0.00     0.063 C 
ATOM     28  C   UNL     1     175.905 171.897 152.340  1.00  0.00     0.033 C 
ATOM     29  C   UNL     1     176.880 173.086 152.305  1.00  0.00     0.118 C 
BRANCH  29  30
ATOM     30  O   UNL     1     176.772 173.843 153.485  1.00  0.00    -0.393 OA
ATOM     31  H   UNL     1     176.707 174.797 153.215  1.00  0.00     0.210 HD
ENDBRANCH  29  30
ENDBRANCH   9  11
ENDBRANCH   1   9
TORSDOF 7
ENDMDL
MODEL 5
REMARK VINA RESULT:    -6.621      3.551      9.538
REMARK INTER + INTRA:         -10.503
REMARK INTER:                  -9.566
REMARK INTRA:                  -0.937
REMARK UNBOUND:                -1.366
REMARK SMILES CC[C@H](CC[C@H](C)[C@H]1CC[C@H]2[C@@H]3CC=C4C[C@@H](O)CC[C@@]4(C)[C@H]3CC[C@]12C)C(C)C
REMARK SMILES IDX 5 1 4 2 3 3 2 4 1 5 28 6 29 7 30 8 6 9 7 10 8 11 9 12 26 13
REMARK SMILES IDX 10 14 11 15 25 16 27 17 12 18 24 19 23 20 13 21 21 22 14 23
REMARK SMILES IDX 15 24 20 25 22 26 16 27 19 28 17 29 18 30
REMARK H PARENT 18 31
REMARK Flexibility Score: inf
ROOT
ATOM      1  C   UNL     1     171.276 177.010 153.389  1.00  0.00     0.004 C 
ENDROOT
BRANCH   1   2
ATOM      2  C   UNL     1     172.172 177.648 152.297  1.00  0.00     0.004 C 
BRANCH   2   3
ATOM      3  C   UNL     1     173.710 177.572 152.564  1.00  0.00    -0.009 C 
BRANCH   3   4
ATOM      4  C   UNL     1     173.972 176.780 153.882  1.00  0.00     0.000 C 
ATOM      5  C   UNL     1     175.279 177.169 154.589  1.00  0.00     0.004 C 
ENDBRANCH   3   4
BRANCH   3   6
ATOM      6  C   UNL     1     174.533 177.013 151.343  1.00  0.00    -0.014 C 
ATOM      7  C   UNL     1     174.738 178.084 150.253  1.00  0.00     0.007 C 
ATOM      8  C   UNL     1     173.865 175.789 150.697  1.00  0.00     0.007 C 
ENDBRANCH   3   6
ENDBRANCH   2   3
ENDBRANCH   1   2
BRANCH   1   9
ATOM      9  C   UNL     1     170.059 176.161 152.916  1.00  0.00    -0.011 C 
ATOM     10  C   UNL     1     170.491 175.167 151.821  1.00  0.00     0.008 C 
BRANCH   9  11
ATOM     11  C   UNL     1     168.784 176.959 152.464  1.00  0.00    -0.002 C 
ATOM     12  C   UNL     1     168.694 177.054 150.912  1.00  0.00     0.005 C 
ATOM     13  C   UNL     1     167.371 176.434 152.880  1.00  0.00    -0.026 C 
ATOM     14  C   UNL     1     167.206 177.058 150.537  1.00  0.00     0.005 C 
ATOM     15  C   UNL     1     166.497 177.202 151.871  1.00  0.00    -0.001 C 
ATOM     16  C   UNL     1     166.885 176.859 154.295  1.00  0.00     0.007 C 
ATOM     17  C   UNL     1     167.285 174.888 152.699  1.00  0.00     0.012 C 
ATOM     18  C   UNL     1     164.990 176.854 151.950  1.00  0.00     0.000 C 
ATOM     19  C   UNL     1     165.369 176.596 154.481  1.00  0.00     0.005 C 
ATOM     20  C   UNL     1     164.478 177.232 153.365  1.00  0.00     0.003 C 
ATOM     21  C   UNL     1     164.192 177.650 150.907  1.00  0.00     0.031 C 
ATOM     22  C   UNL     1     162.912 176.997 153.540  1.00  0.00    -0.008 C 
ATOM     23  C   UNL     1     162.731 177.354 151.027  1.00  0.00    -0.027 C 
ATOM     24  C   UNL     1     162.142 177.062 152.207  1.00  0.00    -0.065 C 
ATOM     25  C   UNL     1     162.608 175.604 154.183  1.00  0.00     0.014 C 
ATOM     26  C   UNL     1     162.376 178.121 154.468  1.00  0.00     0.016 C 
ATOM     27  C   UNL     1     160.670 176.699 152.204  1.00  0.00     0.063 C 
ATOM     28  C   UNL     1     161.114 175.236 154.222  1.00  0.00     0.033 C 
ATOM     29  C   UNL     1     160.457 175.319 152.833  1.00  0.00     0.118 C 
BRANCH  29  30
ATOM     30  O   UNL     1     160.977 174.326 151.985  1.00  0.00    -0.393 OA
ATOM     31  H   UNL     1     161.163 174.758 151.109  1.00  0.00     0.210 HD
ENDBRANCH  29  30
ENDBRANCH   9  11
ENDBRANCH   1   9
TORSDOF 7
ENDMDL
MODEL 6
REMARK VINA RESULT:    -6.601      6.604     11.666
REMARK INTER + INTRA:         -10.476
REMARK INTER:                  -8.755
REMARK INTRA:                  -1.721
REMARK UNBOUND:                -1.366
REMARK SMILES CC[C@H](CC[C@H](C)[C@H]1CC[C@H]2[C@@H]3CC=C4C[C@@H](O)CC[C@@]4(C)[C@H]3CC[C@]12C)C(C)C
REMARK SMILES IDX 5 1 4 2 3 3 2 4 1 5 28 6 29 7 30 8 6 9 7 10 8 11 9 12 26 13
REMARK SMILES IDX 10 14 11 15 25 16 27 17 12 18 24 19 23 20 13 21 21 22 14 23
REMARK SMILES IDX 15 24 20 25 22 26 16 27 19 28 17 29 18 30
REMARK H PARENT 18 31
REMARK Flexibility Score: inf
ROOT
ATOM      1  C   UNL     1     172.386 178.125 151.242  1.00  0.00     0.004 C 
ENDROOT
BRANCH   1   2
ATOM      2  C   UNL     1     171.281 177.770 152.269  1.00  0.00     0.004 C 
BRANCH   2   3
ATOM      3  C   UNL     1     170.299 176.635 151.831  1.00  0.00    -0.009 C 
BRANCH   3   4
ATOM      4  C   UNL     1     170.560 175.360 152.691  1.00  0.00     0.000 C 
ATOM      5  C   UNL     1     171.263 174.229 151.925  1.00  0.00     0.004 C 
ENDBRANCH   3   4
BRANCH   3   6
ATOM      6  C   UNL     1     168.787 177.076 151.837  1.00  0.00    -0.014 C 
ATOM      7  C   UNL     1     167.947 176.227 152.812  1.00  0.00     0.007 C 
ATOM      8  C   UNL     1     168.145 176.987 150.444  1.00  0.00     0.007 C 
ENDBRANCH   3   6
ENDBRANCH   2   3
ENDBRANCH   1   2
BRANCH   1   9
ATOM      9  C   UNL     1     173.855 177.760 151.612  1.00  0.00    -0.011 C 
ATOM     10  C   UNL     1     174.761 177.860 150.370  1.00  0.00     0.008 C 
BRANCH   9  11
ATOM     11  C   UNL     1     174.071 176.386 152.343  1.00  0.00    -0.002 C 
ATOM     12  C   UNL     1     175.219 175.566 151.682  1.00  0.00     0.005 C 
ATOM     13  C   UNL     1     174.447 176.383 153.861  1.00  0.00    -0.026 C 
ATOM     14  C   UNL     1     175.903 174.757 152.792  1.00  0.00     0.005 C 
ATOM     15  C   UNL     1     174.996 174.951 153.993  1.00  0.00    -0.001 C 
ATOM     16  C   UNL     1     173.252 176.489 154.849  1.00  0.00     0.007 C 
ATOM     17  C   UNL     1     175.522 177.472 154.161  1.00  0.00     0.012 C 
ATOM     18  C   UNL     1     175.550 174.615 155.400  1.00  0.00     0.000 C 
ATOM     19  C   UNL     1     173.676 176.133 156.297  1.00  0.00     0.005 C 
ATOM     20  C   UNL     1     174.389 174.747 156.421  1.00  0.00     0.003 C 
ATOM     21  C   UNL     1     176.087 173.177 155.445  1.00  0.00     0.031 C 
ATOM     22  C   UNL     1     174.818 174.342 157.902  1.00  0.00    -0.008 C 
ATOM     23  C   UNL     1     176.565 172.840 156.822  1.00  0.00    -0.027 C 
ATOM     24  C   UNL     1     176.001 173.355 157.935  1.00  0.00    -0.065 C 
ATOM     25  C   UNL     1     175.235 175.593 158.742  1.00  0.00     0.014 C 
ATOM     26  C   UNL     1     173.593 173.659 158.568  1.00  0.00     0.016 C 
ATOM     27  C   UNL     1     176.615 173.009 159.277  1.00  0.00     0.063 C 
ATOM     28  C   UNL     1     175.827 175.261 160.123  1.00  0.00     0.033 C 
ATOM     29  C   UNL     1     177.011 174.283 160.030  1.00  0.00     0.118 C 
BRANCH  29  30
ATOM     30  O   UNL     1     178.102 174.894 159.387  1.00  0.00    -0.393 OA
ATOM     31  H   UNL     1     178.842 174.231 159.375  1.00  0.00     0.210 HD
ENDBRANCH  29  30
ENDBRANCH   9  11
ENDBRANCH   1   9
TORSDOF 7
ENDMDL
MODEL 7
REMARK VINA RESULT:    -6.548      5.697     11.127
REMARK INTER + INTRA:         -10.402
REMARK INTER:                  -8.601
REMARK INTRA:                  -1.802
REMARK UNBOUND:                -1.366
REMARK SMILES CC[C@H](CC[C@H](C)[C@H]1CC[C@H]2[C@@H]3CC=C4C[C@@H](O)CC[C@@]4(C)[C@H]3CC[C@]12C)C(C)C
REMARK SMILES IDX 5 1 4 2 3 3 2 4 1 5 28 6 29 7 30 8 6 9 7 10 8 11 9 12 26 13
REMARK SMILES IDX 10 14 11 15 25 16 27 17 12 18 24 19 23 20 13 21 21 22 14 23
REMARK SMILES IDX 15 24 20 25 22 26 16 27 19 28 17 29 18 30
REMARK H PARENT 18 31
REMARK Flexibility Score: inf
ROOT
ATOM      1  C   UNL     1     176.891 172.569 152.637  1.00  0.00     0.004 C 
ENDROOT
BRANCH   1   2
ATOM      2  C   UNL     1     176.407 171.099 152.707  1.00  0.00     0.004 C 
BRANCH   2   3
ATOM      3  C   UNL     1     176.623 170.261 151.405  1.00  0.00    -0.009 C 
BRANCH   3   4
ATOM      4  C   UNL     1     177.379 168.943 151.754  1.00  0.00     0.000 C 
ATOM      5  C   UNL     1     177.207 168.497 153.213  1.00  0.00     0.004 C 
ENDBRANCH   3   4
BRANCH   3   6
ATOM      6  C   UNL     1     175.297 170.007 150.594  1.00  0.00    -0.014 C 
ATOM      7  C   UNL     1     175.216 170.896 149.337  1.00  0.00     0.007 C 
ATOM      8  C   UNL     1     174.037 170.250 151.438  1.00  0.00     0.007 C 
ENDBRANCH   3   6
ENDBRANCH   2   3
ENDBRANCH   1   2
BRANCH   1   9
ATOM      9  C   UNL     1     176.304 173.468 151.509  1.00  0.00    -0.011 C 
ATOM     10  C   UNL     1     177.439 174.101 150.681  1.00  0.00     0.008 C 
BRANCH   9  11
ATOM     11  C   UNL     1     175.269 174.563 151.954  1.00  0.00    -0.002 C 
ATOM     12  C   UNL     1     175.508 175.908 151.205  1.00  0.00     0.005 C 
ATOM     13  C   UNL     1     173.742 174.296 151.748  1.00  0.00    -0.026 C 
ATOM     14  C   UNL     1     174.141 176.581 151.023  1.00  0.00     0.005 C 
ATOM     15  C   UNL     1     173.205 175.734 151.865  1.00  0.00    -0.001 C 
ATOM     16  C   UNL     1     173.047 173.474 152.869  1.00  0.00     0.007 C 
ATOM     17  C   UNL     1     173.481 173.666 150.346  1.00  0.00     0.012 C 
ATOM     18  C   UNL     1     171.680 175.859 151.629  1.00  0.00     0.000 C 
ATOM     19  C   UNL     1     171.502 173.555 152.762  1.00  0.00     0.005 C 
ATOM     20  C   UNL     1     170.951 175.018 152.711  1.00  0.00     0.003 C 
ATOM     21  C   UNL     1     171.227 177.321 151.751  1.00  0.00     0.031 C 
ATOM     22  C   UNL     1     169.365 175.135 152.622  1.00  0.00    -0.008 C 
ATOM     23  C   UNL     1     169.745 177.426 151.581  1.00  0.00    -0.027 C 
ATOM     24  C   UNL     1     168.895 176.451 151.971  1.00  0.00    -0.065 C 
ATOM     25  C   UNL     1     168.746 173.963 151.792  1.00  0.00     0.014 C 
ATOM     26  C   UNL     1     168.815 175.086 154.073  1.00  0.00     0.016 C 
ATOM     27  C   UNL     1     167.419 176.626 151.678  1.00  0.00     0.063 C 
ATOM     28  C   UNL     1     167.239 174.106 151.517  1.00  0.00     0.033 C 
ATOM     29  C   UNL     1     166.893 175.449 150.852  1.00  0.00     0.118 C 
BRANCH  29  30
ATOM     30  O   UNL     1     167.430 175.505 149.553  1.00  0.00    -0.393 OA
ATOM     31  H   UNL     1     166.687 175.747 148.940  1.00  0.00     0.210 HD
ENDBRANCH  29  30
ENDBRANCH   9  11
ENDBRANCH   1   9
TORSDOF 7
ENDMDL
MODEL 8
REMARK VINA RESULT:    -6.504     10.242     13.243
REMARK INTER + INTRA:         -10.342
REMARK INTER:                  -9.400
REMARK INTRA:                  -0.942
REMARK UNBOUND:                -1.366
REMARK SMILES CC[C@H](CC[C@H](C)[C@H]1CC[C@H]2[C@@H]3CC=C4C[C@@H](O)CC[C@@]4(C)[C@H]3CC[C@]12C)C(C)C
REMARK SMILES IDX 5 1 4 2 3 3 2 4 1 5 28 6 29 7 30 8 6 9 7 10 8 11 9 12 26 13
REMARK SMILES IDX 10 14 11 15 25 16 27 17 12 18 24 19 23 20 13 21 21 22 14 23
REMARK SMILES IDX 15 24 20 25 22 26 16 27 19 28 17 29 18 30
REMARK H PARENT 18 31
REMARK Flexibility Score: inf
ROOT
ATOM      1  C   UNL     1     177.280 167.974 153.174  1.00  0.00     0.004 C 
ENDROOT
BRANCH   1   2
ATOM      2  C   UNL     1     178.045 167.204 152.069  1.00  0.00     0.004 C 
BRANCH   2   3
ATOM      3  C   UNL     1     178.050 165.647 152.218  1.00  0.00    -0.009 C 
BRANCH   3   4
ATOM      4  C   UNL     1     177.325 165.248 153.539  1.00  0.00     0.000 C 
ATOM      5  C   UNL     1     177.897 163.987 154.203  1.00  0.00     0.004 C 
ENDBRANCH   3   4
BRANCH   3   6
ATOM      6  C   UNL     1     177.479 164.895 150.958  1.00  0.00    -0.014 C 
ATOM      7  C   UNL     1     175.951 164.707 151.047  1.00  0.00     0.007 C 
ATOM      8  C   UNL     1     178.123 163.514 150.757  1.00  0.00     0.007 C 
ENDBRANCH   3   6
ENDBRANCH   2   3
ENDBRANCH   1   2
BRANCH   1   9
ATOM      9  C   UNL     1     176.134 168.928 152.724  1.00  0.00    -0.011 C 
ATOM     10  C   UNL     1     175.276 168.259 151.633  1.00  0.00     0.008 C 
BRANCH   9  11
ATOM     11  C   UNL     1     176.561 170.373 152.282  1.00  0.00    -0.002 C 
ATOM     12  C   UNL     1     176.623 170.497 150.729  1.00  0.00     0.005 C 
ATOM     13  C   UNL     1     175.679 171.592 152.710  1.00  0.00    -0.026 C 
ATOM     14  C   UNL     1     176.228 171.935 150.367  1.00  0.00     0.005 C 
ATOM     15  C   UNL     1     176.182 172.646 151.707  1.00  0.00    -0.001 C 
ATOM     16  C   UNL     1     175.965 172.163 154.128  1.00  0.00     0.007 C 
ATOM     17  C   UNL     1     174.166 171.263 152.532  1.00  0.00     0.012 C 
ATOM     18  C   UNL     1     175.445 174.006 151.798  1.00  0.00     0.000 C 
ATOM     19  C   UNL     1     175.307 173.552 154.327  1.00  0.00     0.005 C 
ATOM     20  C   UNL     1     175.678 174.589 153.217  1.00  0.00     0.003 C 
ATOM     21  C   UNL     1     175.996 174.995 150.761  1.00  0.00     0.031 C 
ATOM     22  C   UNL     1     175.035 176.034 153.406  1.00  0.00    -0.008 C 
ATOM     23  C   UNL     1     175.321 176.322 150.893  1.00  0.00    -0.027 C 
ATOM     24  C   UNL     1     174.887 176.804 152.078  1.00  0.00    -0.065 C 
ATOM     25  C   UNL     1     173.613 175.951 154.053  1.00  0.00     0.014 C 
ATOM     26  C   UNL     1     175.978 176.844 154.336  1.00  0.00     0.016 C 
ATOM     27  C   UNL     1     174.145 178.125 152.088  1.00  0.00     0.063 C 
ATOM     28  C   UNL     1     172.860 177.292 154.104  1.00  0.00     0.033 C 
ATOM     29  C   UNL     1     172.760 177.958 152.721  1.00  0.00     0.118 C 
BRANCH  29  30
ATOM     30  O   UNL     1     171.938 177.198 151.870  1.00  0.00    -0.393 OA
ATOM     31  H   UNL     1     171.901 176.278 152.245  1.00  0.00     0.210 HD
ENDBRANCH  29  30
ENDBRANCH   9  11
ENDBRANCH   1   9
TORSDOF 7
ENDMDL
MODEL 9
REMARK VINA RESULT:    -6.333      7.279     11.820
REMARK INTER + INTRA:         -10.106
REMARK INTER:                  -8.364
REMARK INTRA:                  -1.742
REMARK UNBOUND:                -1.366
REMARK SMILES CC[C@H](CC[C@H](C)[C@H]1CC[C@H]2[C@@H]3CC=C4C[C@@H](O)CC[C@@]4(C)[C@H]3CC[C@]12C)C(C)C
REMARK SMILES IDX 5 1 4 2 3 3 2 4 1 5 28 6 29 7 30 8 6 9 7 10 8 11 9 12 26 13
REMARK SMILES IDX 10 14 11 15 25 16 27 17 12 18 24 19 23 20 13 21 21 22 14 23
REMARK SMILES IDX 15 24 20 25 22 26 16 27 19 28 17 29 18 30
REMARK H PARENT 18 31
REMARK Flexibility Score: inf
ROOT
ATOM      1  C   UNL     1     172.526 177.323 152.062  1.00  0.00     0.004 C 
ENDROOT
BRANCH   1   2
ATOM      2  C   UNL     1     171.697 177.364 153.370  1.00  0.00     0.004 C 
BRANCH   2   3
ATOM      3  C   UNL     1     170.403 176.487 153.371  1.00  0.00    -0.009 C 
BRANCH   3   4
ATOM      4  C   UNL     1     170.058 176.067 151.910  1.00  0.00     0.000 C 
ATOM      5  C   UNL     1     168.782 176.723 151.361  1.00  0.00     0.004 C 
ENDBRANCH   3   4
BRANCH   3   6
ATOM      6  C   UNL     1     170.476 175.261 154.357  1.00  0.00    -0.014 C 
ATOM      7  C   UNL     1     169.353 175.307 155.411  1.00  0.00     0.007 C 
ATOM      8  C   UNL     1     171.824 175.178 155.091  1.00  0.00     0.007 C 
ENDBRANCH   3   6
ENDBRANCH   2   3
ENDBRANCH   1   2
BRANCH   1   9
ATOM      9  C   UNL     1     174.024 176.909 152.173  1.00  0.00    -0.011 C 
ATOM     10  C   UNL     1     174.937 178.090 151.789  1.00  0.00     0.008 C 
BRANCH   9  11
ATOM     11  C   UNL     1     174.450 175.610 151.399  1.00  0.00    -0.002 C 
ATOM     12  C   UNL     1     175.879 175.751 150.795  1.00  0.00     0.005 C 
ATOM     13  C   UNL     1     174.512 174.251 152.171  1.00  0.00    -0.026 C 
ATOM     14  C   UNL     1     176.524 174.359 150.813  1.00  0.00     0.005 C 
ATOM     15  C   UNL     1     175.383 173.435 151.199  1.00  0.00    -0.001 C 
ATOM     16  C   UNL     1     173.163 173.488 152.298  1.00  0.00     0.007 C 
ATOM     17  C   UNL     1     175.181 174.443 153.566  1.00  0.00     0.012 C 
ATOM     18  C   UNL     1     175.722 172.010 151.700  1.00  0.00     0.000 C 
ATOM     19  C   UNL     1     173.377 172.023 152.758  1.00  0.00     0.005 C 
ATOM     20  C   UNL     1     174.393 171.229 151.874  1.00  0.00     0.003 C 
ATOM     21  C   UNL     1     176.601 171.269 150.682  1.00  0.00     0.031 C 
ATOM     22  C   UNL     1     174.618 169.712 152.308  1.00  0.00    -0.008 C 
ATOM     23  C   UNL     1     176.875 169.873 151.144  1.00  0.00    -0.027 C 
ATOM     24  C   UNL     1     175.990 169.160 151.874  1.00  0.00    -0.065 C 
ATOM     25  C   UNL     1     174.519 169.537 153.859  1.00  0.00     0.014 C 
ATOM     26  C   UNL     1     173.512 168.865 151.622  1.00  0.00     0.016 C 
ATOM     27  C   UNL     1     176.402 167.785 152.358  1.00  0.00     0.063 C 
ATOM     28  C   UNL     1     174.898 168.134 154.365  1.00  0.00     0.033 C 
ATOM     29  C   UNL     1     176.293 167.698 153.884  1.00  0.00     0.118 C 
BRANCH  29  30
ATOM     30  O   UNL     1     177.287 168.497 154.476  1.00  0.00    -0.393 OA
ATOM     31  H   UNL     1     177.858 168.845 153.741  1.00  0.00     0.210 HD
ENDBRANCH  29  30
ENDBRANCH   9  11
ENDBRANCH   1   9
TORSDOF 7
ENDMDL
