MODEL 1
REMARK VINA RESULT:    -5.974      0.000      0.000
REMARK INTER + INTRA:          -6.323
REMARK INTER:                  -6.323
REMARK INTRA:                   0.000
REMARK UNBOUND:                 0.000
REMARK SMILES C[C@H]1CC[C@H]2[N@H+](C1)C[C@H]1[C@H]3C[C@@H]4[C@@H](CC(=O)[C@@H]5C[C@@H](O)CC[C@]45C)[C@@H]3CC[C@@H]1[C@@]2(C)O
REMARK SMILES IDX 5 1 6 2 8 3 7 4 4 5 29 6 3 7 28 8 30 9 2 10 27 11 9 12 1 13
REMARK SMILES IDX 26 14 10 15 25 16 11 17 13 18 12 19 14 20 23 21 15 22 17 23
REMARK SMILES IDX 22 24 24 25 16 26 18 27 21 28 19 29 31 31 20 33
REMARK H PARENT 6 30 31 32 20 34
REMARK Flexibility Score: inf
ROOT
ATOM      1  C   UNL     1      23.772  -0.783  18.450  1.00  0.00     0.216 C 
ATOM      2  N   UNL     1      23.426  -1.922  17.545  1.00  0.00    -0.330 N 
ATOM      3  C   UNL     1      21.949  -2.085  17.387  1.00  0.00     0.266 C 
ATOM      4  C   UNL     1      24.069  -1.764  16.223  1.00  0.00     0.265 C 
ATOM      5  C   UNL     1      25.276  -0.372  18.345  1.00  0.00     0.069 C 
ATOM      6  C   UNL     1      23.316  -1.091  19.932  1.00  0.00     0.117 C 
ATOM      7  C   UNL     1      26.135  -1.475  17.723  1.00  0.00     0.015 C 
ATOM      8  C   UNL     1      22.017  -1.976  19.900  1.00  0.00     0.036 C 
ATOM      9  C   UNL     1      23.086   0.249  20.674  1.00  0.00     0.049 C 
ATOM     10  C   UNL     1      25.611  -1.885  16.327  1.00  0.00     0.041 C 
ATOM     11  C   UNL     1      21.155  -1.985  21.189  1.00  0.00     0.007 C 
ATOM     12  C   UNL     1      21.159  -1.637  18.645  1.00  0.00     0.054 C 
ATOM     13  C   UNL     1      26.292  -1.078  15.214  1.00  0.00     0.013 C 
ATOM     14  C   UNL     1      20.031  -3.056  21.121  1.00  0.00     0.004 C 
ATOM     15  C   UNL     1      19.702  -2.175  18.780  1.00  0.00     0.002 C 
ATOM     16  C   UNL     1      19.633  -3.407  19.664  1.00  0.00    -0.004 C 
ATOM     17  C   UNL     1      18.909  -2.540  17.523  1.00  0.00     0.009 C 
ATOM     18  C   UNL     1      18.197  -3.903  19.477  1.00  0.00     0.003 C 
ATOM     19  C   UNL     1      17.825  -3.538  18.008  1.00  0.00    -0.000 C 
ATOM     20  C   UNL     1      18.014  -5.379  19.865  1.00  0.00     0.080 C 
ATOM     21  C   UNL     1      17.534  -4.761  17.051  1.00  0.00    -0.020 C 
ATOM     22  C   UNL     1      16.767  -5.916  19.236  1.00  0.00     0.136 C 
ATOM     23  C   UNL     1      16.485  -5.705  17.760  1.00  0.00     0.065 C 
ATOM     24  C   UNL     1      18.844  -5.536  16.661  1.00  0.00     0.010 C 
ATOM     25  C   UNL     1      16.897  -4.197  15.752  1.00  0.00     0.012 C 
ATOM     26  O   UNL     1      15.950  -6.502  19.929  1.00  0.00    -0.299 OA
ATOM     27  C   UNL     1      16.311  -7.062  17.048  1.00  0.00     0.043 C 
ATOM     28  C   UNL     1      18.597  -6.905  16.010  1.00  0.00     0.032 C 
ATOM     29  C   UNL     1      17.657  -7.772  16.850  1.00  0.00     0.115 C 
ATOM     30  H   UNL     1      23.793  -2.811  17.966  1.00  0.00     0.348 HD
ENDROOT
BRANCH   6  31
ATOM     31  O   UNL     1      24.341  -1.812  20.576  1.00  0.00    -0.384 OA
ATOM     32  H   UNL     1      24.523  -2.634  20.050  1.00  0.00     0.211 HD
ENDBRANCH   6  31
BRANCH  29  33
ATOM     33  O   UNL     1      17.468  -9.027  16.246  1.00  0.00    -0.393 OA
ATOM     34  H   UNL     1      16.577  -9.025  15.808  1.00  0.00     0.210 HD
ENDBRANCH  29  33
TORSDOF 2
ENDMDL
MODEL 2
REMARK VINA RESULT:    -5.442      4.841      9.038
REMARK INTER + INTRA:          -5.760
REMARK INTER:                  -5.760
REMARK INTRA:                   0.000
REMARK UNBOUND:                 0.000
REMARK SMILES C[C@H]1CC[C@H]2[N@H+](C1)C[C@H]1[C@H]3C[C@@H]4[C@@H](CC(=O)[C@@H]5C[C@@H](O)CC[C@]45C)[C@@H]3CC[C@@H]1[C@@]2(C)O
REMARK SMILES IDX 5 1 6 2 8 3 7 4 4 5 29 6 3 7 28 8 30 9 2 10 27 11 9 12 1 13
REMARK SMILES IDX 26 14 10 15 25 16 11 17 13 18 12 19 14 20 23 21 15 22 17 23
REMARK SMILES IDX 22 24 24 25 16 26 18 27 21 28 19 29 31 31 20 33
REMARK H PARENT 6 30 31 32 20 34
REMARK Flexibility Score: inf
ROOT
ATOM      1  C   UNL     1      18.104  -5.560   9.802  1.00  0.00     0.216 C 
ATOM      2  N   UNL     1      17.966  -4.989  11.177  1.00  0.00    -0.330 N 
ATOM      3  C   UNL     1      19.155  -5.290  12.032  1.00  0.00     0.266 C 
ATOM      4  C   UNL     1      17.727  -3.531  11.126  1.00  0.00     0.265 C 
ATOM      5  C   UNL     1      17.064  -4.963   8.800  1.00  0.00     0.069 C 
ATOM      6  C   UNL     1      18.083  -7.139   9.850  1.00  0.00     0.117 C 
ATOM      7  C   UNL     1      15.881  -4.308   9.516  1.00  0.00     0.015 C 
ATOM      8  C   UNL     1      18.731  -7.625  11.198  1.00  0.00     0.036 C 
ATOM      9  C   UNL     1      18.836  -7.688   8.614  1.00  0.00     0.049 C 
ATOM     10  C   UNL     1      16.347  -3.207  10.496  1.00  0.00     0.041 C 
ATOM     11  C   UNL     1      19.236  -9.091  11.233  1.00  0.00     0.007 C 
ATOM     12  C   UNL     1      19.838  -6.631  11.657  1.00  0.00     0.054 C 
ATOM     13  C   UNL     1      16.373  -1.830   9.820  1.00  0.00     0.013 C 
ATOM     14  C   UNL     1      19.648  -9.522  12.668  1.00  0.00     0.004 C 
ATOM     15  C   UNL     1      20.768  -7.263  12.737  1.00  0.00     0.002 C 
ATOM     16  C   UNL     1      20.049  -8.318  13.558  1.00  0.00    -0.004 C 
ATOM     17  C   UNL     1      21.462  -6.363  13.762  1.00  0.00     0.009 C 
ATOM     18  C   UNL     1      21.037  -8.633  14.683  1.00  0.00     0.003 C 
ATOM     19  C   UNL     1      21.784  -7.293  14.960  1.00  0.00    -0.000 C 
ATOM     20  C   UNL     1      20.372  -9.291  15.902  1.00  0.00     0.080 C 
ATOM     21  C   UNL     1      21.565  -6.671  16.397  1.00  0.00    -0.020 C 
ATOM     22  C   UNL     1      21.254  -9.141  17.102  1.00  0.00     0.136 C 
ATOM     23  C   UNL     1      21.848  -7.794  17.470  1.00  0.00     0.065 C 
ATOM     24  C   UNL     1      20.130  -6.053  16.565  1.00  0.00     0.010 C 
ATOM     25  C   UNL     1      22.608  -5.535  16.578  1.00  0.00     0.012 C 
ATOM     26  O   UNL     1      21.527 -10.125  17.772  1.00  0.00    -0.299 OA
ATOM     27  C   UNL     1      21.420  -7.392  18.896  1.00  0.00     0.043 C 
ATOM     28  C   UNL     1      19.748  -5.731  18.017  1.00  0.00     0.032 C 
ATOM     29  C   UNL     1      19.956  -6.935  18.939  1.00  0.00     0.115 C 
ATOM     30  H   UNL     1      17.132  -5.426  11.641  1.00  0.00     0.348 HD
ENDROOT
BRANCH   6  31
ATOM     31  O   UNL     1      16.741  -7.571   9.810  1.00  0.00    -0.384 OA
ATOM     32  H   UNL     1      16.547  -8.062  10.651  1.00  0.00     0.211 HD
ENDBRANCH   6  31
BRANCH  29  33
ATOM     33  O   UNL     1      19.576  -6.622  20.255  1.00  0.00    -0.393 OA
ATOM     34  H   UNL     1      18.733  -6.098  20.213  1.00  0.00     0.210 HD
ENDBRANCH  29  33
TORSDOF 2
ENDMDL
MODEL 3
REMARK VINA RESULT:    -5.217      4.207      6.948
REMARK INTER + INTRA:          -5.522
REMARK INTER:                  -5.522
REMARK INTRA:                   0.000
REMARK UNBOUND:                 0.000
REMARK SMILES C[C@H]1CC[C@H]2[N@H+](C1)C[C@H]1[C@H]3C[C@@H]4[C@@H](CC(=O)[C@@H]5C[C@@H](O)CC[C@]45C)[C@@H]3CC[C@@H]1[C@@]2(C)O
REMARK SMILES IDX 5 1 6 2 8 3 7 4 4 5 29 6 3 7 28 8 30 9 2 10 27 11 9 12 1 13
REMARK SMILES IDX 26 14 10 15 25 16 11 17 13 18 12 19 14 20 23 21 15 22 17 23
REMARK SMILES IDX 22 24 24 25 16 26 18 27 21 28 19 29 31 31 20 33
REMARK H PARENT 6 30 31 32 20 34
REMARK Flexibility Score: inf
ROOT
ATOM      1  C   UNL     1      19.766  -4.936  18.468  1.00  0.00     0.216 C 
ATOM      2  N   UNL     1      20.049  -4.267  17.161  1.00  0.00    -0.330 N 
ATOM      3  C   UNL     1      19.136  -4.743  16.077  1.00  0.00     0.266 C 
ATOM      4  C   UNL     1      19.971  -2.797  17.288  1.00  0.00     0.265 C 
ATOM      5  C   UNL     1      20.449  -4.208  19.671  1.00  0.00     0.069 C 
ATOM      6  C   UNL     1      20.119  -6.474  18.394  1.00  0.00     0.117 C 
ATOM      7  C   UNL     1      21.589  -3.292  19.222  1.00  0.00     0.015 C 
ATOM      8  C   UNL     1      19.858  -6.996  16.934  1.00  0.00     0.036 C 
ATOM      9  C   UNL     1      19.268  -7.234  19.442  1.00  0.00     0.049 C 
ATOM     10  C   UNL     1      21.106  -2.246  18.190  1.00  0.00     0.041 C 
ATOM     11  C   UNL     1      19.679  -8.527  16.768  1.00  0.00     0.007 C 
ATOM     12  C   UNL     1      18.682  -6.212  16.280  1.00  0.00     0.054 C 
ATOM     13  C   UNL     1      20.670  -0.945  18.874  1.00  0.00     0.013 C 
ATOM     14  C   UNL     1      19.650  -8.944  15.271  1.00  0.00     0.004 C 
ATOM     15  C   UNL     1      18.128  -6.949  15.022  1.00  0.00     0.002 C 
ATOM     16  C   UNL     1      19.192  -7.790  14.343  1.00  0.00    -0.004 C 
ATOM     17  C   UNL     1      17.477  -6.142  13.896  1.00  0.00     0.009 C 
ATOM     18  C   UNL     1      18.527  -8.225  13.035  1.00  0.00     0.003 C 
ATOM     19  C   UNL     1      17.591  -7.043  12.639  1.00  0.00    -0.000 C 
ATOM     20  C   UNL     1      19.536  -8.665  11.963  1.00  0.00     0.080 C 
ATOM     21  C   UNL     1      17.952  -6.305  11.289  1.00  0.00    -0.020 C 
ATOM     22  C   UNL     1      18.892  -8.619  10.613  1.00  0.00     0.136 C 
ATOM     23  C   UNL     1      18.119  -7.395  10.159  1.00  0.00     0.065 C 
ATOM     24  C   UNL     1      19.236  -5.409  11.427  1.00  0.00     0.010 C 
ATOM     25  C   UNL     1      16.755  -5.387  10.923  1.00  0.00     0.012 C 
ATOM     26  O   UNL     1      18.962  -9.595   9.882  1.00  0.00    -0.299 OA
ATOM     27  C   UNL     1      18.724  -6.832   8.857  1.00  0.00     0.043 C 
ATOM     28  C   UNL     1      19.818  -4.931  10.089  1.00  0.00     0.032 C 
ATOM     29  C   UNL     1      20.043  -6.094   9.120  1.00  0.00     0.115 C 
ATOM     30  H   UNL     1      21.029  -4.503  16.866  1.00  0.00     0.348 HD
ENDROOT
BRANCH   6  31
ATOM     31  O   UNL     1      21.486  -6.637  18.696  1.00  0.00    -0.384 OA
ATOM     32  H   UNL     1      21.687  -6.120  19.520  1.00  0.00     0.211 HD
ENDBRANCH   6  31
BRANCH  29  33
ATOM     33  O   UNL     1      20.600  -5.634   7.914  1.00  0.00    -0.393 OA
ATOM     34  H   UNL     1      19.872  -5.223   7.379  1.00  0.00     0.210 HD
ENDBRANCH  29  33
TORSDOF 2
ENDMDL
MODEL 4
REMARK VINA RESULT:    -5.144      4.636      7.770
REMARK INTER + INTRA:          -5.445
REMARK INTER:                  -5.445
REMARK INTRA:                   0.000
REMARK UNBOUND:                 0.000
REMARK SMILES C[C@H]1CC[C@H]2[N@H+](C1)C[C@H]1[C@H]3C[C@@H]4[C@@H](CC(=O)[C@@H]5C[C@@H](O)CC[C@]45C)[C@@H]3CC[C@@H]1[C@@]2(C)O
REMARK SMILES IDX 5 1 6 2 8 3 7 4 4 5 29 6 3 7 28 8 30 9 2 10 27 11 9 12 1 13
REMARK SMILES IDX 26 14 10 15 25 16 11 17 13 18 12 19 14 20 23 21 15 22 17 23
REMARK SMILES IDX 22 24 24 25 16 26 18 27 21 28 19 29 31 31 20 33
REMARK H PARENT 6 30 31 32 20 34
REMARK Flexibility Score: inf
ROOT
ATOM      1  C   UNL     1      19.736  -6.281  18.238  1.00  0.00     0.216 C 
ATOM      2  N   UNL     1      19.083  -5.177  17.469  1.00  0.00    -0.330 N 
ATOM      3  C   UNL     1      18.526  -5.653  16.166  1.00  0.00     0.266 C 
ATOM      4  C   UNL     1      18.027  -4.523  18.270  1.00  0.00     0.265 C 
ATOM      5  C   UNL     1      19.997  -5.896  19.730  1.00  0.00     0.069 C 
ATOM      6  C   UNL     1      21.033  -6.788  17.492  1.00  0.00     0.117 C 
ATOM      7  C   UNL     1      19.965  -4.382  19.952  1.00  0.00     0.015 C 
ATOM      8  C   UNL     1      20.828  -6.644  15.940  1.00  0.00     0.036 C 
ATOM      9  C   UNL     1      21.309  -8.254  17.907  1.00  0.00     0.049 C 
ATOM     10  C   UNL     1      18.625  -3.767  19.485  1.00  0.00     0.041 C 
ATOM     11  C   UNL     1      21.750  -7.504  15.038  1.00  0.00     0.007 C 
ATOM     12  C   UNL     1      19.328  -6.840  15.571  1.00  0.00     0.054 C 
ATOM     13  C   UNL     1      17.610  -3.701  20.633  1.00  0.00     0.013 C 
ATOM     14  C   UNL     1      21.611  -7.118  13.539  1.00  0.00     0.004 C 
ATOM     15  C   UNL     1      19.140  -7.110  14.047  1.00  0.00     0.002 C 
ATOM     16  C   UNL     1      20.239  -6.471  13.218  1.00  0.00    -0.004 C 
ATOM     17  C   UNL     1      17.834  -6.705  13.359  1.00  0.00     0.009 C 
ATOM     18  C   UNL     1      19.752  -6.647  11.778  1.00  0.00     0.003 C 
ATOM     19  C   UNL     1      18.197  -6.565  11.858  1.00  0.00    -0.000 C 
ATOM     20  C   UNL     1      20.421  -5.677  10.792  1.00  0.00     0.080 C 
ATOM     21  C   UNL     1      17.535  -5.348  11.097  1.00  0.00    -0.020 C 
ATOM     22  C   UNL     1      19.596  -5.569   9.548  1.00  0.00     0.136 C 
ATOM     23  C   UNL     1      18.102  -5.320   9.624  1.00  0.00     0.065 C 
ATOM     24  C   UNL     1      17.773  -3.983  11.839  1.00  0.00     0.010 C 
ATOM     25  C   UNL     1      16.006  -5.610  11.038  1.00  0.00     0.012 C 
ATOM     26  O   UNL     1      20.129  -5.720   8.460  1.00  0.00    -0.299 OA
ATOM     27  C   UNL     1      17.734  -4.032   8.858  1.00  0.00     0.043 C 
ATOM     28  C   UNL     1      17.441  -2.742  10.997  1.00  0.00     0.032 C 
ATOM     29  C   UNL     1      18.142  -2.775   9.637  1.00  0.00     0.115 C 
ATOM     30  H   UNL     1      19.805  -4.447  17.250  1.00  0.00     0.348 HD
ENDROOT
BRANCH   6  31
ATOM     31  O   UNL     1      22.120  -5.979  17.883  1.00  0.00    -0.384 OA
ATOM     32  H   UNL     1      21.807  -5.356  18.590  1.00  0.00     0.211 HD
ENDBRANCH   6  31
BRANCH  29  33
ATOM     33  O   UNL     1      17.844  -1.617   8.898  1.00  0.00    -0.393 OA
ATOM     34  H   UNL     1      18.281  -0.847   9.347  1.00  0.00     0.210 HD
ENDBRANCH  29  33
TORSDOF 2
ENDMDL
MODEL 5
REMARK VINA RESULT:    -5.046      2.359      3.045
REMARK INTER + INTRA:          -5.341
REMARK INTER:                  -5.341
REMARK INTRA:                   0.000
REMARK UNBOUND:                 0.000
REMARK SMILES C[C@H]1CC[C@H]2[N@H+](C1)C[C@H]1[C@H]3C[C@@H]4[C@@H](CC(=O)[C@@H]5C[C@@H](O)CC[C@]45C)[C@@H]3CC[C@@H]1[C@@]2(C)O
REMARK SMILES IDX 5 1 6 2 8 3 7 4 4 5 29 6 3 7 28 8 30 9 2 10 27 11 9 12 1 13
REMARK SMILES IDX 26 14 10 15 25 16 11 17 13 18 12 19 14 20 23 21 15 22 17 23
REMARK SMILES IDX 22 24 24 25 16 26 18 27 21 28 19 29 31 31 20 33
REMARK H PARENT 6 30 31 32 20 34
REMARK Flexibility Score: inf
ROOT
ATOM      1  C   UNL     1      24.552  -0.167  19.741  1.00  0.00     0.216 C 
ATOM      2  N   UNL     1      25.009  -1.468  19.163  1.00  0.00    -0.330 N 
ATOM      3  C   UNL     1      23.978  -2.079  18.270  1.00  0.00     0.266 C 
ATOM      4  C   UNL     1      26.287  -1.308  18.438  1.00  0.00     0.265 C 
ATOM      5  C   UNL     1      25.724   0.651  20.373  1.00  0.00     0.069 C 
ATOM      6  C   UNL     1      23.346  -0.392  20.737  1.00  0.00     0.117 C 
ATOM      7  C   UNL     1      26.944  -0.223  20.672  1.00  0.00     0.015 C 
ATOM      8  C   UNL     1      22.491  -1.617  20.246  1.00  0.00     0.036 C 
ATOM      9  C   UNL     1      22.508   0.907  20.811  1.00  0.00     0.049 C 
ATOM     10  C   UNL     1      27.446  -0.954  19.405  1.00  0.00     0.041 C 
ATOM     11  C   UNL     1      21.039  -1.706  20.783  1.00  0.00     0.007 C 
ATOM     12  C   UNL     1      22.530  -1.718  18.693  1.00  0.00     0.054 C 
ATOM     13  C   UNL     1      28.525  -0.140  18.680  1.00  0.00     0.013 C 
ATOM     14  C   UNL     1      20.371  -3.059  20.412  1.00  0.00     0.004 C 
ATOM     15  C   UNL     1      21.396  -2.639  18.146  1.00  0.00     0.002 C 
ATOM     16  C   UNL     1      20.998  -3.705  19.151  1.00  0.00    -0.004 C 
ATOM     17  C   UNL     1      21.596  -3.388  16.826  1.00  0.00     0.009 C 
ATOM     18  C   UNL     1      20.070  -4.623  18.352  1.00  0.00     0.003 C 
ATOM     19  C   UNL     1      20.613  -4.586  16.892  1.00  0.00    -0.000 C 
ATOM     20  C   UNL     1      19.923  -6.020  18.974  1.00  0.00     0.080 C 
ATOM     21  C   UNL     1      21.158  -5.958  16.328  1.00  0.00    -0.020 C 
ATOM     22  C   UNL     1      19.417  -6.982  17.944  1.00  0.00     0.136 C 
ATOM     23  C   UNL     1      20.058  -7.064  16.573  1.00  0.00     0.065 C 
ATOM     24  C   UNL     1      22.537  -6.358  16.966  1.00  0.00     0.010 C 
ATOM     25  C   UNL     1      21.361  -5.788  14.798  1.00  0.00     0.012 C 
ATOM     26  O   UNL     1      18.451  -7.683  18.204  1.00  0.00    -0.299 OA
ATOM     27  C   UNL     1      20.567  -8.495  16.304  1.00  0.00     0.043 C 
ATOM     28  C   UNL     1      22.954  -7.813  16.708  1.00  0.00     0.032 C 
ATOM     29  C   UNL     1      21.847  -8.797  17.094  1.00  0.00     0.115 C 
ATOM     30  H   UNL     1      25.178  -2.144  19.948  1.00  0.00     0.348 HD
ENDROOT
BRANCH   6  31
ATOM     31  O   UNL     1      23.867  -0.686  22.014  1.00  0.00    -0.384 OA
ATOM     32  H   UNL     1      24.781  -0.300  22.073  1.00  0.00     0.211 HD
ENDBRANCH   6  31
BRANCH  29  33
ATOM     33  O   UNL     1      22.263 -10.122  16.872  1.00  0.00    -0.393 OA
ATOM     34  H   UNL     1      22.562 -10.194  15.928  1.00  0.00     0.210 HD
ENDBRANCH  29  33
TORSDOF 2
ENDMDL
MODEL 6
REMARK VINA RESULT:    -5.041      2.698      8.526
REMARK INTER + INTRA:          -5.336
REMARK INTER:                  -5.336
REMARK INTRA:                   0.000
REMARK UNBOUND:                 0.000
REMARK SMILES C[C@H]1CC[C@H]2[N@H+](C1)C[C@H]1[C@H]3C[C@@H]4[C@@H](CC(=O)[C@@H]5C[C@@H](O)CC[C@]45C)[C@@H]3CC[C@@H]1[C@@]2(C)O
REMARK SMILES IDX 5 1 6 2 8 3 7 4 4 5 29 6 3 7 28 8 30 9 2 10 27 11 9 12 1 13
REMARK SMILES IDX 26 14 10 15 25 16 11 17 13 18 12 19 14 20 23 21 15 22 17 23
REMARK SMILES IDX 22 24 24 25 16 26 18 27 21 28 19 29 31 31 20 33
REMARK H PARENT 6 30 31 32 20 34
REMARK Flexibility Score: inf
ROOT
ATOM      1  C   UNL     1      19.058  -7.537  18.646  1.00  0.00     0.216 C 
ATOM      2  N   UNL     1      20.110  -6.989  19.558  1.00  0.00    -0.330 N 
ATOM      3  C   UNL     1      20.432  -5.562  19.251  1.00  0.00     0.266 C 
ATOM      4  C   UNL     1      19.711  -7.131  20.974  1.00  0.00     0.265 C 
ATOM      5  C   UNL     1      18.457  -8.881  19.168  1.00  0.00     0.069 C 
ATOM      6  C   UNL     1      19.602  -7.634  17.166  1.00  0.00     0.117 C 
ATOM      7  C   UNL     1      19.360  -9.557  20.203  1.00  0.00     0.015 C 
ATOM      8  C   UNL     1      20.629  -6.471  16.913  1.00  0.00     0.036 C 
ATOM      9  C   UNL     1      18.404  -7.572  16.187  1.00  0.00     0.049 C 
ATOM     10  C   UNL     1      19.654  -8.622  21.398  1.00  0.00     0.041 C 
ATOM     11  C   UNL     1      20.905  -6.101  15.433  1.00  0.00     0.007 C 
ATOM     12  C   UNL     1      20.244  -5.216  17.750  1.00  0.00     0.054 C 
ATOM     13  C   UNL     1      18.637  -8.823  22.529  1.00  0.00     0.013 C 
ATOM     14  C   UNL     1      22.088  -5.103  15.300  1.00  0.00     0.004 C 
ATOM     15  C   UNL     1      20.970  -3.935  17.236  1.00  0.00     0.002 C 
ATOM     16  C   UNL     1      22.301  -4.261  16.584  1.00  0.00    -0.004 C 
ATOM     17  C   UNL     1      21.270  -2.791  18.208  1.00  0.00     0.009 C 
ATOM     18  C   UNL     1      22.943  -2.889  16.371  1.00  0.00     0.003 C 
ATOM     19  C   UNL     1      22.446  -2.014  17.562  1.00  0.00    -0.000 C 
ATOM     20  C   UNL     1      24.466  -2.958  16.183  1.00  0.00     0.080 C 
ATOM     21  C   UNL     1      23.567  -1.506  18.553  1.00  0.00    -0.020 C 
ATOM     22  C   UNL     1      25.070  -1.614  16.450  1.00  0.00     0.136 C 
ATOM     23  C   UNL     1      24.713  -0.834  17.700  1.00  0.00     0.065 C 
ATOM     24  C   UNL     1      24.121  -2.660  19.465  1.00  0.00     0.010 C 
ATOM     25  C   UNL     1      22.928  -0.426  19.468  1.00  0.00     0.012 C 
ATOM     26  O   UNL     1      25.834  -1.128  15.631  1.00  0.00    -0.299 OA
ATOM     27  C   UNL     1      25.982  -0.529  18.523  1.00  0.00     0.043 C 
ATOM     28  C   UNL     1      25.418  -2.308  20.210  1.00  0.00     0.032 C 
ATOM     29  C   UNL     1      26.492  -1.776  19.258  1.00  0.00     0.115 C 
ATOM     30  H   UNL     1      20.992  -7.541  19.425  1.00  0.00     0.348 HD
ENDROOT
BRANCH   6  31
ATOM     31  O   UNL     1      20.267  -8.868  17.012  1.00  0.00    -0.384 OA
ATOM     32  H   UNL     1      20.035  -9.446  17.786  1.00  0.00     0.211 HD
ENDBRANCH   6  31
BRANCH  29  33
ATOM     33  O   UNL     1      27.675  -1.487  19.958  1.00  0.00    -0.393 OA
ATOM     34  H   UNL     1      27.458  -0.821  20.663  1.00  0.00     0.210 HD
ENDBRANCH  29  33
TORSDOF 2
ENDMDL
MODEL 7
REMARK VINA RESULT:    -4.778      2.662      8.371
REMARK INTER + INTRA:          -5.058
REMARK INTER:                  -5.058
REMARK INTRA:                   0.000
REMARK UNBOUND:                 0.000
REMARK SMILES C[C@H]1CC[C@H]2[N@H+](C1)C[C@H]1[C@H]3C[C@@H]4[C@@H](CC(=O)[C@@H]5C[C@@H](O)CC[C@]45C)[C@@H]3CC[C@@H]1[C@@]2(C)O
REMARK SMILES IDX 5 1 6 2 8 3 7 4 4 5 29 6 3 7 28 8 30 9 2 10 27 11 9 12 1 13
REMARK SMILES IDX 26 14 10 15 25 16 11 17 13 18 12 19 14 20 23 21 15 22 17 23
REMARK SMILES IDX 22 24 24 25 16 26 18 27 21 28 19 29 31 31 20 33
REMARK H PARENT 6 30 31 32 20 34
REMARK Flexibility Score: inf
ROOT
ATOM      1  C   UNL     1      18.681  -8.175  16.546  1.00  0.00     0.216 C 
ATOM      2  N   UNL     1      18.806  -7.483  17.865  1.00  0.00    -0.330 N 
ATOM      3  C   UNL     1      19.138  -6.034  17.710  1.00  0.00     0.266 C 
ATOM      4  C   UNL     1      17.576  -7.644  18.669  1.00  0.00     0.265 C 
ATOM      5  C   UNL     1      17.992  -9.573  16.668  1.00  0.00     0.069 C 
ATOM      6  C   UNL     1      20.080  -8.236  15.814  1.00  0.00     0.117 C 
ATOM      7  C   UNL     1      18.022 -10.110  18.101  1.00  0.00     0.015 C 
ATOM      8  C   UNL     1      20.917  -6.959  16.191  1.00  0.00     0.036 C 
ATOM      9  C   UNL     1      19.842  -8.343  14.287  1.00  0.00     0.049 C 
ATOM     10  C   UNL     1      17.367  -9.121  19.093  1.00  0.00     0.041 C 
ATOM     11  C   UNL     1      22.081  -6.590  15.236  1.00  0.00     0.007 C 
ATOM     12  C   UNL     1      19.975  -5.745  16.436  1.00  0.00     0.054 C 
ATOM     13  C   UNL     1      15.875  -9.422  19.282  1.00  0.00     0.013 C 
ATOM     14  C   UNL     1      22.967  -5.455  15.822  1.00  0.00     0.004 C 
ATOM     15  C   UNL     1      20.755  -4.395  16.408  1.00  0.00     0.002 C 
ATOM     16  C   UNL     1      22.201  -4.567  16.835  1.00  0.00    -0.004 C 
ATOM     17  C   UNL     1      20.238  -3.203  17.217  1.00  0.00     0.009 C 
ATOM     18  C   UNL     1      22.711  -3.130  16.966  1.00  0.00     0.003 C 
ATOM     19  C   UNL     1      21.479  -2.299  17.438  1.00  0.00    -0.000 C 
ATOM     20  C   UNL     1      23.969  -3.014  17.841  1.00  0.00     0.080 C 
ATOM     21  C   UNL     1      21.607  -1.636  18.866  1.00  0.00    -0.020 C 
ATOM     22  C   UNL     1      24.132  -1.601  18.307  1.00  0.00     0.136 C 
ATOM     23  C   UNL     1      22.971  -0.845  18.924  1.00  0.00     0.065 C 
ATOM     24  C   UNL     1      21.497  -2.693  20.024  1.00  0.00     0.010 C 
ATOM     25  C   UNL     1      20.438  -0.625  19.018  1.00  0.00     0.012 C 
ATOM     26  O   UNL     1      25.207  -1.041  18.155  1.00  0.00    -0.299 OA
ATOM     27  C   UNL     1      23.337  -0.369  20.345  1.00  0.00     0.043 C 
ATOM     28  C   UNL     1      21.932  -2.168  21.401  1.00  0.00     0.032 C 
ATOM     29  C   UNL     1      23.321  -1.527  21.350  1.00  0.00     0.115 C 
ATOM     30  H   UNL     1      19.591  -7.924  18.405  1.00  0.00     0.348 HD
ENDROOT
BRANCH   6  31
ATOM     31  O   UNL     1      20.771  -9.381  16.261  1.00  0.00    -0.384 OA
ATOM     32  H   UNL     1      20.375 -10.176  15.818  1.00  0.00     0.211 HD
ENDBRANCH   6  31
BRANCH  29  33
ATOM     33  O   UNL     1      23.706  -1.079  22.626  1.00  0.00    -0.393 OA
ATOM     34  H   UNL     1      24.057  -1.859  23.130  1.00  0.00     0.210 HD
ENDBRANCH  29  33
TORSDOF 2
ENDMDL
MODEL 8
REMARK VINA RESULT:    -4.614      4.861      7.127
REMARK INTER + INTRA:          -4.884
REMARK INTER:                  -4.884
REMARK INTRA:                   0.000
REMARK UNBOUND:                 0.000
REMARK SMILES C[C@H]1CC[C@H]2[N@H+](C1)C[C@H]1[C@H]3C[C@@H]4[C@@H](CC(=O)[C@@H]5C[C@@H](O)CC[C@]45C)[C@@H]3CC[C@@H]1[C@@]2(C)O
REMARK SMILES IDX 5 1 6 2 8 3 7 4 4 5 29 6 3 7 28 8 30 9 2 10 27 11 9 12 1 13
REMARK SMILES IDX 26 14 10 15 25 16 11 17 13 18 12 19 14 20 23 21 15 22 17 23
REMARK SMILES IDX 22 24 24 25 16 26 18 27 21 28 19 29 31 31 20 33
REMARK H PARENT 6 30 31 32 20 34
REMARK Flexibility Score: inf
ROOT
ATOM      1  C   UNL     1      16.257  -0.827  12.866  1.00  0.00     0.216 C 
ATOM      2  N   UNL     1      17.002  -1.879  12.108  1.00  0.00    -0.330 N 
ATOM      3  C   UNL     1      16.903  -3.219  12.761  1.00  0.00     0.266 C 
ATOM      4  C   UNL     1      16.536  -1.955  10.707  1.00  0.00     0.265 C 
ATOM      5  C   UNL     1      16.046   0.476  12.029  1.00  0.00     0.069 C 
ATOM      6  C   UNL     1      16.940  -0.561  14.266  1.00  0.00     0.117 C 
ATOM      7  C   UNL     1      17.011   0.566  10.845  1.00  0.00     0.015 C 
ATOM      8  C   UNL     1      17.584  -1.896  14.790  1.00  0.00     0.036 C 
ATOM      9  C   UNL     1      15.876  -0.007  15.245  1.00  0.00     0.049 C 
ATOM     10  C   UNL     1      16.894  -0.668   9.920  1.00  0.00     0.041 C 
ATOM     11  C   UNL     1      17.871  -1.974  16.312  1.00  0.00     0.007 C 
ATOM     12  C   UNL     1      16.760  -3.124  14.303  1.00  0.00     0.054 C 
ATOM     13  C   UNL     1      15.886  -0.427   8.790  1.00  0.00     0.013 C 
ATOM     14  C   UNL     1      18.702  -3.235  16.676  1.00  0.00     0.004 C 
ATOM     15  C   UNL     1      17.107  -4.410  15.114  1.00  0.00     0.002 C 
ATOM     16  C   UNL     1      18.529  -4.379  15.644  1.00  0.00    -0.004 C 
ATOM     17  C   UNL     1      16.954  -5.785  14.459  1.00  0.00     0.009 C 
ATOM     18  C   UNL     1      18.740  -5.793  16.188  1.00  0.00     0.003 C 
ATOM     19  C   UNL     1      17.893  -6.720  15.265  1.00  0.00    -0.000 C 
ATOM     20  C   UNL     1      20.224  -6.169  16.331  1.00  0.00     0.080 C 
ATOM     21  C   UNL     1      18.709  -7.775  14.419  1.00  0.00    -0.020 C 
ATOM     22  C   UNL     1      20.363  -7.657  16.404  1.00  0.00     0.136 C 
ATOM     23  C   UNL     1      19.671  -8.556  15.397  1.00  0.00     0.065 C 
ATOM     24  C   UNL     1      19.500  -7.106  13.236  1.00  0.00     0.010 C 
ATOM     25  C   UNL     1      17.690  -8.780  13.815  1.00  0.00     0.012 C 
ATOM     26  O   UNL     1      21.016  -8.154  17.310  1.00  0.00    -0.299 OA
ATOM     27  C   UNL     1      20.706  -9.432  14.661  1.00  0.00     0.043 C 
ATOM     28  C   UNL     1      20.553  -8.016  12.587  1.00  0.00     0.032 C 
ATOM     29  C   UNL     1      21.499  -8.621  13.628  1.00  0.00     0.115 C 
ATOM     30  H   UNL     1      18.019  -1.620  12.084  1.00  0.00     0.348 HD
ENDROOT
BRANCH   6  31
ATOM     31  O   UNL     1      17.959   0.398  14.093  1.00  0.00    -0.384 OA
ATOM     32  H   UNL     1      17.851   1.097  14.789  1.00  0.00     0.211 HD
ENDBRANCH   6  31
BRANCH  29  33
ATOM     33  O   UNL     1      22.468  -9.428  13.006  1.00  0.00    -0.393 OA
ATOM     34  H   UNL     1      22.469  -9.212  12.037  1.00  0.00     0.210 HD
ENDBRANCH  29  33
TORSDOF 2
ENDMDL
MODEL 9
REMARK VINA RESULT:    -4.544      2.402      4.235
REMARK INTER + INTRA:          -4.810
REMARK INTER:                  -4.810
REMARK INTRA:                   0.000
REMARK UNBOUND:                 0.000
REMARK SMILES C[C@H]1CC[C@H]2[N@H+](C1)C[C@H]1[C@H]3C[C@@H]4[C@@H](CC(=O)[C@@H]5C[C@@H](O)CC[C@]45C)[C@@H]3CC[C@@H]1[C@@]2(C)O
REMARK SMILES IDX 5 1 6 2 8 3 7 4 4 5 29 6 3 7 28 8 30 9 2 10 27 11 9 12 1 13
REMARK SMILES IDX 26 14 10 15 25 16 11 17 13 18 12 19 14 20 23 21 15 22 17 23
REMARK SMILES IDX 22 24 24 25 16 26 18 27 21 28 19 29 31 31 20 33
REMARK H PARENT 6 30 31 32 20 34
REMARK Flexibility Score: inf
ROOT
ATOM      1  C   UNL     1      24.238   1.382  19.196  1.00  0.00     0.216 C 
ATOM      2  N   UNL     1      22.764   1.282  18.959  1.00  0.00    -0.330 N 
ATOM      3  C   UNL     1      22.204  -0.014  19.448  1.00  0.00     0.266 C 
ATOM      4  C   UNL     1      22.048   2.417  19.578  1.00  0.00     0.265 C 
ATOM      5  C   UNL     1      24.771   2.841  19.029  1.00  0.00     0.069 C 
ATOM      6  C   UNL     1      25.017   0.332  18.308  1.00  0.00     0.117 C 
ATOM      7  C   UNL     1      23.806   3.724  18.235  1.00  0.00     0.015 C 
ATOM      8  C   UNL     1      24.125  -0.949  18.119  1.00  0.00     0.036 C 
ATOM      9  C   UNL     1      26.367   0.003  18.992  1.00  0.00     0.049 C 
ATOM     10  C   UNL     1      22.402   3.757  18.882  1.00  0.00     0.041 C 
ATOM     11  C   UNL     1      24.862  -2.249  17.707  1.00  0.00     0.007 C 
ATOM     12  C   UNL     1      23.229  -1.176  19.372  1.00  0.00     0.054 C 
ATOM     13  C   UNL     1      22.264   4.928  19.863  1.00  0.00     0.013 C 
ATOM     14  C   UNL     1      23.865  -3.382  17.336  1.00  0.00     0.004 C 
ATOM     15  C   UNL     1      22.645  -2.622  19.409  1.00  0.00     0.002 C 
ATOM     16  C   UNL     1      22.484  -3.204  18.016  1.00  0.00    -0.004 C 
ATOM     17  C   UNL     1      21.309  -2.883  20.109  1.00  0.00     0.009 C 
ATOM     18  C   UNL     1      21.697  -4.494  18.255  1.00  0.00     0.003 C 
ATOM     19  C   UNL     1      20.772  -4.192  19.473  1.00  0.00    -0.000 C 
ATOM     20  C   UNL     1      20.990  -5.011  16.992  1.00  0.00     0.080 C 
ATOM     21  C   UNL     1      19.220  -4.233  19.181  1.00  0.00    -0.020 C 
ATOM     22  C   UNL     1      19.897  -5.959  17.377  1.00  0.00     0.136 C 
ATOM     23  C   UNL     1      18.890  -5.593  18.450  1.00  0.00     0.065 C 
ATOM     24  C   UNL     1      18.739  -2.991  18.346  1.00  0.00     0.010 C 
ATOM     25  C   UNL     1      18.486  -4.212  20.549  1.00  0.00     0.012 C 
ATOM     26  O   UNL     1      19.839  -7.055  16.842  1.00  0.00    -0.299 OA
ATOM     27  C   UNL     1      17.457  -5.643  17.880  1.00  0.00     0.043 C 
ATOM     28  C   UNL     1      17.326  -3.134  17.760  1.00  0.00     0.032 C 
ATOM     29  C   UNL     1      17.167  -4.439  16.976  1.00  0.00     0.115 C 
ATOM     30  H   UNL     1      22.586   1.327  17.925  1.00  0.00     0.348 HD
ENDROOT
BRANCH   6  31
ATOM     31  O   UNL     1      25.261   0.906  17.044  1.00  0.00    -0.384 OA
ATOM     32  H   UNL     1      25.073   0.221  16.350  1.00  0.00     0.211 HD
ENDBRANCH   6  31
BRANCH  29  33
ATOM     33  O   UNL     1      15.875  -4.533  16.429  1.00  0.00    -0.393 OA
ATOM     34  H   UNL     1      15.289  -4.966  17.103  1.00  0.00     0.210 HD
ENDBRANCH  29  33
TORSDOF 2
ENDMDL
