MODEL 1
REMARK VINA RESULT:    78.138      0.000      0.000
REMARK INTER + INTRA:         164.470
REMARK INTER:                 164.930
REMARK INTRA:                  -0.460
REMARK UNBOUND:                -0.460
REMARK SMILES CCC(=O)CCCCC[C@H]1NC(=O)[C@H]2CCCCN2C(=O)[C@H]([C@H](C)CC)NC(=O)[C@H](Cc2cn(OC)c3ccccc23)NC1=O
REMARK SMILES IDX 9 1 10 2 44 3 43 4 45 6 30 7 28 8 27 9 29 11 22 12 23 14
REMARK SMILES IDX 24 15 25 16 26 17 31 18 32 19 33 20 42 21 34 22 37 23 41 24
REMARK SMILES IDX 38 25 40 26 39 27 35 28 36 29 11 30 12 31 13 33 14 34 19 35
REMARK SMILES IDX 15 36 18 37 16 38 17 39 20 40 21 41 8 43 7 44 6 45 5 46 3 47
REMARK SMILES IDX 4 48 2 49 1 50
REMARK H PARENT 43 5 27 10 11 32
REMARK Flexibility Score: 80.00
ROOT
ATOM      1  C   UNL     1      16.521  16.827  18.643  1.00  0.00     0.035 C 
ENDROOT
BRANCH   1   2
ATOM      2  C   UNL     1      17.379  17.920  19.323  1.00  0.00     0.171 C 
BRANCH   2   3
ATOM      3  C   UNL     1      18.472  17.347  20.190  1.00  0.00     0.243 C 
ATOM      4  N   UNL     1      19.839  17.511  19.794  1.00  0.00    -0.342 N 
ATOM      5  H   UNL     1      20.010  17.886  18.835  1.00  0.00     0.164 HD
ATOM      6  O   UNL     1      18.192  16.740  21.262  1.00  0.00    -0.273 OA
BRANCH   4   7
ATOM      7  C   UNL     1      20.912  17.595  20.786  1.00  0.00     0.175 C 
BRANCH   7   8
ATOM      8  C   UNL     1      20.622  18.725  21.748  1.00  0.00     0.243 C 
ATOM      9  N   UNL     1      20.116  19.983  21.269  1.00  0.00    -0.342 N 
ATOM     10  H   UNL     1      20.147  20.168  20.242  1.00  0.00     0.164 HD
ATOM     11  O   UNL     1      20.782  18.534  22.984  1.00  0.00    -0.273 OA
BRANCH   9  12
ATOM     12  C   UNL     1      19.500  20.999  22.133  1.00  0.00     0.174 CG0
ATOM     13  G   UNL     1      18.381  21.666  21.360  1.00  0.00     0.000 G0
BRANCH  12  14
ATOM     14  C   UNL     1      20.581  22.022  22.607  1.00  0.00     0.018 C 
ATOM     15  C   UNL     1      20.990  21.774  24.068  1.00  0.00     0.010 C 
BRANCH  14  16
ATOM     16  C   UNL     1      20.187  23.510  22.414  1.00  0.00     0.002 C 
ATOM     17  C   UNL     1      21.211  24.512  22.958  1.00  0.00     0.004 C 
ENDBRANCH  14  16
ENDBRANCH  12  14
ENDBRANCH   9  12
ENDBRANCH   7   8
BRANCH   7  18
ATOM     18  C   UNL     1      22.304  17.684  20.118  1.00  0.00     0.073 C 
BRANCH  18  19
ATOM     19  C   UNL     1      23.385  18.273  20.985  1.00  0.00    -0.016 A 
ATOM     20  C   UNL     1      23.771  19.612  21.044  1.00  0.00     0.134 A 
ATOM     21  C   UNL     1      24.177  17.613  21.913  1.00  0.00     0.006 A 
ATOM     22  N   UNL     1      24.736  19.771  21.982  1.00  0.00    -0.191 N 
ATOM     23  C   UNL     1      24.978  18.558  22.504  1.00  0.00     0.087 A 
ATOM     24  C   UNL     1      24.255  16.265  22.264  1.00  0.00     0.011 A 
ATOM     25  C   UNL     1      25.891  18.224  23.504  1.00  0.00     0.030 A 
ATOM     26  C   UNL     1      25.165  15.899  23.272  1.00  0.00     0.001 A 
ATOM     27  C   UNL     1      25.978  16.874  23.891  1.00  0.00     0.002 A 
BRANCH  22  28
ATOM     28  O   UNL     1      25.362  20.945  22.361  1.00  0.00    -0.417 OA
ATOM     29  C   UNL     1      24.746  21.891  23.224  1.00  0.00     0.313 C 
ENDBRANCH  22  28
ENDBRANCH  18  19
ENDBRANCH   7  18
ENDBRANCH   4   7
ENDBRANCH   2   3
BRANCH   2  30
ATOM     30  N   UNL     1      16.539  18.832  20.107  1.00  0.00    -0.343 N 
ATOM     31  C   UNL     1      16.317  20.210  19.759  1.00  0.00     0.243 C 
ATOM     32  H   UNL     1      16.161  18.483  21.016  1.00  0.00     0.164 HD
ATOM     33  O   UNL     1      16.514  20.609  18.579  1.00  0.00    -0.273 OA
BRANCH  31  34
ATOM     34  C   UNL     1      15.887  21.195  20.821  1.00  0.00     0.174 C 
ATOM     35  N   UNL     1      16.965  21.511  21.783  1.00  0.00    -0.329 N 
ATOM     36  C   UNL     1      14.653  20.634  21.555  1.00  0.00     0.035 C 
ATOM     37  C   UNL     1      16.593  22.355  22.929  1.00  0.00     0.120 C 
ATOM     38  C   UNL     1      14.223  21.555  22.697  1.00  0.00     0.004 C 
ATOM     39  C   UNL     1      15.384  21.774  23.666  1.00  0.00     0.022 C 
BRANCH  35  40
ATOM     40  C   UNL     1      18.322  21.636  21.321  1.00  0.00     0.246 CG0
ATOM     41  O   UNL     1      18.560  22.299  20.275  1.00  0.00    -0.272 OA
ATOM     42  G   UNL     1      19.467  20.993  22.077  1.00  0.00     0.000 G0
ENDBRANCH  35  40
ENDBRANCH  31  34
ENDBRANCH   2  30
ENDBRANCH   1   2
BRANCH   1  43
ATOM     43  C   UNL     1      15.105  17.292  18.249  1.00  0.00     0.003 C 
BRANCH  43  44
ATOM     44  C   UNL     1      14.973  17.843  16.818  1.00  0.00     0.001 C 
BRANCH  44  45
ATOM     45  C   UNL     1      15.694  16.979  15.773  1.00  0.00     0.008 C 
BRANCH  45  46
ATOM     46  C   UNL     1      17.212  17.208  15.831  1.00  0.00     0.075 C 
BRANCH  46  47
ATOM     47  C   UNL     1      17.808  17.545  14.485  1.00  0.00     0.132 C 
ATOM     48  O   UNL     1      18.485  16.726  13.878  1.00  0.00    -0.300 OA
BRANCH  47  49
ATOM     49  C   UNL     1      17.634  18.926  13.912  1.00  0.00     0.072 C 
ATOM     50  C   UNL     1      18.732  19.861  14.405  1.00  0.00     0.012 C 
ENDBRANCH  47  49
ENDBRANCH  46  47
ENDBRANCH  45  46
ENDBRANCH  44  45
ENDBRANCH  43  44
ENDBRANCH   1  43
TORSDOF 12
ENDMDL
MODEL 2
REMARK VINA RESULT:    78.411      3.512      6.290
REMARK INTER + INTRA:         165.045
REMARK INTER:                 162.380
REMARK INTRA:                   2.666
REMARK UNBOUND:                -0.460
REMARK SMILES CCC(=O)CCCCC[C@H]1NC(=O)[C@H]2CCCCN2C(=O)[C@H]([C@H](C)CC)NC(=O)[C@H](Cc2cn(OC)c3ccccc23)NC1=O
REMARK SMILES IDX 9 1 10 2 44 3 43 4 45 6 30 7 28 8 27 9 29 11 22 12 23 14
REMARK SMILES IDX 24 15 25 16 26 17 31 18 32 19 33 20 42 21 34 22 37 23 41 24
REMARK SMILES IDX 38 25 40 26 39 27 35 28 36 29 11 30 12 31 13 33 14 34 19 35
REMARK SMILES IDX 15 36 18 37 16 38 17 39 20 40 21 41 8 43 7 44 6 45 5 46 3 47
REMARK SMILES IDX 4 48 2 49 1 50
REMARK H PARENT 43 5 27 10 11 32
REMARK Flexibility Score: 80.00
ROOT
ATOM      1  C   UNL     1      15.212  14.710  20.251  1.00  0.00     0.035 C 
ENDROOT
BRANCH   1   2
ATOM      2  C   UNL     1      16.570  15.425  20.051  1.00  0.00     0.171 C 
BRANCH   2   3
ATOM      3  C   UNL     1      16.739  16.618  20.960  1.00  0.00     0.243 C 
ATOM      4  N   UNL     1      18.057  17.019  21.351  1.00  0.00    -0.342 N 
ATOM      5  H   UNL     1      18.838  16.368  21.114  1.00  0.00     0.164 HD
ATOM      6  O   UNL     1      15.734  17.268  21.363  1.00  0.00    -0.273 OA
BRANCH   4   7
ATOM      7  C   UNL     1      18.370  18.420  21.639  1.00  0.00     0.175 C 
BRANCH   7   8
ATOM      8  C   UNL     1      17.435  19.317  20.860  1.00  0.00     0.243 C 
ATOM      9  N   UNL     1      17.132  19.039  19.483  1.00  0.00    -0.342 N 
ATOM     10  H   UNL     1      17.721  18.339  18.980  1.00  0.00     0.164 HD
ATOM     11  O   UNL     1      16.881  20.285  21.449  1.00  0.00    -0.273 OA
BRANCH   9  12
ATOM     12  C   UNL     1      16.004  19.638  18.756  1.00  0.00     0.174 CG0
ATOM     13  G   UNL     1      15.454  18.602  17.797  1.00  0.00     0.000 G0
BRANCH  12  14
ATOM     14  C   UNL     1      16.471  20.934  18.020  1.00  0.00     0.018 C 
ATOM     15  C   UNL     1      17.618  20.643  17.038  1.00  0.00     0.010 C 
BRANCH  14  16
ATOM     16  C   UNL     1      16.865  22.102  18.961  1.00  0.00     0.002 C 
ATOM     17  C   UNL     1      17.962  23.018  18.409  1.00  0.00     0.004 C 
ENDBRANCH  14  16
ENDBRANCH  12  14
ENDBRANCH   9  12
ENDBRANCH   7   8
BRANCH   7  18
ATOM     18  C   UNL     1      19.868  18.730  21.411  1.00  0.00     0.073 C 
BRANCH  18  19
ATOM     19  C   UNL     1      20.479  19.670  22.417  1.00  0.00    -0.016 A 
ATOM     20  C   UNL     1      21.268  19.321  23.513  1.00  0.00     0.134 A 
ATOM     21  C   UNL     1      20.409  21.055  22.430  1.00  0.00     0.006 A 
ATOM     22  N   UNL     1      21.685  20.440  24.154  1.00  0.00    -0.191 N 
ATOM     23  C   UNL     1      21.162  21.485  23.494  1.00  0.00     0.087 A 
ATOM     24  C   UNL     1      19.737  21.951  21.599  1.00  0.00     0.011 A 
ATOM     25  C   UNL     1      21.315  22.841  23.784  1.00  0.00     0.030 A 
ATOM     26  C   UNL     1      19.875  23.326  21.865  1.00  0.00     0.001 A 
ATOM     27  C   UNL     1      20.663  23.769  22.951  1.00  0.00     0.002 A 
BRANCH  22  28
ATOM     28  O   UNL     1      22.503  20.521  25.266  1.00  0.00    -0.417 OA
ATOM     29  C   UNL     1      23.899  20.765  25.169  1.00  0.00     0.313 C 
ENDBRANCH  22  28
ENDBRANCH  18  19
ENDBRANCH   7  18
ENDBRANCH   4   7
ENDBRANCH   2   3
BRANCH   2  30
ATOM     30  N   UNL     1      16.748  15.827  18.652  1.00  0.00    -0.343 N 
ATOM     31  C   UNL     1      17.755  16.755  18.210  1.00  0.00     0.243 C 
ATOM     32  H   UNL     1      16.043  15.492  17.957  1.00  0.00     0.164 HD
ATOM     33  O   UNL     1      18.770  16.981  18.924  1.00  0.00    -0.273 OA
BRANCH  31  34
ATOM     34  C   UNL     1      17.577  17.494  16.905  1.00  0.00     0.174 C 
ATOM     35  N   UNL     1      16.199  17.998  16.713  1.00  0.00    -0.329 N 
ATOM     36  C   UNL     1      17.982  16.567  15.743  1.00  0.00     0.035 C 
ATOM     37  C   UNL     1      15.901  18.610  15.408  1.00  0.00     0.120 C 
ATOM     38  C   UNL     1      17.743  17.239  14.390  1.00  0.00     0.004 C 
ATOM     39  C   UNL     1      16.283  17.670  14.264  1.00  0.00     0.022 C 
BRANCH  35  40
ATOM     40  C   UNL     1      15.463  18.516  17.836  1.00  0.00     0.246 CG0
ATOM     41  O   UNL     1      14.345  18.011  18.128  1.00  0.00    -0.272 OA
ATOM     42  G   UNL     1      16.016  19.648  18.676  1.00  0.00     0.000 G0
ENDBRANCH  35  40
ENDBRANCH  31  34
ENDBRANCH   2  30
ENDBRANCH   1   2
BRANCH   1  43
ATOM     43  C   UNL     1      15.334  13.214  20.601  1.00  0.00     0.003 C 
BRANCH  43  44
ATOM     44  C   UNL     1      14.314  12.295  19.907  1.00  0.00     0.001 C 
BRANCH  44  45
ATOM     45  C   UNL     1      14.938  10.996  19.376  1.00  0.00     0.008 C 
BRANCH  45  46
ATOM     46  C   UNL     1      16.123  10.564  20.253  1.00  0.00     0.075 C 
BRANCH  46  47
ATOM     47  C   UNL     1      16.949   9.466  19.627  1.00  0.00     0.132 C 
ATOM     48  O   UNL     1      16.429   8.415  19.277  1.00  0.00    -0.300 OA
BRANCH  47  49
ATOM     49  C   UNL     1      18.439   9.629  19.496  1.00  0.00     0.072 C 
ATOM     50  C   UNL     1      19.062  10.011  20.833  1.00  0.00     0.012 C 
ENDBRANCH  47  49
ENDBRANCH  46  47
ENDBRANCH  45  46
ENDBRANCH  44  45
ENDBRANCH  43  44
ENDBRANCH   1  43
TORSDOF 12
ENDMDL
MODEL 3
REMARK VINA RESULT:    78.442      1.414      1.931
REMARK INTER + INTRA:         165.110
REMARK INTER:                 165.297
REMARK INTRA:                  -0.187
REMARK UNBOUND:                -0.460
REMARK SMILES CCC(=O)CCCCC[C@H]1NC(=O)[C@H]2CCCCN2C(=O)[C@H]([C@H](C)CC)NC(=O)[C@H](Cc2cn(OC)c3ccccc23)NC1=O
REMARK SMILES IDX 9 1 10 2 44 3 43 4 45 6 30 7 28 8 27 9 29 11 22 12 23 14
REMARK SMILES IDX 24 15 25 16 26 17 31 18 32 19 33 20 42 21 34 22 37 23 41 24
REMARK SMILES IDX 38 25 40 26 39 27 35 28 36 29 11 30 12 31 13 33 14 34 19 35
REMARK SMILES IDX 15 36 18 37 16 38 17 39 20 40 21 41 8 43 7 44 6 45 5 46 3 47
REMARK SMILES IDX 4 48 2 49 1 50
REMARK H PARENT 43 5 27 10 11 32
REMARK Flexibility Score: 80.00
ROOT
ATOM      1  C   UNL     1      16.166  16.949  19.134  1.00  0.00     0.035 C 
ENDROOT
BRANCH   1   2
ATOM      2  C   UNL     1      17.460  17.778  18.950  1.00  0.00     0.171 C 
BRANCH   2   3
ATOM      3  C   UNL     1      18.657  17.143  19.613  1.00  0.00     0.243 C 
ATOM      4  N   UNL     1      19.932  17.791  19.527  1.00  0.00    -0.342 N 
ATOM      5  H   UNL     1      20.005  18.600  18.872  1.00  0.00     0.164 HD
ATOM      6  O   UNL     1      18.541  16.058  20.250  1.00  0.00    -0.273 OA
BRANCH   4   7
ATOM      7  C   UNL     1      20.927  17.653  20.592  1.00  0.00     0.175 C 
BRANCH   7   8
ATOM      8  C   UNL     1      20.550  18.543  21.754  1.00  0.00     0.243 C 
ATOM      9  N   UNL     1      20.468  19.969  21.587  1.00  0.00    -0.342 N 
ATOM     10  H   UNL     1      20.868  20.388  20.719  1.00  0.00     0.164 HD
ATOM     11  O   UNL     1      20.258  18.015  22.861  1.00  0.00    -0.273 OA
BRANCH   9  12
ATOM     12  C   UNL     1      19.800  20.866  22.540  1.00  0.00     0.174 CG0
ATOM     13  G   UNL     1      18.832  21.740  21.770  1.00  0.00     0.000 G0
BRANCH  12  14
ATOM     14  C   UNL     1      20.864  21.707  23.317  1.00  0.00     0.018 C 
ATOM     15  C   UNL     1      20.979  21.257  24.782  1.00  0.00     0.010 C 
BRANCH  14  16
ATOM     16  C   UNL     1      20.645  23.241  23.250  1.00  0.00     0.002 C 
ATOM     17  C   UNL     1      21.735  24.004  22.491  1.00  0.00     0.004 C 
ENDBRANCH  14  16
ENDBRANCH  12  14
ENDBRANCH   9  12
ENDBRANCH   7   8
BRANCH   7  18
ATOM     18  C   UNL     1      22.363  17.884  20.067  1.00  0.00     0.073 C 
BRANCH  18  19
ATOM     19  C   UNL     1      23.457  17.499  21.027  1.00  0.00    -0.016 A 
ATOM     20  C   UNL     1      24.244  16.349  20.978  1.00  0.00     0.134 A 
ATOM     21  C   UNL     1      23.918  18.223  22.116  1.00  0.00     0.006 A 
ATOM     22  N   UNL     1      25.162  16.377  21.974  1.00  0.00    -0.191 N 
ATOM     23  C   UNL     1      24.959  17.514  22.660  1.00  0.00     0.087 A 
ATOM     24  C   UNL     1      23.492  19.433  22.665  1.00  0.00     0.011 A 
ATOM     25  C   UNL     1      25.662  17.978  23.772  1.00  0.00     0.030 A 
ATOM     26  C   UNL     1      24.185  19.928  23.785  1.00  0.00     0.001 A 
ATOM     27  C   UNL     1      25.267  19.205  24.335  1.00  0.00     0.002 A 
BRANCH  22  28
ATOM     28  O   UNL     1      26.140  15.439  22.250  1.00  0.00    -0.417 OA
ATOM     29  C   UNL     1      27.526  15.730  22.142  1.00  0.00     0.313 C 
ENDBRANCH  22  28
ENDBRANCH  18  19
ENDBRANCH   7  18
ENDBRANCH   4   7
ENDBRANCH   2   3
BRANCH   2  30
ATOM     30  N   UNL     1      17.278  19.148  19.442  1.00  0.00    -0.343 N 
ATOM     31  C   UNL     1      17.136  19.484  20.833  1.00  0.00     0.243 C 
ATOM     32  H   UNL     1      17.151  19.905  18.732  1.00  0.00     0.164 HD
ATOM     33  O   UNL     1      17.535  18.686  21.725  1.00  0.00    -0.273 OA
BRANCH  31  34
ATOM     34  C   UNL     1      16.469  20.780  21.230  1.00  0.00     0.174 C 
ATOM     35  N   UNL     1      17.345  21.653  22.041  1.00  0.00    -0.329 N 
ATOM     36  C   UNL     1      15.167  20.462  21.992  1.00  0.00     0.035 C 
ATOM     37  C   UNL     1      16.730  22.874  22.586  1.00  0.00     0.120 C 
ATOM     38  C   UNL     1      14.491  21.739  22.490  1.00  0.00     0.004 C 
ATOM     39  C   UNL     1      15.455  22.542  23.362  1.00  0.00     0.022 C 
BRANCH  35  40
ATOM     40  C   UNL     1      18.751  21.735  21.739  1.00  0.00     0.246 CG0
ATOM     41  O   UNL     1      19.144  22.520  20.834  1.00  0.00    -0.272 OA
ATOM     42  G   UNL     1      19.761  20.901  22.499  1.00  0.00     0.000 G0
ENDBRANCH  35  40
ENDBRANCH  31  34
ENDBRANCH   2  30
ENDBRANCH   1   2
BRANCH   1  43
ATOM     43  C   UNL     1      15.120  17.161  18.022  1.00  0.00     0.003 C 
BRANCH  43  44
ATOM     44  C   UNL     1      15.653  17.828  16.742  1.00  0.00     0.001 C 
BRANCH  44  45
ATOM     45  C   UNL     1      15.191  17.121  15.459  1.00  0.00     0.008 C 
BRANCH  45  46
ATOM     46  C   UNL     1      16.028  17.577  14.254  1.00  0.00     0.075 C 
BRANCH  46  47
ATOM     47  C   UNL     1      17.509  17.615  14.547  1.00  0.00     0.132 C 
ATOM     48  O   UNL     1      18.005  16.846  15.360  1.00  0.00    -0.300 OA
BRANCH  47  49
ATOM     49  C   UNL     1      18.377  18.654  13.892  1.00  0.00     0.072 C 
ATOM     50  C   UNL     1      18.095  20.037  14.468  1.00  0.00     0.012 C 
ENDBRANCH  47  49
ENDBRANCH  46  47
ENDBRANCH  45  46
ENDBRANCH  44  45
ENDBRANCH  43  44
ENDBRANCH   1  43
TORSDOF 12
ENDMDL
MODEL 4
REMARK VINA RESULT:    79.215      2.683      8.784
REMARK INTER + INTRA:         166.743
REMARK INTER:                 167.488
REMARK INTRA:                  -0.745
REMARK UNBOUND:                -0.460
REMARK SMILES CCC(=O)CCCCC[C@H]1NC(=O)[C@H]2CCCCN2C(=O)[C@H]([C@H](C)CC)NC(=O)[C@H](Cc2cn(OC)c3ccccc23)NC1=O
REMARK SMILES IDX 9 1 10 2 44 3 43 4 45 6 30 7 28 8 27 9 29 11 22 12 23 14
REMARK SMILES IDX 24 15 25 16 26 17 31 18 32 19 33 20 42 21 34 22 37 23 41 24
REMARK SMILES IDX 38 25 40 26 39 27 35 28 36 29 11 30 12 31 13 33 14 34 19 35
REMARK SMILES IDX 15 36 18 37 16 38 17 39 20 40 21 41 8 43 7 44 6 45 5 46 3 47
REMARK SMILES IDX 4 48 2 49 1 50
REMARK H PARENT 43 5 27 10 11 32
REMARK Flexibility Score: 80.00
ROOT
ATOM      1  C   UNL     1      20.309  21.450  24.902  1.00  0.00     0.035 C 
ENDROOT
BRANCH   1   2
ATOM      2  C   UNL     1      21.208  20.646  23.933  1.00  0.00     0.171 C 
BRANCH   2   3
ATOM      3  C   UNL     1      20.484  19.488  23.293  1.00  0.00     0.243 C 
ATOM      4  N   UNL     1      20.341  19.452  21.867  1.00  0.00    -0.342 N 
ATOM      5  H   UNL     1      20.609  20.315  21.346  1.00  0.00     0.164 HD
ATOM      6  O   UNL     1      20.018  18.549  23.999  1.00  0.00    -0.273 OA
BRANCH   4   7
ATOM      7  C   UNL     1      20.271  18.182  21.143  1.00  0.00     0.175 C 
BRANCH   7   8
ATOM      8  C   UNL     1      21.631  17.520  21.153  1.00  0.00     0.243 C 
ATOM      9  N   UNL     1      22.830  18.312  21.166  1.00  0.00    -0.342 N 
ATOM     10  H   UNL     1      22.750  19.333  20.962  1.00  0.00     0.164 HD
ATOM     11  O   UNL     1      21.700  16.262  21.202  1.00  0.00    -0.273 OA
BRANCH   9  12
ATOM     12  C   UNL     1      24.157  17.782  21.508  1.00  0.00     0.174 CG0
ATOM     13  G   UNL     1      24.910  18.846  22.279  1.00  0.00     0.000 G0
BRANCH  12  14
ATOM     14  C   UNL     1      24.911  17.350  20.209  1.00  0.00     0.018 C 
ATOM     15  C   UNL     1      23.946  17.200  19.022  1.00  0.00     0.010 C 
BRANCH  14  16
ATOM     16  C   UNL     1      25.768  16.067  20.360  1.00  0.00     0.002 C 
ATOM     17  C   UNL     1      26.086  15.684  21.809  1.00  0.00     0.004 C 
ENDBRANCH  14  16
ENDBRANCH  12  14
ENDBRANCH   9  12
ENDBRANCH   7   8
BRANCH   7  18
ATOM     18  C   UNL     1      19.674  18.362  19.728  1.00  0.00     0.073 C 
BRANCH  18  19
ATOM     19  C   UNL     1      18.330  17.715  19.522  1.00  0.00    -0.016 A 
ATOM     20  C   UNL     1      17.522  17.139  20.501  1.00  0.00     0.134 A 
ATOM     21  C   UNL     1      17.622  17.599  18.335  1.00  0.00     0.006 A 
ATOM     22  N   UNL     1      16.361  16.712  19.947  1.00  0.00    -0.191 N 
ATOM     23  C   UNL     1      16.428  16.994  18.636  1.00  0.00     0.087 A 
ATOM     24  C   UNL     1      17.946  17.969  17.029  1.00  0.00     0.011 A 
ATOM     25  C   UNL     1      15.466  16.740  17.658  1.00  0.00     0.030 A 
ATOM     26  C   UNL     1      16.994  17.729  16.022  1.00  0.00     0.001 A 
ATOM     27  C   UNL     1      15.758  17.120  16.335  1.00  0.00     0.002 A 
BRANCH  22  28
ATOM     28  O   UNL     1      15.290  16.112  20.584  1.00  0.00    -0.417 OA
ATOM     29  C   UNL     1      15.071  14.709  20.545  1.00  0.00     0.313 C 
ENDBRANCH  22  28
ENDBRANCH  18  19
ENDBRANCH   7  18
ENDBRANCH   4   7
ENDBRANCH   2   3
BRANCH   2  30
ATOM     30  N   UNL     1      22.418  20.171  24.613  1.00  0.00    -0.343 N 
ATOM     31  C   UNL     1      23.749  20.578  24.252  1.00  0.00     0.243 C 
ATOM     32  H   UNL     1      22.306  19.424  25.336  1.00  0.00     0.164 HD
ATOM     33  O   UNL     1      23.934  21.639  23.595  1.00  0.00    -0.273 OA
BRANCH  31  34
ATOM     34  C   UNL     1      24.929  19.711  24.623  1.00  0.00     0.174 C 
ATOM     35  N   UNL     1      25.142  18.595  23.677  1.00  0.00    -0.329 N 
ATOM     36  C   UNL     1      24.729  19.177  26.055  1.00  0.00     0.035 C 
ATOM     37  C   UNL     1      26.185  17.621  24.037  1.00  0.00     0.120 C 
ATOM     38  C   UNL     1      25.857  18.225  26.453  1.00  0.00     0.004 C 
ATOM     39  C   UNL     1      25.960  17.078  25.449  1.00  0.00     0.022 C 
BRANCH  35  40
ATOM     40  C   UNL     1      24.930  18.800  22.268  1.00  0.00     0.246 CG0
ATOM     41  O   UNL     1      25.459  19.795  21.702  1.00  0.00    -0.272 OA
ATOM     42  G   UNL     1      24.091  17.835  21.456  1.00  0.00     0.000 G0
ENDBRANCH  35  40
ENDBRANCH  31  34
ENDBRANCH   2  30
ENDBRANCH   1   2
BRANCH   1  43
ATOM     43  C   UNL     1      20.261  22.962  24.608  1.00  0.00     0.003 C 
BRANCH  43  44
ATOM     44  C   UNL     1      19.671  23.342  23.238  1.00  0.00     0.001 C 
BRANCH  44  45
ATOM     45  C   UNL     1      18.496  24.326  23.343  1.00  0.00     0.008 C 
BRANCH  45  46
ATOM     46  C   UNL     1      17.258  23.774  22.618  1.00  0.00     0.075 C 
BRANCH  46  47
ATOM     47  C   UNL     1      16.065  23.613  23.530  1.00  0.00     0.132 C 
ATOM     48  O   UNL     1      16.060  22.762  24.409  1.00  0.00    -0.300 OA
BRANCH  47  49
ATOM     49  C   UNL     1      14.837  24.456  23.314  1.00  0.00     0.072 C 
ATOM     50  C   UNL     1      13.827  23.726  22.436  1.00  0.00     0.012 C 
ENDBRANCH  47  49
ENDBRANCH  46  47
ENDBRANCH  45  46
ENDBRANCH  44  45
ENDBRANCH  43  44
ENDBRANCH   1  43
TORSDOF 12
ENDMDL
MODEL 5
REMARK VINA RESULT:    79.232      2.854      6.010
REMARK INTER + INTRA:         166.779
REMARK INTER:                 164.327
REMARK INTRA:                   2.452
REMARK UNBOUND:                -0.460
REMARK SMILES CCC(=O)CCCCC[C@H]1NC(=O)[C@H]2CCCCN2C(=O)[C@H]([C@H](C)CC)NC(=O)[C@H](Cc2cn(OC)c3ccccc23)NC1=O
REMARK SMILES IDX 9 1 10 2 44 3 43 4 45 6 30 7 28 8 27 9 29 11 22 12 23 14
REMARK SMILES IDX 24 15 25 16 26 17 31 18 32 19 33 20 42 21 34 22 37 23 41 24
REMARK SMILES IDX 38 25 40 26 39 27 35 28 36 29 11 30 12 31 13 33 14 34 19 35
REMARK SMILES IDX 15 36 18 37 16 38 17 39 20 40 21 41 8 43 7 44 6 45 5 46 3 47
REMARK SMILES IDX 4 48 2 49 1 50
REMARK H PARENT 43 5 27 10 11 32
REMARK Flexibility Score: 80.00
ROOT
ATOM      1  C   UNL     1      17.450  23.154  19.775  1.00  0.00     0.035 C 
ENDROOT
BRANCH   1   2
ATOM      2  C   UNL     1      17.056  21.670  19.966  1.00  0.00     0.171 C 
BRANCH   2   3
ATOM      3  C   UNL     1      18.199  20.823  20.465  1.00  0.00     0.243 C 
ATOM      4  N   UNL     1      17.931  19.508  20.967  1.00  0.00    -0.342 N 
ATOM      5  H   UNL     1      16.929  19.254  21.110  1.00  0.00     0.164 HD
ATOM      6  O   UNL     1      19.385  21.257  20.432  1.00  0.00    -0.273 OA
BRANCH   4   7
ATOM      7  C   UNL     1      18.921  18.436  20.854  1.00  0.00     0.175 C 
BRANCH   7   8
ATOM      8  C   UNL     1      18.365  17.323  19.994  1.00  0.00     0.243 C 
ATOM      9  N   UNL     1      17.045  16.806  20.230  1.00  0.00    -0.342 N 
ATOM     10  H   UNL     1      16.565  17.064  21.120  1.00  0.00     0.164 HD
ATOM     11  O   UNL     1      19.056  16.888  19.033  1.00  0.00    -0.273 OA
BRANCH   9  12
ATOM     12  C   UNL     1      16.305  15.982  19.264  1.00  0.00     0.174 CG0
ATOM     13  G   UNL     1      15.684  16.902  18.233  1.00  0.00     0.000 G0
BRANCH  12  14
ATOM     14  C   UNL     1      15.234  15.121  20.007  1.00  0.00     0.018 C 
ATOM     15  C   UNL     1      14.845  15.746  21.356  1.00  0.00     0.010 C 
BRANCH  14  16
ATOM     16  C   UNL     1      15.630  13.635  20.206  1.00  0.00     0.002 C 
ATOM     17  C   UNL     1      15.113  13.011  21.507  1.00  0.00     0.004 C 
ENDBRANCH  14  16
ENDBRANCH  12  14
ENDBRANCH   9  12
ENDBRANCH   7   8
BRANCH   7  18
ATOM     18  C   UNL     1      19.416  17.965  22.242  1.00  0.00     0.073 C 
BRANCH  18  19
ATOM     19  C   UNL     1      20.821  18.384  22.588  1.00  0.00    -0.016 A 
ATOM     20  C   UNL     1      22.001  17.857  22.064  1.00  0.00     0.134 A 
ATOM     21  C   UNL     1      21.211  19.389  23.459  1.00  0.00     0.006 A 
ATOM     22  N   UNL     1      23.066  18.526  22.570  1.00  0.00    -0.191 N 
ATOM     23  C   UNL     1      22.581  19.451  23.414  1.00  0.00     0.087 A 
ATOM     24  C   UNL     1      20.468  20.234  24.284  1.00  0.00     0.011 A 
ATOM     25  C   UNL     1      23.300  20.377  24.170  1.00  0.00     0.030 A 
ATOM     26  C   UNL     1      21.165  21.181  25.056  1.00  0.00     0.001 A 
ATOM     27  C   UNL     1      22.575  21.255  24.997  1.00  0.00     0.002 A 
BRANCH  22  28
ATOM     28  O   UNL     1      24.404  18.325  22.283  1.00  0.00    -0.417 OA
ATOM     29  C   UNL     1      25.264  17.587  23.140  1.00  0.00     0.313 C 
ENDBRANCH  22  28
ENDBRANCH  18  19
ENDBRANCH   7  18
ENDBRANCH   4   7
ENDBRANCH   2   3
BRANCH   2  30
ATOM     30  N   UNL     1      16.516  21.108  18.723  1.00  0.00    -0.343 N 
ATOM     31  C   UNL     1      16.137  19.729  18.569  1.00  0.00     0.243 C 
ATOM     32  H   UNL     1      16.498  21.725  17.879  1.00  0.00     0.164 HD
ATOM     33  O   UNL     1      15.889  19.020  19.582  1.00  0.00    -0.273 OA
BRANCH  31  34
ATOM     34  C   UNL     1      16.077  19.115  17.190  1.00  0.00     0.174 C 
ATOM     35  N   UNL     1      16.197  17.641  17.212  1.00  0.00    -0.329 N 
ATOM     36  C   UNL     1      17.183  19.736  16.314  1.00  0.00     0.035 C 
ATOM     37  C   UNL     1      16.286  16.971  15.905  1.00  0.00     0.120 C 
ATOM     38  C   UNL     1      17.220  19.089  14.929  1.00  0.00     0.004 C 
ATOM     39  C   UNL     1      17.404  17.578  15.056  1.00  0.00     0.022 C 
BRANCH  35  40
ATOM     40  C   UNL     1      15.570  16.887  18.266  1.00  0.00     0.246 CG0
ATOM     41  O   UNL     1      14.315  16.921  18.388  1.00  0.00    -0.272 OA
ATOM     42  G   UNL     1      16.392  16.047  19.221  1.00  0.00     0.000 G0
ENDBRANCH  35  40
ENDBRANCH  31  34
ENDBRANCH   2  30
ENDBRANCH   1   2
BRANCH   1  43
ATOM     43  C   UNL     1      17.854  23.518  18.333  1.00  0.00     0.003 C 
BRANCH  43  44
ATOM     44  C   UNL     1      19.258  24.130  18.182  1.00  0.00     0.001 C 
BRANCH  44  45
ATOM     45  C   UNL     1      20.005  23.621  16.940  1.00  0.00     0.008 C 
BRANCH  45  46
ATOM     46  C   UNL     1      19.024  23.016  15.925  1.00  0.00     0.075 C 
BRANCH  46  47
ATOM     47  C   UNL     1      19.579  22.977  14.521  1.00  0.00     0.132 C 
ATOM     48  O   UNL     1      19.718  24.007  13.876  1.00  0.00    -0.300 OA
BRANCH  47  49
ATOM     49  C   UNL     1      19.896  21.655  13.875  1.00  0.00     0.072 C 
ATOM     50  C   UNL     1      18.773  20.653  14.112  1.00  0.00     0.012 C 
ENDBRANCH  47  49
ENDBRANCH  46  47
ENDBRANCH  45  46
ENDBRANCH  44  45
ENDBRANCH  43  44
ENDBRANCH   1  43
TORSDOF 12
ENDMDL
MODEL 6
REMARK VINA RESULT:    79.344      2.433      3.445
REMARK INTER + INTRA:         167.014
REMARK INTER:                 166.854
REMARK INTRA:                   0.160
REMARK UNBOUND:                -0.460
REMARK SMILES CCC(=O)CCCCC[C@H]1NC(=O)[C@H]2CCCCN2C(=O)[C@H]([C@H](C)CC)NC(=O)[C@H](Cc2cn(OC)c3ccccc23)NC1=O
REMARK SMILES IDX 9 1 10 2 44 3 43 4 45 6 30 7 28 8 27 9 29 11 22 12 23 14
REMARK SMILES IDX 24 15 25 16 26 17 31 18 32 19 33 20 42 21 34 22 37 23 41 24
REMARK SMILES IDX 38 25 40 26 39 27 35 28 36 29 11 30 12 31 13 33 14 34 19 35
REMARK SMILES IDX 15 36 18 37 16 38 17 39 20 40 21 41 8 43 7 44 6 45 5 46 3 47
REMARK SMILES IDX 4 48 2 49 1 50
REMARK H PARENT 43 5 27 10 11 32
REMARK Flexibility Score: 80.00
ROOT
ATOM      1  C   UNL     1      15.927  16.870  19.532  1.00  0.00     0.035 C 
ENDROOT
BRANCH   1   2
ATOM      2  C   UNL     1      17.210  17.668  19.199  1.00  0.00     0.171 C 
BRANCH   2   3
ATOM      3  C   UNL     1      18.449  17.057  19.805  1.00  0.00     0.243 C 
ATOM      4  N   UNL     1      19.719  17.681  19.580  1.00  0.00    -0.342 N 
ATOM      5  H   UNL     1      19.749  18.447  18.871  1.00  0.00     0.164 HD
ATOM      6  O   UNL     1      18.372  16.016  20.515  1.00  0.00    -0.273 OA
BRANCH   4   7
ATOM      7  C   UNL     1      20.793  17.594  20.571  1.00  0.00     0.175 C 
BRANCH   7   8
ATOM      8  C   UNL     1      20.599  18.663  21.622  1.00  0.00     0.243 C 
ATOM      9  N   UNL     1      20.268  20.010  21.244  1.00  0.00    -0.342 N 
ATOM     10  H   UNL     1      20.367  20.279  20.240  1.00  0.00     0.164 HD
ATOM     11  O   UNL     1      20.679  18.347  22.840  1.00  0.00    -0.273 OA
BRANCH   9  12
ATOM     12  C   UNL     1      19.740  21.015  22.177  1.00  0.00     0.174 CG0
ATOM     13  G   UNL     1      18.690  21.831  21.452  1.00  0.00     0.000 G0
BRANCH  12  14
ATOM     14  C   UNL     1      20.906  21.903  22.719  1.00  0.00     0.018 C 
ATOM     15  C   UNL     1      21.461  21.357  24.045  1.00  0.00     0.010 C 
BRANCH  14  16
ATOM     16  C   UNL     1      20.552  23.405  22.873  1.00  0.00     0.002 C 
ATOM     17  C   UNL     1      19.820  23.753  24.174  1.00  0.00     0.004 C 
ENDBRANCH  14  16
ENDBRANCH  12  14
ENDBRANCH   9  12
ENDBRANCH   7   8
BRANCH   7  18
ATOM     18  C   UNL     1      22.189  17.618  19.905  1.00  0.00     0.073 C 
BRANCH  18  19
ATOM     19  C   UNL     1      23.306  18.095  20.796  1.00  0.00    -0.016 A 
ATOM     20  C   UNL     1      23.767  19.404  20.928  1.00  0.00     0.134 A 
ATOM     21  C   UNL     1      24.064  17.338  21.677  1.00  0.00     0.006 A 
ATOM     22  N   UNL     1      24.744  19.454  21.866  1.00  0.00    -0.191 N 
ATOM     23  C   UNL     1      24.920  18.201  22.315  1.00  0.00     0.087 A 
ATOM     24  C   UNL     1      24.068  15.970  21.950  1.00  0.00     0.011 A 
ATOM     25  C   UNL     1      25.818  17.760  23.286  1.00  0.00     0.030 A 
ATOM     26  C   UNL     1      24.961  15.496  22.928  1.00  0.00     0.001 A 
ATOM     27  C   UNL     1      25.830  16.387  23.595  1.00  0.00     0.002 A 
BRANCH  22  28
ATOM     28  O   UNL     1      25.437  20.568  22.306  1.00  0.00    -0.417 OA
ATOM     29  C   UNL     1      26.586  21.064  21.634  1.00  0.00     0.313 C 
ENDBRANCH  22  28
ENDBRANCH  18  19
ENDBRANCH   7  18
ENDBRANCH   4   7
ENDBRANCH   2   3
BRANCH   2  30
ATOM     30  N   UNL     1      17.079  19.067  19.618  1.00  0.00    -0.343 N 
ATOM     31  C   UNL     1      16.917  19.478  20.987  1.00  0.00     0.243 C 
ATOM     32  H   UNL     1      17.005  19.793  18.870  1.00  0.00     0.164 HD
ATOM     33  O   UNL     1      17.255  18.709  21.927  1.00  0.00    -0.273 OA
BRANCH  31  34
ATOM     34  C   UNL     1      16.301  20.820  21.302  1.00  0.00     0.174 C 
ATOM     35  N   UNL     1      17.264  21.770  21.900  1.00  0.00    -0.329 N 
ATOM     36  C   UNL     1      15.094  20.612  22.239  1.00  0.00     0.035 C 
ATOM     37  C   UNL     1      16.717  23.054  22.364  1.00  0.00     0.120 C 
ATOM     38  C   UNL     1      14.480  21.948  22.657  1.00  0.00     0.004 C 
ATOM     39  C   UNL     1      15.538  22.834  23.314  1.00  0.00     0.022 C 
BRANCH  35  40
ATOM     40  C   UNL     1      18.626  21.796  21.434  1.00  0.00     0.246 CG0
ATOM     41  O   UNL     1      18.922  22.498  20.429  1.00  0.00    -0.272 OA
ATOM     42  G   UNL     1      19.707  21.002  22.138  1.00  0.00     0.000 G0
ENDBRANCH  35  40
ENDBRANCH  31  34
ENDBRANCH   2  30
ENDBRANCH   1   2
BRANCH   1  43
ATOM     43  C   UNL     1      16.171  15.618  20.398  1.00  0.00     0.003 C 
BRANCH  43  44
ATOM     44  C   UNL     1      14.899  14.886  20.860  1.00  0.00     0.001 C 
BRANCH  44  45
ATOM     45  C   UNL     1      15.040  13.357  20.828  1.00  0.00     0.008 C 
BRANCH  45  46
ATOM     46  C   UNL     1      14.170  12.753  19.716  1.00  0.00     0.075 C 
BRANCH  46  47
ATOM     47  C   UNL     1      14.563  11.338  19.363  1.00  0.00     0.132 C 
ATOM     48  O   UNL     1      14.168  10.819  18.329  1.00  0.00    -0.300 OA
BRANCH  47  49
ATOM     49  C   UNL     1      15.390  10.527  20.325  1.00  0.00     0.072 C 
ATOM     50  C   UNL     1      16.287   9.548  19.576  1.00  0.00     0.012 C 
ENDBRANCH  47  49
ENDBRANCH  46  47
ENDBRANCH  45  46
ENDBRANCH  44  45
ENDBRANCH  43  44
ENDBRANCH   1  43
TORSDOF 12
ENDMDL
