MODEL 1
REMARK VINA RESULT:    -3.712      0.000      0.000
REMARK INTER + INTRA:         -10.884
REMARK INTER:                  -7.834
REMARK INTRA:                  -3.050
REMARK UNBOUND:                -3.050
REMARK SMILES CCC(=O)CCCCC[C@H]1NC(=O)[C@H]2CCCCN2C(=O)[C@H]([C@@H](C)CC)NC(=O)[C@@H](Cc2cn(OC)c3ccccc23)NC1=O
REMARK SMILES IDX 9 1 10 2 44 3 43 4 45 6 30 7 28 8 27 9 29 11 22 12 23 14
REMARK SMILES IDX 24 15 25 16 26 17 31 18 32 19 33 20 42 21 34 22 37 23 41 24
REMARK SMILES IDX 38 25 40 26 39 27 35 28 36 29 11 30 12 31 13 33 14 34 19 35
REMARK SMILES IDX 15 36 18 37 16 38 17 39 20 40 21 41 8 43 7 44 6 45 5 46 3 47
REMARK SMILES IDX 4 48 2 49 1 50
REMARK H PARENT 43 5 27 10 11 32
REMARK Flexibility Score: 80.00
ROOT
ATOM      1  C   UNL     1       2.232  -7.608 196.587  1.00  0.00     0.035 C 
ENDROOT
BRANCH   1   2
ATOM      2  C   UNL     1       1.843  -6.467 195.612  1.00  0.00     0.171 C 
BRANCH   2   3
ATOM      3  C   UNL     1       1.085  -7.000 194.414  1.00  0.00     0.243 C 
ATOM      4  N   UNL     1       1.469  -8.234 193.798  1.00  0.00    -0.342 N 
ATOM      5  H   UNL     1       1.278  -9.120 194.319  1.00  0.00     0.164 HD
ATOM      6  O   UNL     1       0.217  -6.278 193.859  1.00  0.00    -0.273 OA
BRANCH   4   7
ATOM      7  C   UNL     1       2.470  -8.257 192.730  1.00  0.00     0.175 C 
BRANCH   7   8
ATOM      8  C   UNL     1       3.818  -8.583 193.321  1.00  0.00     0.243 C 
ATOM      9  N   UNL     1       4.875  -7.612 193.293  1.00  0.00    -0.342 N 
ATOM     10  H   UNL     1       4.741  -6.759 192.702  1.00  0.00     0.164 HD
ATOM     11  O   UNL     1       3.994  -9.701 193.878  1.00  0.00    -0.273 OA
BRANCH   9  12
ATOM     12  C   UNL     1       6.156  -7.796 193.988  1.00  0.00     0.174 CG0
ATOM     13  G   UNL     1       6.438  -6.638 194.934  1.00  0.00     0.000 G0
BRANCH  12  14
ATOM     14  C   UNL     1       7.316  -8.086 192.983  1.00  0.00     0.018 C 
ATOM     15  C   UNL     1       7.766  -9.553 193.117  1.00  0.00     0.010 C 
BRANCH  14  16
ATOM     16  C   UNL     1       6.948  -7.785 191.501  1.00  0.00     0.002 C 
ATOM     17  C   UNL     1       7.830  -6.702 190.874  1.00  0.00     0.004 C 
ENDBRANCH  14  16
ENDBRANCH  12  14
ENDBRANCH   9  12
ENDBRANCH   7   8
BRANCH   7  18
ATOM     18  C   UNL     1       2.088  -9.292 191.658  1.00  0.00     0.073 C 
BRANCH  18  19
ATOM     19  C   UNL     1       2.928  -9.132 190.426  1.00  0.00    -0.016 A 
ATOM     20  C   UNL     1       2.684  -8.254 189.373  1.00  0.00     0.134 A 
ATOM     21  C   UNL     1       4.046  -9.865 190.061  1.00  0.00     0.006 A 
ATOM     22  N   UNL     1       3.626  -8.419 188.412  1.00  0.00    -0.191 N 
ATOM     23  C   UNL     1       4.445  -9.398 188.833  1.00  0.00     0.087 A 
ATOM     24  C   UNL     1       4.734 -10.891 190.713  1.00  0.00     0.011 A 
ATOM     25  C   UNL     1       5.558  -9.920 188.175  1.00  0.00     0.030 A 
ATOM     26  C   UNL     1       5.862 -11.433 190.073  1.00  0.00     0.001 A 
ATOM     27  C   UNL     1       6.272 -10.951 188.812  1.00  0.00     0.002 A 
BRANCH  22  28
ATOM     28  O   UNL     1       3.744  -7.731 187.218  1.00  0.00    -0.417 OA
ATOM     29  C   UNL     1       4.740  -6.738 187.002  1.00  0.00     0.313 C 
ENDBRANCH  22  28
ENDBRANCH  18  19
ENDBRANCH   7  18
ENDBRANCH   4   7
ENDBRANCH   2   3
BRANCH   2  30
ATOM     30  N   UNL     1       3.022  -5.727 195.140  1.00  0.00    -0.343 N 
ATOM     31  C   UNL     1       4.093  -5.303 195.995  1.00  0.00     0.243 C 
ATOM     32  H   UNL     1       2.996  -5.313 194.180  1.00  0.00     0.164 HD
ATOM     33  O   UNL     1       4.069  -5.584 197.226  1.00  0.00    -0.273 OA
BRANCH  31  34
ATOM     34  C   UNL     1       5.219  -4.456 195.427  1.00  0.00     0.174 C 
ATOM     35  N   UNL     1       6.212  -5.242 194.658  1.00  0.00    -0.329 N 
ATOM     36  C   UNL     1       5.941  -3.646 196.526  1.00  0.00     0.035 C 
ATOM     37  C   UNL     1       7.299  -4.462 194.048  1.00  0.00     0.120 C 
ATOM     38  C   UNL     1       7.059  -2.791 195.923  1.00  0.00     0.004 C 
ATOM     39  C   UNL     1       8.037  -3.654 195.120  1.00  0.00     0.022 C 
BRANCH  35  40
ATOM     40  C   UNL     1       6.468  -6.626 194.969  1.00  0.00     0.246 CG0
ATOM     41  O   UNL     1       6.955  -6.914 196.096  1.00  0.00    -0.272 OA
ATOM     42  G   UNL     1       6.145  -7.755 194.001  1.00  0.00     0.000 G0
ENDBRANCH  35  40
ENDBRANCH  31  34
ENDBRANCH   2  30
ENDBRANCH   1   2
BRANCH   1  43
ATOM     43  C   UNL     1       1.078  -7.939 197.545  1.00  0.00     0.003 C 
BRANCH  43  44
ATOM     44  C   UNL     1       1.473  -7.677 199.006  1.00  0.00     0.001 C 
BRANCH  44  45
ATOM     45  C   UNL     1       2.969  -7.933 199.264  1.00  0.00     0.008 C 
BRANCH  45  46
ATOM     46  C   UNL     1       3.285  -8.101 200.756  1.00  0.00     0.075 C 
BRANCH  46  47
ATOM     47  C   UNL     1       4.193  -7.003 201.238  1.00  0.00     0.132 C 
ATOM     48  O   UNL     1       4.739  -7.116 202.325  1.00  0.00    -0.300 OA
BRANCH  47  49
ATOM     49  C   UNL     1       4.503  -5.831 200.343  1.00  0.00     0.072 C 
ATOM     50  C   UNL     1       4.510  -4.500 201.096  1.00  0.00     0.012 C 
ENDBRANCH  47  49
ENDBRANCH  46  47
ENDBRANCH  45  46
ENDBRANCH  44  45
ENDBRANCH  43  44
ENDBRANCH   1  43
TORSDOF 12
ENDMDL
MODEL 2
REMARK VINA RESULT:    -3.576      2.502      5.994
REMARK INTER + INTRA:         -10.597
REMARK INTER:                  -6.809
REMARK INTRA:                  -3.788
REMARK UNBOUND:                -3.050
REMARK SMILES CCC(=O)CCCCC[C@H]1NC(=O)[C@H]2CCCCN2C(=O)[C@H]([C@@H](C)CC)NC(=O)[C@@H](Cc2cn(OC)c3ccccc23)NC1=O
REMARK SMILES IDX 9 1 10 2 44 3 43 4 45 6 30 7 28 8 27 9 29 11 22 12 23 14
REMARK SMILES IDX 24 15 25 16 26 17 31 18 32 19 33 20 42 21 34 22 37 23 41 24
REMARK SMILES IDX 38 25 40 26 39 27 35 28 36 29 11 30 12 31 13 33 14 34 19 35
REMARK SMILES IDX 15 36 18 37 16 38 17 39 20 40 21 41 8 43 7 44 6 45 5 46 3 47
REMARK SMILES IDX 4 48 2 49 1 50
REMARK H PARENT 43 5 27 10 11 32
REMARK Flexibility Score: 80.00
ROOT
ATOM      1  C   UNL     1       5.888  -4.181 193.114  1.00  0.00     0.035 C 
ENDROOT
BRANCH   1   2
ATOM      2  C   UNL     1       5.384  -5.637 192.946  1.00  0.00     0.171 C 
BRANCH   2   3
ATOM      3  C   UNL     1       4.818  -5.869 191.560  1.00  0.00     0.243 C 
ATOM      4  N   UNL     1       3.650  -6.676 191.375  1.00  0.00    -0.342 N 
ATOM      5  H   UNL     1       2.733  -6.286 191.690  1.00  0.00     0.164 HD
ATOM      6  O   UNL     1       5.467  -5.484 190.554  1.00  0.00    -0.273 OA
BRANCH   4   7
ATOM      7  C   UNL     1       3.763  -8.123 191.186  1.00  0.00     0.175 C 
BRANCH   7   8
ATOM      8  C   UNL     1       3.219  -8.826 192.403  1.00  0.00     0.243 C 
ATOM      9  N   UNL     1       4.107  -9.269 193.442  1.00  0.00    -0.342 N 
ATOM     10  H   UNL     1       5.134  -9.253 193.247  1.00  0.00     0.164 HD
ATOM     11  O   UNL     1       1.973  -8.982 192.521  1.00  0.00    -0.273 OA
BRANCH   9  12
ATOM     12  C   UNL     1       3.639  -9.812 194.723  1.00  0.00     0.174 CG0
ATOM     13  G   UNL     1       4.314  -9.114 195.894  1.00  0.00     0.000 G0
BRANCH  12  14
ATOM     14  C   UNL     1       3.759 -11.369 194.764  1.00  0.00     0.018 C 
ATOM     15  C   UNL     1       2.354 -11.999 194.796  1.00  0.00     0.010 C 
BRANCH  14  16
ATOM     16  C   UNL     1       4.572 -11.963 193.576  1.00  0.00     0.002 C 
ATOM     17  C   UNL     1       3.684 -12.421 192.416  1.00  0.00     0.004 C 
ENDBRANCH  14  16
ENDBRANCH  12  14
ENDBRANCH   9  12
ENDBRANCH   7   8
BRANCH   7  18
ATOM     18  C   UNL     1       2.999  -8.561 189.926  1.00  0.00     0.073 C 
BRANCH  18  19
ATOM     19  C   UNL     1       3.933  -9.115 188.890  1.00  0.00    -0.016 A 
ATOM     20  C   UNL     1       4.374 -10.433 188.802  1.00  0.00     0.134 A 
ATOM     21  C   UNL     1       4.588  -8.425 187.883  1.00  0.00     0.006 A 
ATOM     22  N   UNL     1       5.244 -10.556 187.770  1.00  0.00    -0.191 N 
ATOM     23  C   UNL     1       5.372  -9.337 187.220  1.00  0.00     0.087 A 
ATOM     24  C   UNL     1       4.549  -7.081 187.506  1.00  0.00     0.011 A 
ATOM     25  C   UNL     1       6.165  -8.971 186.134  1.00  0.00     0.030 A 
ATOM     26  C   UNL     1       5.337  -6.685 186.411  1.00  0.00     0.001 A 
ATOM     27  C   UNL     1       6.141  -7.623 185.729  1.00  0.00     0.002 A 
BRANCH  22  28
ATOM     28  O   UNL     1       5.892 -11.701 187.344  1.00  0.00    -0.417 OA
ATOM     29  C   UNL     1       5.619 -12.985 187.893  1.00  0.00     0.313 C 
ENDBRANCH  22  28
ENDBRANCH  18  19
ENDBRANCH   7  18
ENDBRANCH   4   7
ENDBRANCH   2   3
BRANCH   2  30
ATOM     30  N   UNL     1       4.359  -5.978 193.942  1.00  0.00    -0.343 N 
ATOM     31  C   UNL     1       4.644  -6.246 195.322  1.00  0.00     0.243 C 
ATOM     32  H   UNL     1       3.403  -6.234 193.603  1.00  0.00     0.164 HD
ATOM     33  O   UNL     1       5.831  -6.171 195.749  1.00  0.00    -0.273 OA
BRANCH  31  34
ATOM     34  C   UNL     1       3.526  -6.687 196.250  1.00  0.00     0.174 C 
ATOM     35  N   UNL     1       3.666  -8.087 196.713  1.00  0.00    -0.329 N 
ATOM     36  C   UNL     1       2.134  -6.491 195.609  1.00  0.00     0.035 C 
ATOM     37  C   UNL     1       2.633  -8.548 197.651  1.00  0.00     0.120 C 
ATOM     38  C   UNL     1       1.027  -6.928 196.572  1.00  0.00     0.004 C 
ATOM     39  C   UNL     1       1.241  -8.373 197.035  1.00  0.00     0.022 C 
BRANCH  35  40
ATOM     40  C   UNL     1       4.330  -9.076 195.901  1.00  0.00     0.246 CG0
ATOM     41  O   UNL     1       5.527  -9.373 196.165  1.00  0.00    -0.272 OA
ATOM     42  G   UNL     1       3.632  -9.796 194.756  1.00  0.00     0.000 G0
ENDBRANCH  35  40
ENDBRANCH  31  34
ENDBRANCH   2  30
ENDBRANCH   1   2
BRANCH   1  43
ATOM     43  C   UNL     1       7.419  -4.132 193.231  1.00  0.00     0.003 C 
BRANCH  43  44
ATOM     44  C   UNL     1       8.076  -3.899 191.862  1.00  0.00     0.001 C 
BRANCH  44  45
ATOM     45  C   UNL     1       9.298  -4.806 191.636  1.00  0.00     0.008 C 
BRANCH  45  46
ATOM     46  C   UNL     1       9.004  -5.951 190.658  1.00  0.00     0.075 C 
BRANCH  46  47
ATOM     47  C   UNL     1       9.029  -7.279 191.364  1.00  0.00     0.132 C 
ATOM     48  O   UNL     1      10.089  -7.706 191.794  1.00  0.00    -0.300 OA
BRANCH  47  49
ATOM     49  C   UNL     1       7.742  -8.020 191.625  1.00  0.00     0.072 C 
ATOM     50  C   UNL     1       7.312  -8.889 190.443  1.00  0.00     0.012 C 
ENDBRANCH  47  49
ENDBRANCH  46  47
ENDBRANCH  45  46
ENDBRANCH  44  45
ENDBRANCH  43  44
ENDBRANCH   1  43
TORSDOF 12
ENDMDL
MODEL 3
REMARK VINA RESULT:    -3.415      4.005      9.472
REMARK INTER + INTRA:         -10.258
REMARK INTER:                  -7.678
REMARK INTRA:                  -2.580
REMARK UNBOUND:                -3.050
REMARK SMILES CCC(=O)CCCCC[C@H]1NC(=O)[C@H]2CCCCN2C(=O)[C@H]([C@@H](C)CC)NC(=O)[C@@H](Cc2cn(OC)c3ccccc23)NC1=O
REMARK SMILES IDX 9 1 10 2 44 3 43 4 45 6 30 7 28 8 27 9 29 11 22 12 23 14
REMARK SMILES IDX 24 15 25 16 26 17 31 18 32 19 33 20 42 21 34 22 37 23 41 24
REMARK SMILES IDX 38 25 40 26 39 27 35 28 36 29 11 30 12 31 13 33 14 34 19 35
REMARK SMILES IDX 15 36 18 37 16 38 17 39 20 40 21 41 8 43 7 44 6 45 5 46 3 47
REMARK SMILES IDX 4 48 2 49 1 50
REMARK H PARENT 43 5 27 10 11 32
REMARK Flexibility Score: 80.00
ROOT
ATOM      1  C   UNL     1       6.875  -4.870 194.607  1.00  0.00     0.035 C 
ENDROOT
BRANCH   1   2
ATOM      2  C   UNL     1       7.123  -4.092 195.924  1.00  0.00     0.171 C 
BRANCH   2   3
ATOM      3  C   UNL     1       5.953  -4.230 196.876  1.00  0.00     0.243 C 
ATOM      4  N   UNL     1       5.583  -3.149 197.738  1.00  0.00    -0.342 N 
ATOM      5  H   UNL     1       5.138  -2.308 197.304  1.00  0.00     0.164 HD
ATOM      6  O   UNL     1       5.403  -5.352 197.023  1.00  0.00    -0.273 OA
BRANCH   4   7
ATOM      7  C   UNL     1       6.187  -3.008 199.063  1.00  0.00     0.175 C 
BRANCH   7   8
ATOM      8  C   UNL     1       7.029  -1.758 199.095  1.00  0.00     0.243 C 
ATOM      9  N   UNL     1       8.405  -1.800 198.685  1.00  0.00    -0.342 N 
ATOM     10  H   UNL     1       8.844  -2.737 198.541  1.00  0.00     0.164 HD
ATOM     11  O   UNL     1       6.500  -0.666 199.443  1.00  0.00    -0.273 OA
BRANCH   9  12
ATOM     12  C   UNL     1       9.236  -0.599 198.535  1.00  0.00     0.174 CG0
ATOM     13  G   UNL     1      10.160  -0.717 197.331  1.00  0.00     0.000 G0
BRANCH  12  14
ATOM     14  C   UNL     1       9.977  -0.244 199.864  1.00  0.00     0.018 C 
ATOM     15  C   UNL     1       9.270   0.937 200.553  1.00  0.00     0.010 C 
BRANCH  14  16
ATOM     16  C   UNL     1      10.085  -1.440 200.855  1.00  0.00     0.002 C 
ATOM     17  C   UNL     1      11.529  -1.885 201.098  1.00  0.00     0.004 C 
ENDBRANCH  14  16
ENDBRANCH  12  14
ENDBRANCH   9  12
ENDBRANCH   7   8
BRANCH   7  18
ATOM     18  C   UNL     1       5.099  -2.951 200.148  1.00  0.00     0.073 C 
BRANCH  18  19
ATOM     19  C   UNL     1       4.213  -4.160 200.092  1.00  0.00    -0.016 A 
ATOM     20  C   UNL     1       4.559  -5.451 200.483  1.00  0.00     0.134 A 
ATOM     21  C   UNL     1       2.928  -4.247 199.581  1.00  0.00     0.006 A 
ATOM     22  N   UNL     1       3.523  -6.293 200.247  1.00  0.00    -0.191 N 
ATOM     23  C   UNL     1       2.541  -5.560 199.698  1.00  0.00     0.087 A 
ATOM     24  C   UNL     1       2.083  -3.280 199.033  1.00  0.00     0.011 A 
ATOM     25  C   UNL     1       1.284  -5.994 199.280  1.00  0.00     0.030 A 
ATOM     26  C   UNL     1       0.807  -3.691 198.606  1.00  0.00     0.001 A 
ATOM     27  C   UNL     1       0.410  -5.039 198.729  1.00  0.00     0.002 A 
BRANCH  22  28
ATOM     28  O   UNL     1       3.462  -7.651 200.507  1.00  0.00    -0.417 OA
ATOM     29  C   UNL     1       3.143  -8.170 201.793  1.00  0.00     0.313 C 
ENDBRANCH  22  28
ENDBRANCH  18  19
ENDBRANCH   7  18
ENDBRANCH   4   7
ENDBRANCH   2   3
BRANCH   2  30
ATOM     30  N   UNL     1       7.370  -2.664 195.677  1.00  0.00    -0.343 N 
ATOM     31  C   UNL     1       8.643  -2.130 195.285  1.00  0.00     0.243 C 
ATOM     32  H   UNL     1       6.648  -1.974 195.988  1.00  0.00     0.164 HD
ATOM     33  O   UNL     1       9.626  -2.903 195.110  1.00  0.00    -0.273 OA
BRANCH  31  34
ATOM     34  C   UNL     1       8.819  -0.628 195.150  1.00  0.00     0.174 C 
ATOM     35  N   UNL     1       9.859  -0.078 196.050  1.00  0.00    -0.329 N 
ATOM     36  C   UNL     1       7.492   0.130 195.371  1.00  0.00     0.035 C 
ATOM     37  C   UNL     1      10.102   1.367 195.925  1.00  0.00     0.120 C 
ATOM     38  C   UNL     1       7.697   1.639 195.214  1.00  0.00     0.004 C 
ATOM     39  C   UNL     1       8.800   2.144 196.149  1.00  0.00     0.022 C 
BRANCH  35  40
ATOM     40  C   UNL     1      10.160  -0.705 197.313  1.00  0.00     0.246 CG0
ATOM     41  O   UNL     1      11.240  -1.346 197.429  1.00  0.00    -0.272 OA
ATOM     42  G   UNL     1       9.239  -0.598 198.519  1.00  0.00     0.000 G0
ENDBRANCH  35  40
ENDBRANCH  31  34
ENDBRANCH   2  30
ENDBRANCH   1   2
BRANCH   1  43
ATOM     43  C   UNL     1       8.002  -5.877 194.335  1.00  0.00     0.003 C 
BRANCH  43  44
ATOM     44  C   UNL     1       7.856  -6.516 192.945  1.00  0.00     0.001 C 
BRANCH  44  45
ATOM     45  C   UNL     1       6.666  -7.488 192.869  1.00  0.00     0.008 C 
BRANCH  45  46
ATOM     46  C   UNL     1       5.836  -7.298 191.592  1.00  0.00     0.075 C 
BRANCH  46  47
ATOM     47  C   UNL     1       4.637  -6.430 191.857  1.00  0.00     0.132 C 
ATOM     48  O   UNL     1       4.746  -5.217 191.759  1.00  0.00    -0.300 OA
BRANCH  47  49
ATOM     49  C   UNL     1       3.296  -7.058 192.137  1.00  0.00     0.072 C 
ATOM     50  C   UNL     1       2.934  -8.149 191.128  1.00  0.00     0.012 C 
ENDBRANCH  47  49
ENDBRANCH  46  47
ENDBRANCH  45  46
ENDBRANCH  44  45
ENDBRANCH  43  44
ENDBRANCH   1  43
TORSDOF 12
ENDMDL
MODEL 4
REMARK VINA RESULT:    -3.411      3.973      9.066
REMARK INTER + INTRA:         -10.249
REMARK INTER:                  -7.938
REMARK INTRA:                  -2.311
REMARK UNBOUND:                -3.050
REMARK SMILES CCC(=O)CCCCC[C@H]1NC(=O)[C@H]2CCCCN2C(=O)[C@H]([C@@H](C)CC)NC(=O)[C@@H](Cc2cn(OC)c3ccccc23)NC1=O
REMARK SMILES IDX 9 1 10 2 44 3 43 4 45 6 30 7 28 8 27 9 29 11 22 12 23 14
REMARK SMILES IDX 24 15 25 16 26 17 31 18 32 19 33 20 42 21 34 22 37 23 41 24
REMARK SMILES IDX 38 25 40 26 39 27 35 28 36 29 11 30 12 31 13 33 14 34 19 35
REMARK SMILES IDX 15 36 18 37 16 38 17 39 20 40 21 41 8 43 7 44 6 45 5 46 3 47
REMARK SMILES IDX 4 48 2 49 1 50
REMARK H PARENT 43 5 27 10 11 32
REMARK Flexibility Score: 80.00
ROOT
ATOM      1  C   UNL     1       7.048  -4.645 194.428  1.00  0.00     0.035 C 
ENDROOT
BRANCH   1   2
ATOM      2  C   UNL     1       7.257  -3.916 195.780  1.00  0.00     0.171 C 
BRANCH   2   3
ATOM      3  C   UNL     1       6.066  -4.099 196.696  1.00  0.00     0.243 C 
ATOM      4  N   UNL     1       5.674  -3.060 197.600  1.00  0.00    -0.342 N 
ATOM      5  H   UNL     1       5.238  -2.200 197.196  1.00  0.00     0.164 HD
ATOM      6  O   UNL     1       5.514  -5.227 196.778  1.00  0.00    -0.273 OA
BRANCH   4   7
ATOM      7  C   UNL     1       6.248  -2.982 198.944  1.00  0.00     0.175 C 
BRANCH   7   8
ATOM      8  C   UNL     1       7.073  -1.726 199.059  1.00  0.00     0.243 C 
ATOM      9  N   UNL     1       8.459  -1.732 198.685  1.00  0.00    -0.342 N 
ATOM     10  H   UNL     1       8.914  -2.657 198.506  1.00  0.00     0.164 HD
ATOM     11  O   UNL     1       6.522  -0.659 199.447  1.00  0.00    -0.273 OA
BRANCH   9  12
ATOM     12  C   UNL     1       9.280  -0.516 198.616  1.00  0.00     0.174 CG0
ATOM     13  G   UNL     1      10.206  -0.546 197.409  1.00  0.00     0.000 G0
BRANCH  12  14
ATOM     14  C   UNL     1      10.016  -0.245 199.967  1.00  0.00     0.018 C 
ATOM     15  C   UNL     1       9.363   0.952 200.683  1.00  0.00     0.010 C 
BRANCH  14  16
ATOM     16  C   UNL     1      10.042  -1.474 200.921  1.00  0.00     0.002 C 
ATOM     17  C   UNL     1      11.383  -1.645 201.639  1.00  0.00     0.004 C 
ENDBRANCH  14  16
ENDBRANCH  12  14
ENDBRANCH   9  12
ENDBRANCH   7   8
BRANCH   7  18
ATOM     18  C   UNL     1       5.135  -2.994 200.005  1.00  0.00     0.073 C 
BRANCH  18  19
ATOM     19  C   UNL     1       4.108  -4.045 199.704  1.00  0.00    -0.016 A 
ATOM     20  C   UNL     1       3.038  -3.919 198.821  1.00  0.00     0.134 A 
ATOM     21  C   UNL     1       3.977  -5.295 200.287  1.00  0.00     0.006 A 
ATOM     22  N   UNL     1       2.294  -5.052 198.840  1.00  0.00    -0.191 N 
ATOM     23  C   UNL     1       2.865  -5.879 199.732  1.00  0.00     0.087 A 
ATOM     24  C   UNL     1       4.746  -5.952 201.250  1.00  0.00     0.011 A 
ATOM     25  C   UNL     1       2.450  -7.159 200.096  1.00  0.00     0.030 A 
ATOM     26  C   UNL     1       4.351  -7.245 201.634  1.00  0.00     0.001 A 
ATOM     27  C   UNL     1       3.209  -7.845 201.061  1.00  0.00     0.002 A 
BRANCH  22  28
ATOM     28  O   UNL     1       1.160  -5.330 198.099  1.00  0.00    -0.417 OA
ATOM     29  C   UNL     1       0.708  -4.487 197.045  1.00  0.00     0.313 C 
ENDBRANCH  22  28
ENDBRANCH  18  19
ENDBRANCH   7  18
ENDBRANCH   4   7
ENDBRANCH   2   3
BRANCH   2  30
ATOM     30  N   UNL     1       7.498  -2.478 195.593  1.00  0.00    -0.343 N 
ATOM     31  C   UNL     1       8.780  -1.918 195.272  1.00  0.00     0.243 C 
ATOM     32  H   UNL     1       6.757  -1.807 195.899  1.00  0.00     0.164 HD
ATOM     33  O   UNL     1       9.777  -2.675 195.108  1.00  0.00    -0.273 OA
BRANCH  31  34
ATOM     34  C   UNL     1       8.945  -0.411 195.197  1.00  0.00     0.174 C 
ATOM     35  N   UNL     1       9.953   0.116 196.147  1.00  0.00    -0.329 N 
ATOM     36  C   UNL     1       7.604   0.327 195.406  1.00  0.00     0.035 C 
ATOM     37  C   UNL     1      10.184   1.566 196.082  1.00  0.00     0.120 C 
ATOM     38  C   UNL     1       7.798   1.843 195.310  1.00  0.00     0.004 C 
ATOM     39  C   UNL     1       8.869   2.322 196.295  1.00  0.00     0.022 C 
BRANCH  35  40
ATOM     40  C   UNL     1      10.222  -0.555 197.394  1.00  0.00     0.246 CG0
ATOM     41  O   UNL     1      11.296  -1.205 197.513  1.00  0.00    -0.272 OA
ATOM     42  G   UNL     1       9.274  -0.484 198.582  1.00  0.00     0.000 G0
ENDBRANCH  35  40
ENDBRANCH  31  34
ENDBRANCH   2  30
ENDBRANCH   1   2
BRANCH   1  43
ATOM     43  C   UNL     1       5.630  -4.411 193.884  1.00  0.00     0.003 C 
BRANCH  43  44
ATOM     44  C   UNL     1       5.496  -4.923 192.442  1.00  0.00     0.001 C 
BRANCH  44  45
ATOM     45  C   UNL     1       4.549  -6.131 192.334  1.00  0.00     0.008 C 
BRANCH  45  46
ATOM     46  C   UNL     1       4.034  -6.594 193.704  1.00  0.00     0.075 C 
BRANCH  46  47
ATOM     47  C   UNL     1       3.849  -8.087 193.730  1.00  0.00     0.132 C 
ATOM     48  O   UNL     1       2.798  -8.565 193.331  1.00  0.00    -0.300 OA
BRANCH  47  49
ATOM     49  C   UNL     1       4.989  -8.982 194.147  1.00  0.00     0.072 C 
ATOM     50  C   UNL     1       6.084  -8.228 194.902  1.00  0.00     0.012 C 
ENDBRANCH  47  49
ENDBRANCH  46  47
ENDBRANCH  45  46
ENDBRANCH  44  45
ENDBRANCH  43  44
ENDBRANCH   1  43
TORSDOF 12
ENDMDL
MODEL 5
REMARK VINA RESULT:    -3.356      2.277      3.493
REMARK INTER + INTRA:         -10.133
REMARK INTER:                  -6.936
REMARK INTRA:                  -3.196
REMARK UNBOUND:                -3.050
REMARK SMILES CCC(=O)CCCCC[C@H]1NC(=O)[C@H]2CCCCN2C(=O)[C@H]([C@@H](C)CC)NC(=O)[C@@H](Cc2cn(OC)c3ccccc23)NC1=O
REMARK SMILES IDX 9 1 10 2 44 3 43 4 45 6 30 7 28 8 27 9 29 11 22 12 23 14
REMARK SMILES IDX 24 15 25 16 26 17 31 18 32 19 33 20 42 21 34 22 37 23 41 24
REMARK SMILES IDX 38 25 40 26 39 27 35 28 36 29 11 30 12 31 13 33 14 34 19 35
REMARK SMILES IDX 15 36 18 37 16 38 17 39 20 40 21 41 8 43 7 44 6 45 5 46 3 47
REMARK SMILES IDX 4 48 2 49 1 50
REMARK H PARENT 43 5 27 10 11 32
REMARK Flexibility Score: 80.00
ROOT
ATOM      1  C   UNL     1       3.383  -8.433 193.912  1.00  0.00     0.035 C 
ENDROOT
BRANCH   1   2
ATOM      2  C   UNL     1       2.759  -7.462 192.877  1.00  0.00     0.171 C 
BRANCH   2   3
ATOM      3  C   UNL     1       2.232  -8.207 191.669  1.00  0.00     0.243 C 
ATOM      4  N   UNL     1       2.966  -9.300 191.109  1.00  0.00    -0.342 N 
ATOM      5  H   UNL     1       3.001 -10.194 191.651  1.00  0.00     0.164 HD
ATOM      6  O   UNL     1       1.225  -7.763 191.058  1.00  0.00    -0.273 OA
BRANCH   4   7
ATOM      7  C   UNL     1       3.983  -9.071 190.082  1.00  0.00     0.175 C 
BRANCH   7   8
ATOM      8  C   UNL     1       5.344  -9.041 190.729  1.00  0.00     0.243 C 
ATOM      9  N   UNL     1       6.157  -7.859 190.654  1.00  0.00    -0.342 N 
ATOM     10  H   UNL     1       5.860  -7.101 189.997  1.00  0.00     0.164 HD
ATOM     11  O   UNL     1       5.743 -10.048 191.375  1.00  0.00    -0.273 OA
BRANCH   9  12
ATOM     12  C   UNL     1       7.416  -7.700 191.393  1.00  0.00     0.174 CG0
ATOM     13  G   UNL     1       7.347  -6.515 192.346  1.00  0.00     0.000 G0
BRANCH  12  14
ATOM     14  C   UNL     1       8.645  -7.661 190.430  1.00  0.00     0.018 C 
ATOM     15  C   UNL     1       9.547  -8.883 190.690  1.00  0.00     0.010 C 
BRANCH  14  16
ATOM     16  C   UNL     1       8.255  -7.610 188.923  1.00  0.00     0.002 C 
ATOM     17  C   UNL     1       8.514  -6.243 188.286  1.00  0.00     0.004 C 
ENDBRANCH  14  16
ENDBRANCH  12  14
ENDBRANCH   9  12
ENDBRANCH   7   8
BRANCH   7  18
ATOM     18  C   UNL     1       3.922 -10.171 189.009  1.00  0.00     0.073 C 
BRANCH  18  19
ATOM     19  C   UNL     1       4.949  -9.944 187.940  1.00  0.00    -0.016 A 
ATOM     20  C   UNL     1       5.956 -10.830 187.566  1.00  0.00     0.134 A 
ATOM     21  C   UNL     1       5.145  -8.802 187.181  1.00  0.00     0.006 A 
ATOM     22  N   UNL     1       6.724 -10.270 186.600  1.00  0.00    -0.191 N 
ATOM     23  C   UNL     1       6.230  -9.040 186.373  1.00  0.00     0.087 A 
ATOM     24  C   UNL     1       4.455  -7.588 187.140  1.00  0.00     0.011 A 
ATOM     25  C   UNL     1       6.696  -8.088 185.469  1.00  0.00     0.030 A 
ATOM     26  C   UNL     1       4.902  -6.610 186.234  1.00  0.00     0.001 A 
ATOM     27  C   UNL     1       6.016  -6.858 185.404  1.00  0.00     0.002 A 
BRANCH  22  28
ATOM     28  O   UNL     1       7.812 -10.829 185.955  1.00  0.00    -0.417 OA
ATOM     29  C   UNL     1       9.087 -10.956 186.575  1.00  0.00     0.313 C 
ENDBRANCH  22  28
ENDBRANCH  18  19
ENDBRANCH   7  18
ENDBRANCH   4   7
ENDBRANCH   2   3
BRANCH   2  30
ATOM     30  N   UNL     1       3.724  -6.448 192.429  1.00  0.00    -0.343 N 
ATOM     31  C   UNL     1       4.704  -5.844 193.285  1.00  0.00     0.243 C 
ATOM     32  H   UNL     1       3.571  -5.995 191.498  1.00  0.00     0.164 HD
ATOM     33  O   UNL     1       4.789  -6.196 194.495  1.00  0.00    -0.273 OA
BRANCH  31  34
ATOM     34  C   UNL     1       5.591  -4.734 192.749  1.00  0.00     0.174 C 
ATOM     35  N   UNL     1       6.778  -5.234 192.018  1.00  0.00    -0.329 N 
ATOM     36  C   UNL     1       6.041  -3.767 193.866  1.00  0.00     0.035 C 
ATOM     37  C   UNL     1       7.646  -4.198 191.439  1.00  0.00     0.120 C 
ATOM     38  C   UNL     1       6.920  -2.650 193.295  1.00  0.00     0.004 C 
ATOM     39  C   UNL     1       8.114  -3.229 192.529  1.00  0.00     0.022 C 
BRANCH  35  40
ATOM     40  C   UNL     1       7.373  -6.506 192.346  1.00  0.00     0.246 CG0
ATOM     41  O   UNL     1       7.882  -6.660 193.490  1.00  0.00    -0.272 OA
ATOM     42  G   UNL     1       7.384  -7.678 191.376  1.00  0.00     0.000 G0
ENDBRANCH  35  40
ENDBRANCH  31  34
ENDBRANCH   2  30
ENDBRANCH   1   2
BRANCH   1  43
ATOM     43  C   UNL     1       2.295  -9.174 194.704  1.00  0.00     0.003 C 
BRANCH  43  44
ATOM     44  C   UNL     1       2.851  -9.736 196.022  1.00  0.00     0.001 C 
BRANCH  44  45
ATOM     45  C   UNL     1       4.290  -9.264 196.300  1.00  0.00     0.008 C 
BRANCH  45  46
ATOM     46  C   UNL     1       4.564  -9.076 197.798  1.00  0.00     0.075 C 
BRANCH  46  47
ATOM     47  C   UNL     1       3.925  -7.813 198.305  1.00  0.00     0.132 C 
ATOM     48  O   UNL     1       4.177  -6.753 197.751  1.00  0.00    -0.300 OA
BRANCH  47  49
ATOM     49  C   UNL     1       2.909  -7.873 199.417  1.00  0.00     0.072 C 
ATOM     50  C   UNL     1       3.498  -7.491 200.776  1.00  0.00     0.012 C 
ENDBRANCH  47  49
ENDBRANCH  46  47
ENDBRANCH  45  46
ENDBRANCH  44  45
ENDBRANCH  43  44
ENDBRANCH   1  43
TORSDOF 12
ENDMDL
MODEL 6
REMARK VINA RESULT:    -3.335      2.130      3.360
REMARK INTER + INTRA:         -10.089
REMARK INTER:                  -7.172
REMARK INTRA:                  -2.917
REMARK UNBOUND:                -3.050
REMARK SMILES CCC(=O)CCCCC[C@H]1NC(=O)[C@H]2CCCCN2C(=O)[C@H]([C@@H](C)CC)NC(=O)[C@@H](Cc2cn(OC)c3ccccc23)NC1=O
REMARK SMILES IDX 9 1 10 2 44 3 43 4 45 6 30 7 28 8 27 9 29 11 22 12 23 14
REMARK SMILES IDX 24 15 25 16 26 17 31 18 32 19 33 20 42 21 34 22 37 23 41 24
REMARK SMILES IDX 38 25 40 26 39 27 35 28 36 29 11 30 12 31 13 33 14 34 19 35
REMARK SMILES IDX 15 36 18 37 16 38 17 39 20 40 21 41 8 43 7 44 6 45 5 46 3 47
REMARK SMILES IDX 4 48 2 49 1 50
REMARK H PARENT 43 5 27 10 11 32
REMARK Flexibility Score: 80.00
ROOT
ATOM      1  C   UNL     1       5.193  -4.346 197.946  1.00  0.00     0.035 C 
ENDROOT
BRANCH   1   2
ATOM      2  C   UNL     1       4.130  -3.825 196.946  1.00  0.00     0.171 C 
BRANCH   2   3
ATOM      3  C   UNL     1       3.009  -4.826 196.760  1.00  0.00     0.243 C 
ATOM      4  N   UNL     1       3.294  -6.223 196.627  1.00  0.00    -0.342 N 
ATOM      5  H   UNL     1       3.620  -6.738 197.476  1.00  0.00     0.164 HD
ATOM      6  O   UNL     1       1.837  -4.415 196.562  1.00  0.00    -0.273 OA
BRANCH   4   7
ATOM      7  C   UNL     1       3.560  -6.810 195.313  1.00  0.00     0.175 C 
BRANCH   7   8
ATOM      8  C   UNL     1       5.049  -6.947 195.124  1.00  0.00     0.243 C 
ATOM      9  N   UNL     1       5.689  -6.374 193.972  1.00  0.00    -0.342 N 
ATOM     10  H   UNL     1       5.081  -6.026 193.197  1.00  0.00     0.164 HD
ATOM     11  O   UNL     1       5.734  -7.531 196.008  1.00  0.00    -0.273 OA
BRANCH   9  12
ATOM     12  C   UNL     1       7.147  -6.326 193.802  1.00  0.00     0.174 CG0
ATOM     13  G   UNL     1       7.671  -4.906 193.956  1.00  0.00     0.000 G0
BRANCH  12  14
ATOM     14  C   UNL     1       7.593  -7.022 192.477  1.00  0.00     0.018 C 
ATOM     15  C   UNL     1       8.465  -8.249 192.801  1.00  0.00     0.010 C 
BRANCH  14  16
ATOM     16  C   UNL     1       6.404  -7.451 191.567  1.00  0.00     0.002 C 
ATOM     17  C   UNL     1       6.583  -7.022 190.109  1.00  0.00     0.004 C 
ENDBRANCH  14  16
ENDBRANCH  12  14
ENDBRANCH   9  12
ENDBRANCH   7   8
BRANCH   7  18
ATOM     18  C   UNL     1       2.874  -8.181 195.188  1.00  0.00     0.073 C 
BRANCH  18  19
ATOM     19  C   UNL     1       2.794  -8.619 193.755  1.00  0.00    -0.016 A 
ATOM     20  C   UNL     1       1.795  -8.278 192.847  1.00  0.00     0.134 A 
ATOM     21  C   UNL     1       3.637  -9.492 193.087  1.00  0.00     0.006 A 
ATOM     22  N   UNL     1       2.026  -8.894 191.662  1.00  0.00    -0.191 N 
ATOM     23  C   UNL     1       3.139  -9.631 191.814  1.00  0.00     0.087 A 
ATOM     24  C   UNL     1       4.790 -10.163 193.500  1.00  0.00     0.011 A 
ATOM     25  C   UNL     1       3.761 -10.443 190.867  1.00  0.00     0.030 A 
ATOM     26  C   UNL     1       5.439 -10.987 192.563  1.00  0.00     0.001 A 
ATOM     27  C   UNL     1       4.928 -11.127 191.255  1.00  0.00     0.002 A 
BRANCH  22  28
ATOM     28  O   UNL     1       1.275  -8.804 190.503  1.00  0.00    -0.417 OA
ATOM     29  C   UNL     1       0.330  -7.764 190.281  1.00  0.00     0.313 C 
ENDBRANCH  22  28
ENDBRANCH  18  19
ENDBRANCH   7  18
ENDBRANCH   4   7
ENDBRANCH   2   3
BRANCH   2  30
ATOM     30  N   UNL     1       4.718  -3.519 195.634  1.00  0.00    -0.343 N 
ATOM     31  C   UNL     1       6.040  -2.992 195.455  1.00  0.00     0.243 C 
ATOM     32  H   UNL     1       4.086  -3.492 194.801  1.00  0.00     0.164 HD
ATOM     33  O   UNL     1       6.781  -2.789 196.457  1.00  0.00    -0.273 OA
BRANCH  31  34
ATOM     34  C   UNL     1       6.519  -2.616 194.064  1.00  0.00     0.174 C 
ATOM     35  N   UNL     1       7.051  -3.766 193.297  1.00  0.00    -0.329 N 
ATOM     36  C   UNL     1       7.575  -1.489 194.103  1.00  0.00     0.035 C 
ATOM     37  C   UNL     1       7.486  -3.464 191.925  1.00  0.00     0.120 C 
ATOM     38  C   UNL     1       8.027  -1.120 192.687  1.00  0.00     0.004 C 
ATOM     39  C   UNL     1       8.541  -2.353 191.937  1.00  0.00     0.022 C 
BRANCH  35  40
ATOM     40  C   UNL     1       7.660  -4.889 193.964  1.00  0.00     0.246 CG0
ATOM     41  O   UNL     1       8.650  -4.682 194.718  1.00  0.00    -0.272 OA
ATOM     42  G   UNL     1       7.136  -6.310 193.818  1.00  0.00     0.000 G0
ENDBRANCH  35  40
ENDBRANCH  31  34
ENDBRANCH   2  30
ENDBRANCH   1   2
BRANCH   1  43
ATOM     43  C   UNL     1       5.066  -3.646 199.307  1.00  0.00     0.003 C 
BRANCH  43  44
ATOM     44  C   UNL     1       4.716  -4.647 200.419  1.00  0.00     0.001 C 
BRANCH  44  45
ATOM     45  C   UNL     1       3.216  -4.990 200.448  1.00  0.00     0.008 C 
BRANCH  45  46
ATOM     46  C   UNL     1       2.944  -6.457 200.092  1.00  0.00     0.075 C 
BRANCH  46  47
ATOM     47  C   UNL     1       1.586  -6.884 200.577  1.00  0.00     0.132 C 
ATOM     48  O   UNL     1       0.591  -6.360 200.099  1.00  0.00    -0.300 OA
BRANCH  47  49
ATOM     49  C   UNL     1       1.457  -8.016 201.564  1.00  0.00     0.072 C 
ATOM     50  C   UNL     1       2.584  -9.041 201.434  1.00  0.00     0.012 C 
ENDBRANCH  47  49
ENDBRANCH  46  47
ENDBRANCH  45  46
ENDBRANCH  44  45
ENDBRANCH  43  44
ENDBRANCH   1  43
TORSDOF 12
ENDMDL
MODEL 7
REMARK VINA RESULT:    -3.211      2.502      5.734
REMARK INTER + INTRA:          -9.827
REMARK INTER:                  -6.805
REMARK INTRA:                  -3.022
REMARK UNBOUND:                -3.050
REMARK SMILES CCC(=O)CCCCC[C@H]1NC(=O)[C@H]2CCCCN2C(=O)[C@H]([C@@H](C)CC)NC(=O)[C@@H](Cc2cn(OC)c3ccccc23)NC1=O
REMARK SMILES IDX 9 1 10 2 44 3 43 4 45 6 30 7 28 8 27 9 29 11 22 12 23 14
REMARK SMILES IDX 24 15 25 16 26 17 31 18 32 19 33 20 42 21 34 22 37 23 41 24
REMARK SMILES IDX 38 25 40 26 39 27 35 28 36 29 11 30 12 31 13 33 14 34 19 35
REMARK SMILES IDX 15 36 18 37 16 38 17 39 20 40 21 41 8 43 7 44 6 45 5 46 3 47
REMARK SMILES IDX 4 48 2 49 1 50
REMARK H PARENT 43 5 27 10 11 32
REMARK Flexibility Score: 80.00
ROOT
ATOM      1  C   UNL     1       9.032  -5.822 191.976  1.00  0.00     0.035 C 
ENDROOT
BRANCH   1   2
ATOM      2  C   UNL     1       7.718  -6.594 192.261  1.00  0.00     0.171 C 
BRANCH   2   3
ATOM      3  C   UNL     1       6.834  -6.651 191.033  1.00  0.00     0.243 C 
ATOM      4  N   UNL     1       5.410  -6.571 191.155  1.00  0.00    -0.342 N 
ATOM      5  H   UNL     1       4.993  -5.649 191.420  1.00  0.00     0.164 HD
ATOM      6  O   UNL     1       7.342  -6.929 189.916  1.00  0.00    -0.273 OA
BRANCH   4   7
ATOM      7  C   UNL     1       4.608  -7.779 191.354  1.00  0.00     0.175 C 
BRANCH   7   8
ATOM      8  C   UNL     1       3.998  -7.748 192.732  1.00  0.00     0.243 C 
ATOM      9  N   UNL     1       4.642  -8.421 193.825  1.00  0.00    -0.342 N 
ATOM     10  H   UNL     1       5.431  -9.070 193.604  1.00  0.00     0.164 HD
ATOM     11  O   UNL     1       2.939  -7.089 192.925  1.00  0.00    -0.273 OA
BRANCH   9  12
ATOM     12  C   UNL     1       4.197  -8.300 195.219  1.00  0.00     0.174 CG0
ATOM     13  G   UNL     1       5.366  -7.999 196.145  1.00  0.00     0.000 G0
BRANCH  12  14
ATOM     14  C   UNL     1       3.348  -9.536 195.659  1.00  0.00     0.018 C 
ATOM     15  C   UNL     1       1.870  -9.127 195.801  1.00  0.00     0.010 C 
BRANCH  14  16
ATOM     16  C   UNL     1       3.465 -10.749 194.691  1.00  0.00     0.002 C 
ATOM     17  C   UNL     1       4.289 -11.900 195.273  1.00  0.00     0.004 C 
ENDBRANCH  14  16
ENDBRANCH  12  14
ENDBRANCH   9  12
ENDBRANCH   7   8
BRANCH   7  18
ATOM     18  C   UNL     1       3.509  -7.877 190.283  1.00  0.00     0.073 C 
BRANCH  18  19
ATOM     19  C   UNL     1       3.944  -8.743 189.137  1.00  0.00    -0.016 A 
ATOM     20  C   UNL     1       3.978 -10.135 189.126  1.00  0.00     0.134 A 
ATOM     21  C   UNL     1       4.459  -8.338 187.916  1.00  0.00     0.006 A 
ATOM     22  N   UNL     1       4.469 -10.571 187.940  1.00  0.00    -0.191 N 
ATOM     23  C   UNL     1       4.762  -9.479 187.214  1.00  0.00     0.087 A 
ATOM     24  C   UNL     1       4.678  -7.068 187.379  1.00  0.00     0.011 A 
ATOM     25  C   UNL     1       5.298  -9.429 185.928  1.00  0.00     0.030 A 
ATOM     26  C   UNL     1       5.215  -6.988 186.082  1.00  0.00     0.001 A 
ATOM     27  C   UNL     1       5.524  -8.161 185.361  1.00  0.00     0.002 A 
BRANCH  22  28
ATOM     28  O   UNL     1       4.649 -11.880 187.530  1.00  0.00    -0.417 OA
ATOM     29  C   UNL     1       5.620 -12.739 188.115  1.00  0.00     0.313 C 
ENDBRANCH  22  28
ENDBRANCH  18  19
ENDBRANCH   7  18
ENDBRANCH   4   7
ENDBRANCH   2   3
BRANCH   2  30
ATOM     30  N   UNL     1       6.960  -5.992 193.367  1.00  0.00    -0.343 N 
ATOM     31  C   UNL     1       7.231  -6.247 194.752  1.00  0.00     0.243 C 
ATOM     32  H   UNL     1       6.057  -5.512 193.146  1.00  0.00     0.164 HD
ATOM     33  O   UNL     1       8.183  -7.008 195.081  1.00  0.00    -0.273 OA
BRANCH  31  34
ATOM     34  C   UNL     1       6.326  -5.653 195.817  1.00  0.00     0.174 C 
ATOM     35  N   UNL     1       5.669  -6.675 196.664  1.00  0.00    -0.329 N 
ATOM     36  C   UNL     1       5.255  -4.721 195.209  1.00  0.00     0.035 C 
ATOM     37  C   UNL     1       4.817  -6.150 197.742  1.00  0.00     0.120 C 
ATOM     38  C   UNL     1       4.368  -4.125 196.306  1.00  0.00     0.004 C 
ATOM     39  C   UNL     1       3.740  -5.228 197.163  1.00  0.00     0.022 C 
BRANCH  35  40
ATOM     40  C   UNL     1       5.374  -7.989 196.151  1.00  0.00     0.246 CG0
ATOM     41  O   UNL     1       6.114  -8.952 196.489  1.00  0.00    -0.272 OA
ATOM     42  G   UNL     1       4.185  -8.264 195.242  1.00  0.00     0.000 G0
ENDBRANCH  35  40
ENDBRANCH  31  34
ENDBRANCH   2  30
ENDBRANCH   1   2
BRANCH   1  43
ATOM     43  C   UNL     1       8.783  -4.308 191.909  1.00  0.00     0.003 C 
BRANCH  43  44
ATOM     44  C   UNL     1       9.804  -3.537 192.760  1.00  0.00     0.001 C 
BRANCH  44  45
ATOM     45  C   UNL     1       9.373  -2.083 193.020  1.00  0.00     0.008 C 
BRANCH  45  46
ATOM     46  C   UNL     1       8.542  -1.940 194.303  1.00  0.00     0.075 C 
BRANCH  46  47
ATOM     47  C   UNL     1       7.265  -1.192 194.033  1.00  0.00     0.132 C 
ATOM     48  O   UNL     1       6.281  -1.810 193.656  1.00  0.00    -0.300 OA
BRANCH  47  49
ATOM     49  C   UNL     1       7.178   0.284 194.327  1.00  0.00     0.072 C 
ATOM     50  C   UNL     1       7.405   0.605 195.805  1.00  0.00     0.012 C 
ENDBRANCH  47  49
ENDBRANCH  46  47
ENDBRANCH  45  46
ENDBRANCH  44  45
ENDBRANCH  43  44
ENDBRANCH   1  43
TORSDOF 12
ENDMDL
MODEL 8
REMARK VINA RESULT:    -3.180      7.031     10.438
REMARK INTER + INTRA:          -9.761
REMARK INTER:                  -6.234
REMARK INTRA:                  -3.527
REMARK UNBOUND:                -3.050
REMARK SMILES CCC(=O)CCCCC[C@H]1NC(=O)[C@H]2CCCCN2C(=O)[C@H]([C@@H](C)CC)NC(=O)[C@@H](Cc2cn(OC)c3ccccc23)NC1=O
REMARK SMILES IDX 9 1 10 2 44 3 43 4 45 6 30 7 28 8 27 9 29 11 22 12 23 14
REMARK SMILES IDX 24 15 25 16 26 17 31 18 32 19 33 20 42 21 34 22 37 23 41 24
REMARK SMILES IDX 38 25 40 26 39 27 35 28 36 29 11 30 12 31 13 33 14 34 19 35
REMARK SMILES IDX 15 36 18 37 16 38 17 39 20 40 21 41 8 43 7 44 6 45 5 46 3 47
REMARK SMILES IDX 4 48 2 49 1 50
REMARK H PARENT 43 5 27 10 11 32
REMARK Flexibility Score: 80.00
ROOT
ATOM      1  C   UNL     1       9.026  -6.684 193.808  1.00  0.00     0.035 C 
ENDROOT
BRANCH   1   2
ATOM      2  C   UNL     1      10.246  -7.195 194.616  1.00  0.00     0.171 C 
BRANCH   2   3
ATOM      3  C   UNL     1       9.828  -8.197 195.672  1.00  0.00     0.243 C 
ATOM      4  N   UNL     1      10.408  -8.162 196.981  1.00  0.00    -0.342 N 
ATOM      5  H   UNL     1      10.139  -7.374 197.613  1.00  0.00     0.164 HD
ATOM      6  O   UNL     1       9.086  -9.161 195.353  1.00  0.00    -0.273 OA
BRANCH   4   7
ATOM      7  C   UNL     1      11.638  -8.899 197.273  1.00  0.00     0.175 C 
BRANCH   7   8
ATOM      8  C   UNL     1      12.767  -7.921 197.474  1.00  0.00     0.243 C 
ATOM      9  N   UNL     1      13.823  -7.823 196.506  1.00  0.00    -0.342 N 
ATOM     10  H   UNL     1      13.879  -8.561 195.767  1.00  0.00     0.164 HD
ATOM     11  O   UNL     1      12.752  -7.159 198.480  1.00  0.00    -0.273 OA
BRANCH   9  12
ATOM     12  C   UNL     1      14.863  -6.788 196.551  1.00  0.00     0.174 CG0
ATOM     13  G   UNL     1      14.764  -5.857 195.352  1.00  0.00     0.000 G0
BRANCH  12  14
ATOM     14  C   UNL     1      16.282  -7.410 196.750  1.00  0.00     0.018 C 
ATOM     15  C   UNL     1      16.809  -7.065 198.155  1.00  0.00     0.010 C 
BRANCH  14  16
ATOM     16  C   UNL     1      16.322  -8.952 196.540  1.00  0.00     0.002 C 
ATOM     17  C   UNL     1      17.213  -9.372 195.368  1.00  0.00     0.004 C 
ENDBRANCH  14  16
ENDBRANCH  12  14
ENDBRANCH   9  12
ENDBRANCH   7   8
BRANCH   7  18
ATOM     18  C   UNL     1      11.455  -9.774 198.524  1.00  0.00     0.073 C 
BRANCH  18  19
ATOM     19  C   UNL     1      12.725 -10.492 198.875  1.00  0.00    -0.016 A 
ATOM     20  C   UNL     1      13.473 -10.320 200.036  1.00  0.00     0.134 A 
ATOM     21  C   UNL     1      13.431 -11.394 198.096  1.00  0.00     0.006 A 
ATOM     22  N   UNL     1      14.580 -11.100 199.988  1.00  0.00    -0.191 N 
ATOM     23  C   UNL     1      14.551 -11.745 198.809  1.00  0.00     0.087 A 
ATOM     24  C   UNL     1      13.173 -11.926 196.830  1.00  0.00     0.011 A 
ATOM     25  C   UNL     1      15.484 -12.653 198.311  1.00  0.00     0.030 A 
ATOM     26  C   UNL     1      14.097 -12.847 196.305  1.00  0.00     0.001 A 
ATOM     27  C   UNL     1      15.246 -13.208 197.041  1.00  0.00     0.002 A 
BRANCH  22  28
ATOM     28  O   UNL     1      15.567 -11.227 200.948  1.00  0.00    -0.417 OA
ATOM     29  C   UNL     1      15.560 -12.265 201.922  1.00  0.00     0.313 C 
ENDBRANCH  22  28
ENDBRANCH  18  19
ENDBRANCH   7  18
ENDBRANCH   4   7
ENDBRANCH   2   3
BRANCH   2  30
ATOM     30  N   UNL     1      10.971  -6.093 195.264  1.00  0.00    -0.343 N 
ATOM     31  C   UNL     1      11.999  -5.327 194.621  1.00  0.00     0.243 C 
ATOM     32  H   UNL     1      10.882  -5.983 196.301  1.00  0.00     0.164 HD
ATOM     33  O   UNL     1      12.310  -5.567 193.421  1.00  0.00    -0.273 OA
BRANCH  31  34
ATOM     34  C   UNL     1      12.757  -4.274 195.410  1.00  0.00     0.174 C 
ATOM     35  N   UNL     1      14.220  -4.503 195.438  1.00  0.00    -0.329 N 
ATOM     36  C   UNL     1      12.227  -4.144 196.855  1.00  0.00     0.035 C 
ATOM     37  C   UNL     1      15.005  -3.485 196.151  1.00  0.00     0.120 C 
ATOM     38  C   UNL     1      12.998  -3.065 197.621  1.00  0.00     0.004 C 
ATOM     39  C   UNL     1      14.505  -3.343 197.592  1.00  0.00     0.022 C 
BRANCH  35  40
ATOM     40  C   UNL     1      14.767  -5.834 195.345  1.00  0.00     0.246 CG0
ATOM     41  O   UNL     1      15.216  -6.228 194.235  1.00  0.00    -0.272 OA
ATOM     42  G   UNL     1      14.850  -6.769 196.543  1.00  0.00     0.000 G0
ENDBRANCH  35  40
ENDBRANCH  31  34
ENDBRANCH   2  30
ENDBRANCH   1   2
BRANCH   1  43
ATOM     43  C   UNL     1       8.364  -5.482 194.499  1.00  0.00     0.003 C 
BRANCH  43  44
ATOM     44  C   UNL     1       7.045  -5.101 193.811  1.00  0.00     0.001 C 
BRANCH  44  45
ATOM     45  C   UNL     1       6.591  -3.673 194.163  1.00  0.00     0.008 C 
BRANCH  45  46
ATOM     46  C   UNL     1       6.902  -3.304 195.620  1.00  0.00     0.075 C 
BRANCH  46  47
ATOM     47  C   UNL     1       7.722  -2.045 195.691  1.00  0.00     0.132 C 
ATOM     48  O   UNL     1       7.154  -0.965 195.733  1.00  0.00    -0.300 OA
BRANCH  47  49
ATOM     49  C   UNL     1       9.223  -2.127 195.813  1.00  0.00     0.072 C 
ATOM     50  C   UNL     1       9.930  -2.030 194.460  1.00  0.00     0.012 C 
ENDBRANCH  47  49
ENDBRANCH  46  47
ENDBRANCH  45  46
ENDBRANCH  44  45
ENDBRANCH  43  44
ENDBRANCH   1  43
TORSDOF 12
ENDMDL
MODEL 9
REMARK VINA RESULT:    -3.040      3.016      6.423
REMARK INTER + INTRA:          -9.467
REMARK INTER:                  -6.867
REMARK INTRA:                  -2.600
REMARK UNBOUND:                -3.050
REMARK SMILES CCC(=O)CCCCC[C@H]1NC(=O)[C@H]2CCCCN2C(=O)[C@H]([C@@H](C)CC)NC(=O)[C@@H](Cc2cn(OC)c3ccccc23)NC1=O
REMARK SMILES IDX 9 1 10 2 44 3 43 4 45 6 30 7 28 8 27 9 29 11 22 12 23 14
REMARK SMILES IDX 24 15 25 16 26 17 31 18 32 19 33 20 42 21 34 22 37 23 41 24
REMARK SMILES IDX 38 25 40 26 39 27 35 28 36 29 11 30 12 31 13 33 14 34 19 35
REMARK SMILES IDX 15 36 18 37 16 38 17 39 20 40 21 41 8 43 7 44 6 45 5 46 3 47
REMARK SMILES IDX 4 48 2 49 1 50
REMARK H PARENT 43 5 27 10 11 32
REMARK Flexibility Score: 80.00
ROOT
ATOM      1  C   UNL     1       6.172  -3.508 193.421  1.00  0.00     0.035 C 
ENDROOT
BRANCH   1   2
ATOM      2  C   UNL     1       5.831  -5.004 193.196  1.00  0.00     0.171 C 
BRANCH   2   3
ATOM      3  C   UNL     1       5.309  -5.246 191.795  1.00  0.00     0.243 C 
ATOM      4  N   UNL     1       4.260  -6.192 191.561  1.00  0.00    -0.342 N 
ATOM      5  H   UNL     1       3.297  -5.943 191.883  1.00  0.00     0.164 HD
ATOM      6  O   UNL     1       5.906  -4.732 190.814  1.00  0.00    -0.273 OA
BRANCH   4   7
ATOM      7  C   UNL     1       4.566  -7.601 191.310  1.00  0.00     0.175 C 
BRANCH   7   8
ATOM      8  C   UNL     1       4.081  -8.429 192.472  1.00  0.00     0.243 C 
ATOM      9  N   UNL     1       4.981  -8.790 193.531  1.00  0.00    -0.342 N 
ATOM     10  H   UNL     1       6.003  -8.621 193.384  1.00  0.00     0.164 HD
ATOM     11  O   UNL     1       2.866  -8.764 192.527  1.00  0.00    -0.273 OA
BRANCH   9  12
ATOM     12  C   UNL     1       4.546  -9.453 194.767  1.00  0.00     0.174 CG0
ATOM     13  G   UNL     1       5.128  -8.765 195.993  1.00  0.00     0.000 G0
BRANCH  12  14
ATOM     14  C   UNL     1       4.816 -10.990 194.719  1.00  0.00     0.018 C 
ATOM     15  C   UNL     1       3.484 -11.748 194.568  1.00  0.00     0.010 C 
BRANCH  14  16
ATOM     16  C   UNL     1       5.793 -11.417 193.585  1.00  0.00     0.002 C 
ATOM     17  C   UNL     1       5.101 -12.192 192.461  1.00  0.00     0.004 C 
ENDBRANCH  14  16
ENDBRANCH  12  14
ENDBRANCH   9  12
ENDBRANCH   7   8
BRANCH   7  18
ATOM     18  C   UNL     1       3.906  -8.070 190.003  1.00  0.00     0.073 C 
BRANCH  18  19
ATOM     19  C   UNL     1       4.931  -8.543 189.016  1.00  0.00    -0.016 A 
ATOM     20  C   UNL     1       5.732  -9.675 189.142  1.00  0.00     0.134 A 
ATOM     21  C   UNL     1       5.331  -7.921 187.844  1.00  0.00     0.006 A 
ATOM     22  N   UNL     1       6.572  -9.761 188.081  1.00  0.00    -0.191 N 
ATOM     23  C   UNL     1       6.327  -8.695 187.301  1.00  0.00     0.087 A 
ATOM     24  C   UNL     1       4.894  -6.749 187.223  1.00  0.00     0.011 A 
ATOM     25  C   UNL     1       6.950  -8.355 186.102  1.00  0.00     0.030 A 
ATOM     26  C   UNL     1       5.504  -6.383 186.010  1.00  0.00     0.001 A 
ATOM     27  C   UNL     1       6.526  -7.181 185.453  1.00  0.00     0.002 A 
BRANCH  22  28
ATOM     28  O   UNL     1       7.512 -10.743 187.826  1.00  0.00    -0.417 OA
ATOM     29  C   UNL     1       7.154 -12.087 187.523  1.00  0.00     0.313 C 
ENDBRANCH  22  28
ENDBRANCH  18  19
ENDBRANCH   7  18
ENDBRANCH   4   7
ENDBRANCH   2   3
BRANCH   2  30
ATOM     30  N   UNL     1       4.838  -5.489 194.165  1.00  0.00    -0.343 N 
ATOM     31  C   UNL     1       5.160  -5.893 195.503  1.00  0.00     0.243 C 
ATOM     32  H   UNL     1       3.886  -5.743 193.815  1.00  0.00     0.164 HD
ATOM     33  O   UNL     1       6.350  -5.819 195.917  1.00  0.00    -0.273 OA
BRANCH  31  34
ATOM     34  C   UNL     1       4.077  -6.474 196.395  1.00  0.00     0.174 C 
ATOM     35  N   UNL     1       4.353  -7.864 196.824  1.00  0.00    -0.329 N 
ATOM     36  C   UNL     1       2.684  -6.406 195.729  1.00  0.00     0.035 C 
ATOM     37  C   UNL     1       3.356  -8.457 197.727  1.00  0.00     0.120 C 
ATOM     38  C   UNL     1       1.611  -6.983 196.656  1.00  0.00     0.004 C 
ATOM     39  C   UNL     1       1.966  -8.410 197.085  1.00  0.00     0.022 C 
BRANCH  35  40
ATOM     40  C   UNL     1       5.132  -8.756 196.001  1.00  0.00     0.246 CG0
ATOM     41  O   UNL     1       6.327  -8.992 196.326  1.00  0.00    -0.272 OA
ATOM     42  G   UNL     1       4.558  -9.446 194.772  1.00  0.00     0.000 G0
ENDBRANCH  35  40
ENDBRANCH  31  34
ENDBRANCH   2  30
ENDBRANCH   1   2
BRANCH   1  43
ATOM     43  C   UNL     1       7.690  -3.290 193.500  1.00  0.00     0.003 C 
BRANCH  43  44
ATOM     44  C   UNL     1       8.191  -2.428 192.331  1.00  0.00     0.001 C 
BRANCH  44  45
ATOM     45  C   UNL     1       9.236  -3.160 191.469  1.00  0.00     0.008 C 
BRANCH  45  46
ATOM     46  C   UNL     1      10.396  -2.245 191.055  1.00  0.00     0.075 C 
BRANCH  46  47
ATOM     47  C   UNL     1       9.890  -1.042 190.307  1.00  0.00     0.132 C 
ATOM     48  O   UNL     1       9.066  -1.196 189.419  1.00  0.00    -0.300 OA
BRANCH  47  49
ATOM     49  C   UNL     1      10.321   0.342 190.722  1.00  0.00     0.072 C 
ATOM     50  C   UNL     1      10.416   0.498 192.241  1.00  0.00     0.012 C 
ENDBRANCH  47  49
ENDBRANCH  46  47
ENDBRANCH  45  46
ENDBRANCH  44  45
ENDBRANCH  43  44
ENDBRANCH   1  43
TORSDOF 12
ENDMDL
