MODEL 1
REMARK VINA RESULT:    -6.569      0.000      0.000
REMARK INTER + INTRA:         -11.067
REMARK INTER:                  -9.066
REMARK INTRA:                  -2.001
REMARK UNBOUND:                -2.001
REMARK SMILES CC[C@H](CC[C@H](C)[C@@H]1CC[C@@H]2[C@@H]3CC=C4C[C@H](O)CC[C@@]4(C)[C@H]3CC[C@]21C)C(C)C
REMARK SMILES IDX 5 1 4 2 3 3 2 4 1 5 28 6 29 7 30 8 6 9 7 10 8 11 9 12 26 13
REMARK SMILES IDX 10 14 11 15 25 16 27 17 12 18 24 19 23 20 13 21 21 22 14 23
REMARK SMILES IDX 15 24 20 25 22 26 16 27 19 28 17 29 18 30
REMARK H PARENT 18 31
REMARK Flexibility Score: inf
ROOT
ATOM      1  C   UNL     1     130.613 142.442 106.704  1.00  0.00     0.004 C 
ENDROOT
BRANCH   1   2
ATOM      2  C   UNL     1     129.921 143.362 105.669  1.00  0.00     0.004 C 
BRANCH   2   3
ATOM      3  C   UNL     1     129.253 144.636 106.288  1.00  0.00    -0.009 C 
BRANCH   3   4
ATOM      4  C   UNL     1     129.908 145.990 105.868  1.00  0.00     0.000 C 
ATOM      5  C   UNL     1     131.414 146.133 106.125  1.00  0.00     0.004 C 
ENDBRANCH   3   4
BRANCH   3   6
ATOM      6  C   UNL     1     127.694 144.665 106.132  1.00  0.00    -0.014 C 
ATOM      7  C   UNL     1     127.250 145.356 104.829  1.00  0.00     0.007 C 
ATOM      8  C   UNL     1     126.956 145.272 107.335  1.00  0.00     0.007 C 
ENDBRANCH   3   6
ENDBRANCH   2   3
ENDBRANCH   1   2
BRANCH   1   9
ATOM      9  C   UNL     1     131.137 143.171 107.974  1.00  0.00    -0.011 C 
ATOM     10  C   UNL     1     132.653 142.925 108.110  1.00  0.00     0.008 C 
BRANCH   9  11
ATOM     11  C   UNL     1     130.364 142.701 109.255  1.00  0.00    -0.002 C 
ATOM     12  C   UNL     1     128.923 142.203 108.940  1.00  0.00     0.005 C 
ATOM     13  C   UNL     1     130.152 143.742 110.406  1.00  0.00    -0.026 C 
ATOM     14  C   UNL     1     128.038 142.555 110.146  1.00  0.00     0.005 C 
ATOM     15  C   UNL     1     129.031 143.035 111.189  1.00  0.00    -0.001 C 
ATOM     16  C   UNL     1     131.385 143.934 111.359  1.00  0.00     0.007 C 
ATOM     17  C   UNL     1     129.690 145.108 109.803  1.00  0.00     0.012 C 
ATOM     18  C   UNL     1     128.531 143.739 112.481  1.00  0.00     0.000 C 
ATOM     19  C   UNL     1     131.034 143.987 112.877  1.00  0.00     0.005 C 
ATOM     20  C   UNL     1     129.638 144.614 113.124  1.00  0.00     0.003 C 
ATOM     21  C   UNL     1     127.257 144.581 112.376  1.00  0.00     0.031 C 
ATOM     22  C   UNL     1     129.279 144.974 114.613  1.00  0.00    -0.008 C 
ATOM     23  C   UNL     1     126.875 145.080 113.748  1.00  0.00    -0.027 C 
ATOM     24  C   UNL     1     127.765 145.246 114.762  1.00  0.00    -0.065 C 
ATOM     25  C   UNL     1     129.658 143.817 115.588  1.00  0.00     0.014 C 
ATOM     26  C   UNL     1     130.056 146.261 115.003  1.00  0.00     0.016 C 
ATOM     27  C   UNL     1     127.239 145.479 116.162  1.00  0.00     0.063 C 
ATOM     28  C   UNL     1     129.128 144.023 117.022  1.00  0.00     0.033 C 
ATOM     29  C   UNL     1     127.611 144.279 117.048  1.00  0.00     0.118 C 
BRANCH  29  30
ATOM     30  O   UNL     1     127.211 144.521 118.371  1.00  0.00    -0.393 OA
ATOM     31  H   UNL     1     126.219 144.573 118.366  1.00  0.00     0.210 HD
ENDBRANCH  29  30
ENDBRANCH   9  11
ENDBRANCH   1   9
TORSDOF 7
ENDMDL
MODEL 2
REMARK VINA RESULT:    -6.047      5.531      8.731
REMARK INTER + INTRA:         -10.346
REMARK INTER:                  -8.588
REMARK INTRA:                  -1.758
REMARK UNBOUND:                -2.001
REMARK SMILES CC[C@H](CC[C@H](C)[C@@H]1CC[C@@H]2[C@@H]3CC=C4C[C@H](O)CC[C@@]4(C)[C@H]3CC[C@]21C)C(C)C
REMARK SMILES IDX 5 1 4 2 3 3 2 4 1 5 28 6 29 7 30 8 6 9 7 10 8 11 9 12 26 13
REMARK SMILES IDX 10 14 11 15 25 16 27 17 12 18 24 19 23 20 13 21 21 22 14 23
REMARK SMILES IDX 15 24 20 25 22 26 16 27 19 28 17 29 18 30
REMARK H PARENT 18 31
REMARK Flexibility Score: inf
ROOT
ATOM      1  C   UNL     1     130.241 145.651 107.391  1.00  0.00     0.004 C 
ENDROOT
BRANCH   1   2
ATOM      2  C   UNL     1     131.073 145.935 106.117  1.00  0.00     0.004 C 
BRANCH   2   3
ATOM      3  C   UNL     1     132.565 146.319 106.398  1.00  0.00    -0.009 C 
BRANCH   3   4
ATOM      4  C   UNL     1     132.887 146.649 107.890  1.00  0.00     0.000 C 
ATOM      5  C   UNL     1     133.709 145.607 108.660  1.00  0.00     0.004 C 
ENDBRANCH   3   4
BRANCH   3   6
ATOM      6  C   UNL     1     133.598 145.313 105.783  1.00  0.00    -0.014 C 
ATOM      7  C   UNL     1     134.415 145.941 104.639  1.00  0.00     0.007 C 
ATOM      8  C   UNL     1     132.980 143.981 105.329  1.00  0.00     0.007 C 
ENDBRANCH   3   6
ENDBRANCH   2   3
ENDBRANCH   1   2
BRANCH   1   9
ATOM      9  C   UNL     1     128.991 144.752 107.163  1.00  0.00    -0.011 C 
ATOM     10  C   UNL     1     127.777 145.385 107.871  1.00  0.00     0.008 C 
BRANCH   9  11
ATOM     11  C   UNL     1     129.248 143.290 107.665  1.00  0.00    -0.002 C 
ATOM     12  C   UNL     1     130.710 143.068 108.153  1.00  0.00     0.005 C 
ATOM     13  C   UNL     1     129.015 142.116 106.654  1.00  0.00    -0.026 C 
ATOM     14  C   UNL     1     131.090 141.615 107.832  1.00  0.00     0.005 C 
ATOM     15  C   UNL     1     129.780 140.995 107.380  1.00  0.00    -0.001 C 
ATOM     16  C   UNL     1     127.517 141.675 106.488  1.00  0.00     0.007 C 
ATOM     17  C   UNL     1     129.651 142.477 105.273  1.00  0.00     0.012 C 
ATOM     18  C   UNL     1     129.767 139.593 106.710  1.00  0.00     0.000 C 
ATOM     19  C   UNL     1     127.289 140.133 106.474  1.00  0.00     0.005 C 
ATOM     20  C   UNL     1     128.492 139.379 105.852  1.00  0.00     0.003 C 
ATOM     21  C   UNL     1     130.982 139.206 105.863  1.00  0.00     0.031 C 
ATOM     22  C   UNL     1     128.278 137.853 105.531  1.00  0.00    -0.008 C 
ATOM     23  C   UNL     1     130.831 137.777 105.400  1.00  0.00    -0.027 C 
ATOM     24  C   UNL     1     129.631 137.155 105.261  1.00  0.00    -0.065 C 
ATOM     25  C   UNL     1     127.582 137.111 106.713  1.00  0.00     0.014 C 
ATOM     26  C   UNL     1     127.400 137.743 104.255  1.00  0.00     0.016 C 
ATOM     27  C   UNL     1     129.608 135.655 105.064  1.00  0.00     0.063 C 
ATOM     28  C   UNL     1     127.550 135.578 106.544  1.00  0.00     0.033 C 
ATOM     29  C   UNL     1     128.950 134.995 106.287  1.00  0.00     0.118 C 
BRANCH  29  30
ATOM     30  O   UNL     1     128.837 133.611 106.079  1.00  0.00    -0.393 OA
ATOM     31  H   UNL     1     129.324 133.169 106.823  1.00  0.00     0.210 HD
ENDBRANCH  29  30
ENDBRANCH   9  11
ENDBRANCH   1   9
TORSDOF 7
ENDMDL
MODEL 3
REMARK VINA RESULT:    -5.889      1.713      3.427
REMARK INTER + INTRA:         -10.128
REMARK INTER:                  -8.791
REMARK INTRA:                  -1.336
REMARK UNBOUND:                -2.001
REMARK SMILES CC[C@H](CC[C@H](C)[C@@H]1CC[C@@H]2[C@@H]3CC=C4C[C@H](O)CC[C@@]4(C)[C@H]3CC[C@]21C)C(C)C
REMARK SMILES IDX 5 1 4 2 3 3 2 4 1 5 28 6 29 7 30 8 6 9 7 10 8 11 9 12 26 13
REMARK SMILES IDX 10 14 11 15 25 16 27 17 12 18 24 19 23 20 13 21 21 22 14 23
REMARK SMILES IDX 15 24 20 25 22 26 16 27 19 28 17 29 18 30
REMARK H PARENT 18 31
REMARK Flexibility Score: inf
ROOT
ATOM      1  C   UNL     1     130.002 144.318 108.365  1.00  0.00     0.004 C 
ENDROOT
BRANCH   1   2
ATOM      2  C   UNL     1     129.516 145.147 107.151  1.00  0.00     0.004 C 
BRANCH   2   3
ATOM      3  C   UNL     1     129.481 144.352 105.803  1.00  0.00    -0.009 C 
BRANCH   3   4
ATOM      4  C   UNL     1     130.271 143.005 105.816  1.00  0.00     0.000 C 
ATOM      5  C   UNL     1     131.701 143.043 105.259  1.00  0.00     0.004 C 
ENDBRANCH   3   4
BRANCH   3   6
ATOM      6  C   UNL     1     128.040 144.180 105.212  1.00  0.00    -0.014 C 
ATOM      7  C   UNL     1     127.184 145.450 105.381  1.00  0.00     0.007 C 
ATOM      8  C   UNL     1     127.285 142.954 105.750  1.00  0.00     0.007 C 
ENDBRANCH   3   6
ENDBRANCH   2   3
ENDBRANCH   1   2
BRANCH   1   9
ATOM      9  C   UNL     1     128.972 144.199 109.525  1.00  0.00    -0.011 C 
ATOM     10  C   UNL     1     127.564 144.520 108.986  1.00  0.00     0.008 C 
BRANCH   9  11
ATOM     11  C   UNL     1     129.356 145.138 110.719  1.00  0.00    -0.002 C 
ATOM     12  C   UNL     1     130.818 145.667 110.625  1.00  0.00     0.005 C 
ATOM     13  C   UNL     1     129.269 144.552 112.170  1.00  0.00    -0.026 C 
ATOM     14  C   UNL     1     131.348 145.821 112.059  1.00  0.00     0.005 C 
ATOM     15  C   UNL     1     130.119 145.594 112.920  1.00  0.00    -0.001 C 
ATOM     16  C   UNL     1     127.826 144.539 112.792  1.00  0.00     0.007 C 
ATOM     17  C   UNL     1     129.907 143.126 112.201  1.00  0.00     0.012 C 
ATOM     18  C   UNL     1     130.262 145.403 114.456  1.00  0.00     0.000 C 
ATOM     19  C   UNL     1     127.752 145.016 114.274  1.00  0.00     0.005 C 
ATOM     20  C   UNL     1     129.041 144.662 115.059  1.00  0.00     0.003 C 
ATOM     21  C   UNL     1     131.534 144.719 114.963  1.00  0.00     0.031 C 
ATOM     22  C   UNL     1     128.987 144.842 116.621  1.00  0.00    -0.008 C 
ATOM     23  C   UNL     1     131.538 144.733 116.473  1.00  0.00    -0.027 C 
ATOM     24  C   UNL     1     130.409 144.803 117.227  1.00  0.00    -0.065 C 
ATOM     25  C   UNL     1     128.332 146.201 117.019  1.00  0.00     0.014 C 
ATOM     26  C   UNL     1     128.161 143.670 117.218  1.00  0.00     0.016 C 
ATOM     27  C   UNL     1     130.539 145.092 118.706  1.00  0.00     0.063 C 
ATOM     28  C   UNL     1     128.455 146.526 118.522  1.00  0.00     0.033 C 
ATOM     29  C   UNL     1     129.913 146.463 119.010  1.00  0.00     0.118 C 
BRANCH  29  30
ATOM     30  O   UNL     1     129.942 146.705 120.392  1.00  0.00    -0.393 OA
ATOM     31  H   UNL     1     130.281 147.630 120.514  1.00  0.00     0.210 HD
ENDBRANCH  29  30
ENDBRANCH   9  11
ENDBRANCH   1   9
TORSDOF 7
ENDMDL
MODEL 4
REMARK VINA RESULT:    -5.830      5.102      8.948
REMARK INTER + INTRA:         -10.046
REMARK INTER:                  -8.242
REMARK INTRA:                  -1.803
REMARK UNBOUND:                -2.001
REMARK SMILES CC[C@H](CC[C@H](C)[C@@H]1CC[C@@H]2[C@@H]3CC=C4C[C@H](O)CC[C@@]4(C)[C@H]3CC[C@]21C)C(C)C
REMARK SMILES IDX 5 1 4 2 3 3 2 4 1 5 28 6 29 7 30 8 6 9 7 10 8 11 9 12 26 13
REMARK SMILES IDX 10 14 11 15 25 16 27 17 12 18 24 19 23 20 13 21 21 22 14 23
REMARK SMILES IDX 15 24 20 25 22 26 16 27 19 28 17 29 18 30
REMARK H PARENT 18 31
REMARK Flexibility Score: inf
ROOT
ATOM      1  C   UNL     1     129.945 144.530 109.140  1.00  0.00     0.004 C 
ENDROOT
BRANCH   1   2
ATOM      2  C   UNL     1     129.917 145.666 108.088  1.00  0.00     0.004 C 
BRANCH   2   3
ATOM      3  C   UNL     1     129.918 145.166 106.605  1.00  0.00    -0.009 C 
BRANCH   3   4
ATOM      4  C   UNL     1     128.699 145.641 105.752  1.00  0.00     0.000 C 
ATOM      5  C   UNL     1     127.363 145.795 106.491  1.00  0.00     0.004 C 
ENDBRANCH   3   4
BRANCH   3   6
ATOM      6  C   UNL     1     131.279 145.401 105.864  1.00  0.00    -0.014 C 
ATOM      7  C   UNL     1     132.288 144.266 106.122  1.00  0.00     0.007 C 
ATOM      8  C   UNL     1     131.924 146.765 106.157  1.00  0.00     0.007 C 
ENDBRANCH   3   6
ENDBRANCH   2   3
ENDBRANCH   1   2
BRANCH   1   9
ATOM      9  C   UNL     1     128.791 143.495 109.011  1.00  0.00    -0.011 C 
ATOM     10  C   UNL     1     127.801 143.693 110.175  1.00  0.00     0.008 C 
BRANCH   9  11
ATOM     11  C   UNL     1     129.347 142.030 108.975  1.00  0.00    -0.002 C 
ATOM     12  C   UNL     1     130.899 141.971 109.098  1.00  0.00     0.005 C 
ATOM     13  C   UNL     1     129.045 141.162 107.707  1.00  0.00    -0.026 C 
ATOM     14  C   UNL     1     131.383 140.768 108.275  1.00  0.00     0.005 C 
ATOM     15  C   UNL     1     130.098 140.055 107.896  1.00  0.00    -0.001 C 
ATOM     16  C   UNL     1     127.620 140.501 107.683  1.00  0.00     0.007 C 
ATOM     17  C   UNL     1     129.293 142.009 106.417  1.00  0.00     0.012 C 
ATOM     18  C   UNL     1     130.115 138.920 106.834  1.00  0.00     0.000 C 
ATOM     19  C   UNL     1     127.601 139.010 107.229  1.00  0.00     0.005 C 
ATOM     20  C   UNL     1     128.718 138.708 106.197  1.00  0.00     0.003 C 
ATOM     21  C   UNL     1     131.143 139.028 105.705  1.00  0.00     0.031 C 
ATOM     22  C   UNL     1     128.639 137.320 105.459  1.00  0.00    -0.008 C 
ATOM     23  C   UNL     1     131.080 137.783 104.854  1.00  0.00    -0.027 C 
ATOM     24  C   UNL     1     129.973 137.002 104.746  1.00  0.00    -0.065 C 
ATOM     25  C   UNL     1     128.337 136.158 106.454  1.00  0.00     0.014 C 
ATOM     26  C   UNL     1     127.512 137.400 104.392  1.00  0.00     0.016 C 
ATOM     27  C   UNL     1     130.103 135.641 104.097  1.00  0.00     0.063 C 
ATOM     28  C   UNL     1     128.469 134.757 105.822  1.00  0.00     0.033 C 
ATOM     29  C   UNL     1     129.837 134.553 105.149  1.00  0.00     0.118 C 
BRANCH  29  30
ATOM     30  O   UNL     1     129.863 133.287 104.542  1.00  0.00    -0.393 OA
ATOM     31  H   UNL     1     130.678 133.257 103.976  1.00  0.00     0.210 HD
ENDBRANCH  29  30
ENDBRANCH   9  11
ENDBRANCH   1   9
TORSDOF 7
ENDMDL
MODEL 5
REMARK VINA RESULT:    -5.790      8.323     11.078
REMARK INTER + INTRA:          -9.991
REMARK INTER:                  -8.727
REMARK INTRA:                  -1.264
REMARK UNBOUND:                -2.001
REMARK SMILES CC[C@H](CC[C@H](C)[C@@H]1CC[C@@H]2[C@@H]3CC=C4C[C@H](O)CC[C@@]4(C)[C@H]3CC[C@]21C)C(C)C
REMARK SMILES IDX 5 1 4 2 3 3 2 4 1 5 28 6 29 7 30 8 6 9 7 10 8 11 9 12 26 13
REMARK SMILES IDX 10 14 11 15 25 16 27 17 12 18 24 19 23 20 13 21 21 22 14 23
REMARK SMILES IDX 15 24 20 25 22 26 16 27 19 28 17 29 18 30
REMARK H PARENT 18 31
REMARK Flexibility Score: inf
ROOT
ATOM      1  C   UNL     1     127.872 140.276 106.129  1.00  0.00     0.004 C 
ENDROOT
BRANCH   1   2
ATOM      2  C   UNL     1     127.061 141.208 107.062  1.00  0.00     0.004 C 
BRANCH   2   3
ATOM      3  C   UNL     1     127.386 142.730 106.888  1.00  0.00    -0.009 C 
BRANCH   3   4
ATOM      4  C   UNL     1     127.971 143.425 108.157  1.00  0.00     0.000 C 
ATOM      5  C   UNL     1     127.421 144.818 108.492  1.00  0.00     0.004 C 
ENDBRANCH   3   4
BRANCH   3   6
ATOM      6  C   UNL     1     128.227 143.049 105.604  1.00  0.00    -0.014 C 
ATOM      7  C   UNL     1     129.702 143.352 105.932  1.00  0.00     0.007 C 
ATOM      8  C   UNL     1     127.635 144.166 104.730  1.00  0.00     0.007 C 
ENDBRANCH   3   6
ENDBRANCH   2   3
ENDBRANCH   1   2
BRANCH   1   9
ATOM      9  C   UNL     1     128.772 139.242 106.864  1.00  0.00    -0.011 C 
ATOM     10  C   UNL     1     130.182 139.837 107.046  1.00  0.00     0.008 C 
BRANCH   9  11
ATOM     11  C   UNL     1     128.820 137.881 106.088  1.00  0.00    -0.002 C 
ATOM     12  C   UNL     1     127.627 137.707 105.103  1.00  0.00     0.005 C 
ATOM     13  C   UNL     1     128.803 136.558 106.926  1.00  0.00    -0.026 C 
ATOM     14  C   UNL     1     127.285 136.210 105.050  1.00  0.00     0.005 C 
ATOM     15  C   UNL     1     128.418 135.558 105.821  1.00  0.00    -0.001 C 
ATOM     16  C   UNL     1     130.192 136.136 107.525  1.00  0.00     0.007 C 
ATOM     17  C   UNL     1     127.716 136.658 108.046  1.00  0.00     0.012 C 
ATOM     18  C   UNL     1     128.327 134.062 106.234  1.00  0.00     0.000 C 
ATOM     19  C   UNL     1     130.531 134.622 107.380  1.00  0.00     0.005 C 
ATOM     20  C   UNL     1     129.258 133.739 107.431  1.00  0.00     0.003 C 
ATOM     21  C   UNL     1     126.937 133.502 106.545  1.00  0.00     0.031 C 
ATOM     22  C   UNL     1     129.481 132.187 107.569  1.00  0.00    -0.008 C 
ATOM     23  C   UNL     1     127.045 132.020 106.808  1.00  0.00    -0.027 C 
ATOM     24  C   UNL     1     128.179 131.416 107.251  1.00  0.00    -0.065 C 
ATOM     25  C   UNL     1     130.590 131.679 106.597  1.00  0.00     0.014 C 
ATOM     26  C   UNL     1     129.892 131.883 109.035  1.00  0.00     0.016 C 
ATOM     27  C   UNL     1     128.262 129.906 107.213  1.00  0.00     0.063 C 
ATOM     28  C   UNL     1     130.693 130.141 106.531  1.00  0.00     0.033 C 
ATOM     29  C   UNL     1     129.341 129.484 106.203  1.00  0.00     0.118 C 
BRANCH  29  30
ATOM     30  O   UNL     1     129.495 128.089 106.223  1.00  0.00    -0.393 OA
ATOM     31  H   UNL     1     130.027 127.872 107.034  1.00  0.00     0.210 HD
ENDBRANCH  29  30
ENDBRANCH   9  11
ENDBRANCH   1   9
TORSDOF 7
ENDMDL
MODEL 6
REMARK VINA RESULT:    -5.788      8.035     11.535
REMARK INTER + INTRA:          -9.988
REMARK INTER:                  -8.727
REMARK INTRA:                  -1.261
REMARK UNBOUND:                -2.001
REMARK SMILES CC[C@H](CC[C@H](C)[C@@H]1CC[C@@H]2[C@@H]3CC=C4C[C@H](O)CC[C@@]4(C)[C@H]3CC[C@]21C)C(C)C
REMARK SMILES IDX 5 1 4 2 3 3 2 4 1 5 28 6 29 7 30 8 6 9 7 10 8 11 9 12 26 13
REMARK SMILES IDX 10 14 11 15 25 16 27 17 12 18 24 19 23 20 13 21 21 22 14 23
REMARK SMILES IDX 15 24 20 25 22 26 16 27 19 28 17 29 18 30
REMARK H PARENT 18 31
REMARK Flexibility Score: inf
ROOT
ATOM      1  C   UNL     1     134.203 145.662 106.957  1.00  0.00     0.004 C 
ENDROOT
BRANCH   1   2
ATOM      2  C   UNL     1     132.826 146.281 106.613  1.00  0.00     0.004 C 
BRANCH   2   3
ATOM      3  C   UNL     1     131.774 145.251 106.083  1.00  0.00    -0.009 C 
BRANCH   3   4
ATOM      4  C   UNL     1     132.187 143.753 106.239  1.00  0.00     0.000 C 
ATOM      5  C   UNL     1     132.647 143.032 104.966  1.00  0.00     0.004 C 
ENDBRANCH   3   4
BRANCH   3   6
ATOM      6  C   UNL     1     130.319 145.515 106.603  1.00  0.00    -0.014 C 
ATOM      7  C   UNL     1     130.249 145.571 108.141  1.00  0.00     0.007 C 
ATOM      8  C   UNL     1     129.271 144.532 106.058  1.00  0.00     0.007 C 
ENDBRANCH   3   6
ENDBRANCH   2   3
ENDBRANCH   1   2
BRANCH   1   9
ATOM      9  C   UNL     1     135.354 146.060 105.990  1.00  0.00    -0.011 C 
ATOM     10  C   UNL     1     134.818 146.074 104.544  1.00  0.00     0.008 C 
BRANCH   9  11
ATOM     11  C   UNL     1     136.577 145.090 106.137  1.00  0.00    -0.002 C 
ATOM     12  C   UNL     1     136.245 143.827 106.986  1.00  0.00     0.005 C 
ATOM     13  C   UNL     1     137.880 145.650 106.802  1.00  0.00    -0.026 C 
ATOM     14  C   UNL     1     137.523 143.427 107.739  1.00  0.00     0.005 C 
ATOM     15  C   UNL     1     138.588 144.325 107.136  1.00  0.00    -0.001 C 
ATOM     16  C   UNL     1     138.803 146.486 105.846  1.00  0.00     0.007 C 
ATOM     17  C   UNL     1     137.509 146.468 108.082  1.00  0.00     0.012 C 
ATOM     18  C   UNL     1     139.991 144.430 107.798  1.00  0.00     0.000 C 
ATOM     19  C   UNL     1     140.324 146.163 105.961  1.00  0.00     0.005 C 
ATOM     20  C   UNL     1     140.716 145.742 107.401  1.00  0.00     0.003 C 
ATOM     21  C   UNL     1     140.063 144.286 109.320  1.00  0.00     0.031 C 
ATOM     22  C   UNL     1     142.256 145.653 107.715  1.00  0.00    -0.008 C 
ATOM     23  C   UNL     1     141.509 144.300 109.753  1.00  0.00    -0.027 C 
ATOM     24  C   UNL     1     142.502 144.893 109.038  1.00  0.00    -0.065 C 
ATOM     25  C   UNL     1     143.029 144.908 106.583  1.00  0.00     0.014 C 
ATOM     26  C   UNL     1     142.807 147.097 107.861  1.00  0.00     0.016 C 
ATOM     27  C   UNL     1     143.939 144.609 109.416  1.00  0.00     0.063 C 
ATOM     28  C   UNL     1     144.496 144.598 106.942  1.00  0.00     0.033 C 
ATOM     29  C   UNL     1     144.618 143.836 108.273  1.00  0.00     0.118 C 
BRANCH  29  30
ATOM     30  O   UNL     1     145.977 143.646 108.567  1.00  0.00    -0.393 OA
ATOM     31  H   UNL     1     146.396 144.547 108.582  1.00  0.00     0.210 HD
ENDBRANCH  29  30
ENDBRANCH   9  11
ENDBRANCH   1   9
TORSDOF 7
ENDMDL
MODEL 7
REMARK VINA RESULT:    -5.667      6.333      9.849
REMARK INTER + INTRA:          -9.822
REMARK INTER:                  -8.544
REMARK INTRA:                  -1.278
REMARK UNBOUND:                -2.001
REMARK SMILES CC[C@H](CC[C@H](C)[C@@H]1CC[C@@H]2[C@@H]3CC=C4C[C@H](O)CC[C@@]4(C)[C@H]3CC[C@]21C)C(C)C
REMARK SMILES IDX 5 1 4 2 3 3 2 4 1 5 28 6 29 7 30 8 6 9 7 10 8 11 9 12 26 13
REMARK SMILES IDX 10 14 11 15 25 16 27 17 12 18 24 19 23 20 13 21 21 22 14 23
REMARK SMILES IDX 15 24 20 25 22 26 16 27 19 28 17 29 18 30
REMARK H PARENT 18 31
REMARK Flexibility Score: inf
ROOT
ATOM      1  C   UNL     1     130.581 143.432 105.647  1.00  0.00     0.004 C 
ENDROOT
BRANCH   1   2
ATOM      2  C   UNL     1     129.408 143.027 106.574  1.00  0.00     0.004 C 
BRANCH   2   3
ATOM      3  C   UNL     1     128.012 142.997 105.867  1.00  0.00    -0.009 C 
BRANCH   3   4
ATOM      4  C   UNL     1     127.146 141.736 106.179  1.00  0.00     0.000 C 
ATOM      5  C   UNL     1     127.902 140.416 106.376  1.00  0.00     0.004 C 
ENDBRANCH   3   4
BRANCH   3   6
ATOM      6  C   UNL     1     127.196 144.325 106.033  1.00  0.00    -0.014 C 
ATOM      7  C   UNL     1     127.393 145.285 104.844  1.00  0.00     0.007 C 
ATOM      8  C   UNL     1     127.456 145.058 107.359  1.00  0.00     0.007 C 
ENDBRANCH   3   6
ENDBRANCH   2   3
ENDBRANCH   1   2
BRANCH   1   9
ATOM      9  C   UNL     1     131.520 144.527 106.229  1.00  0.00    -0.011 C 
ATOM     10  C   UNL     1     130.821 145.898 106.133  1.00  0.00     0.008 C 
BRANCH   9  11
ATOM     11  C   UNL     1     132.902 144.537 105.490  1.00  0.00    -0.002 C 
ATOM     12  C   UNL     1     133.132 143.263 104.625  1.00  0.00     0.005 C 
ATOM     13  C   UNL     1     134.200 144.628 106.363  1.00  0.00    -0.026 C 
ATOM     14  C   UNL     1     134.637 142.954 104.645  1.00  0.00     0.005 C 
ATOM     15  C   UNL     1     135.241 144.168 105.326  1.00  0.00    -0.001 C 
ATOM     16  C   UNL     1     134.574 146.077 106.841  1.00  0.00     0.007 C 
ATOM     17  C   UNL     1     134.090 143.647 107.575  1.00  0.00     0.012 C 
ATOM     18  C   UNL     1     136.725 144.151 105.787  1.00  0.00     0.000 C 
ATOM     19  C   UNL     1     136.084 146.437 106.708  1.00  0.00     0.005 C 
ATOM     20  C   UNL     1     136.993 145.195 106.901  1.00  0.00     0.003 C 
ATOM     21  C   UNL     1     137.305 142.809 106.241  1.00  0.00     0.031 C 
ATOM     22  C   UNL     1     138.535 145.468 107.061  1.00  0.00    -0.008 C 
ATOM     23  C   UNL     1     138.776 142.977 106.534  1.00  0.00    -0.027 C 
ATOM     24  C   UNL     1     139.342 144.161 106.887  1.00  0.00    -0.065 C 
ATOM     25  C   UNL     1     139.047 146.494 106.005  1.00  0.00     0.014 C 
ATOM     26  C   UNL     1     138.786 146.019 108.491  1.00  0.00     0.016 C 
ATOM     27  C   UNL     1     140.851 144.276 106.883  1.00  0.00     0.063 C 
ATOM     28  C   UNL     1     140.584 146.628 105.973  1.00  0.00     0.033 C 
ATOM     29  C   UNL     1     141.280 145.268 105.790  1.00  0.00     0.118 C 
BRANCH  29  30
ATOM     30  O   UNL     1     142.669 145.457 105.835  1.00  0.00    -0.393 OA
ATOM     31  H   UNL     1     143.074 144.565 105.998  1.00  0.00     0.210 HD
ENDBRANCH  29  30
ENDBRANCH   9  11
ENDBRANCH   1   9
TORSDOF 7
ENDMDL
MODEL 8
REMARK VINA RESULT:    -5.584      7.731     10.870
REMARK INTER + INTRA:          -9.707
REMARK INTER:                  -8.396
REMARK INTRA:                  -1.311
REMARK UNBOUND:                -2.001
REMARK SMILES CC[C@H](CC[C@H](C)[C@@H]1CC[C@@H]2[C@@H]3CC=C4C[C@H](O)CC[C@@]4(C)[C@H]3CC[C@]21C)C(C)C
REMARK SMILES IDX 5 1 4 2 3 3 2 4 1 5 28 6 29 7 30 8 6 9 7 10 8 11 9 12 26 13
REMARK SMILES IDX 10 14 11 15 25 16 27 17 12 18 24 19 23 20 13 21 21 22 14 23
REMARK SMILES IDX 15 24 20 25 22 26 16 27 19 28 17 29 18 30
REMARK H PARENT 18 31
REMARK Flexibility Score: inf
ROOT
ATOM      1  C   UNL     1     129.329 133.121 105.705  1.00  0.00     0.004 C 
ENDROOT
BRANCH   1   2
ATOM      2  C   UNL     1     129.569 131.931 106.665  1.00  0.00     0.004 C 
BRANCH   2   3
ATOM      3  C   UNL     1     129.454 130.525 105.986  1.00  0.00    -0.009 C 
BRANCH   3   4
ATOM      4  C   UNL     1     130.563 129.505 106.397  1.00  0.00     0.000 C 
ATOM      5  C   UNL     1     130.999 129.523 107.868  1.00  0.00     0.004 C 
ENDBRANCH   3   4
BRANCH   3   6
ATOM      6  C   UNL     1     128.020 129.899 106.075  1.00  0.00    -0.014 C 
ATOM      7  C   UNL     1     127.150 130.254 104.855  1.00  0.00     0.007 C 
ATOM      8  C   UNL     1     127.273 130.231 107.377  1.00  0.00     0.007 C 
ENDBRANCH   3   6
ENDBRANCH   2   3
ENDBRANCH   1   2
BRANCH   1   9
ATOM      9  C   UNL     1     128.392 134.230 106.265  1.00  0.00    -0.011 C 
ATOM     10  C   UNL     1     126.928 133.760 106.154  1.00  0.00     0.008 C 
BRANCH   9  11
ATOM     11  C   UNL     1     128.616 135.589 105.517  1.00  0.00    -0.002 C 
ATOM     12  C   UNL     1     129.833 135.550 104.546  1.00  0.00     0.005 C 
ATOM     13  C   UNL     1     128.875 136.868 106.383  1.00  0.00    -0.026 C 
ATOM     14  C   UNL     1     130.455 136.955 104.528  1.00  0.00     0.005 C 
ATOM     15  C   UNL     1     129.458 137.797 105.303  1.00  0.00    -0.001 C 
ATOM     16  C   UNL     1     127.584 137.537 106.977  1.00  0.00     0.007 C 
ATOM     17  C   UNL     1     129.908 136.541 107.510  1.00  0.00     0.012 C 
ATOM     18  C   UNL     1     129.829 139.239 105.747  1.00  0.00     0.000 C 
ATOM     19  C   UNL     1     127.544 139.091 106.861  1.00  0.00     0.005 C 
ATOM     20  C   UNL     1     128.962 139.713 106.943  1.00  0.00     0.003 C 
ATOM     21  C   UNL     1     131.296 139.516 106.083  1.00  0.00     0.031 C 
ATOM     22  C   UNL     1     129.038 141.276 107.111  1.00  0.00    -0.008 C 
ATOM     23  C   UNL     1     131.471 140.987 106.376  1.00  0.00    -0.027 C 
ATOM     24  C   UNL     1     130.467 141.788 106.822  1.00  0.00    -0.065 C 
ATOM     25  C   UNL     1     128.060 142.005 106.140  1.00  0.00     0.014 C 
ATOM     26  C   UNL     1     128.674 141.625 108.580  1.00  0.00     0.016 C 
ATOM     27  C   UNL     1     130.676 143.287 106.814  1.00  0.00     0.063 C 
ATOM     28  C   UNL     1     128.254 143.535 106.106  1.00  0.00     0.033 C 
ATOM     29  C   UNL     1     129.711 143.927 105.804  1.00  0.00     0.118 C 
BRANCH  29  30
ATOM     30  O   UNL     1     129.826 145.324 105.852  1.00  0.00    -0.393 OA
ATOM     31  H   UNL     1     130.376 145.594 105.070  1.00  0.00     0.210 HD
ENDBRANCH  29  30
ENDBRANCH   9  11
ENDBRANCH   1   9
TORSDOF 7
ENDMDL
MODEL 9
REMARK VINA RESULT:    -5.577      4.704      8.460
REMARK INTER + INTRA:          -9.698
REMARK INTER:                  -7.510
REMARK INTRA:                  -2.188
REMARK UNBOUND:                -2.001
REMARK SMILES CC[C@H](CC[C@H](C)[C@@H]1CC[C@@H]2[C@@H]3CC=C4C[C@H](O)CC[C@@]4(C)[C@H]3CC[C@]21C)C(C)C
REMARK SMILES IDX 5 1 4 2 3 3 2 4 1 5 28 6 29 7 30 8 6 9 7 10 8 11 9 12 26 13
REMARK SMILES IDX 10 14 11 15 25 16 27 17 12 18 24 19 23 20 13 21 21 22 14 23
REMARK SMILES IDX 15 24 20 25 22 26 16 27 19 28 17 29 18 30
REMARK H PARENT 18 31
REMARK Flexibility Score: inf
ROOT
ATOM      1  C   UNL     1     128.095 145.747 108.114  1.00  0.00     0.004 C 
ENDROOT
BRANCH   1   2
ATOM      2  C   UNL     1     127.232 144.620 107.495  1.00  0.00     0.004 C 
BRANCH   2   3
ATOM      3  C   UNL     1     128.028 143.314 107.159  1.00  0.00    -0.009 C 
BRANCH   3   4
ATOM      4  C   UNL     1     127.553 142.040 107.927  1.00  0.00     0.000 C 
ATOM      5  C   UNL     1     128.353 141.655 109.178  1.00  0.00     0.004 C 
ENDBRANCH   3   4
BRANCH   3   6
ATOM      6  C   UNL     1     128.179 143.050 105.621  1.00  0.00    -0.014 C 
ATOM      7  C   UNL     1     129.628 142.709 105.226  1.00  0.00     0.007 C 
ATOM      8  C   UNL     1     127.637 144.183 104.735  1.00  0.00     0.007 C 
ENDBRANCH   3   6
ENDBRANCH   2   3
ENDBRANCH   1   2
BRANCH   1   9
ATOM      9  C   UNL     1     129.436 145.270 108.741  1.00  0.00    -0.011 C 
ATOM     10  C   UNL     1     129.443 145.615 110.243  1.00  0.00     0.008 C 
BRANCH   9  11
ATOM     11  C   UNL     1     130.663 145.905 108.001  1.00  0.00    -0.002 C 
ATOM     12  C   UNL     1     130.432 146.056 106.469  1.00  0.00     0.005 C 
ATOM     13  C   UNL     1     132.040 145.164 108.096  1.00  0.00    -0.026 C 
ATOM     14  C   UNL     1     131.790 145.870 105.775  1.00  0.00     0.005 C 
ATOM     15  C   UNL     1     132.778 145.842 106.927  1.00  0.00    -0.001 C 
ATOM     16  C   UNL     1     132.844 145.428 109.419  1.00  0.00     0.007 C 
ATOM     17  C   UNL     1     131.830 143.632 107.862  1.00  0.00     0.012 C 
ATOM     18  C   UNL     1     134.251 145.408 106.686  1.00  0.00     0.000 C 
ATOM     19  C   UNL     1     134.365 145.696 109.213  1.00  0.00     0.005 C 
ATOM     20  C   UNL     1     134.928 144.923 107.994  1.00  0.00     0.003 C 
ATOM     21  C   UNL     1     134.507 144.362 105.598  1.00  0.00     0.031 C 
ATOM     22  C   UNL     1     136.494 144.891 107.840  1.00  0.00    -0.008 C 
ATOM     23  C   UNL     1     135.995 144.164 105.439  1.00  0.00    -0.027 C 
ATOM     24  C   UNL     1     136.896 144.410 106.427  1.00  0.00    -0.065 C 
ATOM     25  C   UNL     1     137.120 146.301 108.064  1.00  0.00     0.014 C 
ATOM     26  C   UNL     1     137.065 143.893 108.884  1.00  0.00     0.016 C 
ATOM     27  C   UNL     1     138.367 144.448 106.076  1.00  0.00     0.063 C 
ATOM     28  C   UNL     1     138.620 146.372 107.708  1.00  0.00     0.033 C 
ATOM     29  C   UNL     1     138.899 145.876 106.279  1.00  0.00     0.118 C 
BRANCH  29  30
ATOM     30  O   UNL     1     140.283 145.907 106.047  1.00  0.00    -0.393 OA
ATOM     31  H   UNL     1     140.602 146.802 106.338  1.00  0.00     0.210 HD
ENDBRANCH  29  30
ENDBRANCH   9  11
ENDBRANCH   1   9
TORSDOF 7
ENDMDL
