MODEL 1
REMARK VINA RESULT:    -7.194      0.000      0.000
REMARK INTER + INTRA:         -11.238
REMARK INTER:                  -9.927
REMARK INTRA:                  -1.310
REMARK UNBOUND:                -1.310
REMARK SMILES CC[C@H](CC[C@H](C)[C@H]1CC[C@H]2[C@H]3CC=C4C[C@H](O)CC[C@]4(C)[C@H]3CC[C@@]12C)C(C)C
REMARK SMILES IDX 5 1 4 2 3 3 2 4 1 5 28 6 29 7 30 8 6 9 7 10 8 11 9 12 26 13
REMARK SMILES IDX 10 14 11 15 25 16 27 17 12 18 24 19 23 20 13 21 21 22 14 23
REMARK SMILES IDX 15 24 20 25 22 26 16 27 19 28 17 29 18 30
REMARK H PARENT 18 31
REMARK Flexibility Score: inf
ROOT
ATOM      1  C   UNL     1      46.493   6.957 113.028  1.00  0.00     0.004 C 
ENDROOT
BRANCH   1   2
ATOM      2  C   UNL     1      47.895   7.605 113.167  1.00  0.00     0.004 C 
BRANCH   2   3
ATOM      3  C   UNL     1      49.109   6.718 112.771  1.00  0.00    -0.009 C 
BRANCH   3   4
ATOM      4  C   UNL     1      49.755   5.928 113.947  1.00  0.00     0.000 C 
ATOM      5  C   UNL     1      49.731   6.608 115.318  1.00  0.00     0.004 C 
ENDBRANCH   3   4
BRANCH   3   6
ATOM      6  C   UNL     1      48.932   5.941 111.411  1.00  0.00    -0.014 C 
ATOM      7  C   UNL     1      49.745   4.640 111.269  1.00  0.00     0.007 C 
ATOM      8  C   UNL     1      49.255   6.854 110.214  1.00  0.00     0.007 C 
ENDBRANCH   3   6
ENDBRANCH   2   3
ENDBRANCH   1   2
BRANCH   1   9
ATOM      9  C   UNL     1      45.593   7.172 114.274  1.00  0.00    -0.011 C 
ATOM     10  C   UNL     1      44.237   6.464 114.120  1.00  0.00     0.008 C 
BRANCH   9  11
ATOM     11  C   UNL     1      45.444   8.656 114.766  1.00  0.00    -0.002 C 
ATOM     12  C   UNL     1      44.104   9.285 114.351  1.00  0.00     0.005 C 
ATOM     13  C   UNL     1      45.724   9.073 116.270  1.00  0.00    -0.026 C 
ATOM     14  C   UNL     1      43.477   9.836 115.608  1.00  0.00     0.005 C 
ATOM     15  C   UNL     1      44.639  10.162 116.556  1.00  0.00    -0.001 C 
ATOM     16  C   UNL     1      45.565   7.952 117.328  1.00  0.00     0.007 C 
ATOM     17  C   UNL     1      47.177   9.637 116.331  1.00  0.00     0.012 C 
ATOM     18  C   UNL     1      44.197  10.364 118.059  1.00  0.00     0.000 C 
ATOM     19  C   UNL     1      45.680   8.440 118.797  1.00  0.00     0.005 C 
ATOM     20  C   UNL     1      45.314   9.941 119.033  1.00  0.00     0.003 C 
ATOM     21  C   UNL     1      42.877   9.674 118.478  1.00  0.00     0.031 C 
ATOM     22  C   UNL     1      44.980  10.315 120.536  1.00  0.00    -0.008 C 
ATOM     23  C   UNL     1      42.565   9.877 119.934  1.00  0.00    -0.027 C 
ATOM     24  C   UNL     1      43.502  10.104 120.878  1.00  0.00    -0.065 C 
ATOM     25  C   UNL     1      45.285  11.832 120.773  1.00  0.00     0.014 C 
ATOM     26  C   UNL     1      45.874   9.483 121.501  1.00  0.00     0.016 C 
ATOM     27  C   UNL     1      43.049  10.516 122.261  1.00  0.00     0.063 C 
ATOM     28  C   UNL     1      44.820  12.367 122.149  1.00  0.00     0.033 C 
ATOM     29  C   UNL     1      43.355  12.009 122.488  1.00  0.00     0.118 C 
BRANCH  29  30
ATOM     30  O   UNL     1      42.454  12.828 121.782  1.00  0.00    -0.393 OA
ATOM     31  H   UNL     1      42.847  13.735 121.714  1.00  0.00     0.210 HD
ENDBRANCH  29  30
ENDBRANCH   9  11
ENDBRANCH   1   9
TORSDOF 7
ENDMDL
MODEL 2
REMARK VINA RESULT:    -7.136      3.127      9.005
REMARK INTER + INTRA:         -11.158
REMARK INTER:                  -9.925
REMARK INTRA:                  -1.234
REMARK UNBOUND:                -1.310
REMARK SMILES CC[C@H](CC[C@H](C)[C@H]1CC[C@H]2[C@H]3CC=C4C[C@H](O)CC[C@]4(C)[C@H]3CC[C@@]12C)C(C)C
REMARK SMILES IDX 5 1 4 2 3 3 2 4 1 5 28 6 29 7 30 8 6 9 7 10 8 11 9 12 26 13
REMARK SMILES IDX 10 14 11 15 25 16 27 17 12 18 24 19 23 20 13 21 21 22 14 23
REMARK SMILES IDX 15 24 20 25 22 26 16 27 19 28 17 29 18 30
REMARK H PARENT 18 31
REMARK Flexibility Score: inf
ROOT
ATOM      1  C   UNL     1      43.333  10.514 117.549  1.00  0.00     0.004 C 
ENDROOT
BRANCH   1   2
ATOM      2  C   UNL     1      43.716   9.428 118.585  1.00  0.00     0.004 C 
BRANCH   2   3
ATOM      3  C   UNL     1      43.558   9.814 120.083  1.00  0.00    -0.009 C 
BRANCH   3   4
ATOM      4  C   UNL     1      44.880  10.216 120.801  1.00  0.00     0.000 C 
ATOM      5  C   UNL     1      46.177   9.967 120.026  1.00  0.00     0.004 C 
ENDBRANCH   3   4
BRANCH   3   6
ATOM      6  C   UNL     1      42.289  10.695 120.397  1.00  0.00    -0.014 C 
ATOM      7  C   UNL     1      42.557  12.027 121.125  1.00  0.00     0.007 C 
ATOM      8  C   UNL     1      41.254   9.893 121.208  1.00  0.00     0.007 C 
ENDBRANCH   3   6
ENDBRANCH   2   3
ENDBRANCH   1   2
BRANCH   1   9
ATOM      9  C   UNL     1      43.893  10.231 116.129  1.00  0.00    -0.011 C 
ATOM     10  C   UNL     1      43.045  10.912 115.042  1.00  0.00     0.008 C 
BRANCH   9  11
ATOM     11  C   UNL     1      44.199   8.727 115.798  1.00  0.00    -0.002 C 
ATOM     12  C   UNL     1      43.412   8.217 114.580  1.00  0.00     0.005 C 
ATOM     13  C   UNL     1      45.683   8.182 115.673  1.00  0.00    -0.026 C 
ATOM     14  C   UNL     1      44.421   7.614 113.634  1.00  0.00     0.005 C 
ATOM     15  C   UNL     1      45.594   7.145 114.506  1.00  0.00    -0.001 C 
ATOM     16  C   UNL     1      46.763   9.227 115.301  1.00  0.00     0.007 C 
ATOM     17  C   UNL     1      46.051   7.524 117.039  1.00  0.00     0.012 C 
ATOM     18  C   UNL     1      46.917   6.859 113.692  1.00  0.00     0.000 C 
ATOM     19  C   UNL     1      48.166   8.624 115.022  1.00  0.00     0.005 C 
ATOM     20  C   UNL     1      48.170   7.136 114.545  1.00  0.00     0.003 C 
ATOM     21  C   UNL     1      47.057   7.597 112.339  1.00  0.00     0.031 C 
ATOM     22  C   UNL     1      49.505   6.671 113.828  1.00  0.00    -0.008 C 
ATOM     23  C   UNL     1      48.366   7.305 111.663  1.00  0.00    -0.027 C 
ATOM     24  C   UNL     1      49.488   6.949 112.322  1.00  0.00    -0.065 C 
ATOM     25  C   UNL     1      49.675   5.125 113.999  1.00  0.00     0.014 C 
ATOM     26  C   UNL     1      50.731   7.370 114.485  1.00  0.00     0.016 C 
ATOM     27  C   UNL     1      50.675   6.464 111.518  1.00  0.00     0.063 C 
ATOM     28  C   UNL     1      50.840   4.518 113.181  1.00  0.00     0.033 C 
ATOM     29  C   UNL     1      50.837   4.942 111.695  1.00  0.00     0.118 C 
BRANCH  29  30
ATOM     30  O   UNL     1      49.861   4.237 110.966  1.00  0.00    -0.393 OA
ATOM     31  H   UNL     1      49.240   3.811 111.610  1.00  0.00     0.210 HD
ENDBRANCH  29  30
ENDBRANCH   9  11
ENDBRANCH   1   9
TORSDOF 7
ENDMDL
MODEL 3
REMARK VINA RESULT:    -6.971      2.925      9.317
REMARK INTER + INTRA:         -10.930
REMARK INTER:                  -9.565
REMARK INTRA:                  -1.365
REMARK UNBOUND:                -1.310
REMARK SMILES CC[C@H](CC[C@H](C)[C@H]1CC[C@H]2[C@H]3CC=C4C[C@H](O)CC[C@]4(C)[C@H]3CC[C@@]12C)C(C)C
REMARK SMILES IDX 5 1 4 2 3 3 2 4 1 5 28 6 29 7 30 8 6 9 7 10 8 11 9 12 26 13
REMARK SMILES IDX 10 14 11 15 25 16 27 17 12 18 24 19 23 20 13 21 21 22 14 23
REMARK SMILES IDX 15 24 20 25 22 26 16 27 19 28 17 29 18 30
REMARK H PARENT 18 31
REMARK Flexibility Score: inf
ROOT
ATOM      1  C   UNL     1      43.181   9.640 118.988  1.00  0.00     0.004 C 
ENDROOT
BRANCH   1   2
ATOM      2  C   UNL     1      43.148  11.133 119.406  1.00  0.00     0.004 C 
BRANCH   2   3
ATOM      3  C   UNL     1      42.687  11.434 120.860  1.00  0.00    -0.009 C 
BRANCH   3   4
ATOM      4  C   UNL     1      42.228  10.188 121.674  1.00  0.00     0.000 C 
ATOM      5  C   UNL     1      40.775   9.747 121.480  1.00  0.00     0.004 C 
ENDBRANCH   3   4
BRANCH   3   6
ATOM      6  C   UNL     1      43.582  12.484 121.621  1.00  0.00    -0.014 C 
ATOM      7  C   UNL     1      45.005  12.686 121.064  1.00  0.00     0.007 C 
ATOM      8  C   UNL     1      43.688  12.131 123.117  1.00  0.00     0.007 C 
ENDBRANCH   3   6
ENDBRANCH   2   3
ENDBRANCH   1   2
BRANCH   1   9
ATOM      9  C   UNL     1      44.619   9.079 118.832  1.00  0.00    -0.011 C 
ATOM     10  C   UNL     1      45.362   9.048 120.178  1.00  0.00     0.008 C 
BRANCH   9  11
ATOM     11  C   UNL     1      45.483   9.711 117.683  1.00  0.00    -0.002 C 
ATOM     12  C   UNL     1      46.843  10.227 118.181  1.00  0.00     0.005 C 
ATOM     13  C   UNL     1      45.729   8.959 116.309  1.00  0.00    -0.026 C 
ATOM     14  C   UNL     1      47.893   9.603 117.296  1.00  0.00     0.005 C 
ATOM     15  C   UNL     1      47.207   9.326 115.952  1.00  0.00    -0.001 C 
ATOM     16  C   UNL     1      45.617   7.415 116.348  1.00  0.00     0.007 C 
ATOM     17  C   UNL     1      44.701   9.525 115.281  1.00  0.00     0.012 C 
ATOM     18  C   UNL     1      47.998   8.316 115.030  1.00  0.00     0.000 C 
ATOM     19  C   UNL     1      46.031   6.711 115.028  1.00  0.00     0.005 C 
ATOM     20  C   UNL     1      47.040   7.504 114.137  1.00  0.00     0.003 C 
ATOM     21  C   UNL     1      48.957   7.341 115.754  1.00  0.00     0.031 C 
ATOM     22  C   UNL     1      47.809   6.629 113.063  1.00  0.00    -0.008 C 
ATOM     23  C   UNL     1      49.624   6.387 114.805  1.00  0.00    -0.027 C 
ATOM     24  C   UNL     1      49.093   6.010 113.623  1.00  0.00    -0.065 C 
ATOM     25  C   UNL     1      48.233   7.536 111.861  1.00  0.00     0.014 C 
ATOM     26  C   UNL     1      46.873   5.510 112.520  1.00  0.00     0.016 C 
ATOM     27  C   UNL     1      49.959   5.228 112.659  1.00  0.00     0.063 C 
ATOM     28  C   UNL     1      49.159   6.842 110.834  1.00  0.00     0.033 C 
ATOM     29  C   UNL     1      50.369   6.127 111.478  1.00  0.00     0.118 C 
BRANCH  29  30
ATOM     30  O   UNL     1      51.362   7.049 111.859  1.00  0.00    -0.393 OA
ATOM     31  H   UNL     1      51.945   6.616 112.533  1.00  0.00     0.210 HD
ENDBRANCH  29  30
ENDBRANCH   9  11
ENDBRANCH   1   9
TORSDOF 7
ENDMDL
MODEL 4
REMARK VINA RESULT:    -6.673      6.437      9.729
REMARK INTER + INTRA:         -10.519
REMARK INTER:                  -9.258
REMARK INTRA:                  -1.261
REMARK UNBOUND:                -1.310
REMARK SMILES CC[C@H](CC[C@H](C)[C@H]1CC[C@H]2[C@H]3CC=C4C[C@H](O)CC[C@]4(C)[C@H]3CC[C@@]12C)C(C)C
REMARK SMILES IDX 5 1 4 2 3 3 2 4 1 5 28 6 29 7 30 8 6 9 7 10 8 11 9 12 26 13
REMARK SMILES IDX 10 14 11 15 25 16 27 17 12 18 24 19 23 20 13 21 21 22 14 23
REMARK SMILES IDX 15 24 20 25 22 26 16 27 19 28 17 29 18 30
REMARK H PARENT 18 31
REMARK Flexibility Score: inf
ROOT
ATOM      1  C   UNL     1      43.231   9.125 113.626  1.00  0.00     0.004 C 
ENDROOT
BRANCH   1   2
ATOM      2  C   UNL     1      43.636   8.092 114.708  1.00  0.00     0.004 C 
BRANCH   2   3
ATOM      3  C   UNL     1      45.100   7.570 114.653  1.00  0.00    -0.009 C 
BRANCH   3   4
ATOM      4  C   UNL     1      45.883   7.950 113.362  1.00  0.00     0.000 C 
ATOM      5  C   UNL     1      47.033   7.022 112.964  1.00  0.00     0.004 C 
ENDBRANCH   3   4
BRANCH   3   6
ATOM      6  C   UNL     1      45.884   7.685 116.014  1.00  0.00    -0.014 C 
ATOM      7  C   UNL     1      45.028   7.601 117.294  1.00  0.00     0.007 C 
ATOM      8  C   UNL     1      46.709   8.985 116.062  1.00  0.00     0.007 C 
ENDBRANCH   3   6
ENDBRANCH   2   3
ENDBRANCH   1   2
BRANCH   1   9
ATOM      9  C   UNL     1      43.114  10.573 114.173  1.00  0.00    -0.011 C 
ATOM     10  C   UNL     1      43.431  10.635 115.676  1.00  0.00     0.008 C 
BRANCH   9  11
ATOM     11  C   UNL     1      41.797  11.343 113.804  1.00  0.00    -0.002 C 
ATOM     12  C   UNL     1      41.576  12.590 114.675  1.00  0.00     0.005 C 
ATOM     13  C   UNL     1      41.446  11.735 112.308  1.00  0.00    -0.026 C 
ATOM     14  C   UNL     1      41.356  13.745 113.730  1.00  0.00     0.005 C 
ATOM     15  C   UNL     1      40.772  13.139 112.447  1.00  0.00    -0.001 C 
ATOM     16  C   UNL     1      42.648  11.876 111.341  1.00  0.00     0.007 C 
ATOM     17  C   UNL     1      40.470  10.648 111.761  1.00  0.00     0.012 C 
ATOM     18  C   UNL     1      40.847  14.102 111.197  1.00  0.00     0.000 C 
ATOM     19  C   UNL     1      42.278  12.426 109.938  1.00  0.00     0.005 C 
ATOM     20  C   UNL     1      40.989  13.307 109.885  1.00  0.00     0.003 C 
ATOM     21  C   UNL     1      41.943  15.194 111.244  1.00  0.00     0.031 C 
ATOM     22  C   UNL     1      40.867  14.230 108.601  1.00  0.00    -0.008 C 
ATOM     23  C   UNL     1      41.972  16.026 109.994  1.00  0.00    -0.027 C 
ATOM     24  C   UNL     1      41.552  15.587 108.789  1.00  0.00    -0.065 C 
ATOM     25  C   UNL     1      39.357  14.522 108.314  1.00  0.00     0.014 C 
ATOM     26  C   UNL     1      41.465  13.500 107.364  1.00  0.00     0.016 C 
ATOM     27  C   UNL     1      41.420  16.587 107.662  1.00  0.00     0.063 C 
ATOM     28  C   UNL     1      39.112  15.569 107.201  1.00  0.00     0.033 C 
ATOM     29  C   UNL     1      39.931  16.867 107.383  1.00  0.00     0.118 C 
BRANCH  29  30
ATOM     30  O   UNL     1      39.371  17.688 108.379  1.00  0.00    -0.393 OA
ATOM     31  H   UNL     1      40.103  18.207 108.801  1.00  0.00     0.210 HD
ENDBRANCH  29  30
ENDBRANCH   9  11
ENDBRANCH   1   9
TORSDOF 7
ENDMDL
MODEL 5
REMARK VINA RESULT:    -6.374      3.135      8.117
REMARK INTER + INTRA:         -10.107
REMARK INTER:                  -8.231
REMARK INTRA:                  -1.876
REMARK UNBOUND:                -1.310
REMARK SMILES CC[C@H](CC[C@H](C)[C@H]1CC[C@H]2[C@H]3CC=C4C[C@H](O)CC[C@]4(C)[C@H]3CC[C@@]12C)C(C)C
REMARK SMILES IDX 5 1 4 2 3 3 2 4 1 5 28 6 29 7 30 8 6 9 7 10 8 11 9 12 26 13
REMARK SMILES IDX 10 14 11 15 25 16 27 17 12 18 24 19 23 20 13 21 21 22 14 23
REMARK SMILES IDX 15 24 20 25 22 26 16 27 19 28 17 29 18 30
REMARK H PARENT 18 31
REMARK Flexibility Score: inf
ROOT
ATOM      1  C   UNL     1      46.129  11.118 123.975  1.00  0.00     0.004 C 
ENDROOT
BRANCH   1   2
ATOM      2  C   UNL     1      46.350   9.589 124.103  1.00  0.00     0.004 C 
BRANCH   2   3
ATOM      3  C   UNL     1      47.820   9.091 124.001  1.00  0.00    -0.009 C 
BRANCH   3   4
ATOM      4  C   UNL     1      47.981   7.551 123.841  1.00  0.00     0.000 C 
ATOM      5  C   UNL     1      46.718   6.710 124.040  1.00  0.00     0.004 C 
ENDBRANCH   3   4
BRANCH   3   6
ATOM      6  C   UNL     1      48.752   9.996 123.110  1.00  0.00    -0.014 C 
ATOM      7  C   UNL     1      48.979   9.510 121.664  1.00  0.00     0.007 C 
ATOM      8  C   UNL     1      50.125  10.194 123.780  1.00  0.00     0.007 C 
ENDBRANCH   3   6
ENDBRANCH   2   3
ENDBRANCH   1   2
BRANCH   1   9
ATOM      9  C   UNL     1      45.475  11.532 122.630  1.00  0.00    -0.011 C 
ATOM     10  C   UNL     1      44.815  12.917 122.727  1.00  0.00     0.008 C 
BRANCH   9  11
ATOM     11  C   UNL     1      44.538  10.464 121.963  1.00  0.00    -0.002 C 
ATOM     12  C   UNL     1      43.101  10.975 121.771  1.00  0.00     0.005 C 
ATOM     13  C   UNL     1      44.954   9.691 120.642  1.00  0.00    -0.026 C 
ATOM     14  C   UNL     1      42.754  10.754 120.319  1.00  0.00     0.005 C 
ATOM     15  C   UNL     1      43.610   9.568 119.853  1.00  0.00    -0.001 C 
ATOM     16  C   UNL     1      45.979  10.408 119.729  1.00  0.00     0.007 C 
ATOM     17  C   UNL     1      45.529   8.308 121.076  1.00  0.00     0.012 C 
ATOM     18  C   UNL     1      43.705   9.431 118.282  1.00  0.00     0.000 C 
ATOM     19  C   UNL     1      46.228   9.701 118.369  1.00  0.00     0.005 C 
ATOM     20  C   UNL     1      45.050   8.813 117.854  1.00  0.00     0.003 C 
ATOM     21  C   UNL     1      43.467  10.726 117.470  1.00  0.00     0.031 C 
ATOM     22  C   UNL     1      45.098   8.478 116.306  1.00  0.00    -0.008 C 
ATOM     23  C   UNL     1      43.629  10.511 115.992  1.00  0.00    -0.027 C 
ATOM     24  C   UNL     1      44.405   9.547 115.455  1.00  0.00    -0.065 C 
ATOM     25  C   UNL     1      44.344   7.133 116.041  1.00  0.00     0.014 C 
ATOM     26  C   UNL     1      46.574   8.306 115.845  1.00  0.00     0.016 C 
ATOM     27  C   UNL     1      44.308   9.288 113.967  1.00  0.00     0.063 C 
ATOM     28  C   UNL     1      44.153   6.793 114.544  1.00  0.00     0.033 C 
ATOM     29  C   UNL     1      43.568   7.960 113.716  1.00  0.00     0.118 C 
BRANCH  29  30
ATOM     30  O   UNL     1      42.184   8.098 113.936  1.00  0.00    -0.393 OA
ATOM     31  H   UNL     1      42.039   8.900 114.501  1.00  0.00     0.210 HD
ENDBRANCH  29  30
ENDBRANCH   9  11
ENDBRANCH   1   9
TORSDOF 7
ENDMDL
MODEL 6
REMARK VINA RESULT:    -6.314      7.369     10.926
REMARK INTER + INTRA:         -10.024
REMARK INTER:                  -9.063
REMARK INTRA:                  -0.962
REMARK UNBOUND:                -1.310
REMARK SMILES CC[C@H](CC[C@H](C)[C@H]1CC[C@H]2[C@H]3CC=C4C[C@H](O)CC[C@]4(C)[C@H]3CC[C@@]12C)C(C)C
REMARK SMILES IDX 5 1 4 2 3 3 2 4 1 5 28 6 29 7 30 8 6 9 7 10 8 11 9 12 26 13
REMARK SMILES IDX 10 14 11 15 25 16 27 17 12 18 24 19 23 20 13 21 21 22 14 23
REMARK SMILES IDX 15 24 20 25 22 26 16 27 19 28 17 29 18 30
REMARK H PARENT 18 31
REMARK Flexibility Score: inf
ROOT
ATOM      1  C   UNL     1      42.531  10.841 114.227  1.00  0.00     0.004 C 
ENDROOT
BRANCH   1   2
ATOM      2  C   UNL     1      43.373  10.534 115.492  1.00  0.00     0.004 C 
BRANCH   2   3
ATOM      3  C   UNL     1      44.003   9.115 115.577  1.00  0.00    -0.009 C 
BRANCH   3   4
ATOM      4  C   UNL     1      43.704   8.343 116.896  1.00  0.00     0.000 C 
ATOM      5  C   UNL     1      44.903   7.690 117.588  1.00  0.00     0.004 C 
ENDBRANCH   3   4
BRANCH   3   6
ATOM      6  C   UNL     1      43.921   8.286 114.239  1.00  0.00    -0.014 C 
ATOM      7  C   UNL     1      43.231   6.910 114.341  1.00  0.00     0.007 C 
ATOM      8  C   UNL     1      45.322   8.087 113.632  1.00  0.00     0.007 C 
ENDBRANCH   3   6
ENDBRANCH   2   3
ENDBRANCH   1   2
BRANCH   1   9
ATOM      9  C   UNL     1      42.212  12.349 114.054  1.00  0.00    -0.011 C 
ATOM     10  C   UNL     1      42.212  13.085 115.404  1.00  0.00     0.008 C 
BRANCH   9  11
ATOM     11  C   UNL     1      40.950  12.689 113.183  1.00  0.00    -0.002 C 
ATOM     12  C   UNL     1      40.298  14.023 113.582  1.00  0.00     0.005 C 
ATOM     13  C   UNL     1      40.982  12.625 111.599  1.00  0.00    -0.026 C 
ATOM     14  C   UNL     1      40.177  14.840 112.319  1.00  0.00     0.005 C 
ATOM     15  C   UNL     1      40.084  13.830 111.167  1.00  0.00    -0.001 C 
ATOM     16  C   UNL     1      42.371  12.803 110.939  1.00  0.00     0.007 C 
ATOM     17  C   UNL     1      40.384  11.246 111.180  1.00  0.00     0.012 C 
ATOM     18  C   UNL     1      40.359  14.461 109.744  1.00  0.00     0.000 C 
ATOM     19  C   UNL     1      42.333  12.905 109.390  1.00  0.00     0.005 C 
ATOM     20  C   UNL     1      40.991  13.431 108.788  1.00  0.00     0.003 C 
ATOM     21  C   UNL     1      41.211  15.752 109.726  1.00  0.00     0.031 C 
ATOM     22  C   UNL     1      41.096  13.970 107.301  1.00  0.00    -0.008 C 
ATOM     23  C   UNL     1      41.464  16.249 108.331  1.00  0.00    -0.027 C 
ATOM     24  C   UNL     1      41.477  15.452 107.242  1.00  0.00    -0.065 C 
ATOM     25  C   UNL     1      39.703  13.834 106.601  1.00  0.00     0.014 C 
ATOM     26  C   UNL     1      42.127  13.123 106.501  1.00  0.00     0.016 C 
ATOM     27  C   UNL     1      41.516  16.100 105.875  1.00  0.00     0.063 C 
ATOM     28  C   UNL     1      39.623  14.503 105.208  1.00  0.00     0.033 C 
ATOM     29  C   UNL     1      40.143  15.959 105.191  1.00  0.00     0.118 C 
BRANCH  29  30
ATOM     30  O   UNL     1      39.201  16.843 105.750  1.00  0.00    -0.393 OA
ATOM     31  H   UNL     1      38.568  16.314 106.300  1.00  0.00     0.210 HD
ENDBRANCH  29  30
ENDBRANCH   9  11
ENDBRANCH   1   9
TORSDOF 7
ENDMDL
MODEL 7
REMARK VINA RESULT:    -6.277      8.340     12.153
REMARK INTER + INTRA:          -9.973
REMARK INTER:                  -8.399
REMARK INTRA:                  -1.574
REMARK UNBOUND:                -1.310
REMARK SMILES CC[C@H](CC[C@H](C)[C@H]1CC[C@H]2[C@H]3CC=C4C[C@H](O)CC[C@]4(C)[C@H]3CC[C@@]12C)C(C)C
REMARK SMILES IDX 5 1 4 2 3 3 2 4 1 5 28 6 29 7 30 8 6 9 7 10 8 11 9 12 26 13
REMARK SMILES IDX 10 14 11 15 25 16 27 17 12 18 24 19 23 20 13 21 21 22 14 23
REMARK SMILES IDX 15 24 20 25 22 26 16 27 19 28 17 29 18 30
REMARK H PARENT 18 31
REMARK Flexibility Score: inf
ROOT
ATOM      1  C   UNL     1      41.125  13.000 114.351  1.00  0.00     0.004 C 
ENDROOT
BRANCH   1   2
ATOM      2  C   UNL     1      42.419  12.149 114.313  1.00  0.00     0.004 C 
BRANCH   2   3
ATOM      3  C   UNL     1      42.257  10.663 113.884  1.00  0.00    -0.009 C 
BRANCH   3   4
ATOM      4  C   UNL     1      42.069  10.439 112.354  1.00  0.00     0.000 C 
ATOM      5  C   UNL     1      40.788   9.721 111.924  1.00  0.00     0.004 C 
ENDBRANCH   3   4
BRANCH   3   6
ATOM      6  C   UNL     1      43.217   9.661 114.632  1.00  0.00    -0.014 C 
ATOM      7  C   UNL     1      43.963  10.230 115.855  1.00  0.00     0.007 C 
ATOM      8  C   UNL     1      44.254   9.068 113.659  1.00  0.00     0.007 C 
ENDBRANCH   3   6
ENDBRANCH   2   3
ENDBRANCH   1   2
BRANCH   1   9
ATOM      9  C   UNL     1      41.285  14.389 113.678  1.00  0.00    -0.011 C 
ATOM     10  C   UNL     1      41.510  15.498 114.718  1.00  0.00     0.008 C 
BRANCH   9  11
ATOM     11  C   UNL     1      40.189  14.771 112.619  1.00  0.00    -0.002 C 
ATOM     12  C   UNL     1      39.990  16.290 112.495  1.00  0.00     0.005 C 
ATOM     13  C   UNL     1      40.193  14.165 111.154  1.00  0.00    -0.026 C 
ATOM     14  C   UNL     1      40.126  16.626 111.030  1.00  0.00     0.005 C 
ATOM     15  C   UNL     1      39.717  15.360 110.264  1.00  0.00    -0.001 C 
ATOM     16  C   UNL     1      41.566  13.689 110.617  1.00  0.00     0.007 C 
ATOM     17  C   UNL     1      39.192  12.969 111.144  1.00  0.00     0.012 C 
ATOM     18  C   UNL     1      40.170  15.359 108.751  1.00  0.00     0.000 C 
ATOM     19  C   UNL     1      41.556  13.265 109.124  1.00  0.00     0.005 C 
ATOM     20  C   UNL     1      40.443  13.928 108.250  1.00  0.00     0.003 C 
ATOM     21  C   UNL     1      41.383  16.253 108.403  1.00  0.00     0.031 C 
ATOM     22  C   UNL     1      40.705  13.873 106.687  1.00  0.00    -0.008 C 
ATOM     23  C   UNL     1      41.773  16.148 106.956  1.00  0.00    -0.027 C 
ATOM     24  C   UNL     1      41.531  15.063 106.191  1.00  0.00    -0.065 C 
ATOM     25  C   UNL     1      39.338  13.926 105.929  1.00  0.00     0.014 C 
ATOM     26  C   UNL     1      41.416  12.540 106.314  1.00  0.00     0.016 C 
ATOM     27  C   UNL     1      41.766  15.165 104.699  1.00  0.00     0.063 C 
ATOM     28  C   UNL     1      39.465  14.073 104.394  1.00  0.00     0.033 C 
ATOM     29  C   UNL     1      40.415  15.213 103.960  1.00  0.00     0.118 C 
BRANCH  29  30
ATOM     30  O   UNL     1      39.800  16.471 104.103  1.00  0.00    -0.393 OA
ATOM     31  H   UNL     1      39.299  16.667 103.271  1.00  0.00     0.210 HD
ENDBRANCH  29  30
ENDBRANCH   9  11
ENDBRANCH   1   9
TORSDOF 7
ENDMDL
MODEL 8
REMARK VINA RESULT:    -6.241      3.739      8.489
REMARK INTER + INTRA:          -9.923
REMARK INTER:                  -8.963
REMARK INTRA:                  -0.960
REMARK UNBOUND:                -1.310
REMARK SMILES CC[C@H](CC[C@H](C)[C@H]1CC[C@H]2[C@H]3CC=C4C[C@H](O)CC[C@]4(C)[C@H]3CC[C@@]12C)C(C)C
REMARK SMILES IDX 5 1 4 2 3 3 2 4 1 5 28 6 29 7 30 8 6 9 7 10 8 11 9 12 26 13
REMARK SMILES IDX 10 14 11 15 25 16 27 17 12 18 24 19 23 20 13 21 21 22 14 23
REMARK SMILES IDX 15 24 20 25 22 26 16 27 19 28 17 29 18 30
REMARK H PARENT 18 31
REMARK Flexibility Score: inf
ROOT
ATOM      1  C   UNL     1      43.434  10.749 115.017  1.00  0.00     0.004 C 
ENDROOT
BRANCH   1   2
ATOM      2  C   UNL     1      42.263  11.762 114.941  1.00  0.00     0.004 C 
BRANCH   2   3
ATOM      3  C   UNL     1      41.879  12.269 113.522  1.00  0.00    -0.009 C 
BRANCH   3   4
ATOM      4  C   UNL     1      42.226  13.761 113.242  1.00  0.00     0.000 C 
ATOM      5  C   UNL     1      41.776  14.774 114.298  1.00  0.00     0.004 C 
ENDBRANCH   3   4
BRANCH   3   6
ATOM      6  C   UNL     1      42.178  11.245 112.362  1.00  0.00    -0.014 C 
ATOM      7  C   UNL     1      42.529  11.862 110.993  1.00  0.00     0.007 C 
ATOM      8  C   UNL     1      40.999  10.273 112.173  1.00  0.00     0.007 C 
ENDBRANCH   3   6
ENDBRANCH   2   3
ENDBRANCH   1   2
BRANCH   1   9
ATOM      9  C   UNL     1      43.270   9.708 116.157  1.00  0.00    -0.011 C 
ATOM     10  C   UNL     1      43.818  10.241 117.491  1.00  0.00     0.008 C 
BRANCH   9  11
ATOM     11  C   UNL     1      43.771   8.255 115.838  1.00  0.00    -0.002 C 
ATOM     12  C   UNL     1      43.122   7.669 114.574  1.00  0.00     0.005 C 
ATOM     13  C   UNL     1      45.314   7.890 115.799  1.00  0.00    -0.026 C 
ATOM     14  C   UNL     1      44.248   7.200 113.687  1.00  0.00     0.005 C 
ATOM     15  C   UNL     1      45.416   6.863 114.624  1.00  0.00    -0.001 C 
ATOM     16  C   UNL     1      46.283   9.060 115.495  1.00  0.00     0.007 C 
ATOM     17  C   UNL     1      45.678   7.264 117.181  1.00  0.00     0.012 C 
ATOM     18  C   UNL     1      46.809   6.744 113.888  1.00  0.00     0.000 C 
ATOM     19  C   UNL     1      47.761   8.629 115.297  1.00  0.00     0.005 C 
ATOM     20  C   UNL     1      47.969   7.158 114.814  1.00  0.00     0.003 C 
ATOM     21  C   UNL     1      46.938   7.509 112.549  1.00  0.00     0.031 C 
ATOM     22  C   UNL     1      49.389   6.862 114.175  1.00  0.00    -0.008 C 
ATOM     23  C   UNL     1      48.310   7.382 111.950  1.00  0.00    -0.027 C 
ATOM     24  C   UNL     1      49.426   7.153 112.672  1.00  0.00    -0.065 C 
ATOM     25  C   UNL     1      49.730   5.345 114.349  1.00  0.00     0.014 C 
ATOM     26  C   UNL     1      50.483   7.694 114.906  1.00  0.00     0.016 C 
ATOM     27  C   UNL     1      50.706   6.820 111.937  1.00  0.00     0.063 C 
ATOM     28  C   UNL     1      51.004   4.889 113.598  1.00  0.00     0.033 C 
ATOM     29  C   UNL     1      51.037   5.327 112.116  1.00  0.00     0.118 C 
BRANCH  29  30
ATOM     30  O   UNL     1      50.195   4.520 111.328  1.00  0.00    -0.393 OA
ATOM     31  H   UNL     1      50.017   3.680 111.824  1.00  0.00     0.210 HD
ENDBRANCH  29  30
ENDBRANCH   9  11
ENDBRANCH   1   9
TORSDOF 7
ENDMDL
MODEL 9
REMARK VINA RESULT:    -6.131      9.336     13.332
REMARK INTER + INTRA:          -9.771
REMARK INTER:                  -8.304
REMARK INTRA:                  -1.467
REMARK UNBOUND:                -1.310
REMARK SMILES CC[C@H](CC[C@H](C)[C@H]1CC[C@H]2[C@H]3CC=C4C[C@H](O)CC[C@]4(C)[C@H]3CC[C@@]12C)C(C)C
REMARK SMILES IDX 5 1 4 2 3 3 2 4 1 5 28 6 29 7 30 8 6 9 7 10 8 11 9 12 26 13
REMARK SMILES IDX 10 14 11 15 25 16 27 17 12 18 24 19 23 20 13 21 21 22 14 23
REMARK SMILES IDX 15 24 20 25 22 26 16 27 19 28 17 29 18 30
REMARK H PARENT 18 31
REMARK Flexibility Score: inf
ROOT
ATOM      1  C   UNL     1      39.985  13.377 109.407  1.00  0.00     0.004 C 
ENDROOT
BRANCH   1   2
ATOM      2  C   UNL     1      40.061  12.695 110.797  1.00  0.00     0.004 C 
BRANCH   2   3
ATOM      3  C   UNL     1      41.418  12.807 111.548  1.00  0.00    -0.009 C 
BRANCH   3   4
ATOM      4  C   UNL     1      42.519  11.817 111.065  1.00  0.00     0.000 C 
ATOM      5  C   UNL     1      42.663  10.518 111.861  1.00  0.00     0.004 C 
ENDBRANCH   3   4
BRANCH   3   6
ATOM      6  C   UNL     1      41.878  14.285 111.843  1.00  0.00    -0.014 C 
ATOM      7  C   UNL     1      43.089  14.788 111.033  1.00  0.00     0.007 C 
ATOM      8  C   UNL     1      42.178  14.476 113.342  1.00  0.00     0.007 C 
ENDBRANCH   3   6
ENDBRANCH   2   3
ENDBRANCH   1   2
BRANCH   1   9
ATOM      9  C   UNL     1      40.522  12.485 108.256  1.00  0.00    -0.011 C 
ATOM     10  C   UNL     1      41.714  13.142 107.542  1.00  0.00     0.008 C 
BRANCH   9  11
ATOM     11  C   UNL     1      39.447  11.936 107.252  1.00  0.00    -0.002 C 
ATOM     12  C   UNL     1      40.043  11.593 105.877  1.00  0.00     0.005 C 
ATOM     13  C   UNL     1      38.448  10.770 107.647  1.00  0.00    -0.026 C 
ATOM     14  C   UNL     1      39.631  10.175 105.568  1.00  0.00     0.005 C 
ATOM     15  C   UNL     1      38.319   9.938 106.329  1.00  0.00    -0.001 C 
ATOM     16  C   UNL     1      38.926   9.815 108.769  1.00  0.00     0.007 C 
ATOM     17  C   UNL     1      37.104  11.436 108.074  1.00  0.00     0.012 C 
ATOM     18  C   UNL     1      37.934   8.413 106.473  1.00  0.00     0.000 C 
ATOM     19  C   UNL     1      37.999   8.593 109.005  1.00  0.00     0.005 C 
ATOM     20  C   UNL     1      37.146   8.155 107.772  1.00  0.00     0.003 C 
ATOM     21  C   UNL     1      39.105   7.404 106.388  1.00  0.00     0.031 C 
ATOM     22  C   UNL     1      36.574   6.678 107.850  1.00  0.00    -0.008 C 
ATOM     23  C   UNL     1      38.652   5.986 106.588  1.00  0.00    -0.027 C 
ATOM     24  C   UNL     1      37.554   5.642 107.293  1.00  0.00    -0.065 C 
ATOM     25  C   UNL     1      35.273   6.579 106.986  1.00  0.00     0.014 C 
ATOM     26  C   UNL     1      36.208   6.328 109.321  1.00  0.00     0.016 C 
ATOM     27  C   UNL     1      37.077   4.206 107.231  1.00  0.00     0.063 C 
ATOM     28  C   UNL     1      34.724   5.141 106.824  1.00  0.00     0.033 C 
ATOM     29  C   UNL     1      35.795   4.118 106.382  1.00  0.00     0.118 C 
BRANCH  29  30
ATOM     30  O   UNL     1      36.083   4.241 105.010  1.00  0.00    -0.393 OA
ATOM     31  H   UNL     1      37.067   4.290 104.902  1.00  0.00     0.210 HD
ENDBRANCH  29  30
ENDBRANCH   9  11
ENDBRANCH   1   9
TORSDOF 7
ENDMDL
