MODEL 1
REMARK VINA RESULT:     6.163      0.000      0.000
REMARK INTER + INTRA:           7.625
REMARK INTER:                   8.505
REMARK INTRA:                  -0.880
REMARK UNBOUND:                -0.880
REMARK SMILES CC[C@@H](CC[C@H](C)[C@@H]1CC[C@@H]2[C@H]3CC=C4C[C@H](O)CC[C@]4(C)[C@H]3CC[C@@]21C)C(C)C
REMARK SMILES IDX 5 1 4 2 3 3 2 4 1 5 28 6 29 7 30 8 6 9 7 10 8 11 9 12 26 13
REMARK SMILES IDX 10 14 11 15 25 16 27 17 12 18 24 19 23 20 13 21 21 22 14 23
REMARK SMILES IDX 15 24 20 25 22 26 16 27 19 28 17 29 18 30
REMARK H PARENT 18 31
REMARK Flexibility Score: inf
ROOT
ATOM      1  C   UNL     1      10.200 -33.737  13.264  1.00  0.00     0.004 C 
ENDROOT
BRANCH   1   2
ATOM      2  C   UNL     1      10.421 -32.952  11.948  1.00  0.00     0.004 C 
BRANCH   2   3
ATOM      3  C   UNL     1      10.687 -31.418  12.076  1.00  0.00    -0.009 C 
BRANCH   3   4
ATOM      4  C   UNL     1      12.041 -31.161  12.799  1.00  0.00     0.000 C 
ATOM      5  C   UNL     1      12.772 -32.435  13.227  1.00  0.00     0.004 C 
ENDBRANCH   3   4
BRANCH   3   6
ATOM      6  C   UNL     1       9.509 -30.630  12.778  1.00  0.00    -0.014 C 
ATOM      7  C   UNL     1      10.011 -29.302  13.374  1.00  0.00     0.007 C 
ATOM      8  C   UNL     1       8.282 -30.327  11.897  1.00  0.00     0.007 C 
ENDBRANCH   3   6
ENDBRANCH   2   3
ENDBRANCH   1   2
BRANCH   1   9
ATOM      9  C   UNL     1       8.940 -34.640  13.296  1.00  0.00    -0.011 C 
ATOM     10  C   UNL     1       8.503 -35.052  11.876  1.00  0.00     0.008 C 
BRANCH   9  11
ATOM     11  C   UNL     1       7.827 -34.050  14.232  1.00  0.00    -0.002 C 
ATOM     12  C   UNL     1       6.789 -33.210  13.505  1.00  0.00     0.005 C 
ATOM     13  C   UNL     1       8.157 -33.259  15.549  1.00  0.00    -0.026 C 
ATOM     14  C   UNL     1       5.927 -32.665  14.621  1.00  0.00     0.005 C 
ATOM     15  C   UNL     1       6.891 -32.349  15.783  1.00  0.00    -0.001 C 
ATOM     16  C   UNL     1       9.439 -32.394  15.437  1.00  0.00     0.007 C 
ATOM     17  C   UNL     1       8.309 -34.259  16.733  1.00  0.00     0.012 C 
ATOM     18  C   UNL     1       7.169 -30.807  15.854  1.00  0.00     0.000 C 
ATOM     19  C   UNL     1       9.581 -31.435  16.620  1.00  0.00     0.005 C 
ATOM     20  C   UNL     1       8.425 -30.405  16.696  1.00  0.00     0.003 C 
ATOM     21  C   UNL     1       5.884 -30.022  16.252  1.00  0.00     0.031 C 
ATOM     22  C   UNL     1       8.113 -29.889  18.152  1.00  0.00    -0.008 C 
ATOM     23  C   UNL     1       6.111 -28.815  17.117  1.00  0.00    -0.027 C 
ATOM     24  C   UNL     1       7.086 -28.760  18.045  1.00  0.00    -0.065 C 
ATOM     25  C   UNL     1       9.438 -29.349  18.781  1.00  0.00     0.014 C 
ATOM     26  C   UNL     1       7.526 -30.996  19.060  1.00  0.00     0.016 C 
ATOM     27  C   UNL     1       6.979 -27.710  19.135  1.00  0.00     0.063 C 
ATOM     28  C   UNL     1       9.230 -28.430  19.991  1.00  0.00     0.033 C 
ATOM     29  C   UNL     1       8.349 -27.234  19.626  1.00  0.00     0.118 C 
BRANCH  29  30
ATOM     30  O   UNL     1       8.983 -26.456  18.641  1.00  0.00    -0.393 OA
ATOM     31  H   UNL     1       9.585 -27.067  18.139  1.00  0.00     0.210 HD
ENDBRANCH  29  30
ENDBRANCH   9  11
ENDBRANCH   1   9
TORSDOF 7
ENDMDL
MODEL 2
REMARK VINA RESULT:     6.363      2.135      5.710
REMARK INTER + INTRA:           7.901
REMARK INTER:                   7.502
REMARK INTRA:                   0.400
REMARK UNBOUND:                -0.880
REMARK SMILES CC[C@@H](CC[C@H](C)[C@@H]1CC[C@@H]2[C@H]3CC=C4C[C@H](O)CC[C@]4(C)[C@H]3CC[C@@]21C)C(C)C
REMARK SMILES IDX 5 1 4 2 3 3 2 4 1 5 28 6 29 7 30 8 6 9 7 10 8 11 9 12 26 13
REMARK SMILES IDX 10 14 11 15 25 16 27 17 12 18 24 19 23 20 13 21 21 22 14 23
REMARK SMILES IDX 15 24 20 25 22 26 16 27 19 28 17 29 18 30
REMARK H PARENT 18 31
REMARK Flexibility Score: inf
ROOT
ATOM      1  C   UNL     1       5.875 -32.626  15.787  1.00  0.00     0.004 C 
ENDROOT
BRANCH   1   2
ATOM      2  C   UNL     1       6.405 -33.091  17.165  1.00  0.00     0.004 C 
BRANCH   2   3
ATOM      3  C   UNL     1       7.765 -32.487  17.640  1.00  0.00    -0.009 C 
BRANCH   3   4
ATOM      4  C   UNL     1       8.552 -33.527  18.490  1.00  0.00     0.000 C 
ATOM      5  C   UNL     1       7.665 -34.440  19.339  1.00  0.00     0.004 C 
ENDBRANCH   3   4
BRANCH   3   6
ATOM      6  C   UNL     1       7.610 -31.118  18.417  1.00  0.00    -0.014 C 
ATOM      7  C   UNL     1       8.823 -30.202  18.167  1.00  0.00     0.007 C 
ATOM      8  C   UNL     1       6.331 -30.314  18.114  1.00  0.00     0.007 C 
ENDBRANCH   3   6
ENDBRANCH   2   3
ENDBRANCH   1   2
BRANCH   1   9
ATOM      9  C   UNL     1       5.905 -33.697  14.667  1.00  0.00    -0.011 C 
ATOM     10  C   UNL     1       5.899 -35.125  15.249  1.00  0.00     0.008 C 
BRANCH   9  11
ATOM     11  C   UNL     1       7.002 -33.379  13.590  1.00  0.00    -0.002 C 
ATOM     12  C   UNL     1       8.062 -34.461  13.450  1.00  0.00     0.005 C 
ATOM     13  C   UNL     1       7.785 -32.018  13.551  1.00  0.00    -0.026 C 
ATOM     14  C   UNL     1       9.047 -33.868  12.469  1.00  0.00     0.005 C 
ATOM     15  C   UNL     1       9.132 -32.366  12.811  1.00  0.00    -0.001 C 
ATOM     16  C   UNL     1       8.070 -31.438  14.961  1.00  0.00     0.007 C 
ATOM     17  C   UNL     1       6.983 -30.978  12.716  1.00  0.00     0.012 C 
ATOM     18  C   UNL     1      10.445 -32.067  13.617  1.00  0.00     0.000 C 
ATOM     19  C   UNL     1       9.059 -30.273  14.906  1.00  0.00     0.005 C 
ATOM     20  C   UNL     1      10.452 -30.698  14.373  1.00  0.00     0.003 C 
ATOM     21  C   UNL     1      11.709 -32.290  12.734  1.00  0.00     0.031 C 
ATOM     22  C   UNL     1      11.250 -29.544  13.655  1.00  0.00    -0.008 C 
ATOM     23  C   UNL     1      12.848 -31.345  12.994  1.00  0.00    -0.027 C 
ATOM     24  C   UNL     1      12.658 -30.060  13.350  1.00  0.00    -0.065 C 
ATOM     25  C   UNL     1      11.327 -28.318  14.621  1.00  0.00     0.014 C 
ATOM     26  C   UNL     1      10.592 -29.110  12.323  1.00  0.00     0.016 C 
ATOM     27  C   UNL     1      13.812 -29.091  13.178  1.00  0.00     0.063 C 
ATOM     28  C   UNL     1      12.418 -27.302  14.261  1.00  0.00     0.033 C 
ATOM     29  C   UNL     1      13.794 -27.968  14.218  1.00  0.00     0.118 C 
BRANCH  29  30
ATOM     30  O   UNL     1      14.123 -28.468  15.492  1.00  0.00    -0.393 OA
ATOM     31  H   UNL     1      14.443 -29.400  15.357  1.00  0.00     0.210 HD
ENDBRANCH  29  30
ENDBRANCH   9  11
ENDBRANCH   1   9
TORSDOF 7
ENDMDL
MODEL 3
REMARK VINA RESULT:     6.798      1.491      2.508
REMARK INTER + INTRA:           8.501
REMARK INTER:                   8.199
REMARK INTRA:                   0.301
REMARK UNBOUND:                -0.880
REMARK SMILES CC[C@@H](CC[C@H](C)[C@@H]1CC[C@@H]2[C@H]3CC=C4C[C@H](O)CC[C@]4(C)[C@H]3CC[C@@]21C)C(C)C
REMARK SMILES IDX 5 1 4 2 3 3 2 4 1 5 28 6 29 7 30 8 6 9 7 10 8 11 9 12 26 13
REMARK SMILES IDX 10 14 11 15 25 16 27 17 12 18 24 19 23 20 13 21 21 22 14 23
REMARK SMILES IDX 15 24 20 25 22 26 16 27 19 28 17 29 18 30
REMARK H PARENT 18 31
REMARK Flexibility Score: inf
ROOT
ATOM      1  C   UNL     1      12.206 -32.656  11.903  1.00  0.00     0.004 C 
ENDROOT
BRANCH   1   2
ATOM      2  C   UNL     1      12.759 -31.576  12.864  1.00  0.00     0.004 C 
BRANCH   2   3
ATOM      3  C   UNL     1      11.733 -30.544  13.432  1.00  0.00    -0.009 C 
BRANCH   3   4
ATOM      4  C   UNL     1      10.998 -29.815  12.270  1.00  0.00     0.000 C 
ATOM      5  C   UNL     1       9.994 -28.757  12.731  1.00  0.00     0.004 C 
ENDBRANCH   3   4
BRANCH   3   6
ATOM      6  C   UNL     1      12.376 -29.506  14.438  1.00  0.00    -0.014 C 
ATOM      7  C   UNL     1      13.393 -28.599  13.720  1.00  0.00     0.007 C 
ATOM      8  C   UNL     1      11.385 -28.605  15.200  1.00  0.00     0.007 C 
ENDBRANCH   3   6
ENDBRANCH   2   3
ENDBRANCH   1   2
BRANCH   1   9
ATOM      9  C   UNL     1      11.336 -33.755  12.568  1.00  0.00    -0.011 C 
ATOM     10  C   UNL     1      11.523 -35.120  11.875  1.00  0.00     0.008 C 
BRANCH   9  11
ATOM     11  C   UNL     1       9.860 -33.272  12.787  1.00  0.00    -0.002 C 
ATOM     12  C   UNL     1       9.470 -32.070  11.940  1.00  0.00     0.005 C 
ATOM     13  C   UNL     1       9.261 -32.989  14.212  1.00  0.00    -0.026 C 
ATOM     14  C   UNL     1       8.078 -31.730  12.423  1.00  0.00     0.005 C 
ATOM     15  C   UNL     1       8.091 -31.968  13.947  1.00  0.00    -0.001 C 
ATOM     16  C   UNL     1      10.295 -32.392  15.201  1.00  0.00     0.007 C 
ATOM     17  C   UNL     1       8.681 -34.307  14.804  1.00  0.00     0.012 C 
ATOM     18  C   UNL     1       8.200 -30.600  14.709  1.00  0.00     0.000 C 
ATOM     19  C   UNL     1       9.628 -31.877  16.478  1.00  0.00     0.005 C 
ATOM     20  C   UNL     1       8.637 -30.716  16.206  1.00  0.00     0.003 C 
ATOM     21  C   UNL     1       6.918 -29.740  14.506  1.00  0.00     0.031 C 
ATOM     22  C   UNL     1       7.463 -30.610  17.252  1.00  0.00    -0.008 C 
ATOM     23  C   UNL     1       6.505 -28.914  15.691  1.00  0.00    -0.027 C 
ATOM     24  C   UNL     1       6.683 -29.326  16.960  1.00  0.00    -0.065 C 
ATOM     25  C   UNL     1       8.081 -30.546  18.687  1.00  0.00     0.014 C 
ATOM     26  C   UNL     1       6.483 -31.805  17.166  1.00  0.00     0.016 C 
ATOM     27  C   UNL     1       5.875 -28.651  18.053  1.00  0.00     0.063 C 
ATOM     28  C   UNL     1       7.125 -30.010  19.758  1.00  0.00     0.033 C 
ATOM     29  C   UNL     1       6.617 -28.614  19.392  1.00  0.00     0.118 C 
BRANCH  29  30
ATOM     30  O   UNL     1       7.696 -27.713  19.334  1.00  0.00    -0.393 OA
ATOM     31  H   UNL     1       8.517 -28.241  19.519  1.00  0.00     0.210 HD
ENDBRANCH  29  30
ENDBRANCH   9  11
ENDBRANCH   1   9
TORSDOF 7
ENDMDL
MODEL 4
REMARK VINA RESULT:     7.031      2.138      5.832
REMARK INTER + INTRA:           8.823
REMARK INTER:                   9.331
REMARK INTRA:                  -0.509
REMARK UNBOUND:                -0.880
REMARK SMILES CC[C@@H](CC[C@H](C)[C@@H]1CC[C@@H]2[C@H]3CC=C4C[C@H](O)CC[C@]4(C)[C@H]3CC[C@@]21C)C(C)C
REMARK SMILES IDX 5 1 4 2 3 3 2 4 1 5 28 6 29 7 30 8 6 9 7 10 8 11 9 12 26 13
REMARK SMILES IDX 10 14 11 15 25 16 27 17 12 18 24 19 23 20 13 21 21 22 14 23
REMARK SMILES IDX 15 24 20 25 22 26 16 27 19 28 17 29 18 30
REMARK H PARENT 18 31
REMARK Flexibility Score: inf
ROOT
ATOM      1  C   UNL     1       5.876 -32.649  15.129  1.00  0.00     0.004 C 
ENDROOT
BRANCH   1   2
ATOM      2  C   UNL     1       6.033 -33.344  16.502  1.00  0.00     0.004 C 
BRANCH   2   3
ATOM      3  C   UNL     1       6.571 -32.470  17.680  1.00  0.00    -0.009 C 
BRANCH   3   4
ATOM      4  C   UNL     1       6.464 -30.958  17.325  1.00  0.00     0.000 C 
ATOM      5  C   UNL     1       7.160 -30.031  18.324  1.00  0.00     0.004 C 
ENDBRANCH   3   4
BRANCH   3   6
ATOM      6  C   UNL     1       8.041 -32.847  18.125  1.00  0.00    -0.014 C 
ATOM      7  C   UNL     1       8.034 -34.049  19.089  1.00  0.00     0.007 C 
ATOM      8  C   UNL     1       9.032 -33.152  16.986  1.00  0.00     0.007 C 
ENDBRANCH   3   6
ENDBRANCH   2   3
ENDBRANCH   1   2
BRANCH   1   9
ATOM      9  C   UNL     1       5.950 -33.586  13.896  1.00  0.00    -0.011 C 
ATOM     10  C   UNL     1       5.879 -35.070  14.309  1.00  0.00     0.008 C 
BRANCH   9  11
ATOM     11  C   UNL     1       7.115 -33.179  12.927  1.00  0.00    -0.002 C 
ATOM     12  C   UNL     1       8.179 -34.251  12.755  1.00  0.00     0.005 C 
ATOM     13  C   UNL     1       7.903 -31.827  13.067  1.00  0.00    -0.026 C 
ATOM     14  C   UNL     1       9.228 -33.578  11.899  1.00  0.00     0.005 C 
ATOM     15  C   UNL     1       9.294 -32.116  12.386  1.00  0.00    -0.001 C 
ATOM     16  C   UNL     1       8.097 -31.383  14.540  1.00  0.00     0.007 C 
ATOM     17  C   UNL     1       7.159 -30.706  12.283  1.00  0.00     0.012 C 
ATOM     18  C   UNL     1      10.553 -31.904  13.298  1.00  0.00     0.000 C 
ATOM     19  C   UNL     1       9.090 -30.227  14.658  1.00  0.00     0.005 C 
ATOM     20  C   UNL     1      10.514 -30.612  14.179  1.00  0.00     0.003 C 
ATOM     21  C   UNL     1      11.870 -32.054  12.482  1.00  0.00     0.031 C 
ATOM     22  C   UNL     1      11.360 -29.403  13.625  1.00  0.00    -0.008 C 
ATOM     23  C   UNL     1      12.993 -31.148  12.902  1.00  0.00    -0.027 C 
ATOM     24  C   UNL     1      12.783 -29.900  13.364  1.00  0.00    -0.065 C 
ATOM     25  C   UNL     1      11.377 -28.273  14.705  1.00  0.00     0.014 C 
ATOM     26  C   UNL     1      10.791 -28.840  12.300  1.00  0.00     0.016 C 
ATOM     27  C   UNL     1      13.949 -28.929  13.359  1.00  0.00     0.063 C 
ATOM     28  C   UNL     1      12.491 -27.238  14.513  1.00  0.00     0.033 C 
ATOM     29  C   UNL     1      13.866 -27.908  14.497  1.00  0.00     0.118 C 
BRANCH  29  30
ATOM     30  O   UNL     1      14.110 -28.528  15.736  1.00  0.00    -0.393 OA
ATOM     31  H   UNL     1      13.358 -28.273  16.334  1.00  0.00     0.210 HD
ENDBRANCH  29  30
ENDBRANCH   9  11
ENDBRANCH   1   9
TORSDOF 7
ENDMDL
MODEL 5
REMARK VINA RESULT:     7.869      0.898      1.173
REMARK INTER + INTRA:           9.979
REMARK INTER:                   9.889
REMARK INTRA:                   0.090
REMARK UNBOUND:                -0.880
REMARK SMILES CC[C@@H](CC[C@H](C)[C@@H]1CC[C@@H]2[C@H]3CC=C4C[C@H](O)CC[C@]4(C)[C@H]3CC[C@@]21C)C(C)C
REMARK SMILES IDX 5 1 4 2 3 3 2 4 1 5 28 6 29 7 30 8 6 9 7 10 8 11 9 12 26 13
REMARK SMILES IDX 10 14 11 15 25 16 27 17 12 18 24 19 23 20 13 21 21 22 14 23
REMARK SMILES IDX 15 24 20 25 22 26 16 27 19 28 17 29 18 30
REMARK H PARENT 18 31
REMARK Flexibility Score: inf
ROOT
ATOM      1  C   UNL     1       9.638 -34.213  13.529  1.00  0.00     0.004 C 
ENDROOT
BRANCH   1   2
ATOM      2  C   UNL     1      10.257 -33.746  12.190  1.00  0.00     0.004 C 
BRANCH   2   3
ATOM      3  C   UNL     1      11.266 -32.555  12.255  1.00  0.00    -0.009 C 
BRANCH   3   4
ATOM      4  C   UNL     1      12.372 -32.839  13.312  1.00  0.00     0.000 C 
ATOM      5  C   UNL     1      12.248 -34.202  13.997  1.00  0.00     0.004 C 
ENDBRANCH   3   4
BRANCH   3   6
ATOM      6  C   UNL     1      10.575 -31.157  12.517  1.00  0.00    -0.014 C 
ATOM      7  C   UNL     1       9.107 -31.171  12.050  1.00  0.00     0.007 C 
ATOM      8  C   UNL     1      10.610 -30.650  13.971  1.00  0.00     0.007 C 
ENDBRANCH   3   6
ENDBRANCH   2   3
ENDBRANCH   1   2
BRANCH   1   9
ATOM      9  C   UNL     1       8.173 -34.715  13.446  1.00  0.00    -0.011 C 
ATOM     10  C   UNL     1       7.797 -35.125  12.008  1.00  0.00     0.008 C 
BRANCH   9  11
ATOM     11  C   UNL     1       7.185 -33.746  14.184  1.00  0.00    -0.002 C 
ATOM     12  C   UNL     1       6.693 -32.591  13.324  1.00  0.00     0.005 C 
ATOM     13  C   UNL     1       7.503 -33.115  15.588  1.00  0.00    -0.026 C 
ATOM     14  C   UNL     1       5.880 -31.753  14.284  1.00  0.00     0.005 C 
ATOM     15  C   UNL     1       6.634 -31.800  15.629  1.00  0.00    -0.001 C 
ATOM     16  C   UNL     1       9.005 -32.784  15.781  1.00  0.00     0.007 C 
ATOM     17  C   UNL     1       7.038 -34.085  16.713  1.00  0.00     0.012 C 
ATOM     18  C   UNL     1       7.432 -30.467  15.850  1.00  0.00     0.000 C 
ATOM     19  C   UNL     1       9.242 -31.930  17.028  1.00  0.00     0.005 C 
ATOM     20  C   UNL     1       8.548 -30.546  16.944  1.00  0.00     0.003 C 
ATOM     21  C   UNL     1       6.467 -29.260  16.040  1.00  0.00     0.031 C 
ATOM     22  C   UNL     1       8.156 -29.932  18.341  1.00  0.00    -0.008 C 
ATOM     23  C   UNL     1       6.935 -28.210  17.008  1.00  0.00    -0.027 C 
ATOM     24  C   UNL     1       7.652 -28.506  18.108  1.00  0.00    -0.065 C 
ATOM     25  C   UNL     1       9.429 -29.910  19.248  1.00  0.00     0.014 C 
ATOM     26  C   UNL     1       7.035 -30.734  19.046  1.00  0.00     0.016 C 
ATOM     27  C   UNL     1       7.714 -27.477  19.221  1.00  0.00     0.063 C 
ATOM     28  C   UNL     1       9.326 -28.964  20.450  1.00  0.00     0.033 C 
ATOM     29  C   UNL     1       9.033 -27.532  19.998  1.00  0.00     0.118 C 
BRANCH  29  30
ATOM     30  O   UNL     1      10.093 -27.054  19.206  1.00  0.00    -0.393 OA
ATOM     31  H   UNL     1      10.857 -27.674  19.350  1.00  0.00     0.210 HD
ENDBRANCH  29  30
ENDBRANCH   9  11
ENDBRANCH   1   9
TORSDOF 7
ENDMDL
