MODEL 1
REMARK VINA RESULT:    -7.411      0.000      0.000
REMARK INTER + INTRA:         -12.572
REMARK INTER:                 -10.228
REMARK INTRA:                  -2.345
REMARK UNBOUND:                -2.345
REMARK SMILES CC[C@H](CC[C@H](C)[C@H]1CC[C@@H]2[C@@H]3CC=C4C[C@H](O)CC[C@]4(C)[C@@H]3CC[C@@]21C)C(C)C
REMARK SMILES IDX 5 1 4 2 3 3 2 4 1 5 28 6 29 7 30 8 6 9 7 10 8 11 9 12 26 13
REMARK SMILES IDX 10 14 11 15 25 16 27 17 12 18 24 19 23 20 13 21 21 22 14 23
REMARK SMILES IDX 15 24 20 25 22 26 16 27 19 28 17 29 18 30
REMARK H PARENT 18 31
REMARK Flexibility Score: inf
ROOT
ATOM      1  C   UNL     1     -26.842  56.270  -0.242  1.00  0.00     0.004 C 
ENDROOT
BRANCH   1   2
ATOM      2  C   UNL     1     -26.341  57.562   0.444  1.00  0.00     0.004 C 
BRANCH   2   3
ATOM      3  C   UNL     1     -26.031  58.766  -0.496  1.00  0.00    -0.009 C 
BRANCH   3   4
ATOM      4  C   UNL     1     -24.893  59.645   0.091  1.00  0.00     0.000 C 
ATOM      5  C   UNL     1     -24.062  58.983   1.191  1.00  0.00     0.004 C 
ENDBRANCH   3   4
BRANCH   3   6
ATOM      6  C   UNL     1     -25.789  58.421  -2.011  1.00  0.00    -0.014 C 
ATOM      7  C   UNL     1     -27.027  58.558  -2.917  1.00  0.00     0.007 C 
ATOM      8  C   UNL     1     -24.614  59.216  -2.606  1.00  0.00     0.007 C 
ENDBRANCH   3   6
ENDBRANCH   2   3
ENDBRANCH   1   2
BRANCH   1   9
ATOM      9  C   UNL     1     -25.899  55.036  -0.146  1.00  0.00    -0.011 C 
ATOM     10  C   UNL     1     -26.382  54.052   0.940  1.00  0.00     0.008 C 
BRANCH   9  11
ATOM     11  C   UNL     1     -24.402  55.500   0.028  1.00  0.00    -0.002 C 
ATOM     12  C   UNL     1     -23.689  54.793   1.188  1.00  0.00     0.005 C 
ATOM     13  C   UNL     1     -23.428  55.347  -1.201  1.00  0.00    -0.026 C 
ATOM     14  C   UNL     1     -22.876  53.669   0.571  1.00  0.00     0.005 C 
ATOM     15  C   UNL     1     -22.528  54.110  -0.863  1.00  0.00    -0.001 C 
ATOM     16  C   UNL     1     -22.563  56.634  -1.316  1.00  0.00     0.007 C 
ATOM     17  C   UNL     1     -24.166  55.162  -2.559  1.00  0.00     0.012 C 
ATOM     18  C   UNL     1     -20.988  54.292  -1.119  1.00  0.00     0.000 C 
ATOM     19  C   UNL     1     -21.389  56.525  -2.309  1.00  0.00     0.005 C 
ATOM     20  C   UNL     1     -20.741  55.109  -2.411  1.00  0.00     0.003 C 
ATOM     21  C   UNL     1     -20.152  54.849   0.073  1.00  0.00     0.031 C 
ATOM     22  C   UNL     1     -19.206  55.152  -2.753  1.00  0.00    -0.008 C 
ATOM     23  C   UNL     1     -18.882  55.581  -0.307  1.00  0.00    -0.027 C 
ATOM     24  C   UNL     1     -18.451  55.756  -1.575  1.00  0.00    -0.065 C 
ATOM     25  C   UNL     1     -18.954  56.010  -4.031  1.00  0.00     0.014 C 
ATOM     26  C   UNL     1     -18.680  53.712  -3.014  1.00  0.00     0.016 C 
ATOM     27  C   UNL     1     -17.279  56.679  -1.831  1.00  0.00     0.063 C 
ATOM     28  C   UNL     1     -17.461  56.249  -4.355  1.00  0.00     0.033 C 
ATOM     29  C   UNL     1     -16.532  56.298  -3.118  1.00  0.00     0.118 C 
BRANCH  29  30
ATOM     30  O   UNL     1     -15.496  57.215  -3.357  1.00  0.00    -0.393 OA
ATOM     31  H   UNL     1     -15.281  57.164  -4.325  1.00  0.00     0.210 HD
ENDBRANCH  29  30
ENDBRANCH   9  11
ENDBRANCH   1   9
TORSDOF 7
ENDMDL
MODEL 2
REMARK VINA RESULT:    -6.934      1.794      3.107
REMARK INTER + INTRA:         -11.913
REMARK INTER:                  -9.935
REMARK INTRA:                  -1.978
REMARK UNBOUND:                -2.345
REMARK SMILES CC[C@H](CC[C@H](C)[C@H]1CC[C@@H]2[C@@H]3CC=C4C[C@H](O)CC[C@]4(C)[C@@H]3CC[C@@]21C)C(C)C
REMARK SMILES IDX 5 1 4 2 3 3 2 4 1 5 28 6 29 7 30 8 6 9 7 10 8 11 9 12 26 13
REMARK SMILES IDX 10 14 11 15 25 16 27 17 12 18 24 19 23 20 13 21 21 22 14 23
REMARK SMILES IDX 15 24 20 25 22 26 16 27 19 28 17 29 18 30
REMARK H PARENT 18 31
REMARK Flexibility Score: inf
ROOT
ATOM      1  C   UNL     1     -26.515  58.486  -0.154  1.00  0.00     0.004 C 
ENDROOT
BRANCH   1   2
ATOM      2  C   UNL     1     -25.666  58.461   1.139  1.00  0.00     0.004 C 
BRANCH   2   3
ATOM      3  C   UNL     1     -24.930  59.786   1.506  1.00  0.00    -0.009 C 
BRANCH   3   4
ATOM      4  C   UNL     1     -25.908  60.793   2.170  1.00  0.00     0.000 C 
ATOM      5  C   UNL     1     -26.382  60.410   3.573  1.00  0.00     0.004 C 
ENDBRANCH   3   4
BRANCH   3   6
ATOM      6  C   UNL     1     -23.593  59.635   2.320  1.00  0.00    -0.014 C 
ATOM      7  C   UNL     1     -23.394  58.268   2.999  1.00  0.00     0.007 C 
ATOM      8  C   UNL     1     -22.357  59.985   1.474  1.00  0.00     0.007 C 
ENDBRANCH   3   6
ENDBRANCH   2   3
ENDBRANCH   1   2
BRANCH   1   9
ATOM      9  C   UNL     1     -25.972  57.642  -1.343  1.00  0.00    -0.011 C 
ATOM     10  C   UNL     1     -27.125  56.962  -2.112  1.00  0.00     0.008 C 
BRANCH   9  11
ATOM     11  C   UNL     1     -24.856  56.645  -0.846  1.00  0.00    -0.002 C 
ATOM     12  C   UNL     1     -25.148  55.186  -1.221  1.00  0.00     0.005 C 
ATOM     13  C   UNL     1     -23.373  56.896  -1.316  1.00  0.00    -0.026 C 
ATOM     14  C   UNL     1     -24.332  54.891  -2.465  1.00  0.00     0.005 C 
ATOM     15  C   UNL     1     -23.101  55.816  -2.418  1.00  0.00    -0.001 C 
ATOM     16  C   UNL     1     -22.422  56.687  -0.102  1.00  0.00     0.007 C 
ATOM     17  C   UNL     1     -23.126  58.335  -1.854  1.00  0.00     0.012 C 
ATOM     18  C   UNL     1     -21.732  55.052  -2.306  1.00  0.00     0.000 C 
ATOM     19  C   UNL     1     -20.925  56.643  -0.468  1.00  0.00     0.005 C 
ATOM     20  C   UNL     1     -20.604  56.014  -1.859  1.00  0.00     0.003 C 
ATOM     21  C   UNL     1     -21.737  53.748  -1.452  1.00  0.00     0.031 C 
ATOM     22  C   UNL     1     -19.209  55.288  -1.904  1.00  0.00    -0.008 C 
ATOM     23  C   UNL     1     -20.406  53.361  -0.843  1.00  0.00    -0.027 C 
ATOM     24  C   UNL     1     -19.260  54.056  -1.009  1.00  0.00    -0.065 C 
ATOM     25  C   UNL     1     -18.078  56.244  -1.413  1.00  0.00     0.014 C 
ATOM     26  C   UNL     1     -18.885  54.850  -3.360  1.00  0.00     0.016 C 
ATOM     27  C   UNL     1     -18.048  53.679  -0.183  1.00  0.00     0.063 C 
ATOM     28  C   UNL     1     -16.694  55.572  -1.265  1.00  0.00     0.033 C 
ATOM     29  C   UNL     1     -16.742  54.072  -0.889  1.00  0.00     0.118 C 
BRANCH  29  30
ATOM     30  O   UNL     1     -15.646  53.769  -0.065  1.00  0.00    -0.393 OA
ATOM     31  H   UNL     1     -16.011  53.370   0.769  1.00  0.00     0.210 HD
ENDBRANCH  29  30
ENDBRANCH   9  11
ENDBRANCH   1   9
TORSDOF 7
ENDMDL
MODEL 3
REMARK VINA RESULT:    -6.857      2.859      7.672
REMARK INTER + INTRA:         -11.807
REMARK INTER:                  -9.793
REMARK INTRA:                  -2.014
REMARK UNBOUND:                -2.345
REMARK SMILES CC[C@H](CC[C@H](C)[C@H]1CC[C@@H]2[C@@H]3CC=C4C[C@H](O)CC[C@]4(C)[C@@H]3CC[C@@]21C)C(C)C
REMARK SMILES IDX 5 1 4 2 3 3 2 4 1 5 28 6 29 7 30 8 6 9 7 10 8 11 9 12 26 13
REMARK SMILES IDX 10 14 11 15 25 16 27 17 12 18 24 19 23 20 13 21 21 22 14 23
REMARK SMILES IDX 15 24 20 25 22 26 16 27 19 28 17 29 18 30
REMARK H PARENT 18 31
REMARK Flexibility Score: inf
ROOT
ATOM      1  C   UNL     1     -18.509  53.227  -0.861  1.00  0.00     0.004 C 
ENDROOT
BRANCH   1   2
ATOM      2  C   UNL     1     -18.151  54.338   0.153  1.00  0.00     0.004 C 
BRANCH   2   3
ATOM      3  C   UNL     1     -16.953  55.259  -0.229  1.00  0.00    -0.009 C 
BRANCH   3   4
ATOM      4  C   UNL     1     -16.368  54.858  -1.611  1.00  0.00     0.000 C 
ATOM      5  C   UNL     1     -16.655  55.839  -2.748  1.00  0.00     0.004 C 
ENDBRANCH   3   4
BRANCH   3   6
ATOM      6  C   UNL     1     -17.205  56.808  -0.122  1.00  0.00    -0.014 C 
ATOM      7  C   UNL     1     -18.362  57.216   0.809  1.00  0.00     0.007 C 
ATOM      8  C   UNL     1     -15.929  57.577   0.259  1.00  0.00     0.007 C 
ENDBRANCH   3   6
ENDBRANCH   2   3
ENDBRANCH   1   2
BRANCH   1   9
ATOM      9  C   UNL     1     -19.682  53.543  -1.835  1.00  0.00    -0.011 C 
ATOM     10  C   UNL     1     -19.269  53.289  -3.300  1.00  0.00     0.008 C 
BRANCH   9  11
ATOM     11  C   UNL     1     -20.242  54.993  -1.567  1.00  0.00    -0.002 C 
ATOM     12  C   UNL     1     -20.123  55.914  -2.789  1.00  0.00     0.005 C 
ATOM     13  C   UNL     1     -21.739  55.136  -1.096  1.00  0.00    -0.026 C 
ATOM     14  C   UNL     1     -21.484  55.916  -3.459  1.00  0.00     0.005 C 
ATOM     15  C   UNL     1     -22.522  55.639  -2.356  1.00  0.00    -0.001 C 
ATOM     16  C   UNL     1     -21.805  56.192   0.044  1.00  0.00     0.007 C 
ATOM     17  C   UNL     1     -22.344  53.815  -0.539  1.00  0.00     0.012 C 
ATOM     18  C   UNL     1     -23.525  56.824  -2.111  1.00  0.00     0.000 C 
ATOM     19  C   UNL     1     -23.234  56.627   0.426  1.00  0.00     0.005 C 
ATOM     20  C   UNL     1     -24.253  56.653  -0.755  1.00  0.00     0.003 C 
ATOM     21  C   UNL     1     -22.945  58.262  -2.267  1.00  0.00     0.031 C 
ATOM     22  C   UNL     1     -25.370  57.748  -0.585  1.00  0.00    -0.008 C 
ATOM     23  C   UNL     1     -23.658  59.342  -1.479  1.00  0.00    -0.027 C 
ATOM     24  C   UNL     1     -24.734  59.129  -0.692  1.00  0.00    -0.065 C 
ATOM     25  C   UNL     1     -26.074  57.602   0.799  1.00  0.00     0.014 C 
ATOM     26  C   UNL     1     -26.441  57.591  -1.702  1.00  0.00     0.016 C 
ATOM     27  C   UNL     1     -25.225  60.250   0.199  1.00  0.00     0.063 C 
ATOM     28  C   UNL     1     -27.075  58.734   1.128  1.00  0.00     0.033 C 
ATOM     29  C   UNL     1     -26.722  60.107   0.511  1.00  0.00     0.118 C 
BRANCH  29  30
ATOM     30  O   UNL     1     -27.124  61.125   1.391  1.00  0.00    -0.393 OA
ATOM     31  H   UNL     1     -26.919  61.990   0.948  1.00  0.00     0.210 HD
ENDBRANCH  29  30
ENDBRANCH   9  11
ENDBRANCH   1   9
TORSDOF 7
ENDMDL
MODEL 4
REMARK VINA RESULT:    -6.840      1.502      3.195
REMARK INTER + INTRA:         -11.785
REMARK INTER:                 -11.049
REMARK INTRA:                  -0.735
REMARK UNBOUND:                -2.345
REMARK SMILES CC[C@H](CC[C@H](C)[C@H]1CC[C@@H]2[C@@H]3CC=C4C[C@H](O)CC[C@]4(C)[C@@H]3CC[C@@]21C)C(C)C
REMARK SMILES IDX 5 1 4 2 3 3 2 4 1 5 28 6 29 7 30 8 6 9 7 10 8 11 9 12 26 13
REMARK SMILES IDX 10 14 11 15 25 16 27 17 12 18 24 19 23 20 13 21 21 22 14 23
REMARK SMILES IDX 15 24 20 25 22 26 16 27 19 28 17 29 18 30
REMARK H PARENT 18 31
REMARK Flexibility Score: inf
ROOT
ATOM      1  C   UNL     1     -26.479  56.801  -0.910  1.00  0.00     0.004 C 
ENDROOT
BRANCH   1   2
ATOM      2  C   UNL     1     -26.386  57.561   0.434  1.00  0.00     0.004 C 
BRANCH   2   3
ATOM      3  C   UNL     1     -25.162  58.511   0.606  1.00  0.00    -0.009 C 
BRANCH   3   4
ATOM      4  C   UNL     1     -25.499  59.940   0.102  1.00  0.00     0.000 C 
ATOM      5  C   UNL     1     -24.509  60.525  -0.906  1.00  0.00     0.004 C 
ENDBRANCH   3   4
BRANCH   3   6
ATOM      6  C   UNL     1     -24.491  58.530   2.029  1.00  0.00    -0.014 C 
ATOM      7  C   UNL     1     -22.967  58.314   2.032  1.00  0.00     0.007 C 
ATOM      8  C   UNL     1     -24.843  59.802   2.818  1.00  0.00     0.007 C 
ENDBRANCH   3   6
ENDBRANCH   2   3
ENDBRANCH   1   2
BRANCH   1   9
ATOM      9  C   UNL     1     -26.106  55.291  -0.868  1.00  0.00    -0.011 C 
ATOM     10  C   UNL     1     -26.197  54.737   0.570  1.00  0.00     0.008 C 
BRANCH   9  11
ATOM     11  C   UNL     1     -24.710  55.050  -1.561  1.00  0.00    -0.002 C 
ATOM     12  C   UNL     1     -24.422  56.051  -2.688  1.00  0.00     0.005 C 
ATOM     13  C   UNL     1     -23.418  55.072  -0.659  1.00  0.00    -0.026 C 
ATOM     14  C   UNL     1     -23.522  57.119  -2.095  1.00  0.00     0.005 C 
ATOM     15  C   UNL     1     -22.732  56.448  -0.956  1.00  0.00    -0.001 C 
ATOM     16  C   UNL     1     -22.491  53.898  -1.086  1.00  0.00     0.007 C 
ATOM     17  C   UNL     1     -23.717  54.898   0.858  1.00  0.00     0.012 C 
ATOM     18  C   UNL     1     -21.179  56.402  -1.197  1.00  0.00     0.000 C 
ATOM     19  C   UNL     1     -21.078  53.948  -0.471  1.00  0.00     0.005 C 
ATOM     20  C   UNL     1     -20.508  55.382  -0.245  1.00  0.00     0.003 C 
ATOM     21  C   UNL     1     -20.716  56.193  -2.670  1.00  0.00     0.031 C 
ATOM     22  C   UNL     1     -18.941  55.454  -0.374  1.00  0.00    -0.008 C 
ATOM     23  C   UNL     1     -19.353  55.555  -2.843  1.00  0.00    -0.027 C 
ATOM     24  C   UNL     1     -18.549  55.187  -1.822  1.00  0.00    -0.065 C 
ATOM     25  C   UNL     1     -18.266  54.397   0.554  1.00  0.00     0.014 C 
ATOM     26  C   UNL     1     -18.438  56.866   0.040  1.00  0.00     0.016 C 
ATOM     27  C   UNL     1     -17.306  54.376  -2.124  1.00  0.00     0.063 C 
ATOM     28  C   UNL     1     -16.735  54.277   0.376  1.00  0.00     0.033 C 
ATOM     29  C   UNL     1     -16.226  54.582  -1.052  1.00  0.00     0.118 C 
BRANCH  29  30
ATOM     30  O   UNL     1     -15.118  53.764  -1.330  1.00  0.00    -0.393 OA
ATOM     31  H   UNL     1     -14.313  54.345  -1.300  1.00  0.00     0.210 HD
ENDBRANCH  29  30
ENDBRANCH   9  11
ENDBRANCH   1   9
TORSDOF 7
ENDMDL
MODEL 5
REMARK VINA RESULT:    -6.693      2.666      7.390
REMARK INTER + INTRA:         -11.581
REMARK INTER:                  -9.806
REMARK INTRA:                  -1.775
REMARK UNBOUND:                -2.345
REMARK SMILES CC[C@H](CC[C@H](C)[C@H]1CC[C@@H]2[C@@H]3CC=C4C[C@H](O)CC[C@]4(C)[C@@H]3CC[C@@]21C)C(C)C
REMARK SMILES IDX 5 1 4 2 3 3 2 4 1 5 28 6 29 7 30 8 6 9 7 10 8 11 9 12 26 13
REMARK SMILES IDX 10 14 11 15 25 16 27 17 12 18 24 19 23 20 13 21 21 22 14 23
REMARK SMILES IDX 15 24 20 25 22 26 16 27 19 28 17 29 18 30
REMARK H PARENT 18 31
REMARK Flexibility Score: inf
ROOT
ATOM      1  C   UNL     1     -18.780  53.003  -1.405  1.00  0.00     0.004 C 
ENDROOT
BRANCH   1   2
ATOM      2  C   UNL     1     -18.385  54.067  -2.456  1.00  0.00     0.004 C 
BRANCH   2   3
ATOM      3  C   UNL     1     -17.121  54.920  -2.131  1.00  0.00    -0.009 C 
BRANCH   3   4
ATOM      4  C   UNL     1     -17.012  56.131  -3.097  1.00  0.00     0.000 C 
ATOM      5  C   UNL     1     -18.324  56.558  -3.757  1.00  0.00     0.004 C 
ENDBRANCH   3   4
BRANCH   3   6
ATOM      6  C   UNL     1     -16.937  55.345  -0.628  1.00  0.00    -0.014 C 
ATOM      7  C   UNL     1     -15.815  54.605   0.125  1.00  0.00     0.007 C 
ATOM      8  C   UNL     1     -16.758  56.864  -0.473  1.00  0.00     0.007 C 
ENDBRANCH   3   6
ENDBRANCH   2   3
ENDBRANCH   1   2
BRANCH   1   9
ATOM      9  C   UNL     1     -19.878  53.424  -0.385  1.00  0.00    -0.011 C 
ATOM     10  C   UNL     1     -20.186  52.279   0.603  1.00  0.00     0.008 C 
BRANCH   9  11
ATOM     11  C   UNL     1     -21.146  53.979  -1.141  1.00  0.00    -0.002 C 
ATOM     12  C   UNL     1     -22.427  53.202  -0.808  1.00  0.00     0.005 C 
ATOM     13  C   UNL     1     -21.527  55.495  -0.940  1.00  0.00    -0.026 C 
ATOM     14  C   UNL     1     -23.161  54.014   0.243  1.00  0.00     0.005 C 
ATOM     15  C   UNL     1     -22.762  55.485   0.024  1.00  0.00    -0.001 C 
ATOM     16  C   UNL     1     -21.918  56.098  -2.320  1.00  0.00     0.007 C 
ATOM     17  C   UNL     1     -20.364  56.357  -0.371  1.00  0.00     0.012 C 
ATOM     18  C   UNL     1     -23.959  56.417  -0.386  1.00  0.00     0.000 C 
ATOM     19  C   UNL     1     -22.562  57.497  -2.242  1.00  0.00     0.005 C 
ATOM     20  C   UNL     1     -23.437  57.751  -0.976  1.00  0.00     0.003 C 
ATOM     21  C   UNL     1     -25.047  55.780  -1.302  1.00  0.00     0.031 C 
ATOM     22  C   UNL     1     -24.629  58.745  -1.235  1.00  0.00    -0.008 C 
ATOM     23  C   UNL     1     -25.821  56.750  -2.170  1.00  0.00    -0.027 C 
ATOM     24  C   UNL     1     -25.629  58.087  -2.178  1.00  0.00    -0.065 C 
ATOM     25  C   UNL     1     -24.108  60.072  -1.868  1.00  0.00     0.014 C 
ATOM     26  C   UNL     1     -25.338  59.085   0.107  1.00  0.00     0.016 C 
ATOM     27  C   UNL     1     -26.321  58.921  -3.236  1.00  0.00     0.063 C 
ATOM     28  C   UNL     1     -25.222  61.048  -2.311  1.00  0.00     0.033 C 
ATOM     29  C   UNL     1     -26.535  60.366  -2.762  1.00  0.00     0.118 C 
BRANCH  29  30
ATOM     30  O   UNL     1     -27.117  61.123  -3.793  1.00  0.00    -0.393 OA
ATOM     31  H   UNL     1     -28.043  61.338  -3.507  1.00  0.00     0.210 HD
ENDBRANCH  29  30
ENDBRANCH   9  11
ENDBRANCH   1   9
TORSDOF 7
ENDMDL
MODEL 6
REMARK VINA RESULT:    -6.223      2.911      7.227
REMARK INTER + INTRA:         -10.933
REMARK INTER:                 -10.375
REMARK INTRA:                  -0.558
REMARK UNBOUND:                -2.345
REMARK SMILES CC[C@H](CC[C@H](C)[C@H]1CC[C@@H]2[C@@H]3CC=C4C[C@H](O)CC[C@]4(C)[C@@H]3CC[C@@]21C)C(C)C
REMARK SMILES IDX 5 1 4 2 3 3 2 4 1 5 28 6 29 7 30 8 6 9 7 10 8 11 9 12 26 13
REMARK SMILES IDX 10 14 11 15 25 16 27 17 12 18 24 19 23 20 13 21 21 22 14 23
REMARK SMILES IDX 15 24 20 25 22 26 16 27 19 28 17 29 18 30
REMARK H PARENT 18 31
REMARK Flexibility Score: inf
ROOT
ATOM      1  C   UNL     1     -20.033  52.917  -2.384  1.00  0.00     0.004 C 
ENDROOT
BRANCH   1   2
ATOM      2  C   UNL     1     -18.884  53.424  -3.286  1.00  0.00     0.004 C 
BRANCH   2   3
ATOM      3  C   UNL     1     -18.146  54.710  -2.805  1.00  0.00    -0.009 C 
BRANCH   3   4
ATOM      4  C   UNL     1     -16.655  54.406  -2.493  1.00  0.00     0.000 C 
ATOM      5  C   UNL     1     -16.290  54.395  -1.008  1.00  0.00     0.004 C 
ENDBRANCH   3   4
BRANCH   3   6
ATOM      6  C   UNL     1     -18.311  55.986  -3.709  1.00  0.00    -0.014 C 
ATOM      7  C   UNL     1     -19.724  56.600  -3.719  1.00  0.00     0.007 C 
ATOM      8  C   UNL     1     -17.271  57.070  -3.378  1.00  0.00     0.007 C 
ENDBRANCH   3   6
ENDBRANCH   2   3
ENDBRANCH   1   2
BRANCH   1   9
ATOM      9  C   UNL     1     -19.641  52.538  -0.926  1.00  0.00    -0.011 C 
ATOM     10  C   UNL     1     -19.969  51.059  -0.630  1.00  0.00     0.008 C 
BRANCH   9  11
ATOM     11  C   UNL     1     -20.280  53.555   0.097  1.00  0.00    -0.002 C 
ATOM     12  C   UNL     1     -19.262  54.555   0.659  1.00  0.00     0.005 C 
ATOM     13  C   UNL     1     -21.491  54.438  -0.391  1.00  0.00    -0.026 C 
ATOM     14  C   UNL     1     -19.430  55.834  -0.141  1.00  0.00     0.005 C 
ATOM     15  C   UNL     1     -20.893  55.866  -0.622  1.00  0.00    -0.001 C 
ATOM     16  C   UNL     1     -22.567  54.473   0.733  1.00  0.00     0.007 C 
ATOM     17  C   UNL     1     -22.181  53.892  -1.674  1.00  0.00     0.012 C 
ATOM     18  C   UNL     1     -21.730  57.063  -0.041  1.00  0.00     0.000 C 
ATOM     19  C   UNL     1     -23.689  55.506   0.506  1.00  0.00     0.005 C 
ATOM     20  C   UNL     1     -23.246  56.810  -0.227  1.00  0.00     0.003 C 
ATOM     21  C   UNL     1     -21.400  57.488   1.422  1.00  0.00     0.031 C 
ATOM     22  C   UNL     1     -24.075  58.076   0.207  1.00  0.00    -0.008 C 
ATOM     23  C   UNL     1     -22.529  58.160   2.176  1.00  0.00    -0.027 C 
ATOM     24  C   UNL     1     -23.752  58.408   1.659  1.00  0.00    -0.065 C 
ATOM     25  C   UNL     1     -25.604  57.806   0.061  1.00  0.00     0.014 C 
ATOM     26  C   UNL     1     -23.700  59.289  -0.691  1.00  0.00     0.016 C 
ATOM     27  C   UNL     1     -24.851  58.897   2.578  1.00  0.00     0.063 C 
ATOM     28  C   UNL     1     -26.506  58.932   0.617  1.00  0.00     0.033 C 
ATOM     29  C   UNL     1     -25.906  59.709   1.812  1.00  0.00     0.118 C 
BRANCH  29  30
ATOM     30  O   UNL     1     -26.941  60.086   2.683  1.00  0.00    -0.393 OA
ATOM     31  H   UNL     1     -27.790  59.764   2.282  1.00  0.00     0.210 HD
ENDBRANCH  29  30
ENDBRANCH   9  11
ENDBRANCH   1   9
TORSDOF 7
ENDMDL
MODEL 7
REMARK VINA RESULT:    -6.077      1.750      3.111
REMARK INTER + INTRA:         -10.731
REMARK INTER:                 -10.275
REMARK INTRA:                  -0.456
REMARK UNBOUND:                -2.345
REMARK SMILES CC[C@H](CC[C@H](C)[C@H]1CC[C@@H]2[C@@H]3CC=C4C[C@H](O)CC[C@]4(C)[C@@H]3CC[C@@]21C)C(C)C
REMARK SMILES IDX 5 1 4 2 3 3 2 4 1 5 28 6 29 7 30 8 6 9 7 10 8 11 9 12 26 13
REMARK SMILES IDX 10 14 11 15 25 16 27 17 12 18 24 19 23 20 13 21 21 22 14 23
REMARK SMILES IDX 15 24 20 25 22 26 16 27 19 28 17 29 18 30
REMARK H PARENT 18 31
REMARK Flexibility Score: inf
ROOT
ATOM      1  C   UNL     1     -26.151  57.465  -2.124  1.00  0.00     0.004 C 
ENDROOT
BRANCH   1   2
ATOM      2  C   UNL     1     -26.641  58.932  -2.125  1.00  0.00     0.004 C 
BRANCH   2   3
ATOM      3  C   UNL     1     -25.832  59.929  -3.010  1.00  0.00    -0.009 C 
BRANCH   3   4
ATOM      4  C   UNL     1     -26.708  60.469  -4.173  1.00  0.00     0.000 C 
ATOM      5  C   UNL     1     -25.960  60.740  -5.479  1.00  0.00     0.004 C 
ENDBRANCH   3   4
BRANCH   3   6
ATOM      6  C   UNL     1     -25.084  61.084  -2.249  1.00  0.00    -0.014 C 
ATOM      7  C   UNL     1     -25.325  61.125  -0.728  1.00  0.00     0.007 C 
ATOM      8  C   UNL     1     -23.574  61.086  -2.540  1.00  0.00     0.007 C 
ENDBRANCH   3   6
ENDBRANCH   2   3
ENDBRANCH   1   2
BRANCH   1   9
ATOM      9  C   UNL     1     -26.108  56.760  -0.738  1.00  0.00    -0.011 C 
ATOM     10  C   UNL     1     -26.180  57.789   0.410  1.00  0.00     0.008 C 
BRANCH   9  11
ATOM     11  C   UNL     1     -24.869  55.788  -0.653  1.00  0.00    -0.002 C 
ATOM     12  C   UNL     1     -24.909  54.676  -1.709  1.00  0.00     0.005 C 
ATOM     13  C   UNL     1     -23.427  56.410  -0.773  1.00  0.00    -0.026 C 
ATOM     14  C   UNL     1     -24.004  55.127  -2.841  1.00  0.00     0.005 C 
ATOM     15  C   UNL     1     -22.940  56.049  -2.217  1.00  0.00    -0.001 C 
ATOM     16  C   UNL     1     -22.507  55.749   0.294  1.00  0.00     0.007 C 
ATOM     17  C   UNL     1     -23.390  57.946  -0.526  1.00  0.00     0.012 C 
ATOM     18  C   UNL     1     -21.472  55.496  -2.327  1.00  0.00     0.000 C 
ATOM     19  C   UNL     1     -21.008  56.067   0.126  1.00  0.00     0.005 C 
ATOM     20  C   UNL     1     -20.532  56.243  -1.349  1.00  0.00     0.003 C 
ATOM     21  C   UNL     1     -21.306  53.952  -2.207  1.00  0.00     0.031 C 
ATOM     22  C   UNL     1     -19.038  55.804  -1.574  1.00  0.00    -0.008 C 
ATOM     23  C   UNL     1     -19.956  53.477  -1.709  1.00  0.00    -0.027 C 
ATOM     24  C   UNL     1     -18.930  54.295  -1.389  1.00  0.00    -0.065 C 
ATOM     25  C   UNL     1     -18.096  56.524  -0.560  1.00  0.00     0.014 C 
ATOM     26  C   UNL     1     -18.587  56.176  -3.015  1.00  0.00     0.016 C 
ATOM     27  C   UNL     1     -17.709  53.709  -0.711  1.00  0.00     0.063 C 
ATOM     28  C   UNL     1     -16.630  56.035  -0.594  1.00  0.00     0.033 C 
ATOM     29  C   UNL     1     -16.454  54.550  -0.988  1.00  0.00     0.118 C 
BRANCH  29  30
ATOM     30  O   UNL     1     -15.360  54.014  -0.289  1.00  0.00    -0.393 OA
ATOM     31  H   UNL     1     -14.575  54.062  -0.897  1.00  0.00     0.210 HD
ENDBRANCH  29  30
ENDBRANCH   9  11
ENDBRANCH   1   9
TORSDOF 7
ENDMDL
MODEL 8
REMARK VINA RESULT:    -6.032      1.825      2.884
REMARK INTER + INTRA:         -10.669
REMARK INTER:                  -9.280
REMARK INTRA:                  -1.388
REMARK UNBOUND:                -2.345
REMARK SMILES CC[C@H](CC[C@H](C)[C@H]1CC[C@@H]2[C@@H]3CC=C4C[C@H](O)CC[C@]4(C)[C@@H]3CC[C@@]21C)C(C)C
REMARK SMILES IDX 5 1 4 2 3 3 2 4 1 5 28 6 29 7 30 8 6 9 7 10 8 11 9 12 26 13
REMARK SMILES IDX 10 14 11 15 25 16 27 17 12 18 24 19 23 20 13 21 21 22 14 23
REMARK SMILES IDX 15 24 20 25 22 26 16 27 19 28 17 29 18 30
REMARK H PARENT 18 31
REMARK Flexibility Score: inf
ROOT
ATOM      1  C   UNL     1     -25.937  58.575   0.359  1.00  0.00     0.004 C 
ENDROOT
BRANCH   1   2
ATOM      2  C   UNL     1     -24.719  59.082   1.167  1.00  0.00     0.004 C 
BRANCH   2   3
ATOM      3  C   UNL     1     -24.802  58.919   2.714  1.00  0.00    -0.009 C 
BRANCH   3   4
ATOM      4  C   UNL     1     -23.412  58.555   3.305  1.00  0.00     0.000 C 
ATOM      5  C   UNL     1     -22.217  59.206   2.606  1.00  0.00     0.004 C 
ENDBRANCH   3   4
BRANCH   3   6
ATOM      6  C   UNL     1     -25.488  60.095   3.502  1.00  0.00    -0.014 C 
ATOM      7  C   UNL     1     -26.837  60.564   2.927  1.00  0.00     0.007 C 
ATOM      8  C   UNL     1     -25.638  59.779   4.999  1.00  0.00     0.007 C 
ENDBRANCH   3   6
ENDBRANCH   2   3
ENDBRANCH   1   2
BRANCH   1   9
ATOM      9  C   UNL     1     -25.898  57.079  -0.068  1.00  0.00    -0.011 C 
ATOM     10  C   UNL     1     -27.125  56.316   0.475  1.00  0.00     0.008 C 
BRANCH   9  11
ATOM     11  C   UNL     1     -24.514  56.431   0.322  1.00  0.00    -0.002 C 
ATOM     12  C   UNL     1     -24.644  54.969   0.766  1.00  0.00     0.005 C 
ATOM     13  C   UNL     1     -23.364  56.429  -0.756  1.00  0.00    -0.026 C 
ATOM     14  C   UNL     1     -24.277  54.121  -0.438  1.00  0.00     0.005 C 
ATOM     15  C   UNL     1     -23.302  54.957  -1.288  1.00  0.00    -0.001 C 
ATOM     16  C   UNL     1     -22.027  56.814  -0.060  1.00  0.00     0.007 C 
ATOM     17  C   UNL     1     -23.594  57.445  -1.912  1.00  0.00     0.012 C 
ATOM     18  C   UNL     1     -21.865  54.333  -1.411  1.00  0.00     0.000 C 
ATOM     19  C   UNL     1     -20.773  56.600  -0.931  1.00  0.00     0.005 C 
ATOM     20  C   UNL     1     -20.851  55.390  -1.913  1.00  0.00     0.003 C 
ATOM     21  C   UNL     1     -21.328  53.584  -0.154  1.00  0.00     0.031 C 
ATOM     22  C   UNL     1     -19.451  54.726  -2.190  1.00  0.00    -0.008 C 
ATOM     23  C   UNL     1     -19.821  53.526  -0.023  1.00  0.00    -0.027 C 
ATOM     24  C   UNL     1     -18.955  54.060  -0.912  1.00  0.00    -0.065 C 
ATOM     25  C   UNL     1     -18.418  55.799  -2.655  1.00  0.00     0.014 C 
ATOM     26  C   UNL     1     -19.584  53.653  -3.308  1.00  0.00     0.016 C 
ATOM     27  C   UNL     1     -17.483  54.113  -0.562  1.00  0.00     0.063 C 
ATOM     28  C   UNL     1     -16.971  55.273  -2.794  1.00  0.00     0.033 C 
ATOM     29  C   UNL     1     -16.605  54.126  -1.822  1.00  0.00     0.118 C 
BRANCH  29  30
ATOM     30  O   UNL     1     -15.254  54.244  -1.459  1.00  0.00    -0.393 OA
ATOM     31  H   UNL     1     -15.026  55.210  -1.496  1.00  0.00     0.210 HD
ENDBRANCH  29  30
ENDBRANCH   9  11
ENDBRANCH   1   9
TORSDOF 7
ENDMDL
MODEL 9
REMARK VINA RESULT:    -5.163      1.582      2.500
REMARK INTER + INTRA:          -9.470
REMARK INTER:                  -8.255
REMARK INTRA:                  -1.215
REMARK UNBOUND:                -2.345
REMARK SMILES CC[C@H](CC[C@H](C)[C@H]1CC[C@@H]2[C@@H]3CC=C4C[C@H](O)CC[C@]4(C)[C@@H]3CC[C@@]21C)C(C)C
REMARK SMILES IDX 5 1 4 2 3 3 2 4 1 5 28 6 29 7 30 8 6 9 7 10 8 11 9 12 26 13
REMARK SMILES IDX 10 14 11 15 25 16 27 17 12 18 24 19 23 20 13 21 21 22 14 23
REMARK SMILES IDX 15 24 20 25 22 26 16 27 19 28 17 29 18 30
REMARK H PARENT 18 31
REMARK Flexibility Score: inf
ROOT
ATOM      1  C   UNL     1     -27.056  58.360  -1.232  1.00  0.00     0.004 C 
ENDROOT
BRANCH   1   2
ATOM      2  C   UNL     1     -27.009  59.838  -0.777  1.00  0.00     0.004 C 
BRANCH   2   3
ATOM      3  C   UNL     1     -25.647  60.342  -0.212  1.00  0.00    -0.009 C 
BRANCH   3   4
ATOM      4  C   UNL     1     -24.857  61.125  -1.297  1.00  0.00     0.000 C 
ATOM      5  C   UNL     1     -23.434  60.626  -1.552  1.00  0.00     0.004 C 
ENDBRANCH   3   4
BRANCH   3   6
ATOM      6  C   UNL     1     -25.707  61.122   1.152  1.00  0.00    -0.014 C 
ATOM      7  C   UNL     1     -27.072  61.086   1.864  1.00  0.00     0.007 C 
ATOM      8  C   UNL     1     -24.599  60.678   2.122  1.00  0.00     0.007 C 
ENDBRANCH   3   6
ENDBRANCH   2   3
ENDBRANCH   1   2
BRANCH   1   9
ATOM      9  C   UNL     1     -26.411  57.327  -0.263  1.00  0.00    -0.011 C 
ATOM     10  C   UNL     1     -27.064  57.394   1.134  1.00  0.00     0.008 C 
BRANCH   9  11
ATOM     11  C   UNL     1     -24.843  57.492  -0.247  1.00  0.00    -0.002 C 
ATOM     12  C   UNL     1     -24.266  57.584   1.171  1.00  0.00     0.005 C 
ATOM     13  C   UNL     1     -23.973  56.394  -0.969  1.00  0.00    -0.026 C 
ATOM     14  C   UNL     1     -23.750  56.199   1.515  1.00  0.00     0.005 C 
ATOM     15  C   UNL     1     -23.363  55.528   0.184  1.00  0.00    -0.001 C 
ATOM     16  C   UNL     1     -22.845  57.101  -1.774  1.00  0.00     0.007 C 
ATOM     17  C   UNL     1     -24.781  55.521  -1.972  1.00  0.00     0.012 C 
ATOM     18  C   UNL     1     -21.831  55.198   0.057  1.00  0.00     0.000 C 
ATOM     19  C   UNL     1     -21.761  56.149  -2.320  1.00  0.00     0.005 C 
ATOM     20  C   UNL     1     -21.453  54.914  -1.417  1.00  0.00     0.003 C 
ATOM     21  C   UNL     1     -20.850  56.218   0.709  1.00  0.00     0.031 C 
ATOM     22  C   UNL     1     -19.961  54.428  -1.522  1.00  0.00    -0.008 C 
ATOM     23  C   UNL     1     -19.461  56.265   0.105  1.00  0.00    -0.027 C 
ATOM     24  C   UNL     1     -19.048  55.489  -0.920  1.00  0.00    -0.065 C 
ATOM     25  C   UNL     1     -19.567  54.183  -3.012  1.00  0.00     0.014 C 
ATOM     26  C   UNL     1     -19.781  53.095  -0.740  1.00  0.00     0.016 C 
ATOM     27  C   UNL     1     -17.708  55.776  -1.564  1.00  0.00     0.063 C 
ATOM     28  C   UNL     1     -18.071  53.860  -3.231  1.00  0.00     0.033 C 
ATOM     29  C   UNL     1     -17.113  54.517  -2.211  1.00  0.00     0.118 C 
BRANCH  29  30
ATOM     30  O   UNL     1     -15.906  54.838  -2.854  1.00  0.00    -0.393 OA
ATOM     31  H   UNL     1     -15.450  55.519  -2.292  1.00  0.00     0.210 HD
ENDBRANCH  29  30
ENDBRANCH   9  11
ENDBRANCH   1   9
TORSDOF 7
ENDMDL
