MODEL 1
REMARK VINA RESULT:    -5.968      0.000      0.000
REMARK INTER + INTRA:         -15.211
REMARK INTER:                 -12.597
REMARK INTRA:                  -2.614
REMARK UNBOUND:                -2.614
REMARK SMILES CCC(=O)CCCCC[C@@H]1NC(=O)[C@H]2CCCCN2C(=O)[C@@H]([C@H](C)CC)NC(=O)[C@@H](Cc2cn(OC)c3ccccc23)NC1=O
REMARK SMILES IDX 9 1 10 2 44 3 43 4 45 6 30 7 28 8 27 9 29 11 22 12 23 14
REMARK SMILES IDX 24 15 25 16 26 17 31 18 32 19 33 20 42 21 34 22 37 23 41 24
REMARK SMILES IDX 38 25 40 26 39 27 35 28 36 29 11 30 12 31 13 33 14 34 19 35
REMARK SMILES IDX 15 36 18 37 16 38 17 39 20 40 21 41 8 43 7 44 6 45 5 46 3 47
REMARK SMILES IDX 4 48 2 49 1 50
REMARK H PARENT 43 5 27 10 11 32
REMARK Flexibility Score: 80.00
ROOT
ATOM      1  C   UNL     1      18.197 -31.178  21.807  1.00  0.00     0.035 C 
ENDROOT
BRANCH   1   2
ATOM      2  C   UNL     1      19.548 -31.722  21.302  1.00  0.00     0.171 C 
BRANCH   2   3
ATOM      3  C   UNL     1      20.709 -30.808  21.609  1.00  0.00     0.243 C 
ATOM      4  N   UNL     1      20.789 -30.109  22.867  1.00  0.00    -0.342 N 
ATOM      5  H   UNL     1      19.924 -30.056  23.453  1.00  0.00     0.164 HD
ATOM      6  O   UNL     1      21.627 -30.700  20.756  1.00  0.00    -0.273 OA
BRANCH   4   7
ATOM      7  C   UNL     1      22.028 -29.705  23.544  1.00  0.00     0.175 C 
BRANCH   7   8
ATOM      8  C   UNL     1      22.557 -30.845  24.378  1.00  0.00     0.243 C 
ATOM      9  N   UNL     1      22.821 -32.129  23.794  1.00  0.00    -0.342 N 
ATOM     10  H   UNL     1      22.880 -32.213  22.754  1.00  0.00     0.164 HD
ATOM     11  O   UNL     1      22.736 -30.665  25.613  1.00  0.00    -0.273 OA
BRANCH   9  12
ATOM     12  C   UNL     1      22.997 -33.347  24.592  1.00  0.00     0.174 CG0
ATOM     13  G   UNL     1      22.297 -34.471  23.869  1.00  0.00     0.000 G0
BRANCH  12  14
ATOM     14  C   UNL     1      24.513 -33.626  24.818  1.00  0.00     0.018 C 
ATOM     15  C   UNL     1      24.918 -33.378  26.284  1.00  0.00     0.010 C 
BRANCH  14  16
ATOM     16  C   UNL     1      25.368 -32.745  23.870  1.00  0.00     0.002 C 
ATOM     17  C   UNL     1      26.637 -33.443  23.380  1.00  0.00     0.004 C 
ENDBRANCH  14  16
ENDBRANCH  12  14
ENDBRANCH   9  12
ENDBRANCH   7   8
BRANCH   7  18
ATOM     18  C   UNL     1      23.075 -29.110  22.578  1.00  0.00     0.073 C 
BRANCH  18  19
ATOM     19  C   UNL     1      22.896 -27.627  22.416  1.00  0.00    -0.016 A 
ATOM     20  C   UNL     1      22.434 -26.746  23.384  1.00  0.00     0.134 A 
ATOM     21  C   UNL     1      23.087 -26.869  21.278  1.00  0.00     0.006 A 
ATOM     22  N   UNL     1      22.341 -25.495  22.880  1.00  0.00    -0.191 N 
ATOM     23  C   UNL     1      22.746 -25.568  21.584  1.00  0.00     0.087 A 
ATOM     24  C   UNL     1      23.533 -27.246  20.011  1.00  0.00     0.011 A 
ATOM     25  C   UNL     1      22.845 -24.562  20.608  1.00  0.00     0.030 A 
ATOM     26  C   UNL     1      23.635 -26.253  19.026  1.00  0.00     0.001 A 
ATOM     27  C   UNL     1      23.296 -24.918  19.324  1.00  0.00     0.002 A 
BRANCH  22  28
ATOM     28  O   UNL     1      21.888 -24.428  23.640  1.00  0.00    -0.417 OA
ATOM     29  C   UNL     1      21.339 -24.532  24.946  1.00  0.00     0.313 C 
ENDBRANCH  22  28
ENDBRANCH  18  19
ENDBRANCH   7  18
ENDBRANCH   4   7
ENDBRANCH   2   3
BRANCH   2  30
ATOM     30  N   UNL     1      19.809 -33.036  21.894  1.00  0.00    -0.343 N 
ATOM     31  C   UNL     1      19.685 -33.289  23.303  1.00  0.00     0.243 C 
ATOM     32  H   UNL     1      19.932 -33.852  21.252  1.00  0.00     0.164 HD
ATOM     33  O   UNL     1      19.481 -32.334  24.104  1.00  0.00    -0.273 OA
BRANCH  31  34
ATOM     34  C   UNL     1      19.745 -34.710  23.816  1.00  0.00     0.174 C 
ATOM     35  N   UNL     1      21.061 -35.050  24.387  1.00  0.00    -0.329 N 
ATOM     36  C   UNL     1      19.379 -35.757  22.745  1.00  0.00     0.035 C 
ATOM     37  C   UNL     1      21.131 -36.360  25.045  1.00  0.00     0.120 C 
ATOM     38  C   UNL     1      19.436 -37.172  23.346  1.00  0.00     0.004 C 
ATOM     39  C   UNL     1      20.787 -37.452  24.024  1.00  0.00     0.022 C 
BRANCH  35  40
ATOM     40  C   UNL     1      22.283 -34.482  23.874  1.00  0.00     0.246 CG0
ATOM     41  O   UNL     1      22.765 -34.901  22.786  1.00  0.00    -0.272 OA
ATOM     42  G   UNL     1      22.960 -33.345  24.599  1.00  0.00     0.000 G0
ENDBRANCH  35  40
ENDBRANCH  31  34
ENDBRANCH   2  30
ENDBRANCH   1   2
BRANCH   1  43
ATOM     43  C   UNL     1      17.000 -31.797  21.066  1.00  0.00     0.003 C 
BRANCH  43  44
ATOM     44  C   UNL     1      16.141 -32.695  21.983  1.00  0.00     0.001 C 
BRANCH  44  45
ATOM     45  C   UNL     1      16.023 -34.149  21.493  1.00  0.00     0.008 C 
BRANCH  45  46
ATOM     46  C   UNL     1      16.147 -34.316  19.969  1.00  0.00     0.075 C 
BRANCH  46  47
ATOM     47  C   UNL     1      17.260 -35.260  19.579  1.00  0.00     0.132 C 
ATOM     48  O   UNL     1      18.408 -34.846  19.530  1.00  0.00    -0.300 OA
BRANCH  47  49
ATOM     49  C   UNL     1      16.993 -36.721  19.316  1.00  0.00     0.072 C 
ATOM     50  C   UNL     1      17.879 -37.611  20.182  1.00  0.00     0.012 C 
ENDBRANCH  47  49
ENDBRANCH  46  47
ENDBRANCH  45  46
ENDBRANCH  44  45
ENDBRANCH  43  44
ENDBRANCH   1  43
TORSDOF 12
ENDMDL
MODEL 2
REMARK VINA RESULT:    -5.854      2.536      6.815
REMARK INTER + INTRA:         -14.971
REMARK INTER:                 -12.184
REMARK INTRA:                  -2.787
REMARK UNBOUND:                -2.614
REMARK SMILES CCC(=O)CCCCC[C@@H]1NC(=O)[C@H]2CCCCN2C(=O)[C@@H]([C@H](C)CC)NC(=O)[C@@H](Cc2cn(OC)c3ccccc23)NC1=O
REMARK SMILES IDX 9 1 10 2 44 3 43 4 45 6 30 7 28 8 27 9 29 11 22 12 23 14
REMARK SMILES IDX 24 15 25 16 26 17 31 18 32 19 33 20 42 21 34 22 37 23 41 24
REMARK SMILES IDX 38 25 40 26 39 27 35 28 36 29 11 30 12 31 13 33 14 34 19 35
REMARK SMILES IDX 15 36 18 37 16 38 17 39 20 40 21 41 8 43 7 44 6 45 5 46 3 47
REMARK SMILES IDX 4 48 2 49 1 50
REMARK H PARENT 43 5 27 10 11 32
REMARK Flexibility Score: 80.00
ROOT
ATOM      1  C   UNL     1      20.613 -29.458  20.796  1.00  0.00     0.035 C 
ENDROOT
BRANCH   1   2
ATOM      2  C   UNL     1      19.973 -30.773  21.281  1.00  0.00     0.171 C 
BRANCH   2   3
ATOM      3  C   UNL     1      20.774 -31.463  22.358  1.00  0.00     0.243 C 
ATOM      4  N   UNL     1      20.680 -31.043  23.733  1.00  0.00    -0.342 N 
ATOM      5  H   UNL     1      20.244 -30.114  23.933  1.00  0.00     0.164 HD
ATOM      6  O   UNL     1      21.498 -32.439  22.033  1.00  0.00    -0.273 OA
BRANCH   4   7
ATOM      7  C   UNL     1      20.879 -31.906  24.906  1.00  0.00     0.175 C 
BRANCH   7   8
ATOM      8  C   UNL     1      19.622 -32.689  25.190  1.00  0.00     0.243 C 
ATOM      9  N   UNL     1      18.855 -33.270  24.124  1.00  0.00    -0.342 N 
ATOM     10  H   UNL     1      19.287 -33.361  23.178  1.00  0.00     0.164 HD
ATOM     11  O   UNL     1      19.230 -32.802  26.383  1.00  0.00    -0.273 OA
BRANCH   9  12
ATOM     12  C   UNL     1      17.473 -33.732  24.296  1.00  0.00     0.174 CG0
ATOM     13  G   UNL     1      16.676 -33.232  23.117  1.00  0.00     0.000 G0
BRANCH  12  14
ATOM     14  C   UNL     1      17.439 -35.283  24.435  1.00  0.00     0.018 C 
ATOM     15  C   UNL     1      17.099 -35.711  25.876  1.00  0.00     0.010 C 
BRANCH  14  16
ATOM     16  C   UNL     1      18.798 -35.890  24.002  1.00  0.00     0.002 C 
ATOM     17  C   UNL     1      19.074 -37.259  24.627  1.00  0.00     0.004 C 
ENDBRANCH  14  16
ENDBRANCH  12  14
ENDBRANCH   9  12
ENDBRANCH   7   8
BRANCH   7  18
ATOM     18  C   UNL     1      22.143 -32.785  24.800  1.00  0.00     0.073 C 
BRANCH  18  19
ATOM     19  C   UNL     1      23.377 -32.027  25.200  1.00  0.00    -0.016 A 
ATOM     20  C   UNL     1      23.467 -31.081  26.211  1.00  0.00     0.134 A 
ATOM     21  C   UNL     1      24.625 -32.070  24.612  1.00  0.00     0.006 A 
ATOM     22  N   UNL     1      24.712 -30.556  26.258  1.00  0.00    -0.191 N 
ATOM     23  C   UNL     1      25.428 -31.166  25.276  1.00  0.00     0.087 A 
ATOM     24  C   UNL     1      25.092 -32.840  23.546  1.00  0.00     0.011 A 
ATOM     25  C   UNL     1      26.769 -30.995  24.894  1.00  0.00     0.030 A 
ATOM     26  C   UNL     1      26.429 -32.678  23.152  1.00  0.00     0.001 A 
ATOM     27  C   UNL     1      27.262 -31.763  23.824  1.00  0.00     0.002 A 
BRANCH  22  28
ATOM     28  O   UNL     1      25.061 -29.574  27.173  1.00  0.00    -0.417 OA
ATOM     29  C   UNL     1      24.900 -28.178  26.971  1.00  0.00     0.313 C 
ENDBRANCH  22  28
ENDBRANCH  18  19
ENDBRANCH   7  18
ENDBRANCH   4   7
ENDBRANCH   2   3
BRANCH   2  30
ATOM     30  N   UNL     1      18.622 -30.515  21.787  1.00  0.00    -0.343 N 
ATOM     31  C   UNL     1      17.460 -31.179  21.266  1.00  0.00     0.243 C 
ATOM     32  H   UNL     1      18.522 -29.950  22.660  1.00  0.00     0.164 HD
ATOM     33  O   UNL     1      17.554 -31.914  20.242  1.00  0.00    -0.273 OA
BRANCH  31  34
ATOM     34  C   UNL     1      16.135 -31.039  21.980  1.00  0.00     0.174 C 
ATOM     35  N   UNL     1      16.012 -31.955  23.128  1.00  0.00    -0.329 N 
ATOM     36  C   UNL     1      14.921 -31.236  21.050  1.00  0.00     0.035 C 
ATOM     37  C   UNL     1      14.818 -31.754  23.956  1.00  0.00     0.120 C 
ATOM     38  C   UNL     1      13.614 -31.052  21.840  1.00  0.00     0.004 C 
ATOM     39  C   UNL     1      13.568 -31.949  23.088  1.00  0.00     0.022 C 
BRANCH  35  40
ATOM     40  C   UNL     1      16.627 -33.259  23.130  1.00  0.00     0.246 CG0
ATOM     41  O   UNL     1      16.492 -34.023  22.134  1.00  0.00    -0.272 OA
ATOM     42  G   UNL     1      17.487 -33.696  24.291  1.00  0.00     0.000 G0
ENDBRANCH  35  40
ENDBRANCH  31  34
ENDBRANCH   2  30
ENDBRANCH   1   2
BRANCH   1  43
ATOM     43  C   UNL     1      19.683 -28.247  20.986  1.00  0.00     0.003 C 
BRANCH  43  44
ATOM     44  C   UNL     1      20.456 -26.910  21.008  1.00  0.00     0.001 C 
BRANCH  44  45
ATOM     45  C   UNL     1      21.964 -27.061  20.737  1.00  0.00     0.008 C 
BRANCH  45  46
ATOM     46  C   UNL     1      22.863 -26.258  21.690  1.00  0.00     0.075 C 
BRANCH  46  47
ATOM     47  C   UNL     1      22.526 -26.497  23.143  1.00  0.00     0.132 C 
ATOM     48  O   UNL     1      22.019 -25.598  23.797  1.00  0.00    -0.300 OA
BRANCH  47  49
ATOM     49  C   UNL     1      22.736 -27.845  23.785  1.00  0.00     0.072 C 
ATOM     50  C   UNL     1      23.952 -28.556  23.197  1.00  0.00     0.012 C 
ENDBRANCH  47  49
ENDBRANCH  46  47
ENDBRANCH  45  46
ENDBRANCH  44  45
ENDBRANCH  43  44
ENDBRANCH   1  43
TORSDOF 12
ENDMDL
MODEL 3
REMARK VINA RESULT:    -5.792      3.168      7.446
REMARK INTER + INTRA:         -14.839
REMARK INTER:                 -12.059
REMARK INTRA:                  -2.781
REMARK UNBOUND:                -2.614
REMARK SMILES CCC(=O)CCCCC[C@@H]1NC(=O)[C@H]2CCCCN2C(=O)[C@@H]([C@H](C)CC)NC(=O)[C@@H](Cc2cn(OC)c3ccccc23)NC1=O
REMARK SMILES IDX 9 1 10 2 44 3 43 4 45 6 30 7 28 8 27 9 29 11 22 12 23 14
REMARK SMILES IDX 24 15 25 16 26 17 31 18 32 19 33 20 42 21 34 22 37 23 41 24
REMARK SMILES IDX 38 25 40 26 39 27 35 28 36 29 11 30 12 31 13 33 14 34 19 35
REMARK SMILES IDX 15 36 18 37 16 38 17 39 20 40 21 41 8 43 7 44 6 45 5 46 3 47
REMARK SMILES IDX 4 48 2 49 1 50
REMARK H PARENT 43 5 27 10 11 32
REMARK Flexibility Score: 80.00
ROOT
ATOM      1  C   UNL     1      21.284 -30.704  22.059  1.00  0.00     0.035 C 
ENDROOT
BRANCH   1   2
ATOM      2  C   UNL     1      21.961 -31.493  23.197  1.00  0.00     0.171 C 
BRANCH   2   3
ATOM      3  C   UNL     1      21.277 -32.804  23.500  1.00  0.00     0.243 C 
ATOM      4  N   UNL     1      21.360 -33.911  22.581  1.00  0.00    -0.342 N 
ATOM      5  H   UNL     1      21.689 -33.717  21.608  1.00  0.00     0.164 HD
ATOM      6  O   UNL     1      20.665 -32.921  24.593  1.00  0.00    -0.273 OA
BRANCH   4   7
ATOM      7  C   UNL     1      21.299 -35.333  22.947  1.00  0.00     0.175 C 
BRANCH   7   8
ATOM      8  C   UNL     1      22.599 -35.760  23.580  1.00  0.00     0.243 C 
ATOM      9  N   UNL     1      23.283 -34.912  24.514  1.00  0.00    -0.342 N 
ATOM     10  H   UNL     1      22.769 -34.110  24.943  1.00  0.00     0.164 HD
ATOM     11  O   UNL     1      23.102 -36.869  23.250  1.00  0.00    -0.273 OA
BRANCH   9  12
ATOM     12  C   UNL     1      24.687 -35.107  24.888  1.00  0.00     0.174 CG0
ATOM     13  G   UNL     1      25.338 -33.746  24.942  1.00  0.00     0.000 G0
BRANCH  12  14
ATOM     14  C   UNL     1      24.781 -35.875  26.240  1.00  0.00     0.018 C 
ATOM     15  C   UNL     1      25.340 -37.297  26.042  1.00  0.00     0.010 C 
BRANCH  14  16
ATOM     16  C   UNL     1      23.389 -35.936  26.920  1.00  0.00     0.002 C 
ATOM     17  C   UNL     1      22.865 -37.362  27.097  1.00  0.00     0.004 C 
ENDBRANCH  14  16
ENDBRANCH  12  14
ENDBRANCH   9  12
ENDBRANCH   7   8
BRANCH   7  18
ATOM     18  C   UNL     1      20.056 -35.682  23.795  1.00  0.00     0.073 C 
BRANCH  18  19
ATOM     19  C   UNL     1      18.788 -35.535  23.002  1.00  0.00    -0.016 A 
ATOM     20  C   UNL     1      18.575 -35.979  21.705  1.00  0.00     0.134 A 
ATOM     21  C   UNL     1      17.629 -34.883  23.372  1.00  0.00     0.006 A 
ATOM     22  N   UNL     1      17.341 -35.626  21.280  1.00  0.00    -0.191 N 
ATOM     23  C   UNL     1      16.755 -34.953  22.306  1.00  0.00     0.087 A 
ATOM     24  C   UNL     1      17.300 -34.240  24.565  1.00  0.00     0.011 A 
ATOM     25  C   UNL     1      15.480 -34.373  22.397  1.00  0.00     0.030 A 
ATOM     26  C   UNL     1      16.030 -33.654  24.670  1.00  0.00     0.001 A 
ATOM     27  C   UNL     1      15.124 -33.723  23.593  1.00  0.00     0.002 A 
BRANCH  22  28
ATOM     28  O   UNL     1      16.885 -35.938  20.008  1.00  0.00    -0.417 OA
ATOM     29  C   UNL     1      17.427 -36.949  19.172  1.00  0.00     0.313 C 
ENDBRANCH  22  28
ENDBRANCH  18  19
ENDBRANCH   7  18
ENDBRANCH   4   7
ENDBRANCH   2   3
BRANCH   2  30
ATOM     30  N   UNL     1      23.362 -31.756  22.857  1.00  0.00    -0.343 N 
ATOM     31  C   UNL     1      24.455 -31.297  23.669  1.00  0.00     0.243 C 
ATOM     32  H   UNL     1      23.565 -32.434  22.088  1.00  0.00     0.164 HD
ATOM     33  O   UNL     1      24.241 -30.519  24.641  1.00  0.00    -0.273 OA
BRANCH  31  34
ATOM     34  C   UNL     1      25.855 -31.794  23.388  1.00  0.00     0.174 C 
ATOM     35  N   UNL     1      26.054 -33.192  23.812  1.00  0.00    -0.329 N 
ATOM     36  C   UNL     1      26.949 -30.916  24.028  1.00  0.00     0.035 C 
ATOM     37  C   UNL     1      27.340 -33.780  23.421  1.00  0.00     0.120 C 
ATOM     38  C   UNL     1      28.342 -31.467  23.678  1.00  0.00     0.004 C 
ATOM     39  C   UNL     1      28.477 -32.955  24.039  1.00  0.00     0.022 C 
BRANCH  35  40
ATOM     40  C   UNL     1      25.376 -33.743  24.959  1.00  0.00     0.246 CG0
ATOM     41  O   UNL     1      25.330 -33.092  26.038  1.00  0.00    -0.272 OA
ATOM     42  G   UNL     1      24.666 -35.071  24.860  1.00  0.00     0.000 G0
ENDBRANCH  35  40
ENDBRANCH  31  34
ENDBRANCH   2  30
ENDBRANCH   1   2
BRANCH   1  43
ATOM     43  C   UNL     1      19.750 -30.711  22.170  1.00  0.00     0.003 C 
BRANCH  43  44
ATOM     44  C   UNL     1      19.085 -31.565  21.069  1.00  0.00     0.001 C 
BRANCH  44  45
ATOM     45  C   UNL     1      17.547 -31.577  21.138  1.00  0.00     0.008 C 
BRANCH  45  46
ATOM     46  C   UNL     1      16.969 -31.073  22.471  1.00  0.00     0.075 C 
BRANCH  46  47
ATOM     47  C   UNL     1      15.674 -30.317  22.292  1.00  0.00     0.132 C 
ATOM     48  O   UNL     1      14.874 -30.688  21.445  1.00  0.00    -0.300 OA
BRANCH  47  49
ATOM     49  C   UNL     1      15.314 -29.155  23.184  1.00  0.00     0.072 C 
ATOM     50  C   UNL     1      13.843 -28.779  23.038  1.00  0.00     0.012 C 
ENDBRANCH  47  49
ENDBRANCH  46  47
ENDBRANCH  45  46
ENDBRANCH  44  45
ENDBRANCH  43  44
ENDBRANCH   1  43
TORSDOF 12
ENDMDL
MODEL 4
REMARK VINA RESULT:    -5.631      2.439      6.578
REMARK INTER + INTRA:         -14.499
REMARK INTER:                 -12.819
REMARK INTRA:                  -1.680
REMARK UNBOUND:                -2.614
REMARK SMILES CCC(=O)CCCCC[C@@H]1NC(=O)[C@H]2CCCCN2C(=O)[C@@H]([C@H](C)CC)NC(=O)[C@@H](Cc2cn(OC)c3ccccc23)NC1=O
REMARK SMILES IDX 9 1 10 2 44 3 43 4 45 6 30 7 28 8 27 9 29 11 22 12 23 14
REMARK SMILES IDX 24 15 25 16 26 17 31 18 32 19 33 20 42 21 34 22 37 23 41 24
REMARK SMILES IDX 38 25 40 26 39 27 35 28 36 29 11 30 12 31 13 33 14 34 19 35
REMARK SMILES IDX 15 36 18 37 16 38 17 39 20 40 21 41 8 43 7 44 6 45 5 46 3 47
REMARK SMILES IDX 4 48 2 49 1 50
REMARK H PARENT 43 5 27 10 11 32
REMARK Flexibility Score: 80.00
ROOT
ATOM      1  C   UNL     1      20.146 -29.666  21.097  1.00  0.00     0.035 C 
ENDROOT
BRANCH   1   2
ATOM      2  C   UNL     1      20.806 -31.044  21.300  1.00  0.00     0.171 C 
BRANCH   2   3
ATOM      3  C   UNL     1      21.252 -31.286  22.722  1.00  0.00     0.243 C 
ATOM      4  N   UNL     1      20.465 -30.818  23.835  1.00  0.00    -0.342 N 
ATOM      5  H   UNL     1      19.720 -30.110  23.644  1.00  0.00     0.164 HD
ATOM      6  O   UNL     1      22.309 -31.940  22.914  1.00  0.00    -0.273 OA
BRANCH   4   7
ATOM      7  C   UNL     1      20.410 -31.439  25.165  1.00  0.00     0.175 C 
BRANCH   7   8
ATOM      8  C   UNL     1      19.388 -32.548  25.176  1.00  0.00     0.243 C 
ATOM      9  N   UNL     1      19.441 -33.614  24.216  1.00  0.00    -0.342 N 
ATOM     10  H   UNL     1      20.317 -33.759  23.666  1.00  0.00     0.164 HD
ATOM     11  O   UNL     1      18.457 -32.510  26.026  1.00  0.00    -0.273 OA
BRANCH   9  12
ATOM     12  C   UNL     1      18.310 -34.509  23.956  1.00  0.00     0.174 CG0
ATOM     13  G   UNL     1      18.285 -34.793  22.474  1.00  0.00     0.000 G0
BRANCH  12  14
ATOM     14  C   UNL     1      18.438 -35.801  24.816  1.00  0.00     0.018 C 
ATOM     15  C   UNL     1      17.323 -35.885  25.876  1.00  0.00     0.010 C 
BRANCH  14  16
ATOM     16  C   UNL     1      19.830 -35.857  25.496  1.00  0.00     0.002 C 
ATOM     17  C   UNL     1      20.671 -37.056  25.056  1.00  0.00     0.004 C 
ENDBRANCH  14  16
ENDBRANCH  12  14
ENDBRANCH   9  12
ENDBRANCH   7   8
BRANCH   7  18
ATOM     18  C   UNL     1      21.797 -31.874  25.683  1.00  0.00     0.073 C 
BRANCH  18  19
ATOM     19  C   UNL     1      22.546 -30.720  26.289  1.00  0.00    -0.016 A 
ATOM     20  C   UNL     1      22.139 -29.394  26.302  1.00  0.00     0.134 A 
ATOM     21  C   UNL     1      23.793 -30.736  26.881  1.00  0.00     0.006 A 
ATOM     22  N   UNL     1      23.082 -28.614  26.877  1.00  0.00    -0.191 N 
ATOM     23  C   UNL     1      24.101 -29.439  27.236  1.00  0.00     0.087 A 
ATOM     24  C   UNL     1      24.661 -31.802  27.121  1.00  0.00     0.011 A 
ATOM     25  C   UNL     1      25.321 -29.149  27.869  1.00  0.00     0.030 A 
ATOM     26  C   UNL     1      25.885 -31.527  27.750  1.00  0.00     0.001 A 
ATOM     27  C   UNL     1      26.211 -30.209  28.125  1.00  0.00     0.002 A 
BRANCH  22  28
ATOM     28  O   UNL     1      22.926 -27.242  27.000  1.00  0.00    -0.417 OA
ATOM     29  C   UNL     1      21.763 -26.517  26.631  1.00  0.00     0.313 C 
ENDBRANCH  22  28
ENDBRANCH  18  19
ENDBRANCH   7  18
ENDBRANCH   4   7
ENDBRANCH   2   3
BRANCH   2  30
ATOM     30  N   UNL     1      19.875 -32.106  20.909  1.00  0.00    -0.343 N 
ATOM     31  C   UNL     1      18.503 -32.128  21.334  1.00  0.00     0.243 C 
ATOM     32  H   UNL     1      20.176 -32.778  20.167  1.00  0.00     0.164 HD
ATOM     33  O   UNL     1      18.090 -31.295  22.189  1.00  0.00    -0.273 OA
BRANCH  31  34
ATOM     34  C   UNL     1      17.543 -33.118  20.714  1.00  0.00     0.174 C 
ATOM     35  N   UNL     1      17.291 -34.282  21.583  1.00  0.00    -0.329 N 
ATOM     36  C   UNL     1      17.999 -33.617  19.328  1.00  0.00     0.035 C 
ATOM     37  C   UNL     1      16.247 -35.196  21.106  1.00  0.00     0.120 C 
ATOM     38  C   UNL     1      16.963 -34.596  18.751  1.00  0.00     0.004 C 
ATOM     39  C   UNL     1      16.648 -35.740  19.729  1.00  0.00     0.022 C 
BRANCH  35  40
ATOM     40  C   UNL     1      18.305 -34.809  22.462  1.00  0.00     0.246 CG0
ATOM     41  O   UNL     1      19.247 -35.505  21.993  1.00  0.00    -0.272 OA
ATOM     42  G   UNL     1      18.283 -34.483  23.935  1.00  0.00     0.000 G0
ENDBRANCH  35  40
ENDBRANCH  31  34
ENDBRANCH   2  30
ENDBRANCH   1   2
BRANCH   1  43
ATOM     43  C   UNL     1      21.111 -28.504  21.390  1.00  0.00     0.003 C 
BRANCH  43  44
ATOM     44  C   UNL     1      20.508 -27.132  21.017  1.00  0.00     0.001 C 
BRANCH  44  45
ATOM     45  C   UNL     1      21.382 -25.936  21.438  1.00  0.00     0.008 C 
BRANCH  45  46
ATOM     46  C   UNL     1      22.878 -26.262  21.576  1.00  0.00     0.075 C 
BRANCH  46  47
ATOM     47  C   UNL     1      23.578 -26.347  20.240  1.00  0.00     0.132 C 
ATOM     48  O   UNL     1      24.374 -27.250  20.035  1.00  0.00    -0.300 OA
BRANCH  47  49
ATOM     49  C   UNL     1      23.261 -25.380  19.126  1.00  0.00     0.072 C 
ATOM     50  C   UNL     1      24.145 -24.138  19.201  1.00  0.00     0.012 C 
ENDBRANCH  47  49
ENDBRANCH  46  47
ENDBRANCH  45  46
ENDBRANCH  44  45
ENDBRANCH  43  44
ENDBRANCH   1  43
TORSDOF 12
ENDMDL
MODEL 5
REMARK VINA RESULT:    -5.620      1.544      2.486
REMARK INTER + INTRA:         -14.477
REMARK INTER:                 -13.237
REMARK INTRA:                  -1.240
REMARK UNBOUND:                -2.614
REMARK SMILES CCC(=O)CCCCC[C@@H]1NC(=O)[C@H]2CCCCN2C(=O)[C@@H]([C@H](C)CC)NC(=O)[C@@H](Cc2cn(OC)c3ccccc23)NC1=O
REMARK SMILES IDX 9 1 10 2 44 3 43 4 45 6 30 7 28 8 27 9 29 11 22 12 23 14
REMARK SMILES IDX 24 15 25 16 26 17 31 18 32 19 33 20 42 21 34 22 37 23 41 24
REMARK SMILES IDX 38 25 40 26 39 27 35 28 36 29 11 30 12 31 13 33 14 34 19 35
REMARK SMILES IDX 15 36 18 37 16 38 17 39 20 40 21 41 8 43 7 44 6 45 5 46 3 47
REMARK SMILES IDX 4 48 2 49 1 50
REMARK H PARENT 43 5 27 10 11 32
REMARK Flexibility Score: 80.00
ROOT
ATOM      1  C   UNL     1      17.983 -31.542  21.795  1.00  0.00     0.035 C 
ENDROOT
BRANCH   1   2
ATOM      2  C   UNL     1      19.336 -32.013  21.225  1.00  0.00     0.171 C 
BRANCH   2   3
ATOM      3  C   UNL     1      20.459 -31.037  21.476  1.00  0.00     0.243 C 
ATOM      4  N   UNL     1      20.503 -30.254  22.685  1.00  0.00    -0.342 N 
ATOM      5  H   UNL     1      19.633 -30.194  23.262  1.00  0.00     0.164 HD
ATOM      6  O   UNL     1      21.379 -30.951  20.621  1.00  0.00    -0.273 OA
BRANCH   4   7
ATOM      7  C   UNL     1      21.722 -29.758  23.339  1.00  0.00     0.175 C 
BRANCH   7   8
ATOM      8  C   UNL     1      22.288 -30.820  24.248  1.00  0.00     0.243 C 
ATOM      9  N   UNL     1      22.548 -32.147  23.765  1.00  0.00    -0.342 N 
ATOM     10  H   UNL     1      22.575 -32.316  22.735  1.00  0.00     0.164 HD
ATOM     11  O   UNL     1      22.504 -30.535  25.457  1.00  0.00    -0.273 OA
BRANCH   9  12
ATOM     12  C   UNL     1      22.762 -33.291  24.656  1.00  0.00     0.174 CG0
ATOM     13  G   UNL     1      22.283 -34.527  23.935  1.00  0.00     0.000 G0
BRANCH  12  14
ATOM     14  C   UNL     1      24.261 -33.377  25.069  1.00  0.00     0.018 C 
ATOM     15  C   UNL     1      24.476 -32.889  26.515  1.00  0.00     0.010 C 
BRANCH  14  16
ATOM     16  C   UNL     1      25.136 -32.552  24.090  1.00  0.00     0.002 C 
ATOM     17  C   UNL     1      25.971 -31.476  24.785  1.00  0.00     0.004 C 
ENDBRANCH  14  16
ENDBRANCH  12  14
ENDBRANCH   9  12
ENDBRANCH   7   8
BRANCH   7  18
ATOM     18  C   UNL     1      22.751 -29.187  22.340  1.00  0.00     0.073 C 
BRANCH  18  19
ATOM     19  C   UNL     1      22.757 -27.685  22.352  1.00  0.00    -0.016 A 
ATOM     20  C   UNL     1      22.444 -26.872  23.432  1.00  0.00     0.134 A 
ATOM     21  C   UNL     1      23.003 -26.830  21.297  1.00  0.00     0.006 A 
ATOM     22  N   UNL     1      22.494 -25.569  23.075  1.00  0.00    -0.191 N 
ATOM     23  C   UNL     1      22.841 -25.540  21.760  1.00  0.00     0.087 A 
ATOM     24  C   UNL     1      23.354 -27.109  19.976  1.00  0.00     0.011 A 
ATOM     25  C   UNL     1      23.034 -24.449  20.898  1.00  0.00     0.030 A 
ATOM     26  C   UNL     1      23.548 -26.028  19.102  1.00  0.00     0.001 A 
ATOM     27  C   UNL     1      23.392 -24.706  19.562  1.00  0.00     0.002 A 
BRANCH  22  28
ATOM     28  O   UNL     1      22.207 -24.550  23.970  1.00  0.00    -0.417 OA
ATOM     29  C   UNL     1      22.811 -23.265  23.965  1.00  0.00     0.313 C 
ENDBRANCH  22  28
ENDBRANCH  18  19
ENDBRANCH   7  18
ENDBRANCH   4   7
ENDBRANCH   2   3
BRANCH   2  30
ATOM     30  N   UNL     1      19.696 -33.310  21.804  1.00  0.00    -0.343 N 
ATOM     31  C   UNL     1      19.615 -33.578  23.213  1.00  0.00     0.243 C 
ATOM     32  H   UNL     1      19.863 -34.112  21.155  1.00  0.00     0.164 HD
ATOM     33  O   UNL     1      19.361 -32.643  24.024  1.00  0.00    -0.273 OA
BRANCH  31  34
ATOM     34  C   UNL     1      19.780 -34.995  23.716  1.00  0.00     0.174 C 
ATOM     35  N   UNL     1      21.084 -35.215  24.367  1.00  0.00    -0.329 N 
ATOM     36  C   UNL     1      19.585 -36.055  22.614  1.00  0.00     0.035 C 
ATOM     37  C   UNL     1      21.238 -36.522  25.016  1.00  0.00     0.120 C 
ATOM     38  C   UNL     1      19.741 -37.467  23.205  1.00  0.00     0.004 C 
ATOM     39  C   UNL     1      21.067 -37.627  23.965  1.00  0.00     0.022 C 
BRANCH  35  40
ATOM     40  C   UNL     1      22.275 -34.525  23.939  1.00  0.00     0.246 CG0
ATOM     41  O   UNL     1      22.894 -34.914  22.910  1.00  0.00    -0.272 OA
ATOM     42  G   UNL     1      22.754 -33.299  24.676  1.00  0.00     0.000 G0
ENDBRANCH  35  40
ENDBRANCH  31  34
ENDBRANCH   2  30
ENDBRANCH   1   2
BRANCH   1  43
ATOM     43  C   UNL     1      16.794 -32.320  21.208  1.00  0.00     0.003 C 
BRANCH  43  44
ATOM     44  C   UNL     1      16.169 -33.296  22.228  1.00  0.00     0.001 C 
BRANCH  44  45
ATOM     45  C   UNL     1      15.040 -32.674  23.070  1.00  0.00     0.008 C 
BRANCH  45  46
ATOM     46  C   UNL     1      14.662 -31.241  22.661  1.00  0.00     0.075 C 
BRANCH  46  47
ATOM     47  C   UNL     1      13.403 -31.190  21.828  1.00  0.00     0.132 C 
ATOM     48  O   UNL     1      13.356 -31.808  20.775  1.00  0.00    -0.300 OA
BRANCH  47  49
ATOM     49  C   UNL     1      12.178 -30.449  22.302  1.00  0.00     0.072 C 
ATOM     50  C   UNL     1      12.535 -29.400  23.350  1.00  0.00     0.012 C 
ENDBRANCH  47  49
ENDBRANCH  46  47
ENDBRANCH  45  46
ENDBRANCH  44  45
ENDBRANCH  43  44
ENDBRANCH   1  43
TORSDOF 12
ENDMDL
MODEL 6
REMARK VINA RESULT:    -5.509      2.389      8.426
REMARK INTER + INTRA:         -14.241
REMARK INTER:                 -13.243
REMARK INTRA:                  -0.998
REMARK UNBOUND:                -2.614
REMARK SMILES CCC(=O)CCCCC[C@@H]1NC(=O)[C@H]2CCCCN2C(=O)[C@@H]([C@H](C)CC)NC(=O)[C@@H](Cc2cn(OC)c3ccccc23)NC1=O
REMARK SMILES IDX 9 1 10 2 44 3 43 4 45 6 30 7 28 8 27 9 29 11 22 12 23 14
REMARK SMILES IDX 24 15 25 16 26 17 31 18 32 19 33 20 42 21 34 22 37 23 41 24
REMARK SMILES IDX 38 25 40 26 39 27 35 28 36 29 11 30 12 31 13 33 14 34 19 35
REMARK SMILES IDX 15 36 18 37 16 38 17 39 20 40 21 41 8 43 7 44 6 45 5 46 3 47
REMARK SMILES IDX 4 48 2 49 1 50
REMARK H PARENT 43 5 27 10 11 32
REMARK Flexibility Score: 80.00
ROOT
ATOM      1  C   UNL     1      23.560 -26.627  20.551  1.00  0.00     0.035 C 
ENDROOT
BRANCH   1   2
ATOM      2  C   UNL     1      22.800 -27.209  21.760  1.00  0.00     0.171 C 
BRANCH   2   3
ATOM      3  C   UNL     1      21.552 -27.963  21.371  1.00  0.00     0.243 C 
ATOM      4  N   UNL     1      21.635 -29.273  20.774  1.00  0.00    -0.342 N 
ATOM      5  H   UNL     1      22.560 -29.582  20.397  1.00  0.00     0.164 HD
ATOM      6  O   UNL     1      20.435 -27.439  21.615  1.00  0.00    -0.273 OA
BRANCH   4   7
ATOM      7  C   UNL     1      20.622 -30.331  20.890  1.00  0.00     0.175 C 
BRANCH   7   8
ATOM      8  C   UNL     1      20.917 -31.199  22.087  1.00  0.00     0.243 C 
ATOM      9  N   UNL     1      20.578 -30.770  23.414  1.00  0.00    -0.342 N 
ATOM     10  H   UNL     1      19.913 -29.974  23.537  1.00  0.00     0.164 HD
ATOM     11  O   UNL     1      21.501 -32.303  21.910  1.00  0.00    -0.273 OA
BRANCH   9  12
ATOM     12  C   UNL     1      21.137 -31.391  24.620  1.00  0.00     0.174 CG0
ATOM     13  G   UNL     1      22.127 -30.420  25.214  1.00  0.00     0.000 G0
BRANCH  12  14
ATOM     14  C   UNL     1      19.994 -31.769  25.608  1.00  0.00     0.018 C 
ATOM     15  C   UNL     1      19.960 -33.287  25.874  1.00  0.00     0.010 C 
BRANCH  14  16
ATOM     16  C   UNL     1      18.627 -31.291  25.056  1.00  0.00     0.002 C 
ATOM     17  C   UNL     1      17.658 -32.439  24.766  1.00  0.00     0.004 C 
ENDBRANCH  14  16
ENDBRANCH  12  14
ENDBRANCH   9  12
ENDBRANCH   7   8
BRANCH   7  18
ATOM     18  C   UNL     1      19.178 -29.787  20.862  1.00  0.00     0.073 C 
BRANCH  18  19
ATOM     19  C   UNL     1      18.173 -30.880  21.092  1.00  0.00    -0.016 A 
ATOM     20  C   UNL     1      18.309 -32.211  20.725  1.00  0.00     0.134 A 
ATOM     21  C   UNL     1      16.912 -30.769  21.643  1.00  0.00     0.006 A 
ATOM     22  N   UNL     1      17.190 -32.904  21.032  1.00  0.00    -0.191 N 
ATOM     23  C   UNL     1      16.329 -32.019  21.600  1.00  0.00     0.087 A 
ATOM     24  C   UNL     1      16.255 -29.657  22.170  1.00  0.00     0.011 A 
ATOM     25  C   UNL     1      15.031 -32.212  22.101  1.00  0.00     0.030 A 
ATOM     26  C   UNL     1      14.956 -29.835  22.672  1.00  0.00     0.001 A 
ATOM     27  C   UNL     1      14.350 -31.106  22.640  1.00  0.00     0.002 A 
BRANCH  22  28
ATOM     28  O   UNL     1      17.063 -34.256  20.751  1.00  0.00    -0.417 OA
ATOM     29  C   UNL     1      16.461 -34.794  19.584  1.00  0.00     0.313 C 
ENDBRANCH  22  28
ENDBRANCH  18  19
ENDBRANCH   7  18
ENDBRANCH   4   7
ENDBRANCH   2   3
BRANCH   2  30
ATOM     30  N   UNL     1      23.679 -28.104  22.517  1.00  0.00    -0.343 N 
ATOM     31  C   UNL     1      23.600 -28.241  23.945  1.00  0.00     0.243 C 
ATOM     32  H   UNL     1      24.271 -28.782  21.985  1.00  0.00     0.164 HD
ATOM     33  O   UNL     1      22.853 -27.475  24.616  1.00  0.00    -0.273 OA
BRANCH  31  34
ATOM     34  C   UNL     1      24.373 -29.343  24.635  1.00  0.00     0.174 C 
ATOM     35  N   UNL     1      23.543 -30.531  24.906  1.00  0.00    -0.329 N 
ATOM     36  C   UNL     1      25.037 -28.886  25.949  1.00  0.00     0.035 C 
ATOM     37  C   UNL     1      24.275 -31.691  25.427  1.00  0.00     0.120 C 
ATOM     38  C   UNL     1      25.824 -30.048  26.577  1.00  0.00     0.004 C 
ATOM     39  C   UNL     1      24.953 -31.304  26.748  1.00  0.00     0.022 C 
BRANCH  35  40
ATOM     40  C   UNL     1      22.137 -30.425  25.206  1.00  0.00     0.246 CG0
ATOM     41  O   UNL     1      21.718 -29.494  25.948  1.00  0.00    -0.272 OA
ATOM     42  G   UNL     1      21.150 -31.384  24.587  1.00  0.00     0.000 G0
ENDBRANCH  35  40
ENDBRANCH  31  34
ENDBRANCH   2  30
ENDBRANCH   1   2
BRANCH   1  43
ATOM     43  C   UNL     1      23.021 -25.251  20.126  1.00  0.00     0.003 C 
BRANCH  43  44
ATOM     44  C   UNL     1      22.942 -24.260  21.309  1.00  0.00     0.001 C 
BRANCH  44  45
ATOM     45  C   UNL     1      21.540 -24.156  21.937  1.00  0.00     0.008 C 
BRANCH  45  46
ATOM     46  C   UNL     1      21.447 -23.178  23.119  1.00  0.00     0.075 C 
BRANCH  46  47
ATOM     47  C   UNL     1      22.787 -22.589  23.491  1.00  0.00     0.132 C 
ATOM     48  O   UNL     1      23.200 -21.609  22.889  1.00  0.00    -0.300 OA
BRANCH  47  49
ATOM     49  C   UNL     1      23.596 -23.142  24.638  1.00  0.00     0.072 C 
ATOM     50  C   UNL     1      22.723 -23.955  25.590  1.00  0.00     0.012 C 
ENDBRANCH  47  49
ENDBRANCH  46  47
ENDBRANCH  45  46
ENDBRANCH  44  45
ENDBRANCH  43  44
ENDBRANCH   1  43
TORSDOF 12
ENDMDL
MODEL 7
REMARK VINA RESULT:    -5.497      2.581      7.599
REMARK INTER + INTRA:         -14.217
REMARK INTER:                 -12.113
REMARK INTRA:                  -2.103
REMARK UNBOUND:                -2.614
REMARK SMILES CCC(=O)CCCCC[C@@H]1NC(=O)[C@H]2CCCCN2C(=O)[C@@H]([C@H](C)CC)NC(=O)[C@@H](Cc2cn(OC)c3ccccc23)NC1=O
REMARK SMILES IDX 9 1 10 2 44 3 43 4 45 6 30 7 28 8 27 9 29 11 22 12 23 14
REMARK SMILES IDX 24 15 25 16 26 17 31 18 32 19 33 20 42 21 34 22 37 23 41 24
REMARK SMILES IDX 38 25 40 26 39 27 35 28 36 29 11 30 12 31 13 33 14 34 19 35
REMARK SMILES IDX 15 36 18 37 16 38 17 39 20 40 21 41 8 43 7 44 6 45 5 46 3 47
REMARK SMILES IDX 4 48 2 49 1 50
REMARK H PARENT 43 5 27 10 11 32
REMARK Flexibility Score: 80.00
ROOT
ATOM      1  C   UNL     1      23.699 -28.831  23.292  1.00  0.00     0.035 C 
ENDROOT
BRANCH   1   2
ATOM      2  C   UNL     1      23.884 -30.152  24.064  1.00  0.00     0.171 C 
BRANCH   2   3
ATOM      3  C   UNL     1      22.580 -30.773  24.500  1.00  0.00     0.243 C 
ATOM      4  N   UNL     1      21.465 -30.870  23.590  1.00  0.00    -0.342 N 
ATOM      5  H   UNL     1      21.494 -30.293  22.719  1.00  0.00     0.164 HD
ATOM      6  O   UNL     1      22.499 -31.241  25.665  1.00  0.00    -0.273 OA
BRANCH   4   7
ATOM      7  C   UNL     1      20.423 -31.904  23.622  1.00  0.00     0.175 C 
BRANCH   7   8
ATOM      8  C   UNL     1      21.024 -33.253  23.316  1.00  0.00     0.243 C 
ATOM      9  N   UNL     1      22.162 -33.739  24.044  1.00  0.00    -0.342 N 
ATOM     10  H   UNL     1      22.426 -33.276  24.941  1.00  0.00     0.164 HD
ATOM     11  O   UNL     1      20.531 -33.942  22.382  1.00  0.00    -0.273 OA
BRANCH   9  12
ATOM     12  C   UNL     1      22.989 -34.856  23.576  1.00  0.00     0.174 CG0
ATOM     13  G   UNL     1      24.429 -34.508  23.866  1.00  0.00     0.000 G0
BRANCH  12  14
ATOM     14  C   UNL     1      22.539 -36.181  24.259  1.00  0.00     0.018 C 
ATOM     15  C   UNL     1      21.872 -37.136  23.251  1.00  0.00     0.010 C 
BRANCH  14  16
ATOM     16  C   UNL     1      21.570 -35.878  25.431  1.00  0.00     0.002 C 
ATOM     17  C   UNL     1      20.575 -37.008  25.700  1.00  0.00     0.004 C 
ENDBRANCH  14  16
ENDBRANCH  12  14
ENDBRANCH   9  12
ENDBRANCH   7   8
BRANCH   7  18
ATOM     18  C   UNL     1      19.590 -31.880  24.921  1.00  0.00     0.073 C 
BRANCH  18  19
ATOM     19  C   UNL     1      18.446 -32.852  24.861  1.00  0.00    -0.016 A 
ATOM     20  C   UNL     1      18.472 -34.176  25.274  1.00  0.00     0.134 A 
ATOM     21  C   UNL     1      17.187 -32.647  24.334  1.00  0.00     0.006 A 
ATOM     22  N   UNL     1      17.286 -34.775  25.021  1.00  0.00    -0.191 N 
ATOM     23  C   UNL     1      16.492 -33.834  24.444  1.00  0.00     0.087 A 
ATOM     24  C   UNL     1      16.623 -31.502  23.770  1.00  0.00     0.011 A 
ATOM     25  C   UNL     1      15.167 -33.924  23.988  1.00  0.00     0.030 A 
ATOM     26  C   UNL     1      15.300 -31.578  23.308  1.00  0.00     0.001 A 
ATOM     27  C   UNL     1      14.576 -32.781  23.419  1.00  0.00     0.002 A 
BRANCH  22  28
ATOM     28  O   UNL     1      17.057 -36.108  25.325  1.00  0.00    -0.417 OA
ATOM     29  C   UNL     1      16.875 -36.627  26.634  1.00  0.00     0.313 C 
ENDBRANCH  22  28
ENDBRANCH  18  19
ENDBRANCH   7  18
ENDBRANCH   4   7
ENDBRANCH   2   3
BRANCH   2  30
ATOM     30  N   UNL     1      24.615 -31.115  23.237  1.00  0.00    -0.343 N 
ATOM     31  C   UNL     1      25.724 -31.880  23.736  1.00  0.00     0.243 C 
ATOM     32  H   UNL     1      24.216 -31.369  22.305  1.00  0.00     0.164 HD
ATOM     33  O   UNL     1      26.199 -31.637  24.881  1.00  0.00    -0.273 OA
BRANCH  31  34
ATOM     34  C   UNL     1      26.285 -33.013  22.907  1.00  0.00     0.174 C 
ATOM     35  N   UNL     1      25.351 -34.149  22.797  1.00  0.00    -0.329 N 
ATOM     36  C   UNL     1      27.642 -33.529  23.425  1.00  0.00     0.035 C 
ATOM     37  C   UNL     1      25.772 -35.209  21.875  1.00  0.00     0.120 C 
ATOM     38  C   UNL     1      28.160 -34.659  22.519  1.00  0.00     0.004 C 
ATOM     39  C   UNL     1      27.118 -35.777  22.344  1.00  0.00     0.022 C 
BRANCH  35  40
ATOM     40  C   UNL     1      24.448 -34.497  23.866  1.00  0.00     0.246 CG0
ATOM     41  O   UNL     1      24.841 -34.451  25.065  1.00  0.00    -0.272 OA
ATOM     42  G   UNL     1      23.014 -34.858  23.567  1.00  0.00     0.000 G0
ENDBRANCH  35  40
ENDBRANCH  31  34
ENDBRANCH   2  30
ENDBRANCH   1   2
BRANCH   1  43
ATOM     43  C   UNL     1      22.959 -27.766  24.118  1.00  0.00     0.003 C 
BRANCH  43  44
ATOM     44  C   UNL     1      22.333 -26.665  23.234  1.00  0.00     0.001 C 
BRANCH  44  45
ATOM     45  C   UNL     1      23.045 -26.478  21.881  1.00  0.00     0.008 C 
BRANCH  45  46
ATOM     46  C   UNL     1      22.236 -26.963  20.667  1.00  0.00     0.075 C 
BRANCH  46  47
ATOM     47  C   UNL     1      20.775 -26.592  20.759  1.00  0.00     0.132 C 
ATOM     48  O   UNL     1      20.437 -25.433  20.572  1.00  0.00    -0.300 OA
BRANCH  47  49
ATOM     49  C   UNL     1      19.715 -27.637  21.007  1.00  0.00     0.072 C 
ATOM     50  C   UNL     1      20.305 -29.043  20.979  1.00  0.00     0.012 C 
ENDBRANCH  47  49
ENDBRANCH  46  47
ENDBRANCH  45  46
ENDBRANCH  44  45
ENDBRANCH  43  44
ENDBRANCH   1  43
TORSDOF 12
ENDMDL
MODEL 8
REMARK VINA RESULT:    -5.490      1.450      1.950
REMARK INTER + INTRA:         -14.203
REMARK INTER:                 -11.922
REMARK INTRA:                  -2.281
REMARK UNBOUND:                -2.614
REMARK SMILES CCC(=O)CCCCC[C@@H]1NC(=O)[C@H]2CCCCN2C(=O)[C@@H]([C@H](C)CC)NC(=O)[C@@H](Cc2cn(OC)c3ccccc23)NC1=O
REMARK SMILES IDX 9 1 10 2 44 3 43 4 45 6 30 7 28 8 27 9 29 11 22 12 23 14
REMARK SMILES IDX 24 15 25 16 26 17 31 18 32 19 33 20 42 21 34 22 37 23 41 24
REMARK SMILES IDX 38 25 40 26 39 27 35 28 36 29 11 30 12 31 13 33 14 34 19 35
REMARK SMILES IDX 15 36 18 37 16 38 17 39 20 40 21 41 8 43 7 44 6 45 5 46 3 47
REMARK SMILES IDX 4 48 2 49 1 50
REMARK H PARENT 43 5 27 10 11 32
REMARK Flexibility Score: 80.00
ROOT
ATOM      1  C   UNL     1      18.158 -30.596  21.917  1.00  0.00     0.035 C 
ENDROOT
BRANCH   1   2
ATOM      2  C   UNL     1      19.367 -31.548  21.825  1.00  0.00     0.171 C 
BRANCH   2   3
ATOM      3  C   UNL     1      20.685 -30.862  22.086  1.00  0.00     0.243 C 
ATOM      4  N   UNL     1      20.886 -30.072  23.275  1.00  0.00    -0.342 N 
ATOM      5  H   UNL     1      20.042 -29.787  23.822  1.00  0.00     0.164 HD
ATOM      6  O   UNL     1      21.619 -31.026  21.259  1.00  0.00    -0.273 OA
BRANCH   4   7
ATOM      7  C   UNL     1      22.171 -29.861  23.954  1.00  0.00     0.175 C 
BRANCH   7   8
ATOM      8  C   UNL     1      22.661 -31.158  24.547  1.00  0.00     0.243 C 
ATOM      9  N   UNL     1      22.653 -32.372  23.780  1.00  0.00    -0.342 N 
ATOM     10  H   UNL     1      22.538 -32.318  22.744  1.00  0.00     0.164 HD
ATOM     11  O   UNL     1      23.052 -31.172  25.746  1.00  0.00    -0.273 OA
BRANCH   9  12
ATOM     12  C   UNL     1      22.782 -33.700  24.389  1.00  0.00     0.174 CG0
ATOM     13  G   UNL     1      21.877 -34.639  23.631  1.00  0.00     0.000 G0
BRANCH  12  14
ATOM     14  C   UNL     1      24.272 -34.154  24.375  1.00  0.00     0.018 C 
ATOM     15  C   UNL     1      24.847 -34.242  25.802  1.00  0.00     0.010 C 
BRANCH  14  16
ATOM     16  C   UNL     1      25.121 -33.184  23.514  1.00  0.00     0.002 C 
ATOM     17  C   UNL     1      25.425 -33.725  22.116  1.00  0.00     0.004 C 
ENDBRANCH  14  16
ENDBRANCH  12  14
ENDBRANCH   9  12
ENDBRANCH   7   8
BRANCH   7  18
ATOM     18  C   UNL     1      23.215 -29.157  23.062  1.00  0.00     0.073 C 
BRANCH  18  19
ATOM     19  C   UNL     1      22.928 -27.688  22.931  1.00  0.00    -0.016 A 
ATOM     20  C   UNL     1      22.497 -26.842  23.943  1.00  0.00     0.134 A 
ATOM     21  C   UNL     1      22.969 -26.915  21.788  1.00  0.00     0.006 A 
ATOM     22  N   UNL     1      22.281 -25.598  23.461  1.00  0.00    -0.191 N 
ATOM     23  C   UNL     1      22.573 -25.640  22.134  1.00  0.00     0.087 A 
ATOM     24  C   UNL     1      23.325 -27.257  20.483  1.00  0.00     0.011 A 
ATOM     25  C   UNL     1      22.521 -24.626  21.163  1.00  0.00     0.030 A 
ATOM     26  C   UNL     1      23.276 -26.256  19.501  1.00  0.00     0.001 A 
ATOM     27  C   UNL     1      22.879 -24.948  19.841  1.00  0.00     0.002 A 
BRANCH  22  28
ATOM     28  O   UNL     1      21.828 -24.566  24.269  1.00  0.00    -0.417 OA
ATOM     29  C   UNL     1      22.583 -23.416  24.622  1.00  0.00     0.313 C 
ENDBRANCH  22  28
ENDBRANCH  18  19
ENDBRANCH   7  18
ENDBRANCH   4   7
ENDBRANCH   2   3
BRANCH   2  30
ATOM     30  N   UNL     1      19.208 -32.649  22.779  1.00  0.00    -0.343 N 
ATOM     31  C   UNL     1      19.308 -34.029  22.392  1.00  0.00     0.243 C 
ATOM     32  H   UNL     1      19.182 -32.420  23.798  1.00  0.00     0.164 HD
ATOM     33  O   UNL     1      19.397 -34.341  21.171  1.00  0.00    -0.273 OA
BRANCH  31  34
ATOM     34  C   UNL     1      19.363 -35.102  23.455  1.00  0.00     0.174 C 
ATOM     35  N   UNL     1      20.611 -35.059  24.238  1.00  0.00    -0.329 N 
ATOM     36  C   UNL     1      19.175 -36.524  22.891  1.00  0.00     0.035 C 
ATOM     37  C   UNL     1      20.653 -35.970  25.387  1.00  0.00     0.120 C 
ATOM     38  C   UNL     1      19.215 -37.556  24.032  1.00  0.00     0.004 C 
ATOM     39  C   UNL     1      20.483 -37.412  24.890  1.00  0.00     0.022 C 
BRANCH  35  40
ATOM     40  C   UNL     1      21.863 -34.646  23.653  1.00  0.00     0.246 CG0
ATOM     41  O   UNL     1      22.178 -35.040  22.496  1.00  0.00    -0.272 OA
ATOM     42  G   UNL     1      22.773 -33.695  24.389  1.00  0.00     0.000 G0
ENDBRANCH  35  40
ENDBRANCH  31  34
ENDBRANCH   2  30
ENDBRANCH   1   2
BRANCH   1  43
ATOM     43  C   UNL     1      16.905 -31.169  21.232  1.00  0.00     0.003 C 
BRANCH  43  44
ATOM     44  C   UNL     1      15.614 -30.872  22.025  1.00  0.00     0.001 C 
BRANCH  44  45
ATOM     45  C   UNL     1      15.638 -31.405  23.469  1.00  0.00     0.008 C 
BRANCH  45  46
ATOM     46  C   UNL     1      14.798 -32.673  23.691  1.00  0.00     0.075 C 
BRANCH  46  47
ATOM     47  C   UNL     1      15.596 -33.939  23.487  1.00  0.00     0.132 C 
ATOM     48  O   UNL     1      15.852 -34.311  22.352  1.00  0.00    -0.300 OA
BRANCH  47  49
ATOM     49  C   UNL     1      16.144 -34.717  24.657  1.00  0.00     0.072 C 
ATOM     50  C   UNL     1      17.089 -33.863  25.497  1.00  0.00     0.012 C 
ENDBRANCH  47  49
ENDBRANCH  46  47
ENDBRANCH  45  46
ENDBRANCH  44  45
ENDBRANCH  43  44
ENDBRANCH   1  43
TORSDOF 12
ENDMDL
MODEL 9
REMARK VINA RESULT:    -5.347      2.549      6.930
REMARK INTER + INTRA:         -13.901
REMARK INTER:                 -11.810
REMARK INTRA:                  -2.091
REMARK UNBOUND:                -2.614
REMARK SMILES CCC(=O)CCCCC[C@@H]1NC(=O)[C@H]2CCCCN2C(=O)[C@@H]([C@H](C)CC)NC(=O)[C@@H](Cc2cn(OC)c3ccccc23)NC1=O
REMARK SMILES IDX 9 1 10 2 44 3 43 4 45 6 30 7 28 8 27 9 29 11 22 12 23 14
REMARK SMILES IDX 24 15 25 16 26 17 31 18 32 19 33 20 42 21 34 22 37 23 41 24
REMARK SMILES IDX 38 25 40 26 39 27 35 28 36 29 11 30 12 31 13 33 14 34 19 35
REMARK SMILES IDX 15 36 18 37 16 38 17 39 20 40 21 41 8 43 7 44 6 45 5 46 3 47
REMARK SMILES IDX 4 48 2 49 1 50
REMARK H PARENT 43 5 27 10 11 32
REMARK Flexibility Score: 80.00
ROOT
ATOM      1  C   UNL     1      21.302 -36.030  23.264  1.00  0.00     0.035 C 
ENDROOT
BRANCH   1   2
ATOM      2  C   UNL     1      22.011 -34.667  23.152  1.00  0.00     0.171 C 
BRANCH   2   3
ATOM      3  C   UNL     1      21.061 -33.520  22.904  1.00  0.00     0.243 C 
ATOM      4  N   UNL     1      19.924 -33.303  23.762  1.00  0.00    -0.342 N 
ATOM      5  H   UNL     1      19.636 -34.080  24.400  1.00  0.00     0.164 HD
ATOM      6  O   UNL     1      21.306 -32.735  21.952  1.00  0.00    -0.273 OA
BRANCH   4   7
ATOM      7  C   UNL     1      19.297 -32.003  24.038  1.00  0.00     0.175 C 
BRANCH   7   8
ATOM      8  C   UNL     1      20.235 -31.137  24.839  1.00  0.00     0.243 C 
ATOM      9  N   UNL     1      21.597 -30.943  24.429  1.00  0.00    -0.342 N 
ATOM     10  H   UNL     1      21.875 -31.199  23.455  1.00  0.00     0.164 HD
ATOM     11  O   UNL     1      19.816 -30.605  25.903  1.00  0.00    -0.273 OA
BRANCH   9  12
ATOM     12  C   UNL     1      22.632 -30.413  25.323  1.00  0.00     0.174 CG0
ATOM     13  G   UNL     1      23.883 -31.227  25.104  1.00  0.00     0.000 G0
BRANCH  12  14
ATOM     14  C   UNL     1      22.845 -28.894  25.056  1.00  0.00     0.018 C 
ATOM     15  C   UNL     1      22.240 -28.034  26.182  1.00  0.00     0.010 C 
BRANCH  14  16
ATOM     16  C   UNL     1      22.230 -28.497  23.689  1.00  0.00     0.002 C 
ATOM     17  C   UNL     1      22.520 -27.048  23.294  1.00  0.00     0.004 C 
ENDBRANCH  14  16
ENDBRANCH  12  14
ENDBRANCH   9  12
ENDBRANCH   7   8
BRANCH   7  18
ATOM     18  C   UNL     1      18.755 -31.315  22.767  1.00  0.00     0.073 C 
BRANCH  18  19
ATOM     19  C   UNL     1      17.453 -31.920  22.325  1.00  0.00    -0.016 A 
ATOM     20  C   UNL     1      16.204 -31.677  22.878  1.00  0.00     0.134 A 
ATOM     21  C   UNL     1      17.250 -32.870  21.343  1.00  0.00     0.006 A 
ATOM     22  N   UNL     1      15.262 -32.434  22.274  1.00  0.00    -0.191 N 
ATOM     23  C   UNL     1      15.903 -33.168  21.326  1.00  0.00     0.087 A 
ATOM     24  C   UNL     1      18.161 -33.480  20.480  1.00  0.00     0.011 A 
ATOM     25  C   UNL     1      15.399 -34.111  20.415  1.00  0.00     0.030 A 
ATOM     26  C   UNL     1      17.671 -34.426  19.567  1.00  0.00     0.001 A 
ATOM     27  C   UNL     1      16.298 -34.736  19.533  1.00  0.00     0.002 A 
BRANCH  22  28
ATOM     28  O   UNL     1      13.929 -32.391  22.653  1.00  0.00    -0.417 OA
ATOM     29  C   UNL     1      13.233 -31.220  23.056  1.00  0.00     0.313 C 
ENDBRANCH  22  28
ENDBRANCH  18  19
ENDBRANCH   7  18
ENDBRANCH   4   7
ENDBRANCH   2   3
BRANCH   2  30
ATOM     30  N   UNL     1      22.770 -34.397  24.376  1.00  0.00    -0.343 N 
ATOM     31  C   UNL     1      24.158 -34.028  24.361  1.00  0.00     0.243 C 
ATOM     32  H   UNL     1      22.244 -34.315  25.276  1.00  0.00     0.164 HD
ATOM     33  O   UNL     1      24.813 -34.063  23.281  1.00  0.00    -0.273 OA
BRANCH  31  34
ATOM     34  C   UNL     1      24.817 -33.544  25.633  1.00  0.00     0.174 C 
ATOM     35  N   UNL     1      24.317 -32.225  26.063  1.00  0.00    -0.329 N 
ATOM     36  C   UNL     1      26.355 -33.489  25.536  1.00  0.00     0.035 C 
ATOM     37  C   UNL     1      24.800 -31.777  27.373  1.00  0.00     0.120 C 
ATOM     38  C   UNL     1      26.953 -33.015  26.871  1.00  0.00     0.004 C 
ATOM     39  C   UNL     1      26.332 -31.688  27.339  1.00  0.00     0.022 C 
BRANCH  35  40
ATOM     40  C   UNL     1      23.901 -31.223  25.113  1.00  0.00     0.246 CG0
ATOM     41  O   UNL     1      24.562 -31.045  24.053  1.00  0.00    -0.272 OA
ATOM     42  G   UNL     1      22.641 -30.426  25.347  1.00  0.00     0.000 G0
ENDBRANCH  35  40
ENDBRANCH  31  34
ENDBRANCH   2  30
ENDBRANCH   1   2
BRANCH   1  43
ATOM     43  C   UNL     1      21.705 -36.801  24.533  1.00  0.00     0.003 C 
BRANCH  43  44
ATOM     44  C   UNL     1      20.680 -36.629  25.675  1.00  0.00     0.001 C 
BRANCH  44  45
ATOM     45  C   UNL     1      19.214 -36.693  25.208  1.00  0.00     0.008 C 
BRANCH  45  46
ATOM     46  C   UNL     1      18.375 -37.780  25.901  1.00  0.00     0.075 C 
BRANCH  46  47
ATOM     47  C   UNL     1      17.070 -37.246  26.443  1.00  0.00     0.132 C 
ATOM     48  O   UNL     1      16.624 -36.196  26.005  1.00  0.00    -0.300 OA
BRANCH  47  49
ATOM     49  C   UNL     1      16.270 -38.018  27.462  1.00  0.00     0.072 C 
ATOM     50  C   UNL     1      16.901 -37.924  28.848  1.00  0.00     0.012 C 
ENDBRANCH  47  49
ENDBRANCH  46  47
ENDBRANCH  45  46
ENDBRANCH  44  45
ENDBRANCH  43  44
ENDBRANCH   1  43
TORSDOF 12
ENDMDL
