MODEL 1
REMARK VINA RESULT:    -5.488      0.000      0.000
REMARK INTER + INTRA:          -6.736
REMARK INTER:                  -6.451
REMARK INTRA:                  -0.285
REMARK UNBOUND:                -0.285
REMARK SMILES Oc1ccc(-c2[o+]c3cc(O)cc(O)c3cc2O)cc1
REMARK SMILES IDX 6 1 7 2 8 3 9 4 10 5 12 6 13 7 15 8 16 9 17 10 5 11 4 12
REMARK SMILES IDX 3 13 2 14 19 15 20 16 1 17 18 19 11 21 14 23
REMARK H PARENT 1 18 18 20 11 22 14 24
REMARK Flexibility Score: inf
ROOT
ATOM      1  C   UNL     1      -0.834 -25.697 -45.831  1.00  0.00     0.401 A 
ATOM      2  O   UNL     1      -1.674 -25.404 -44.841  1.00  0.00    -0.202 OA
ATOM      3  C   UNL     1      -2.987 -25.596 -44.916  1.00  0.00     0.368 A 
ATOM      4  C   UNL     1      -3.788 -25.253 -43.823  1.00  0.00     0.162 A 
ATOM      5  C   UNL     1      -5.170 -25.441 -43.876  1.00  0.00     0.128 A 
ATOM      6  C   UNL     1      -5.758 -25.974 -45.029  1.00  0.00     0.093 A 
ATOM      7  C   UNL     1      -4.976 -26.325 -46.137  1.00  0.00     0.136 A 
ATOM      8  C   UNL     1      -3.571 -26.138 -46.086  1.00  0.00     0.125 A 
ATOM      9  C   UNL     1      -2.709 -26.473 -47.143  1.00  0.00     0.078 A 
ATOM     10  C   UNL     1      -1.331 -26.264 -47.018  1.00  0.00     0.223 A 
ENDROOT
BRANCH   1  11
ATOM     11  C   UNL     1       0.608 -25.428 -45.628  1.00  0.00     0.084 A 
ATOM     12  C   UNL     1       1.191 -24.299 -46.229  1.00  0.00     0.022 A 
ATOM     13  C   UNL     1       2.555 -24.038 -46.068  1.00  0.00     0.047 A 
ATOM     14  C   UNL     1       3.356 -24.907 -45.322  1.00  0.00     0.115 A 
ATOM     15  C   UNL     1       1.422 -26.309 -44.895  1.00  0.00     0.022 A 
ATOM     16  C   UNL     1       2.786 -26.046 -44.737  1.00  0.00     0.047 A 
BRANCH  14  17
ATOM     17  O   UNL     1       4.713 -24.633 -45.170  1.00  0.00    -0.508 OA
ATOM     18  H   UNL     1       5.290 -24.364 -45.959  1.00  0.00     0.293 HD
ENDBRANCH  14  17
ENDBRANCH   1  11
BRANCH  10  19
ATOM     19  O   UNL     1      -0.471 -26.643 -48.048  1.00  0.00    -0.500 OA
ATOM     20  H   UNL     1       0.302 -27.279 -47.890  1.00  0.00     0.294 HD
ENDBRANCH  10  19
BRANCH   5  21
ATOM     21  O   UNL     1      -5.951 -25.094 -42.776  1.00  0.00    -0.507 OA
ATOM     22  H   UNL     1      -6.437 -24.205 -42.730  1.00  0.00     0.293 HD
ENDBRANCH   5  21
BRANCH   7  23
ATOM     23  O   UNL     1      -5.638 -26.849 -47.251  1.00  0.00    -0.507 OA
ATOM     24  H   UNL     1      -6.538 -26.531 -47.581  1.00  0.00     0.293 HD
ENDBRANCH   7  23
TORSDOF 5
ENDMDL
MODEL 2
REMARK VINA RESULT:    -5.400      3.610      5.681
REMARK INTER + INTRA:          -6.633
REMARK INTER:                  -6.339
REMARK INTRA:                  -0.294
REMARK UNBOUND:                -0.285
REMARK SMILES Oc1ccc(-c2[o+]c3cc(O)cc(O)c3cc2O)cc1
REMARK SMILES IDX 6 1 7 2 8 3 9 4 10 5 12 6 13 7 15 8 16 9 17 10 5 11 4 12
REMARK SMILES IDX 3 13 2 14 19 15 20 16 1 17 18 19 11 21 14 23
REMARK H PARENT 1 18 18 20 11 22 14 24
REMARK Flexibility Score: inf
ROOT
ATOM      1  C   UNL     1       0.063 -23.226 -44.306  1.00  0.00     0.401 A 
ATOM      2  O   UNL     1      -0.861 -23.778 -45.089  1.00  0.00    -0.202 OA
ATOM      3  C   UNL     1      -0.618 -24.812 -45.888  1.00  0.00     0.368 A 
ATOM      4  C   UNL     1      -1.653 -25.320 -46.676  1.00  0.00     0.162 A 
ATOM      5  C   UNL     1      -1.427 -26.403 -47.526  1.00  0.00     0.128 A 
ATOM      6  C   UNL     1      -0.154 -26.984 -47.591  1.00  0.00     0.093 A 
ATOM      7  C   UNL     1       0.900 -26.493 -46.811  1.00  0.00     0.136 A 
ATOM      8  C   UNL     1       0.672 -25.393 -45.943  1.00  0.00     0.125 A 
ATOM      9  C   UNL     1       1.665 -24.844 -45.117  1.00  0.00     0.078 A 
ATOM     10  C   UNL     1       1.364 -23.761 -44.283  1.00  0.00     0.223 A 
ENDROOT
BRANCH   1  11
ATOM     11  C   UNL     1      -0.329 -22.070 -43.468  1.00  0.00     0.084 A 
ATOM     12  C   UNL     1       0.016 -20.771 -43.877  1.00  0.00     0.022 A 
ATOM     13  C   UNL     1      -0.326 -19.667 -43.090  1.00  0.00     0.047 A 
ATOM     14  C   UNL     1      -1.001 -19.847 -41.879  1.00  0.00     0.115 A 
ATOM     15  C   UNL     1      -0.990 -22.247 -42.239  1.00  0.00     0.022 A 
ATOM     16  C   UNL     1      -1.330 -21.141 -41.454  1.00  0.00     0.047 A 
BRANCH  14  17
ATOM     17  O   UNL     1      -1.335 -18.738 -41.106  1.00  0.00    -0.508 OA
ATOM     18  H   UNL     1      -0.623 -18.147 -40.691  1.00  0.00     0.293 HD
ENDBRANCH  14  17
ENDBRANCH   1  11
BRANCH  10  19
ATOM     19  O   UNL     1       2.337 -23.248 -43.425  1.00  0.00    -0.500 OA
ATOM     20  H   UNL     1       3.141 -23.795 -43.143  1.00  0.00     0.294 HD
ENDBRANCH  10  19
BRANCH   5  21
ATOM     21  O   UNL     1      -2.472 -26.896 -48.304  1.00  0.00    -0.507 OA
ATOM     22  H   UNL     1      -2.635 -26.561 -49.247  1.00  0.00     0.293 HD
ENDBRANCH   5  21
BRANCH   7  23
ATOM     23  O   UNL     1       2.140 -27.125 -46.934  1.00  0.00    -0.507 OA
ATOM     24  H   UNL     1       2.805 -26.939 -47.672  1.00  0.00     0.293 HD
ENDBRANCH   7  23
TORSDOF 5
ENDMDL
MODEL 3
REMARK VINA RESULT:    -5.280     16.598     17.418
REMARK INTER + INTRA:          -6.491
REMARK INTER:                  -6.203
REMARK INTRA:                  -0.288
REMARK UNBOUND:                -0.285
REMARK SMILES Oc1ccc(-c2[o+]c3cc(O)cc(O)c3cc2O)cc1
REMARK SMILES IDX 6 1 7 2 8 3 9 4 10 5 12 6 13 7 15 8 16 9 17 10 5 11 4 12
REMARK SMILES IDX 3 13 2 14 19 15 20 16 1 17 18 19 11 21 14 23
REMARK H PARENT 1 18 18 20 11 22 14 24
REMARK Flexibility Score: inf
ROOT
ATOM      1  C   UNL     1      -3.883  -9.152 -43.513  1.00  0.00     0.401 A 
ATOM      2  O   UNL     1      -3.749  -8.379 -44.588  1.00  0.00    -0.202 OA
ATOM      3  C   UNL     1      -4.499  -8.508 -45.677  1.00  0.00     0.368 A 
ATOM      4  C   UNL     1      -4.281  -7.651 -46.759  1.00  0.00     0.162 A 
ATOM      5  C   UNL     1      -5.051  -7.766 -47.917  1.00  0.00     0.128 A 
ATOM      6  C   UNL     1      -6.047  -8.746 -47.997  1.00  0.00     0.093 A 
ATOM      7  C   UNL     1      -6.285  -9.617 -46.927  1.00  0.00     0.136 A 
ATOM      8  C   UNL     1      -5.506  -9.501 -45.747  1.00  0.00     0.125 A 
ATOM      9  C   UNL     1      -5.683 -10.322 -44.621  1.00  0.00     0.078 A 
ATOM     10  C   UNL     1      -4.879 -10.145 -43.490  1.00  0.00     0.223 A 
ENDROOT
BRANCH   1  11
ATOM     11  C   UNL     1      -2.980  -8.915 -42.363  1.00  0.00     0.084 A 
ATOM     12  C   UNL     1      -1.696  -9.486 -42.364  1.00  0.00     0.022 A 
ATOM     13  C   UNL     1      -0.835  -9.293 -41.280  1.00  0.00     0.047 A 
ATOM     14  C   UNL     1      -1.249  -8.542 -40.176  1.00  0.00     0.115 A 
ATOM     15  C   UNL     1      -3.399  -8.177 -41.242  1.00  0.00     0.022 A 
ATOM     16  C   UNL     1      -2.535  -7.986 -40.158  1.00  0.00     0.047 A 
BRANCH  14  17
ATOM     17  O   UNL     1      -0.380  -8.358 -39.103  1.00  0.00    -0.508 OA
ATOM     18  H   UNL     1      -0.424  -7.528 -38.523  1.00  0.00     0.293 HD
ENDBRANCH  14  17
ENDBRANCH   1  11
BRANCH  10  19
ATOM     19  O   UNL     1      -5.088 -10.927 -42.355  1.00  0.00    -0.500 OA
ATOM     20  H   UNL     1      -6.000 -11.002 -41.920  1.00  0.00     0.294 HD
ENDBRANCH  10  19
BRANCH   5  21
ATOM     21  O   UNL     1      -4.818  -6.901 -48.984  1.00  0.00    -0.507 OA
ATOM     22  H   UNL     1      -4.929  -5.898 -48.888  1.00  0.00     0.293 HD
ENDBRANCH   5  21
BRANCH   7  23
ATOM     23  O   UNL     1      -7.296 -10.569 -47.085  1.00  0.00    -0.507 OA
ATOM     24  H   UNL     1      -7.391 -11.172 -47.890  1.00  0.00     0.293 HD
ENDBRANCH   7  23
TORSDOF 5
ENDMDL
MODEL 4
REMARK VINA RESULT:    -5.270      3.139      3.994
REMARK INTER + INTRA:          -6.479
REMARK INTER:                  -6.176
REMARK INTRA:                  -0.303
REMARK UNBOUND:                -0.285
REMARK SMILES Oc1ccc(-c2[o+]c3cc(O)cc(O)c3cc2O)cc1
REMARK SMILES IDX 6 1 7 2 8 3 9 4 10 5 12 6 13 7 15 8 16 9 17 10 5 11 4 12
REMARK SMILES IDX 3 13 2 14 19 15 20 16 1 17 18 19 11 21 14 23
REMARK H PARENT 1 18 18 20 11 22 14 24
REMARK Flexibility Score: inf
ROOT
ATOM      1  C   UNL     1      -0.292 -23.607 -44.765  1.00  0.00     0.401 A 
ATOM      2  O   UNL     1      -1.557 -24.005 -44.649  1.00  0.00    -0.202 OA
ATOM      3  C   UNL     1      -2.113 -24.913 -45.444  1.00  0.00     0.368 A 
ATOM      4  C   UNL     1      -3.451 -25.263 -45.246  1.00  0.00     0.162 A 
ATOM      5  C   UNL     1      -4.062 -26.211 -46.068  1.00  0.00     0.128 A 
ATOM      6  C   UNL     1      -3.331 -26.814 -47.098  1.00  0.00     0.093 A 
ATOM      7  C   UNL     1      -1.988 -26.480 -47.317  1.00  0.00     0.136 A 
ATOM      8  C   UNL     1      -1.364 -25.519 -46.481  1.00  0.00     0.125 A 
ATOM      9  C   UNL     1      -0.021 -25.132 -46.619  1.00  0.00     0.078 A 
ATOM     10  C   UNL     1       0.528 -24.180 -45.753  1.00  0.00     0.223 A 
ENDROOT
BRANCH   1  11
ATOM     11  C   UNL     1       0.208 -22.580 -43.823  1.00  0.00     0.084 A 
ATOM     12  C   UNL     1       0.874 -22.982 -42.652  1.00  0.00     0.022 A 
ATOM     13  C   UNL     1       1.336 -22.030 -41.739  1.00  0.00     0.047 A 
ATOM     14  C   UNL     1       1.124 -20.668 -41.973  1.00  0.00     0.115 A 
ATOM     15  C   UNL     1      -0.020 -21.210 -44.044  1.00  0.00     0.022 A 
ATOM     16  C   UNL     1       0.443 -20.260 -43.127  1.00  0.00     0.047 A 
BRANCH  14  17
ATOM     17  O   UNL     1       1.590 -19.731 -41.054  1.00  0.00    -0.508 OA
ATOM     18  H   UNL     1       1.557 -18.736 -41.248  1.00  0.00     0.293 HD
ENDBRANCH  14  17
ENDBRANCH   1  11
BRANCH  10  19
ATOM     19  O   UNL     1       1.875 -23.834 -45.859  1.00  0.00    -0.500 OA
ATOM     20  H   UNL     1       2.214 -23.232 -46.600  1.00  0.00     0.294 HD
ENDBRANCH  10  19
BRANCH   5  21
ATOM     21  O   UNL     1      -5.396 -26.546 -45.854  1.00  0.00    -0.507 OA
ATOM     22  H   UNL     1      -6.124 -25.840 -45.828  1.00  0.00     0.293 HD
ENDBRANCH   5  21
BRANCH   7  23
ATOM     23  O   UNL     1      -1.328 -27.125 -48.367  1.00  0.00    -0.507 OA
ATOM     24  H   UNL     1      -0.335 -27.305 -48.392  1.00  0.00     0.293 HD
ENDBRANCH   7  23
TORSDOF 5
ENDMDL
MODEL 5
REMARK VINA RESULT:    -5.116     15.774     17.585
REMARK INTER + INTRA:          -6.299
REMARK INTER:                  -6.001
REMARK INTRA:                  -0.298
REMARK UNBOUND:                -0.285
REMARK SMILES Oc1ccc(-c2[o+]c3cc(O)cc(O)c3cc2O)cc1
REMARK SMILES IDX 6 1 7 2 8 3 9 4 10 5 12 6 13 7 15 8 16 9 17 10 5 11 4 12
REMARK SMILES IDX 3 13 2 14 19 15 20 16 1 17 18 19 11 21 14 23
REMARK H PARENT 1 18 18 20 11 22 14 24
REMARK Flexibility Score: inf
ROOT
ATOM      1  C   UNL     1      -3.807  -9.388 -43.098  1.00  0.00     0.401 A 
ATOM      2  O   UNL     1      -2.839 -10.301 -43.093  1.00  0.00    -0.202 OA
ATOM      3  C   UNL     1      -1.820 -10.280 -42.241  1.00  0.00     0.368 A 
ATOM      4  C   UNL     1      -0.849 -11.282 -42.317  1.00  0.00     0.162 A 
ATOM      5  C   UNL     1       0.234 -11.283 -41.437  1.00  0.00     0.128 A 
ATOM      6  C   UNL     1       0.351 -10.274 -40.474  1.00  0.00     0.093 A 
ATOM      7  C   UNL     1      -0.609  -9.258 -40.378  1.00  0.00     0.136 A 
ATOM      8  C   UNL     1      -1.713  -9.256 -41.269  1.00  0.00     0.125 A 
ATOM      9  C   UNL     1      -2.728  -8.286 -41.238  1.00  0.00     0.078 A 
ATOM     10  C   UNL     1      -3.790  -8.351 -42.146  1.00  0.00     0.223 A 
ENDROOT
BRANCH   1  11
ATOM     11  C   UNL     1      -4.886  -9.515 -44.104  1.00  0.00     0.084 A 
ATOM     12  C   UNL     1      -5.877 -10.497 -43.935  1.00  0.00     0.022 A 
ATOM     13  C   UNL     1      -6.892 -10.649 -44.885  1.00  0.00     0.047 A 
ATOM     14  C   UNL     1      -6.921  -9.836 -46.022  1.00  0.00     0.115 A 
ATOM     15  C   UNL     1      -4.908  -8.713 -45.260  1.00  0.00     0.022 A 
ATOM     16  C   UNL     1      -5.925  -8.868 -46.208  1.00  0.00     0.047 A 
BRANCH  14  17
ATOM     17  O   UNL     1      -7.938  -9.998 -46.959  1.00  0.00    -0.508 OA
ATOM     18  H   UNL     1      -8.779 -10.522 -46.742  1.00  0.00     0.293 HD
ENDBRANCH  14  17
ENDBRANCH   1  11
BRANCH  10  19
ATOM     19  O   UNL     1      -4.823  -7.417 -42.082  1.00  0.00    -0.500 OA
ATOM     20  H   UNL     1      -5.560  -7.389 -42.777  1.00  0.00     0.294 HD
ENDBRANCH  10  19
BRANCH   5  21
ATOM     21  O   UNL     1       1.191 -12.291 -41.528  1.00  0.00    -0.507 OA
ATOM     22  H   UNL     1       2.178 -12.099 -41.404  1.00  0.00     0.293 HD
ENDBRANCH   5  21
BRANCH   7  23
ATOM     23  O   UNL     1      -0.420  -8.286 -39.392  1.00  0.00    -0.507 OA
ATOM     24  H   UNL     1       0.357  -8.271 -38.747  1.00  0.00     0.293 HD
ENDBRANCH   7  23
TORSDOF 5
ENDMDL
MODEL 6
REMARK VINA RESULT:    -5.017     17.136     17.937
REMARK INTER + INTRA:          -6.182
REMARK INTER:                  -5.881
REMARK INTRA:                  -0.302
REMARK UNBOUND:                -0.285
REMARK SMILES Oc1ccc(-c2[o+]c3cc(O)cc(O)c3cc2O)cc1
REMARK SMILES IDX 6 1 7 2 8 3 9 4 10 5 12 6 13 7 15 8 16 9 17 10 5 11 4 12
REMARK SMILES IDX 3 13 2 14 19 15 20 16 1 17 18 19 11 21 14 23
REMARK H PARENT 1 18 18 20 11 22 14 24
REMARK Flexibility Score: inf
ROOT
ATOM      1  C   UNL     1      -1.484 -11.690 -34.913  1.00  0.00     0.401 A 
ATOM      2  O   UNL     1      -2.725 -11.808 -34.445  1.00  0.00    -0.202 OA
ATOM      3  C   UNL     1      -3.108 -12.784 -33.629  1.00  0.00     0.368 A 
ATOM      4  C   UNL     1      -4.435 -12.825 -33.193  1.00  0.00     0.162 A 
ATOM      5  C   UNL     1      -4.865 -13.841 -32.339  1.00  0.00     0.128 A 
ATOM      6  C   UNL     1      -3.964 -14.825 -31.916  1.00  0.00     0.093 A 
ATOM      7  C   UNL     1      -2.629 -14.806 -32.339  1.00  0.00     0.136 A 
ATOM      8  C   UNL     1      -2.187 -13.773 -33.206  1.00  0.00     0.125 A 
ATOM      9  C   UNL     1      -0.866 -13.668 -33.670  1.00  0.00     0.078 A 
ATOM     10  C   UNL     1      -0.502 -12.618 -34.519  1.00  0.00     0.223 A 
ENDROOT
BRANCH   1  11
ATOM     11  C   UNL     1      -1.184 -10.562 -35.824  1.00  0.00     0.084 A 
ATOM     12  C   UNL     1      -1.422 -10.704 -37.202  1.00  0.00     0.022 A 
ATOM     13  C   UNL     1      -1.125  -9.660 -38.082  1.00  0.00     0.047 A 
ATOM     14  C   UNL     1      -0.572  -8.468 -37.602  1.00  0.00     0.115 A 
ATOM     15  C   UNL     1      -0.609  -9.370 -35.349  1.00  0.00     0.022 A 
ATOM     16  C   UNL     1      -0.312  -8.327 -36.232  1.00  0.00     0.047 A 
BRANCH  14  17
ATOM     17  O   UNL     1      -0.282  -7.436 -38.491  1.00  0.00    -0.508 OA
ATOM     18  H   UNL     1      -0.720  -6.526 -38.407  1.00  0.00     0.293 HD
ENDBRANCH  14  17
ENDBRANCH   1  11
BRANCH  10  19
ATOM     19  O   UNL     1       0.821 -12.485 -34.939  1.00  0.00    -0.500 OA
ATOM     20  H   UNL     1       1.415 -13.291 -35.092  1.00  0.00     0.294 HD
ENDBRANCH  10  19
BRANCH   5  21
ATOM     21  O   UNL     1      -6.192 -13.864 -31.915  1.00  0.00    -0.507 OA
ATOM     22  H   UNL     1      -6.682 -14.736 -31.751  1.00  0.00     0.293 HD
ENDBRANCH   5  21
BRANCH   7  23
ATOM     23  O   UNL     1      -1.793 -15.825 -31.875  1.00  0.00    -0.507 OA
ATOM     24  H   UNL     1      -0.834 -15.691 -31.588  1.00  0.00     0.293 HD
ENDBRANCH   7  23
TORSDOF 5
ENDMDL
MODEL 7
REMARK VINA RESULT:    -4.994     14.253     15.190
REMARK INTER + INTRA:          -6.155
REMARK INTER:                  -5.832
REMARK INTRA:                  -0.323
REMARK UNBOUND:                -0.285
REMARK SMILES Oc1ccc(-c2[o+]c3cc(O)cc(O)c3cc2O)cc1
REMARK SMILES IDX 6 1 7 2 8 3 9 4 10 5 12 6 13 7 15 8 16 9 17 10 5 11 4 12
REMARK SMILES IDX 3 13 2 14 19 15 20 16 1 17 18 19 11 21 14 23
REMARK H PARENT 1 18 18 20 11 22 14 24
REMARK Flexibility Score: inf
ROOT
ATOM      1  C   UNL     1      -1.260 -11.248 -40.856  1.00  0.00     0.401 A 
ATOM      2  O   UNL     1      -2.137 -11.468 -41.832  1.00  0.00    -0.202 OA
ATOM      3  C   UNL     1      -3.445 -11.576 -41.627  1.00  0.00     0.368 A 
ATOM      4  C   UNL     1      -4.287 -11.811 -42.717  1.00  0.00     0.162 A 
ATOM      5  C   UNL     1      -5.665 -11.932 -42.531  1.00  0.00     0.128 A 
ATOM      6  C   UNL     1      -6.207 -11.818 -41.246  1.00  0.00     0.093 A 
ATOM      7  C   UNL     1      -5.384 -11.582 -40.137  1.00  0.00     0.136 A 
ATOM      8  C   UNL     1      -3.983 -11.456 -40.324  1.00  0.00     0.125 A 
ATOM      9  C   UNL     1      -3.085 -11.207 -39.273  1.00  0.00     0.078 A 
ATOM     10  C   UNL     1      -1.716 -11.090 -39.534  1.00  0.00     0.223 A 
ENDROOT
BRANCH   1  11
ATOM     11  C   UNL     1       0.175 -11.157 -41.211  1.00  0.00     0.084 A 
ATOM     12  C   UNL     1       0.692  -9.944 -41.697  1.00  0.00     0.022 A 
ATOM     13  C   UNL     1       2.038  -9.843 -42.059  1.00  0.00     0.047 A 
ATOM     14  C   UNL     1       2.882 -10.953 -41.955  1.00  0.00     0.115 A 
ATOM     15  C   UNL     1       1.023 -12.277 -41.128  1.00  0.00     0.022 A 
ATOM     16  C   UNL     1       2.370 -12.172 -41.491  1.00  0.00     0.047 A 
BRANCH  14  17
ATOM     17  O   UNL     1       4.221 -10.837 -42.319  1.00  0.00    -0.508 OA
ATOM     18  H   UNL     1       4.949 -11.342 -41.827  1.00  0.00     0.293 HD
ENDBRANCH  14  17
ENDBRANCH   1  11
BRANCH  10  19
ATOM     19  O   UNL     1      -0.829 -10.793 -38.499  1.00  0.00    -0.500 OA
ATOM     20  H   UNL     1      -0.134 -10.062 -38.586  1.00  0.00     0.294 HD
ENDBRANCH  10  19
BRANCH   5  21
ATOM     21  O   UNL     1      -6.488 -12.166 -43.630  1.00  0.00    -0.507 OA
ATOM     22  H   UNL     1      -6.130 -12.586 -44.481  1.00  0.00     0.293 HD
ENDBRANCH   5  21
BRANCH   7  23
ATOM     23  O   UNL     1      -6.002 -11.483 -38.887  1.00  0.00    -0.507 OA
ATOM     24  H   UNL     1      -5.577 -11.066 -38.072  1.00  0.00     0.293 HD
ENDBRANCH   7  23
TORSDOF 5
ENDMDL
MODEL 8
REMARK VINA RESULT:    -4.885     14.504     16.792
REMARK INTER + INTRA:          -6.028
REMARK INTER:                  -5.712
REMARK INTRA:                  -0.315
REMARK UNBOUND:                -0.285
REMARK SMILES Oc1ccc(-c2[o+]c3cc(O)cc(O)c3cc2O)cc1
REMARK SMILES IDX 6 1 7 2 8 3 9 4 10 5 12 6 13 7 15 8 16 9 17 10 5 11 4 12
REMARK SMILES IDX 3 13 2 14 19 15 20 16 1 17 18 19 11 21 14 23
REMARK H PARENT 1 18 18 20 11 22 14 24
REMARK Flexibility Score: inf
ROOT
ATOM      1  C   UNL     1      -2.668 -10.675 -41.596  1.00  0.00     0.401 A 
ATOM      2  O   UNL     1      -1.574 -11.366 -41.287  1.00  0.00    -0.202 OA
ATOM      3  C   UNL     1      -0.349 -10.992 -41.642  1.00  0.00     0.368 A 
ATOM      4  C   UNL     1       0.739 -11.786 -41.273  1.00  0.00     0.162 A 
ATOM      5  C   UNL     1       2.036 -11.420 -41.635  1.00  0.00     0.128 A 
ATOM      6  C   UNL     1       2.248 -10.250 -42.375  1.00  0.00     0.093 A 
ATOM      7  C   UNL     1       1.174  -9.437 -42.757  1.00  0.00     0.136 A 
ATOM      8  C   UNL     1      -0.145  -9.806 -42.388  1.00  0.00     0.125 A 
ATOM      9  C   UNL     1      -1.279  -9.045 -42.717  1.00  0.00     0.078 A 
ATOM     10  C   UNL     1      -2.550  -9.470 -42.313  1.00  0.00     0.223 A 
ENDROOT
BRANCH   1  11
ATOM     11  C   UNL     1      -3.978 -11.201 -41.150  1.00  0.00     0.084 A 
ATOM     12  C   UNL     1      -4.386 -11.003 -39.820  1.00  0.00     0.022 A 
ATOM     13  C   UNL     1      -5.609 -11.510 -39.372  1.00  0.00     0.047 A 
ATOM     14  C   UNL     1      -6.432 -12.235 -40.239  1.00  0.00     0.115 A 
ATOM     15  C   UNL     1      -4.801 -11.948 -42.013  1.00  0.00     0.022 A 
ATOM     16  C   UNL     1      -6.024 -12.454 -41.561  1.00  0.00     0.047 A 
BRANCH  14  17
ATOM     17  O   UNL     1      -7.648 -12.734 -39.778  1.00  0.00    -0.508 OA
ATOM     18  H   UNL     1      -8.197 -13.383 -40.330  1.00  0.00     0.293 HD
ENDBRANCH  14  17
ENDBRANCH   1  11
BRANCH  10  19
ATOM     19  O   UNL     1      -3.670  -8.689 -42.596  1.00  0.00    -0.500 OA
ATOM     20  H   UNL     1      -4.377  -8.498 -41.896  1.00  0.00     0.294 HD
ENDBRANCH  10  19
BRANCH   5  21
ATOM     21  O   UNL     1       3.107 -12.225 -41.257  1.00  0.00    -0.507 OA
ATOM     22  H   UNL     1       3.744 -11.948 -40.518  1.00  0.00     0.293 HD
ENDBRANCH   5  21
BRANCH   7  23
ATOM     23  O   UNL     1       1.469  -8.288 -43.496  1.00  0.00    -0.507 OA
ATOM     24  H   UNL     1       2.387  -8.053 -43.844  1.00  0.00     0.293 HD
ENDBRANCH   7  23
TORSDOF 5
ENDMDL
MODEL 9
REMARK VINA RESULT:    -4.873     16.402     17.759
REMARK INTER + INTRA:          -6.013
REMARK INTER:                  -5.712
REMARK INTRA:                  -0.301
REMARK UNBOUND:                -0.285
REMARK SMILES Oc1ccc(-c2[o+]c3cc(O)cc(O)c3cc2O)cc1
REMARK SMILES IDX 6 1 7 2 8 3 9 4 10 5 12 6 13 7 15 8 16 9 17 10 5 11 4 12
REMARK SMILES IDX 3 13 2 14 19 15 20 16 1 17 18 19 11 21 14 23
REMARK H PARENT 1 18 18 20 11 22 14 24
REMARK Flexibility Score: inf
ROOT
ATOM      1  C   UNL     1      -1.228 -10.226 -37.619  1.00  0.00     0.401 A 
ATOM      2  O   UNL     1      -1.851 -11.355 -37.289  1.00  0.00    -0.202 OA
ATOM      3  C   UNL     1      -1.909 -11.820 -36.046  1.00  0.00     0.368 A 
ATOM      4  C   UNL     1      -2.585 -13.017 -35.798  1.00  0.00     0.162 A 
ATOM      5  C   UNL     1      -2.658 -13.531 -34.503  1.00  0.00     0.128 A 
ATOM      6  C   UNL     1      -2.051 -12.844 -33.445  1.00  0.00     0.093 A 
ATOM      7  C   UNL     1      -1.367 -11.642 -33.668  1.00  0.00     0.136 A 
ATOM      8  C   UNL     1      -1.293 -11.116 -34.983  1.00  0.00     0.125 A 
ATOM      9  C   UNL     1      -0.641  -9.912 -35.297  1.00  0.00     0.078 A 
ATOM     10  C   UNL     1      -0.613  -9.453 -36.618  1.00  0.00     0.223 A 
ENDROOT
BRANCH   1  11
ATOM     11  C   UNL     1      -1.226  -9.818 -39.043  1.00  0.00     0.084 A 
ATOM     12  C   UNL     1      -2.200  -8.917 -39.505  1.00  0.00     0.022 A 
ATOM     13  C   UNL     1      -2.230  -8.535 -40.850  1.00  0.00     0.047 A 
ATOM     14  C   UNL     1      -1.300  -9.060 -41.752  1.00  0.00     0.115 A 
ATOM     15  C   UNL     1      -0.305 -10.358 -39.959  1.00  0.00     0.022 A 
ATOM     16  C   UNL     1      -0.339  -9.975 -41.304  1.00  0.00     0.047 A 
BRANCH  14  17
ATOM     17  O   UNL     1      -1.342  -8.670 -43.089  1.00  0.00    -0.508 OA
ATOM     18  H   UNL     1      -0.494  -8.496 -43.616  1.00  0.00     0.293 HD
ENDBRANCH  14  17
ENDBRANCH   1  11
BRANCH  10  19
ATOM     19  O   UNL     1      -0.009  -8.233 -36.921  1.00  0.00    -0.500 OA
ATOM     20  H   UNL     1       0.969  -8.172 -37.177  1.00  0.00     0.294 HD
ENDBRANCH  10  19
BRANCH   5  21
ATOM     21  O   UNL     1      -3.337 -14.726 -34.276  1.00  0.00    -0.507 OA
ATOM     22  H   UNL     1      -2.864 -15.622 -34.325  1.00  0.00     0.293 HD
ENDBRANCH   5  21
BRANCH   7  23
ATOM     23  O   UNL     1      -0.786 -11.018 -32.560  1.00  0.00    -0.507 OA
ATOM     24  H   UNL     1       0.098 -11.287 -32.152  1.00  0.00     0.293 HD
ENDBRANCH   7  23
TORSDOF 5
ENDMDL
