MODEL 1
REMARK VINA RESULT:    -8.667      0.000      0.000
REMARK INTER + INTRA:         -13.467
REMARK INTER:                 -11.960
REMARK INTRA:                  -1.507
REMARK UNBOUND:                -1.507
REMARK SMILES CC[C@H](CC[C@H](C)[C@H]1CC[C@H]2[C@@H]3CC=C4C[C@H](O)CC[C@@]4(C)[C@@H]3CC[C@@]12C)C(C)C
REMARK SMILES IDX 5 1 4 2 3 3 2 4 1 5 28 6 29 7 30 8 6 9 7 10 8 11 9 12 26 13
REMARK SMILES IDX 10 14 11 15 25 16 27 17 12 18 24 19 23 20 13 21 21 22 14 23
REMARK SMILES IDX 15 24 20 25 22 26 16 27 19 28 17 29 18 30
REMARK H PARENT 18 31
REMARK Flexibility Score: inf
ROOT
ATOM      1  C   UNL     1     134.295 131.011 136.613  1.00  0.00     0.004 C 
ENDROOT
BRANCH   1   2
ATOM      2  C   UNL     1     132.874 131.032 136.000  1.00  0.00     0.004 C 
BRANCH   2   3
ATOM      3  C   UNL     1     131.941 132.080 136.662  1.00  0.00    -0.009 C 
BRANCH   3   4
ATOM      4  C   UNL     1     131.938 133.430 135.875  1.00  0.00     0.000 C 
ATOM      5  C   UNL     1     133.078 134.350 136.317  1.00  0.00     0.004 C 
ENDBRANCH   3   4
BRANCH   3   6
ATOM      6  C   UNL     1     130.510 131.489 136.892  1.00  0.00    -0.014 C 
ATOM      7  C   UNL     1     130.266 130.222 136.056  1.00  0.00     0.007 C 
ATOM      8  C   UNL     1     130.171 131.216 138.372  1.00  0.00     0.007 C 
ENDBRANCH   3   6
ENDBRANCH   2   3
ENDBRANCH   1   2
BRANCH   1   9
ATOM      9  C   UNL     1     134.633 129.710 137.393  1.00  0.00    -0.011 C 
ATOM     10  C   UNL     1     136.165 129.478 137.379  1.00  0.00     0.008 C 
BRANCH   9  11
ATOM     11  C   UNL     1     133.829 128.443 136.911  1.00  0.00    -0.002 C 
ATOM     12  C   UNL     1     134.650 127.574 135.951  1.00  0.00     0.005 C 
ATOM     13  C   UNL     1     133.248 127.450 137.991  1.00  0.00    -0.026 C 
ATOM     14  C   UNL     1     134.022 126.196 135.962  1.00  0.00     0.005 C 
ATOM     15  C   UNL     1     133.188 126.072 137.245  1.00  0.00    -0.001 C 
ATOM     16  C   UNL     1     134.097 127.343 139.299  1.00  0.00     0.007 C 
ATOM     17  C   UNL     1     131.804 127.864 138.385  1.00  0.00     0.012 C 
ATOM     18  C   UNL     1     133.619 124.825 138.074  1.00  0.00     0.000 C 
ATOM     19  C   UNL     1     135.339 126.460 139.148  1.00  0.00     0.005 C 
ATOM     20  C   UNL     1     134.996 124.978 138.793  1.00  0.00     0.003 C 
ATOM     21  C   UNL     1     132.534 124.344 139.043  1.00  0.00     0.031 C 
ATOM     22  C   UNL     1     135.238 123.911 139.968  1.00  0.00    -0.008 C 
ATOM     23  C   UNL     1     132.938 123.004 139.574  1.00  0.00    -0.027 C 
ATOM     24  C   UNL     1     134.219 122.751 139.900  1.00  0.00    -0.065 C 
ATOM     25  C   UNL     1     136.691 123.347 139.818  1.00  0.00     0.014 C 
ATOM     26  C   UNL     1     135.082 124.530 141.391  1.00  0.00     0.016 C 
ATOM     27  C   UNL     1     134.540 121.402 140.519  1.00  0.00     0.063 C 
ATOM     28  C   UNL     1     136.966 122.105 140.668  1.00  0.00     0.033 C 
ATOM     29  C   UNL     1     135.996 120.980 140.283  1.00  0.00     0.118 C 
BRANCH  29  30
ATOM     30  O   UNL     1     136.291 119.802 140.989  1.00  0.00    -0.393 OA
ATOM     31  H   UNL     1     137.111 119.403 140.589  1.00  0.00     0.210 HD
ENDBRANCH  29  30
ENDBRANCH   9  11
ENDBRANCH   1   9
TORSDOF 7
ENDMDL
MODEL 2
REMARK VINA RESULT:    -8.573      3.090      9.207
REMARK INTER + INTRA:         -13.337
REMARK INTER:                 -12.118
REMARK INTRA:                  -1.219
REMARK UNBOUND:                -1.507
REMARK SMILES CC[C@H](CC[C@H](C)[C@H]1CC[C@H]2[C@@H]3CC=C4C[C@H](O)CC[C@@]4(C)[C@@H]3CC[C@@]12C)C(C)C
REMARK SMILES IDX 5 1 4 2 3 3 2 4 1 5 28 6 29 7 30 8 6 9 7 10 8 11 9 12 26 13
REMARK SMILES IDX 10 14 11 15 25 16 27 17 12 18 24 19 23 20 13 21 21 22 14 23
REMARK SMILES IDX 15 24 20 25 22 26 16 27 19 28 17 29 18 30
REMARK H PARENT 18 31
REMARK Flexibility Score: inf
ROOT
ATOM      1  C   UNL     1     135.268 121.316 140.411  1.00  0.00     0.004 C 
ENDROOT
BRANCH   1   2
ATOM      2  C   UNL     1     135.178 120.348 139.207  1.00  0.00     0.004 C 
BRANCH   2   3
ATOM      3  C   UNL     1     136.476 119.526 138.988  1.00  0.00    -0.009 C 
BRANCH   3   4
ATOM      4  C   UNL     1     137.059 118.999 140.339  1.00  0.00     0.000 C 
ATOM      5  C   UNL     1     138.423 119.617 140.650  1.00  0.00     0.004 C 
ENDBRANCH   3   4
BRANCH   3   6
ATOM      6  C   UNL     1     136.253 118.401 137.924  1.00  0.00    -0.014 C 
ATOM      7  C   UNL     1     136.356 118.936 136.486  1.00  0.00     0.007 C 
ATOM      8  C   UNL     1     137.176 117.177 138.097  1.00  0.00     0.007 C 
ENDBRANCH   3   6
ENDBRANCH   2   3
ENDBRANCH   1   2
BRANCH   1   9
ATOM      9  C   UNL     1     135.544 122.795 140.021  1.00  0.00    -0.011 C 
ATOM     10  C   UNL     1     136.941 123.219 140.540  1.00  0.00     0.008 C 
BRANCH   9  11
ATOM     11  C   UNL     1     134.410 123.798 140.459  1.00  0.00    -0.002 C 
ATOM     12  C   UNL     1     134.936 124.875 141.416  1.00  0.00     0.005 C 
ATOM     13  C   UNL     1     133.605 124.575 139.346  1.00  0.00    -0.026 C 
ATOM     14  C   UNL     1     133.953 126.026 141.362  1.00  0.00     0.005 C 
ATOM     15  C   UNL     1     133.149 125.894 140.061  1.00  0.00    -0.001 C 
ATOM     16  C   UNL     1     134.424 124.891 138.053  1.00  0.00     0.007 C 
ATOM     17  C   UNL     1     132.341 123.773 138.934  1.00  0.00     0.012 C 
ATOM     18  C   UNL     1     133.240 127.198 139.213  1.00  0.00     0.000 C 
ATOM     19  C   UNL     1     135.370 126.085 138.209  1.00  0.00     0.005 C 
ATOM     20  C   UNL     1     134.624 127.420 138.524  1.00  0.00     0.003 C 
ATOM     21  C   UNL     1     132.089 127.346 138.212  1.00  0.00     0.031 C 
ATOM     22  C   UNL     1     134.591 128.494 137.331  1.00  0.00    -0.008 C 
ATOM     23  C   UNL     1     132.121 128.737 137.660  1.00  0.00    -0.027 C 
ATOM     24  C   UNL     1     133.290 129.329 137.354  1.00  0.00    -0.065 C 
ATOM     25  C   UNL     1     135.828 129.440 137.497  1.00  0.00     0.014 C 
ATOM     26  C   UNL     1     134.647 127.834 135.920  1.00  0.00     0.016 C 
ATOM     27  C   UNL     1     133.243 130.705 136.712  1.00  0.00     0.063 C 
ATOM     28  C   UNL     1     135.771 130.696 136.625  1.00  0.00     0.033 C 
ATOM     29  C   UNL     1     134.519 131.515 136.967  1.00  0.00     0.118 C 
BRANCH  29  30
ATOM     30  O   UNL     1     134.496 132.717 136.241  1.00  0.00    -0.393 OA
ATOM     31  H   UNL     1     134.063 132.537 135.363  1.00  0.00     0.210 HD
ENDBRANCH  29  30
ENDBRANCH   9  11
ENDBRANCH   1   9
TORSDOF 7
ENDMDL
MODEL 3
REMARK VINA RESULT:    -8.207      5.029      8.313
REMARK INTER + INTRA:         -12.833
REMARK INTER:                 -10.776
REMARK INTRA:                  -2.057
REMARK UNBOUND:                -1.507
REMARK SMILES CC[C@H](CC[C@H](C)[C@H]1CC[C@H]2[C@@H]3CC=C4C[C@H](O)CC[C@@]4(C)[C@@H]3CC[C@@]12C)C(C)C
REMARK SMILES IDX 5 1 4 2 3 3 2 4 1 5 28 6 29 7 30 8 6 9 7 10 8 11 9 12 26 13
REMARK SMILES IDX 10 14 11 15 25 16 27 17 12 18 24 19 23 20 13 21 21 22 14 23
REMARK SMILES IDX 15 24 20 25 22 26 16 27 19 28 17 29 18 30
REMARK H PARENT 18 31
REMARK Flexibility Score: inf
ROOT
ATOM      1  C   UNL     1     131.109 124.839 139.362  1.00  0.00     0.004 C 
ENDROOT
BRANCH   1   2
ATOM      2  C   UNL     1     132.225 123.864 138.915  1.00  0.00     0.004 C 
BRANCH   2   3
ATOM      3  C   UNL     1     133.509 123.972 139.779  1.00  0.00    -0.009 C 
BRANCH   3   4
ATOM      4  C   UNL     1     134.258 122.603 139.872  1.00  0.00     0.000 C 
ATOM      5  C   UNL     1     133.330 121.476 140.328  1.00  0.00     0.004 C 
ENDBRANCH   3   4
BRANCH   3   6
ATOM      6  C   UNL     1     134.418 125.148 139.286  1.00  0.00    -0.014 C 
ATOM      7  C   UNL     1     135.708 125.267 140.114  1.00  0.00     0.007 C 
ATOM      8  C   UNL     1     134.760 125.093 137.783  1.00  0.00     0.007 C 
ENDBRANCH   3   6
ENDBRANCH   2   3
ENDBRANCH   1   2
BRANCH   1   9
ATOM      9  C   UNL     1     130.990 125.009 140.902  1.00  0.00    -0.011 C 
ATOM     10  C   UNL     1     129.846 124.111 141.439  1.00  0.00     0.008 C 
BRANCH   9  11
ATOM     11  C   UNL     1     130.853 126.505 141.376  1.00  0.00    -0.002 C 
ATOM     12  C   UNL     1     129.828 126.657 142.506  1.00  0.00     0.005 C 
ATOM     13  C   UNL     1     132.142 127.274 141.865  1.00  0.00    -0.026 C 
ATOM     14  C   UNL     1     130.137 127.964 143.205  1.00  0.00     0.005 C 
ATOM     15  C   UNL     1     131.587 128.344 142.868  1.00  0.00    -0.001 C 
ATOM     16  C   UNL     1     133.217 126.369 142.550  1.00  0.00     0.007 C 
ATOM     17  C   UNL     1     132.817 128.010 140.677  1.00  0.00     0.012 C 
ATOM     18  C   UNL     1     132.422 128.568 144.163  1.00  0.00     0.000 C 
ATOM     19  C   UNL     1     132.875 126.008 143.999  1.00  0.00     0.005 C 
ATOM     20  C   UNL     1     132.776 127.256 144.933  1.00  0.00     0.003 C 
ATOM     21  C   UNL     1     133.666 129.432 143.934  1.00  0.00     0.031 C 
ATOM     22  C   UNL     1     133.971 127.425 145.992  1.00  0.00    -0.008 C 
ATOM     23  C   UNL     1     134.231 129.807 145.269  1.00  0.00    -0.027 C 
ATOM     24  C   UNL     1     134.272 128.914 146.274  1.00  0.00    -0.065 C 
ATOM     25  C   UNL     1     133.545 126.711 147.319  1.00  0.00     0.014 C 
ATOM     26  C   UNL     1     135.313 126.807 145.495  1.00  0.00     0.016 C 
ATOM     27  C   UNL     1     134.942 129.335 147.571  1.00  0.00     0.063 C 
ATOM     28  C   UNL     1     134.438 127.043 148.517  1.00  0.00     0.033 C 
ATOM     29  C   UNL     1     134.418 128.555 148.782  1.00  0.00     0.118 C 
BRANCH  29  30
ATOM     30  O   UNL     1     135.159 128.869 149.933  1.00  0.00    -0.393 OA
ATOM     31  H   UNL     1     134.666 128.513 150.722  1.00  0.00     0.210 HD
ENDBRANCH  29  30
ENDBRANCH   9  11
ENDBRANCH   1   9
TORSDOF 7
ENDMDL
MODEL 4
REMARK VINA RESULT:    -8.175      2.363      4.170
REMARK INTER + INTRA:         -12.788
REMARK INTER:                 -10.809
REMARK INTRA:                  -1.979
REMARK UNBOUND:                -1.507
REMARK SMILES CC[C@H](CC[C@H](C)[C@H]1CC[C@H]2[C@@H]3CC=C4C[C@H](O)CC[C@@]4(C)[C@@H]3CC[C@@]12C)C(C)C
REMARK SMILES IDX 5 1 4 2 3 3 2 4 1 5 28 6 29 7 30 8 6 9 7 10 8 11 9 12 26 13
REMARK SMILES IDX 10 14 11 15 25 16 27 17 12 18 24 19 23 20 13 21 21 22 14 23
REMARK SMILES IDX 15 24 20 25 22 26 16 27 19 28 17 29 18 30
REMARK H PARENT 18 31
REMARK Flexibility Score: inf
ROOT
ATOM      1  C   UNL     1     131.469 133.329 136.699  1.00  0.00     0.004 C 
ENDROOT
BRANCH   1   2
ATOM      2  C   UNL     1     131.510 134.340 137.868  1.00  0.00     0.004 C 
BRANCH   2   3
ATOM      3  C   UNL     1     130.103 134.847 138.285  1.00  0.00    -0.009 C 
BRANCH   3   4
ATOM      4  C   UNL     1     128.982 134.246 137.377  1.00  0.00     0.000 C 
ATOM      5  C   UNL     1     127.919 133.511 138.195  1.00  0.00     0.004 C 
ENDBRANCH   3   4
BRANCH   3   6
ATOM      6  C   UNL     1     129.856 134.619 139.814  1.00  0.00    -0.014 C 
ATOM      7  C   UNL     1     131.096 134.048 140.521  1.00  0.00     0.007 C 
ATOM      8  C   UNL     1     129.352 135.870 140.563  1.00  0.00     0.007 C 
ENDBRANCH   3   6
ENDBRANCH   2   3
ENDBRANCH   1   2
BRANCH   1   9
ATOM      9  C   UNL     1     131.865 131.879 137.095  1.00  0.00    -0.011 C 
ATOM     10  C   UNL     1     132.895 131.323 136.080  1.00  0.00     0.008 C 
BRANCH   9  11
ATOM     11  C   UNL     1     130.639 130.910 137.299  1.00  0.00    -0.002 C 
ATOM     12  C   UNL     1     130.524 129.884 136.164  1.00  0.00     0.005 C 
ATOM     13  C   UNL     1     130.535 130.078 138.636  1.00  0.00    -0.026 C 
ATOM     14  C   UNL     1     129.686 128.740 136.692  1.00  0.00     0.005 C 
ATOM     15  C   UNL     1     129.719 128.804 138.226  1.00  0.00    -0.001 C 
ATOM     16  C   UNL     1     131.912 129.684 139.264  1.00  0.00     0.007 C 
ATOM     17  C   UNL     1     129.726 130.865 139.701  1.00  0.00     0.012 C 
ATOM     18  C   UNL     1     130.206 127.454 138.832  1.00  0.00     0.000 C 
ATOM     19  C   UNL     1     132.579 128.494 138.569  1.00  0.00     0.005 C 
ATOM     20  C   UNL     1     131.733 127.184 138.651  1.00  0.00     0.003 C 
ATOM     21  C   UNL     1     129.775 127.258 140.289  1.00  0.00     0.031 C 
ATOM     22  C   UNL     1     132.312 126.045 139.624  1.00  0.00    -0.008 C 
ATOM     23  C   UNL     1     130.050 125.838 140.676  1.00  0.00    -0.027 C 
ATOM     24  C   UNL     1     131.177 125.223 140.273  1.00  0.00    -0.065 C 
ATOM     25  C   UNL     1     133.228 125.102 138.773  1.00  0.00     0.014 C 
ATOM     26  C   UNL     1     133.147 126.625 140.807  1.00  0.00     0.016 C 
ATOM     27  C   UNL     1     131.434 123.813 140.779  1.00  0.00     0.063 C 
ATOM     28  C   UNL     1     133.606 123.799 139.482  1.00  0.00     0.033 C 
ATOM     29  C   UNL     1     132.340 123.010 139.838  1.00  0.00     0.118 C 
BRANCH  29  30
ATOM     30  O   UNL     1     132.669 121.769 140.408  1.00  0.00    -0.393 OA
ATOM     31  H   UNL     1     131.909 121.146 140.247  1.00  0.00     0.210 HD
ENDBRANCH  29  30
ENDBRANCH   9  11
ENDBRANCH   1   9
TORSDOF 7
ENDMDL
MODEL 5
REMARK VINA RESULT:    -8.066      3.274      4.491
REMARK INTER + INTRA:         -12.638
REMARK INTER:                 -10.508
REMARK INTRA:                  -2.130
REMARK UNBOUND:                -1.507
REMARK SMILES CC[C@H](CC[C@H](C)[C@H]1CC[C@H]2[C@@H]3CC=C4C[C@H](O)CC[C@@]4(C)[C@@H]3CC[C@@]12C)C(C)C
REMARK SMILES IDX 5 1 4 2 3 3 2 4 1 5 28 6 29 7 30 8 6 9 7 10 8 11 9 12 26 13
REMARK SMILES IDX 10 14 11 15 25 16 27 17 12 18 24 19 23 20 13 21 21 22 14 23
REMARK SMILES IDX 15 24 20 25 22 26 16 27 19 28 17 29 18 30
REMARK H PARENT 18 31
REMARK Flexibility Score: inf
ROOT
ATOM      1  C   UNL     1     133.624 133.848 136.232  1.00  0.00     0.004 C 
ENDROOT
BRANCH   1   2
ATOM      2  C   UNL     1     132.425 134.593 136.865  1.00  0.00     0.004 C 
BRANCH   2   3
ATOM      3  C   UNL     1     132.494 134.652 138.415  1.00  0.00    -0.009 C 
BRANCH   3   4
ATOM      4  C   UNL     1     133.550 135.695 138.905  1.00  0.00     0.000 C 
ATOM      5  C   UNL     1     134.326 135.192 140.123  1.00  0.00     0.004 C 
ENDBRANCH   3   4
BRANCH   3   6
ATOM      6  C   UNL     1     131.072 134.867 139.031  1.00  0.00    -0.014 C 
ATOM      7  C   UNL     1     129.956 134.678 137.991  1.00  0.00     0.007 C 
ATOM      8  C   UNL     1     130.785 133.998 140.273  1.00  0.00     0.007 C 
ENDBRANCH   3   6
ENDBRANCH   2   3
ENDBRANCH   1   2
BRANCH   1   9
ATOM      9  C   UNL     1     133.920 132.460 136.866  1.00  0.00    -0.011 C 
ATOM     10  C   UNL     1     135.445 132.184 136.827  1.00  0.00     0.008 C 
BRANCH   9  11
ATOM     11  C   UNL     1     133.079 131.279 136.250  1.00  0.00    -0.002 C 
ATOM     12  C   UNL     1     133.944 130.042 135.975  1.00  0.00     0.005 C 
ATOM     13  C   UNL     1     131.817 130.748 137.035  1.00  0.00    -0.026 C 
ATOM     14  C   UNL     1     133.002 128.861 135.885  1.00  0.00     0.005 C 
ATOM     15  C   UNL     1     131.691 129.253 136.582  1.00  0.00    -0.001 C 
ATOM     16  C   UNL     1     131.927 130.856 138.591  1.00  0.00     0.007 C 
ATOM     17  C   UNL     1     130.541 131.511 136.587  1.00  0.00     0.012 C 
ATOM     18  C   UNL     1     131.323 128.228 137.697  1.00  0.00     0.000 C 
ATOM     19  C   UNL     1     132.786 129.754 139.218  1.00  0.00     0.005 C 
ATOM     20  C   UNL     1     132.217 128.320 138.973  1.00  0.00     0.003 C 
ATOM     21  C   UNL     1     129.834 128.241 138.057  1.00  0.00     0.031 C 
ATOM     22  C   UNL     1     131.589 127.596 140.261  1.00  0.00    -0.008 C 
ATOM     23  C   UNL     1     129.547 127.051 138.919  1.00  0.00    -0.027 C 
ATOM     24  C   UNL     1     130.415 126.669 139.874  1.00  0.00    -0.065 C 
ATOM     25  C   UNL     1     132.721 126.757 140.945  1.00  0.00     0.014 C 
ATOM     26  C   UNL     1     131.010 128.603 141.301  1.00  0.00     0.016 C 
ATOM     27  C   UNL     1     130.016 125.509 140.772  1.00  0.00     0.063 C 
ATOM     28  C   UNL     1     132.213 125.771 141.999  1.00  0.00     0.033 C 
ATOM     29  C   UNL     1     131.230 124.781 141.361  1.00  0.00     0.118 C 
BRANCH  29  30
ATOM     30  O   UNL     1     130.822 123.812 142.292  1.00  0.00    -0.393 OA
ATOM     31  H   UNL     1     131.062 124.140 143.201  1.00  0.00     0.210 HD
ENDBRANCH  29  30
ENDBRANCH   9  11
ENDBRANCH   1   9
TORSDOF 7
ENDMDL
MODEL 6
REMARK VINA RESULT:    -8.052      3.818      9.270
REMARK INTER + INTRA:         -12.619
REMARK INTER:                 -11.098
REMARK INTRA:                  -1.521
REMARK UNBOUND:                -1.507
REMARK SMILES CC[C@H](CC[C@H](C)[C@H]1CC[C@H]2[C@@H]3CC=C4C[C@H](O)CC[C@@]4(C)[C@@H]3CC[C@@]12C)C(C)C
REMARK SMILES IDX 5 1 4 2 3 3 2 4 1 5 28 6 29 7 30 8 6 9 7 10 8 11 9 12 26 13
REMARK SMILES IDX 10 14 11 15 25 16 27 17 12 18 24 19 23 20 13 21 21 22 14 23
REMARK SMILES IDX 15 24 20 25 22 26 16 27 19 28 17 29 18 30
REMARK H PARENT 18 31
REMARK Flexibility Score: inf
ROOT
ATOM      1  C   UNL     1     133.335 124.850 141.120  1.00  0.00     0.004 C 
ENDROOT
BRANCH   1   2
ATOM      2  C   UNL     1     133.092 123.864 139.952  1.00  0.00     0.004 C 
BRANCH   2   3
ATOM      3  C   UNL     1     134.405 123.276 139.369  1.00  0.00    -0.009 C 
BRANCH   3   4
ATOM      4  C   UNL     1     135.572 124.315 139.414  1.00  0.00     0.000 C 
ATOM      5  C   UNL     1     135.792 124.983 138.056  1.00  0.00     0.004 C 
ENDBRANCH   3   4
BRANCH   3   6
ATOM      6  C   UNL     1     134.757 121.911 140.049  1.00  0.00    -0.014 C 
ATOM      7  C   UNL     1     133.502 121.089 140.382  1.00  0.00     0.007 C 
ATOM      8  C   UNL     1     135.754 121.048 139.248  1.00  0.00     0.007 C 
ENDBRANCH   3   6
ENDBRANCH   2   3
ENDBRANCH   1   2
BRANCH   1   9
ATOM      9  C   UNL     1     132.323 126.028 141.180  1.00  0.00    -0.011 C 
ATOM     10  C   UNL     1     131.393 125.853 142.408  1.00  0.00     0.008 C 
BRANCH   9  11
ATOM     11  C   UNL     1     131.518 126.254 139.844  1.00  0.00    -0.002 C 
ATOM     12  C   UNL     1     130.006 126.323 140.091  1.00  0.00     0.005 C 
ATOM     13  C   UNL     1     131.860 127.508 138.949  1.00  0.00    -0.026 C 
ATOM     14  C   UNL     1     129.400 127.027 138.895  1.00  0.00     0.005 C 
ATOM     15  C   UNL     1     130.519 127.814 138.198  1.00  0.00    -0.001 C 
ATOM     16  C   UNL     1     132.355 128.759 139.746  1.00  0.00     0.007 C 
ATOM     17  C   UNL     1     132.945 127.144 137.900  1.00  0.00     0.012 C 
ATOM     18  C   UNL     1     130.140 129.319 138.057  1.00  0.00     0.000 C 
ATOM     19  C   UNL     1     131.222 129.541 140.416  1.00  0.00     0.005 C 
ATOM     20  C   UNL     1     130.191 130.121 139.396  1.00  0.00     0.003 C 
ATOM     21  C   UNL     1     130.920 130.034 136.949  1.00  0.00     0.031 C 
ATOM     22  C   UNL     1     130.233 131.714 139.198  1.00  0.00    -0.008 C 
ATOM     23  C   UNL     1     130.292 131.373 136.719  1.00  0.00    -0.027 C 
ATOM     24  C   UNL     1     129.860 132.116 137.754  1.00  0.00    -0.065 C 
ATOM     25  C   UNL     1     129.217 132.353 140.205  1.00  0.00     0.014 C 
ATOM     26  C   UNL     1     131.646 132.320 139.456  1.00  0.00     0.016 C 
ATOM     27  C   UNL     1     129.317 133.503 137.454  1.00  0.00     0.063 C 
ATOM     28  C   UNL     1     128.916 133.828 139.930  1.00  0.00     0.033 C 
ATOM     29  C   UNL     1     128.331 133.991 138.522  1.00  0.00     0.118 C 
BRANCH  29  30
ATOM     30  O   UNL     1     127.963 135.326 138.285  1.00  0.00    -0.393 OA
ATOM     31  H   UNL     1     128.678 135.911 138.658  1.00  0.00     0.210 HD
ENDBRANCH  29  30
ENDBRANCH   9  11
ENDBRANCH   1   9
TORSDOF 7
ENDMDL
MODEL 7
REMARK VINA RESULT:    -8.046      4.305      6.677
REMARK INTER + INTRA:         -12.610
REMARK INTER:                 -10.647
REMARK INTRA:                  -1.963
REMARK UNBOUND:                -1.507
REMARK SMILES CC[C@H](CC[C@H](C)[C@H]1CC[C@H]2[C@@H]3CC=C4C[C@H](O)CC[C@@]4(C)[C@@H]3CC[C@@]12C)C(C)C
REMARK SMILES IDX 5 1 4 2 3 3 2 4 1 5 28 6 29 7 30 8 6 9 7 10 8 11 9 12 26 13
REMARK SMILES IDX 10 14 11 15 25 16 27 17 12 18 24 19 23 20 13 21 21 22 14 23
REMARK SMILES IDX 15 24 20 25 22 26 16 27 19 28 17 29 18 30
REMARK H PARENT 18 31
REMARK Flexibility Score: inf
ROOT
ATOM      1  C   UNL     1     130.863 135.298 139.261  1.00  0.00     0.004 C 
ENDROOT
BRANCH   1   2
ATOM      2  C   UNL     1     131.826 135.737 138.131  1.00  0.00     0.004 C 
BRANCH   2   3
ATOM      3  C   UNL     1     133.215 135.049 138.215  1.00  0.00    -0.009 C 
BRANCH   3   4
ATOM      4  C   UNL     1     133.473 134.442 139.632  1.00  0.00     0.000 C 
ATOM      5  C   UNL     1     134.275 135.393 140.522  1.00  0.00     0.004 C 
ENDBRANCH   3   4
BRANCH   3   6
ATOM      6  C   UNL     1     133.401 134.019 137.052  1.00  0.00    -0.014 C 
ATOM      7  C   UNL     1     133.415 132.569 137.560  1.00  0.00     0.007 C 
ATOM      8  C   UNL     1     132.375 134.167 135.909  1.00  0.00     0.007 C 
ENDBRANCH   3   6
ENDBRANCH   2   3
ENDBRANCH   1   2
BRANCH   1   9
ATOM      9  C   UNL     1     129.903 134.141 138.867  1.00  0.00    -0.011 C 
ATOM     10  C   UNL     1     128.931 134.624 137.760  1.00  0.00     0.008 C 
BRANCH   9  11
ATOM     11  C   UNL     1     129.148 133.488 140.086  1.00  0.00    -0.002 C 
ATOM     12  C   UNL     1     127.876 132.754 139.646  1.00  0.00     0.005 C 
ATOM     13  C   UNL     1     129.926 132.473 141.011  1.00  0.00    -0.026 C 
ATOM     14  C   UNL     1     127.531 131.776 140.750  1.00  0.00     0.005 C 
ATOM     15  C   UNL     1     128.800 131.542 141.581  1.00  0.00    -0.001 C 
ATOM     16  C   UNL     1     131.026 131.638 140.279  1.00  0.00     0.007 C 
ATOM     17  C   UNL     1     130.596 133.223 142.194  1.00  0.00     0.012 C 
ATOM     18  C   UNL     1     129.143 130.025 141.664  1.00  0.00     0.000 C 
ATOM     19  C   UNL     1     130.463 130.471 139.464  1.00  0.00     0.005 C 
ATOM     20  C   UNL     1     129.707 129.422 140.339  1.00  0.00     0.003 C 
ATOM     21  C   UNL     1     130.035 129.674 142.860  1.00  0.00     0.031 C 
ATOM     22  C   UNL     1     130.454 128.014 140.532  1.00  0.00    -0.008 C 
ATOM     23  C   UNL     1     130.071 128.184 143.000  1.00  0.00    -0.027 C 
ATOM     24  C   UNL     1     130.148 127.394 141.914  1.00  0.00    -0.065 C 
ATOM     25  C   UNL     1     129.966 127.048 139.399  1.00  0.00     0.014 C 
ATOM     26  C   UNL     1     132.007 128.136 140.455  1.00  0.00     0.016 C 
ATOM     27  C   UNL     1     130.274 125.896 142.134  1.00  0.00     0.063 C 
ATOM     28  C   UNL     1     130.349 125.584 139.625  1.00  0.00     0.033 C 
ATOM     29  C   UNL     1     129.750 125.082 140.945  1.00  0.00     0.118 C 
BRANCH  29  30
ATOM     30  O   UNL     1     130.014 123.714 141.126  1.00  0.00    -0.393 OA
ATOM     31  H   UNL     1     129.322 123.348 141.741  1.00  0.00     0.210 HD
ENDBRANCH  29  30
ENDBRANCH   9  11
ENDBRANCH   1   9
TORSDOF 7
ENDMDL
MODEL 8
REMARK VINA RESULT:    -7.895      3.521      9.379
REMARK INTER + INTRA:         -12.402
REMARK INTER:                 -11.411
REMARK INTRA:                  -0.991
REMARK UNBOUND:                -1.507
REMARK SMILES CC[C@H](CC[C@H](C)[C@H]1CC[C@H]2[C@@H]3CC=C4C[C@H](O)CC[C@@]4(C)[C@@H]3CC[C@@]12C)C(C)C
REMARK SMILES IDX 5 1 4 2 3 3 2 4 1 5 28 6 29 7 30 8 6 9 7 10 8 11 9 12 26 13
REMARK SMILES IDX 10 14 11 15 25 16 27 17 12 18 24 19 23 20 13 21 21 22 14 23
REMARK SMILES IDX 15 24 20 25 22 26 16 27 19 28 17 29 18 30
REMARK H PARENT 18 31
REMARK Flexibility Score: inf
ROOT
ATOM      1  C   UNL     1     134.000 121.873 140.001  1.00  0.00     0.004 C 
ENDROOT
BRANCH   1   2
ATOM      2  C   UNL     1     135.266 121.297 139.323  1.00  0.00     0.004 C 
BRANCH   2   3
ATOM      3  C   UNL     1     135.780 119.997 139.997  1.00  0.00    -0.009 C 
BRANCH   3   4
ATOM      4  C   UNL     1     135.824 118.803 138.990  1.00  0.00     0.000 C 
ATOM      5  C   UNL     1     136.148 119.268 137.569  1.00  0.00     0.004 C 
ENDBRANCH   3   4
BRANCH   3   6
ATOM      6  C   UNL     1     137.140 120.245 140.730  1.00  0.00    -0.014 C 
ATOM      7  C   UNL     1     138.262 119.344 140.188  1.00  0.00     0.007 C 
ATOM      8  C   UNL     1     137.600 121.718 140.724  1.00  0.00     0.007 C 
ENDBRANCH   3   6
ENDBRANCH   2   3
ENDBRANCH   1   2
BRANCH   1   9
ATOM      9  C   UNL     1     133.677 123.341 139.605  1.00  0.00    -0.011 C 
ATOM     10  C   UNL     1     134.902 123.972 138.896  1.00  0.00     0.008 C 
BRANCH   9  11
ATOM     11  C   UNL     1     133.149 124.227 140.796  1.00  0.00    -0.002 C 
ATOM     12  C   UNL     1     134.163 125.305 141.201  1.00  0.00     0.005 C 
ATOM     13  C   UNL     1     131.771 124.979 140.637  1.00  0.00    -0.026 C 
ATOM     14  C   UNL     1     133.392 126.371 141.951  1.00  0.00     0.005 C 
ATOM     15  C   UNL     1     131.910 126.226 141.578  1.00  0.00    -0.001 C 
ATOM     16  C   UNL     1     131.433 125.415 139.175  1.00  0.00     0.007 C 
ATOM     17  C   UNL     1     130.608 124.092 141.158  1.00  0.00     0.012 C 
ATOM     18  C   UNL     1     131.338 127.566 141.027  1.00  0.00     0.000 C 
ATOM     19  C   UNL     1     132.178 126.676 138.728  1.00  0.00     0.005 C 
ATOM     20  C   UNL     1     131.829 127.930 139.590  1.00  0.00     0.003 C 
ATOM     21  C   UNL     1     129.812 127.658 141.135  1.00  0.00     0.031 C 
ATOM     22  C   UNL     1     130.933 129.045 138.860  1.00  0.00    -0.008 C 
ATOM     23  C   UNL     1     129.404 129.069 140.842  1.00  0.00    -0.027 C 
ATOM     24  C   UNL     1     130.001 129.767 139.859  1.00  0.00    -0.065 C 
ATOM     25  C   UNL     1     131.900 130.083 138.195  1.00  0.00     0.014 C 
ATOM     26  C   UNL     1     130.000 128.450 137.762  1.00  0.00     0.016 C 
ATOM     27  C   UNL     1     129.473 131.159 139.556  1.00  0.00     0.063 C 
ATOM     28  C   UNL     1     131.207 131.365 137.726  1.00  0.00     0.033 C 
ATOM     29  C   UNL     1     130.534 132.062 138.915  1.00  0.00     0.118 C 
BRANCH  29  30
ATOM     30  O   UNL     1     129.970 133.287 138.522  1.00  0.00    -0.393 OA
ATOM     31  H   UNL     1     128.979 133.191 138.550  1.00  0.00     0.210 HD
ENDBRANCH  29  30
ENDBRANCH   9  11
ENDBRANCH   1   9
TORSDOF 7
ENDMDL
MODEL 9
REMARK VINA RESULT:    -7.623      2.951      4.618
REMARK INTER + INTRA:         -12.027
REMARK INTER:                 -10.353
REMARK INTRA:                  -1.673
REMARK UNBOUND:                -1.507
REMARK SMILES CC[C@H](CC[C@H](C)[C@H]1CC[C@H]2[C@@H]3CC=C4C[C@H](O)CC[C@@]4(C)[C@@H]3CC[C@@]12C)C(C)C
REMARK SMILES IDX 5 1 4 2 3 3 2 4 1 5 28 6 29 7 30 8 6 9 7 10 8 11 9 12 26 13
REMARK SMILES IDX 10 14 11 15 25 16 27 17 12 18 24 19 23 20 13 21 21 22 14 23
REMARK SMILES IDX 15 24 20 25 22 26 16 27 19 28 17 29 18 30
REMARK H PARENT 18 31
REMARK Flexibility Score: inf
ROOT
ATOM      1  C   UNL     1     128.469 132.053 141.692  1.00  0.00     0.004 C 
ENDROOT
BRANCH   1   2
ATOM      2  C   UNL     1     127.721 132.374 140.376  1.00  0.00     0.004 C 
BRANCH   2   3
ATOM      3  C   UNL     1     128.245 133.655 139.674  1.00  0.00    -0.009 C 
BRANCH   3   4
ATOM      4  C   UNL     1     129.139 134.511 140.628  1.00  0.00     0.000 C 
ATOM      5  C   UNL     1     128.999 136.008 140.348  1.00  0.00     0.004 C 
ENDBRANCH   3   4
BRANCH   3   6
ATOM      6  C   UNL     1     128.941 133.303 138.316  1.00  0.00    -0.014 C 
ATOM      7  C   UNL     1     128.252 133.982 137.121  1.00  0.00     0.007 C 
ATOM      8  C   UNL     1     130.454 133.599 138.288  1.00  0.00     0.007 C 
ENDBRANCH   3   6
ENDBRANCH   2   3
ENDBRANCH   1   2
BRANCH   1   9
ATOM      9  C   UNL     1     129.533 130.927 141.562  1.00  0.00    -0.011 C 
ATOM     10  C   UNL     1     130.945 131.556 141.440  1.00  0.00     0.008 C 
BRANCH   9  11
ATOM     11  C   UNL     1     129.236 129.891 140.413  1.00  0.00    -0.002 C 
ATOM     12  C   UNL     1     130.146 130.106 139.197  1.00  0.00     0.005 C 
ATOM     13  C   UNL     1     129.316 128.348 140.735  1.00  0.00    -0.026 C 
ATOM     14  C   UNL     1     130.142 128.811 138.413  1.00  0.00     0.005 C 
ATOM     15  C   UNL     1     129.681 127.693 139.359  1.00  0.00    -0.001 C 
ATOM     16  C   UNL     1     130.361 127.967 141.833  1.00  0.00     0.007 C 
ATOM     17  C   UNL     1     127.928 127.817 141.184  1.00  0.00     0.012 C 
ATOM     18  C   UNL     1     130.724 126.536 139.406  1.00  0.00     0.000 C 
ATOM     19  C   UNL     1     131.802 127.939 141.317  1.00  0.00     0.005 C 
ATOM     20  C   UNL     1     132.029 126.881 140.191  1.00  0.00     0.003 C 
ATOM     21  C   UNL     1     130.126 125.206 139.878  1.00  0.00     0.031 C 
ATOM     22  C   UNL     1     132.893 125.595 140.612  1.00  0.00    -0.008 C 
ATOM     23  C   UNL     1     131.127 124.123 139.624  1.00  0.00    -0.027 C 
ATOM     24  C   UNL     1     132.437 124.330 139.852  1.00  0.00    -0.065 C 
ATOM     25  C   UNL     1     134.396 125.895 140.286  1.00  0.00     0.014 C 
ATOM     26  C   UNL     1     132.766 125.249 142.128  1.00  0.00     0.016 C 
ATOM     27  C   UNL     1     133.385 123.158 139.661  1.00  0.00     0.063 C 
ATOM     28  C   UNL     1     135.301 124.662 140.343  1.00  0.00     0.033 C 
ATOM     29  C   UNL     1     134.815 123.608 139.340  1.00  0.00     0.118 C 
BRANCH  29  30
ATOM     30  O   UNL     1     135.686 122.506 139.313  1.00  0.00    -0.393 OA
ATOM     31  H   UNL     1     136.221 122.518 140.152  1.00  0.00     0.210 HD
ENDBRANCH  29  30
ENDBRANCH   9  11
ENDBRANCH   1   9
TORSDOF 7
ENDMDL
