MODEL 1
REMARK VINA RESULT:    -6.284      0.000      0.000
REMARK INTER + INTRA:          -9.880
REMARK INTER:                  -8.672
REMARK INTRA:                  -1.208
REMARK UNBOUND:                -1.208
REMARK SMILES CC[C@@H](CC[C@H](C)[C@H]1CC[C@@H]2[C@@H]3CC=C4C[C@@H](O)CC[C@]4(C)[C@@H]3CC[C@@]21C)C(C)C
REMARK SMILES IDX 5 1 4 2 3 3 2 4 1 5 28 6 29 7 30 8 6 9 7 10 8 11 9 12 26 13
REMARK SMILES IDX 10 14 11 15 25 16 27 17 12 18 24 19 23 20 13 21 21 22 14 23
REMARK SMILES IDX 15 24 20 25 22 26 16 27 19 28 17 29 18 30
REMARK H PARENT 18 31
REMARK Flexibility Score: inf
ROOT
ATOM      1  C   UNL     1       2.976  -6.582  -3.846  1.00  0.00     0.004 C 
ENDROOT
BRANCH   1   2
ATOM      2  C   UNL     1       3.302  -7.379  -5.133  1.00  0.00     0.004 C 
BRANCH   2   3
ATOM      3  C   UNL     1       3.206  -6.565  -6.465  1.00  0.00    -0.009 C 
BRANCH   3   4
ATOM      4  C   UNL     1       2.144  -7.266  -7.376  1.00  0.00     0.000 C 
ATOM      5  C   UNL     1       1.964  -8.759  -7.072  1.00  0.00     0.004 C 
ENDBRANCH   3   4
BRANCH   3   6
ATOM      6  C   UNL     1       4.632  -6.384  -7.128  1.00  0.00    -0.014 C 
ATOM      7  C   UNL     1       5.223  -4.960  -7.084  1.00  0.00     0.007 C 
ATOM      8  C   UNL     1       5.672  -7.320  -6.483  1.00  0.00     0.007 C 
ENDBRANCH   3   6
ENDBRANCH   2   3
ENDBRANCH   1   2
BRANCH   1   9
ATOM      9  C   UNL     1       1.656  -7.005  -3.122  1.00  0.00    -0.011 C 
ATOM     10  C   UNL     1       1.322  -8.488  -3.373  1.00  0.00     0.008 C 
BRANCH   9  11
ATOM     11  C   UNL     1       0.502  -5.948  -3.321  1.00  0.00    -0.002 C 
ATOM     12  C   UNL     1       0.852  -4.723  -4.165  1.00  0.00     0.005 C 
ATOM     13  C   UNL     1      -0.918  -6.370  -3.817  1.00  0.00    -0.026 C 
ATOM     14  C   UNL     1      -0.481  -4.021  -4.471  1.00  0.00     0.005 C 
ATOM     15  C   UNL     1      -1.616  -4.976  -4.038  1.00  0.00    -0.001 C 
ATOM     16  C   UNL     1      -1.648  -7.324  -2.826  1.00  0.00     0.007 C 
ATOM     17  C   UNL     1      -0.874  -7.088  -5.204  1.00  0.00     0.012 C 
ATOM     18  C   UNL     1      -2.539  -4.432  -2.880  1.00  0.00     0.000 C 
ATOM     19  C   UNL     1      -2.400  -6.635  -1.689  1.00  0.00     0.005 C 
ATOM     20  C   UNL     1      -3.372  -5.580  -2.262  1.00  0.00     0.003 C 
ATOM     21  C   UNL     1      -1.853  -3.560  -1.789  1.00  0.00     0.031 C 
ATOM     22  C   UNL     1      -4.432  -4.999  -1.242  1.00  0.00    -0.008 C 
ATOM     23  C   UNL     1      -2.592  -3.472  -0.474  1.00  0.00    -0.027 C 
ATOM     24  C   UNL     1      -3.729  -4.144  -0.189  1.00  0.00    -0.065 C 
ATOM     25  C   UNL     1      -5.203  -6.139  -0.509  1.00  0.00     0.014 C 
ATOM     26  C   UNL     1      -5.460  -4.121  -2.034  1.00  0.00     0.016 C 
ATOM     27  C   UNL     1      -4.252  -4.139   1.241  1.00  0.00     0.063 C 
ATOM     28  C   UNL     1      -6.225  -5.640   0.539  1.00  0.00     0.033 C 
ATOM     29  C   UNL     1      -5.777  -4.345   1.296  1.00  0.00     0.118 C 
BRANCH  29  30
ATOM     30  O   UNL     1      -6.397  -3.178   0.801  1.00  0.00    -0.393 OA
ATOM     31  H   UNL     1      -5.848  -2.796   0.065  1.00  0.00     0.210 HD
ENDBRANCH  29  30
ENDBRANCH   9  11
ENDBRANCH   1   9
TORSDOF 7
ENDMDL
MODEL 2
REMARK VINA RESULT:    -6.094      5.290      9.931
REMARK INTER + INTRA:          -9.618
REMARK INTER:                  -7.669
REMARK INTRA:                  -1.949
REMARK UNBOUND:                -1.208
REMARK SMILES CC[C@@H](CC[C@H](C)[C@H]1CC[C@@H]2[C@@H]3CC=C4C[C@@H](O)CC[C@]4(C)[C@@H]3CC[C@@]21C)C(C)C
REMARK SMILES IDX 5 1 4 2 3 3 2 4 1 5 28 6 29 7 30 8 6 9 7 10 8 11 9 12 26 13
REMARK SMILES IDX 10 14 11 15 25 16 27 17 12 18 24 19 23 20 13 21 21 22 14 23
REMARK SMILES IDX 15 24 20 25 22 26 16 27 19 28 17 29 18 30
REMARK H PARENT 18 31
REMARK Flexibility Score: inf
ROOT
ATOM      1  C   UNL     1      -3.341  -6.887   5.747  1.00  0.00     0.004 C 
ENDROOT
BRANCH   1   2
ATOM      2  C   UNL     1      -1.882  -6.373   5.801  1.00  0.00     0.004 C 
BRANCH   2   3
ATOM      3  C   UNL     1      -1.629  -5.185   6.786  1.00  0.00    -0.009 C 
BRANCH   3   4
ATOM      4  C   UNL     1      -0.934  -4.037   5.979  1.00  0.00     0.000 C 
ATOM      5  C   UNL     1       0.361  -4.474   5.282  1.00  0.00     0.004 C 
ENDBRANCH   3   4
BRANCH   3   6
ATOM      6  C   UNL     1      -0.837  -5.666   8.069  1.00  0.00    -0.014 C 
ATOM      7  C   UNL     1      -1.632  -5.675   9.391  1.00  0.00     0.007 C 
ATOM      8  C   UNL     1      -0.272  -7.086   7.878  1.00  0.00     0.007 C 
ENDBRANCH   3   6
ENDBRANCH   2   3
ENDBRANCH   1   2
BRANCH   1   9
ATOM      9  C   UNL     1      -4.418  -5.881   6.269  1.00  0.00    -0.011 C 
ATOM     10  C   UNL     1      -5.077  -6.380   7.570  1.00  0.00     0.008 C 
BRANCH   9  11
ATOM     11  C   UNL     1      -5.366  -5.370   5.116  1.00  0.00    -0.002 C 
ATOM     12  C   UNL     1      -6.864  -5.390   5.420  1.00  0.00     0.005 C 
ATOM     13  C   UNL     1      -5.130  -3.996   4.409  1.00  0.00    -0.026 C 
ATOM     14  C   UNL     1      -7.536  -4.574   4.304  1.00  0.00     0.005 C 
ATOM     15  C   UNL     1      -6.416  -3.864   3.511  1.00  0.00    -0.001 C 
ATOM     16  C   UNL     1      -3.777  -3.936   3.640  1.00  0.00     0.007 C 
ATOM     17  C   UNL     1      -5.145  -2.801   5.415  1.00  0.00     0.012 C 
ATOM     18  C   UNL     1      -6.295  -4.294   1.998  1.00  0.00     0.000 C 
ATOM     19  C   UNL     1      -3.806  -4.504   2.223  1.00  0.00     0.005 C 
ATOM     20  C   UNL     1      -4.938  -3.840   1.409  1.00  0.00     0.003 C 
ATOM     21  C   UNL     1      -6.602  -5.783   1.667  1.00  0.00     0.031 C 
ATOM     22  C   UNL     1      -4.904  -4.098  -0.151  1.00  0.00    -0.008 C 
ATOM     23  C   UNL     1      -6.018  -6.289   0.368  1.00  0.00    -0.027 C 
ATOM     24  C   UNL     1      -5.215  -5.565  -0.444  1.00  0.00    -0.065 C 
ATOM     25  C   UNL     1      -3.506  -3.766  -0.754  1.00  0.00     0.014 C 
ATOM     26  C   UNL     1      -5.979  -3.184  -0.833  1.00  0.00     0.016 C 
ATOM     27  C   UNL     1      -4.519  -6.260  -1.605  1.00  0.00     0.063 C 
ATOM     28  C   UNL     1      -3.390  -4.042  -2.272  1.00  0.00     0.033 C 
ATOM     29  C   UNL     1      -4.209  -5.284  -2.756  1.00  0.00     0.118 C 
BRANCH  29  30
ATOM     30  O   UNL     1      -5.428  -4.931  -3.374  1.00  0.00    -0.393 OA
ATOM     31  H   UNL     1      -5.897  -5.753  -3.680  1.00  0.00     0.210 HD
ENDBRANCH  29  30
ENDBRANCH   9  11
ENDBRANCH   1   9
TORSDOF 7
ENDMDL
MODEL 3
REMARK VINA RESULT:    -6.003      5.744      9.992
REMARK INTER + INTRA:          -9.492
REMARK INTER:                  -8.313
REMARK INTRA:                  -1.179
REMARK UNBOUND:                -1.208
REMARK SMILES CC[C@@H](CC[C@H](C)[C@H]1CC[C@@H]2[C@@H]3CC=C4C[C@@H](O)CC[C@]4(C)[C@@H]3CC[C@@]21C)C(C)C
REMARK SMILES IDX 5 1 4 2 3 3 2 4 1 5 28 6 29 7 30 8 6 9 7 10 8 11 9 12 26 13
REMARK SMILES IDX 10 14 11 15 25 16 27 17 12 18 24 19 23 20 13 21 21 22 14 23
REMARK SMILES IDX 15 24 20 25 22 26 16 27 19 28 17 29 18 30
REMARK H PARENT 18 31
REMARK Flexibility Score: inf
ROOT
ATOM      1  C   UNL     1      -4.913  -5.578   1.695  1.00  0.00     0.004 C 
ENDROOT
BRANCH   1   2
ATOM      2  C   UNL     1      -5.546  -4.938   0.434  1.00  0.00     0.004 C 
BRANCH   2   3
ATOM      3  C   UNL     1      -4.688  -3.824  -0.250  1.00  0.00    -0.009 C 
BRANCH   3   4
ATOM      4  C   UNL     1      -5.559  -3.179  -1.380  1.00  0.00     0.000 C 
ATOM      5  C   UNL     1      -6.738  -2.353  -0.849  1.00  0.00     0.004 C 
ENDBRANCH   3   4
BRANCH   3   6
ATOM      6  C   UNL     1      -3.293  -4.395  -0.735  1.00  0.00    -0.014 C 
ATOM      7  C   UNL     1      -3.311  -5.200  -2.050  1.00  0.00     0.007 C 
ATOM      8  C   UNL     1      -2.259  -3.267  -0.914  1.00  0.00     0.007 C 
ENDBRANCH   3   6
ENDBRANCH   2   3
ENDBRANCH   1   2
BRANCH   1   9
ATOM      9  C   UNL     1      -5.419  -4.999   3.056  1.00  0.00    -0.011 C 
ATOM     10  C   UNL     1      -6.573  -3.997   2.853  1.00  0.00     0.008 C 
BRANCH   9  11
ATOM     11  C   UNL     1      -4.231  -4.568   4.000  1.00  0.00    -0.002 C 
ATOM     12  C   UNL     1      -3.761  -3.119   3.868  1.00  0.00     0.005 C 
ATOM     13  C   UNL     1      -4.273  -4.825   5.541  1.00  0.00    -0.026 C 
ATOM     14  C   UNL     1      -2.842  -2.858   5.073  1.00  0.00     0.005 C 
ATOM     15  C   UNL     1      -2.992  -4.056   6.036  1.00  0.00    -0.001 C 
ATOM     16  C   UNL     1      -4.315  -6.339   5.901  1.00  0.00     0.007 C 
ATOM     17  C   UNL     1      -5.507  -4.152   6.222  1.00  0.00     0.012 C 
ATOM     18  C   UNL     1      -1.677  -4.900   6.261  1.00  0.00     0.000 C 
ATOM     19  C   UNL     1      -2.957  -7.035   5.961  1.00  0.00     0.005 C 
ATOM     20  C   UNL     1      -2.010  -6.266   6.907  1.00  0.00     0.003 C 
ATOM     21  C   UNL     1      -0.726  -5.052   5.039  1.00  0.00     0.031 C 
ATOM     22  C   UNL     1      -0.679  -7.020   7.308  1.00  0.00    -0.008 C 
ATOM     23  C   UNL     1       0.225  -6.224   5.103  1.00  0.00    -0.027 C 
ATOM     24  C   UNL     1       0.236  -7.148   6.090  1.00  0.00    -0.065 C 
ATOM     25  C   UNL     1      -0.974  -8.452   7.847  1.00  0.00     0.014 C 
ATOM     26  C   UNL     1       0.046  -6.197   8.427  1.00  0.00     0.016 C 
ATOM     27  C   UNL     1       1.092  -8.395   5.924  1.00  0.00     0.063 C 
ATOM     28  C   UNL     1       0.290  -9.264   8.213  1.00  0.00     0.033 C 
ATOM     29  C   UNL     1       1.516  -8.984   7.283  1.00  0.00     0.118 C 
BRANCH  29  30
ATOM     30  O   UNL     1       2.460  -8.112   7.866  1.00  0.00    -0.393 OA
ATOM     31  H   UNL     1       2.698  -8.439   8.775  1.00  0.00     0.210 HD
ENDBRANCH  29  30
ENDBRANCH   9  11
ENDBRANCH   1   9
TORSDOF 7
ENDMDL
MODEL 4
REMARK VINA RESULT:    -5.991      4.564      9.308
REMARK INTER + INTRA:          -9.476
REMARK INTER:                  -7.432
REMARK INTRA:                  -2.044
REMARK UNBOUND:                -1.208
REMARK SMILES CC[C@@H](CC[C@H](C)[C@H]1CC[C@@H]2[C@@H]3CC=C4C[C@@H](O)CC[C@]4(C)[C@@H]3CC[C@@]21C)C(C)C
REMARK SMILES IDX 5 1 4 2 3 3 2 4 1 5 28 6 29 7 30 8 6 9 7 10 8 11 9 12 26 13
REMARK SMILES IDX 10 14 11 15 25 16 27 17 12 18 24 19 23 20 13 21 21 22 14 23
REMARK SMILES IDX 15 24 20 25 22 26 16 27 19 28 17 29 18 30
REMARK H PARENT 18 31
REMARK Flexibility Score: inf
ROOT
ATOM      1  C   UNL     1      -3.709  -7.684   5.321  1.00  0.00     0.004 C 
ENDROOT
BRANCH   1   2
ATOM      2  C   UNL     1      -2.460  -7.334   4.476  1.00  0.00     0.004 C 
BRANCH   2   3
ATOM      3  C   UNL     1      -1.217  -6.850   5.292  1.00  0.00    -0.009 C 
BRANCH   3   4
ATOM      4  C   UNL     1      -1.315  -7.473   6.725  1.00  0.00     0.000 C 
ATOM      5  C   UNL     1       0.012  -8.046   7.237  1.00  0.00     0.004 C 
ENDBRANCH   3   4
BRANCH   3   6
ATOM      6  C   UNL     1      -1.094  -5.272   5.263  1.00  0.00    -0.014 C 
ATOM      7  C   UNL     1      -1.799  -4.517   6.408  1.00  0.00     0.007 C 
ATOM      8  C   UNL     1       0.381  -4.825   5.274  1.00  0.00     0.007 C 
ENDBRANCH   3   6
ENDBRANCH   2   3
ENDBRANCH   1   2
BRANCH   1   9
ATOM      9  C   UNL     1      -4.677  -6.489   5.600  1.00  0.00    -0.011 C 
ATOM     10  C   UNL     1      -5.505  -6.716   6.880  1.00  0.00     0.008 C 
BRANCH   9  11
ATOM     11  C   UNL     1      -5.445  -6.027   4.302  1.00  0.00    -0.002 C 
ATOM     12  C   UNL     1      -6.931  -6.381   4.240  1.00  0.00     0.005 C 
ATOM     13  C   UNL     1      -5.374  -4.553   3.788  1.00  0.00    -0.026 C 
ATOM     14  C   UNL     1      -7.513  -5.574   3.067  1.00  0.00     0.005 C 
ATOM     15  C   UNL     1      -6.435  -4.559   2.625  1.00  0.00    -0.001 C 
ATOM     16  C   UNL     1      -3.937  -4.126   3.369  1.00  0.00     0.007 C 
ATOM     17  C   UNL     1      -5.870  -3.527   4.857  1.00  0.00     0.012 C 
ATOM     18  C   UNL     1      -5.901  -4.754   1.153  1.00  0.00     0.000 C 
ATOM     19  C   UNL     1      -3.534  -4.497   1.943  1.00  0.00     0.005 C 
ATOM     20  C   UNL     1      -4.585  -3.968   0.943  1.00  0.00     0.003 C 
ATOM     21  C   UNL     1      -5.791  -6.218   0.636  1.00  0.00     0.031 C 
ATOM     22  C   UNL     1      -4.161  -4.006  -0.580  1.00  0.00    -0.008 C 
ATOM     23  C   UNL     1      -4.846  -6.423  -0.525  1.00  0.00    -0.027 C 
ATOM     24  C   UNL     1      -4.069  -5.455  -1.060  1.00  0.00    -0.065 C 
ATOM     25  C   UNL     1      -2.775  -3.329  -0.806  1.00  0.00     0.014 C 
ATOM     26  C   UNL     1      -5.241  -3.241  -1.420  1.00  0.00     0.016 C 
ATOM     27  C   UNL     1      -3.004  -5.840  -2.077  1.00  0.00     0.063 C 
ATOM     28  C   UNL     1      -2.279  -3.375  -2.269  1.00  0.00     0.033 C 
ATOM     29  C   UNL     1      -2.680  -4.680  -3.036  1.00  0.00     0.118 C 
BRANCH  29  30
ATOM     30  O   UNL     1      -3.785  -4.494  -3.893  1.00  0.00    -0.393 OA
ATOM     31  H   UNL     1      -4.628  -4.648  -3.388  1.00  0.00     0.210 HD
ENDBRANCH  29  30
ENDBRANCH   9  11
ENDBRANCH   1   9
TORSDOF 7
ENDMDL
MODEL 5
REMARK VINA RESULT:    -5.877      5.242      9.184
REMARK INTER + INTRA:          -9.319
REMARK INTER:                  -6.350
REMARK INTRA:                  -2.968
REMARK UNBOUND:                -1.208
REMARK SMILES CC[C@@H](CC[C@H](C)[C@H]1CC[C@@H]2[C@@H]3CC=C4C[C@@H](O)CC[C@]4(C)[C@@H]3CC[C@@]21C)C(C)C
REMARK SMILES IDX 5 1 4 2 3 3 2 4 1 5 28 6 29 7 30 8 6 9 7 10 8 11 9 12 26 13
REMARK SMILES IDX 10 14 11 15 25 16 27 17 12 18 24 19 23 20 13 21 21 22 14 23
REMARK SMILES IDX 15 24 20 25 22 26 16 27 19 28 17 29 18 30
REMARK H PARENT 18 31
REMARK Flexibility Score: inf
ROOT
ATOM      1  C   UNL     1      -3.971  -7.114   6.001  1.00  0.00     0.004 C 
ENDROOT
BRANCH   1   2
ATOM      2  C   UNL     1      -4.366  -7.773   4.656  1.00  0.00     0.004 C 
BRANCH   2   3
ATOM      3  C   UNL     1      -3.170  -8.140   3.717  1.00  0.00    -0.009 C 
BRANCH   3   4
ATOM      4  C   UNL     1      -1.963  -7.221   4.102  1.00  0.00     0.000 C 
ATOM      5  C   UNL     1      -0.701  -7.998   4.495  1.00  0.00     0.004 C 
ENDBRANCH   3   4
BRANCH   3   6
ATOM      6  C   UNL     1      -3.598  -8.070   2.195  1.00  0.00    -0.014 C 
ATOM      7  C   UNL     1      -2.454  -7.882   1.178  1.00  0.00     0.007 C 
ATOM      8  C   UNL     1      -4.370  -9.334   1.771  1.00  0.00     0.007 C 
ENDBRANCH   3   6
ENDBRANCH   2   3
ENDBRANCH   1   2
BRANCH   1   9
ATOM      9  C   UNL     1      -4.799  -5.844   6.384  1.00  0.00    -0.011 C 
ATOM     10  C   UNL     1      -5.487  -6.007   7.753  1.00  0.00     0.008 C 
BRANCH   9  11
ATOM     11  C   UNL     1      -5.672  -5.315   5.181  1.00  0.00    -0.002 C 
ATOM     12  C   UNL     1      -7.180  -5.254   5.423  1.00  0.00     0.005 C 
ATOM     13  C   UNL     1      -5.339  -3.973   4.454  1.00  0.00    -0.026 C 
ATOM     14  C   UNL     1      -7.765  -4.434   4.262  1.00  0.00     0.005 C 
ATOM     15  C   UNL     1      -6.580  -3.800   3.501  1.00  0.00    -0.001 C 
ATOM     16  C   UNL     1      -3.955  -3.998   3.740  1.00  0.00     0.007 C 
ATOM     17  C   UNL     1      -5.335  -2.753   5.431  1.00  0.00     0.012 C 
ATOM     18  C   UNL     1      -6.419  -4.272   2.004  1.00  0.00     0.000 C 
ATOM     19  C   UNL     1      -3.955  -4.598   2.336  1.00  0.00     0.005 C 
ATOM     20  C   UNL     1      -5.019  -3.900   1.461  1.00  0.00     0.003 C 
ATOM     21  C   UNL     1      -6.787  -5.752   1.694  1.00  0.00     0.031 C 
ATOM     22  C   UNL     1      -4.935  -4.198  -0.089  1.00  0.00    -0.008 C 
ATOM     23  C   UNL     1      -6.177  -6.318   0.432  1.00  0.00    -0.027 C 
ATOM     24  C   UNL     1      -5.307  -5.655  -0.362  1.00  0.00    -0.065 C 
ATOM     25  C   UNL     1      -3.499  -3.950  -0.642  1.00  0.00     0.014 C 
ATOM     26  C   UNL     1      -5.935  -3.250  -0.836  1.00  0.00     0.016 C 
ATOM     27  C   UNL     1      -4.600  -6.412  -1.477  1.00  0.00     0.063 C 
ATOM     28  C   UNL     1      -3.335  -4.269  -2.146  1.00  0.00     0.033 C 
ATOM     29  C   UNL     1      -4.196  -5.481  -2.636  1.00  0.00     0.118 C 
BRANCH  29  30
ATOM     30  O   UNL     1      -5.370  -5.083  -3.311  1.00  0.00    -0.393 OA
ATOM     31  H   UNL     1      -5.804  -5.879  -3.721  1.00  0.00     0.210 HD
ENDBRANCH  29  30
ENDBRANCH   9  11
ENDBRANCH   1   9
TORSDOF 7
ENDMDL
MODEL 6
REMARK VINA RESULT:    -5.757      4.076     10.002
REMARK INTER + INTRA:          -9.153
REMARK INTER:                  -7.620
REMARK INTRA:                  -1.533
REMARK UNBOUND:                -1.208
REMARK SMILES CC[C@@H](CC[C@H](C)[C@H]1CC[C@@H]2[C@@H]3CC=C4C[C@@H](O)CC[C@]4(C)[C@@H]3CC[C@@]21C)C(C)C
REMARK SMILES IDX 5 1 4 2 3 3 2 4 1 5 28 6 29 7 30 8 6 9 7 10 8 11 9 12 26 13
REMARK SMILES IDX 10 14 11 15 25 16 27 17 12 18 24 19 23 20 13 21 21 22 14 23
REMARK SMILES IDX 15 24 20 25 22 26 16 27 19 28 17 29 18 30
REMARK H PARENT 18 31
REMARK Flexibility Score: inf
ROOT
ATOM      1  C   UNL     1      -3.250  -4.070   5.232  1.00  0.00     0.004 C 
ENDROOT
BRANCH   1   2
ATOM      2  C   UNL     1      -3.413  -2.630   4.686  1.00  0.00     0.004 C 
BRANCH   2   3
ATOM      3  C   UNL     1      -4.158  -1.636   5.635  1.00  0.00    -0.009 C 
BRANCH   3   4
ATOM      4  C   UNL     1      -5.678  -1.671   5.264  1.00  0.00     0.000 C 
ATOM      5  C   UNL     1      -6.594  -1.975   6.456  1.00  0.00     0.004 C 
ENDBRANCH   3   4
BRANCH   3   6
ATOM      6  C   UNL     1      -3.498  -0.198   5.588  1.00  0.00    -0.014 C 
ATOM      7  C   UNL     1      -3.707   0.685   6.835  1.00  0.00     0.007 C 
ATOM      8  C   UNL     1      -1.978  -0.287   5.353  1.00  0.00     0.007 C 
ENDBRANCH   3   6
ENDBRANCH   2   3
ENDBRANCH   1   2
BRANCH   1   9
ATOM      9  C   UNL     1      -4.581  -4.879   5.374  1.00  0.00    -0.011 C 
ATOM     10  C   UNL     1      -4.725  -5.491   6.781  1.00  0.00     0.008 C 
BRANCH   9  11
ATOM     11  C   UNL     1      -4.843  -5.818   4.134  1.00  0.00    -0.002 C 
ATOM     12  C   UNL     1      -5.275  -7.249   4.457  1.00  0.00     0.005 C 
ATOM     13  C   UNL     1      -5.777  -5.384   2.960  1.00  0.00    -0.026 C 
ATOM     14  C   UNL     1      -5.763  -7.856   3.131  1.00  0.00     0.005 C 
ATOM     15  C   UNL     1      -5.865  -6.704   2.106  1.00  0.00    -0.001 C 
ATOM     16  C   UNL     1      -5.247  -4.136   2.194  1.00  0.00     0.007 C 
ATOM     17  C   UNL     1      -7.225  -5.052   3.444  1.00  0.00     0.012 C 
ATOM     18  C   UNL     1      -4.903  -6.832   0.862  1.00  0.00     0.000 C 
ATOM     19  C   UNL     1      -4.229  -4.428   1.094  1.00  0.00     0.005 C 
ATOM     20  C   UNL     1      -4.794  -5.481   0.116  1.00  0.00     0.003 C 
ATOM     21  C   UNL     1      -3.506  -7.467   1.119  1.00  0.00     0.031 C 
ATOM     22  C   UNL     1      -3.991  -5.664  -1.234  1.00  0.00    -0.008 C 
ATOM     23  C   UNL     1      -2.448  -7.138   0.093  1.00  0.00    -0.027 C 
ATOM     24  C   UNL     1      -2.628  -6.295  -0.949  1.00  0.00    -0.065 C 
ATOM     25  C   UNL     1      -3.755  -4.298  -1.948  1.00  0.00     0.014 C 
ATOM     26  C   UNL     1      -4.815  -6.597  -2.185  1.00  0.00     0.016 C 
ATOM     27  C   UNL     1      -1.422  -5.880  -1.780  1.00  0.00     0.063 C 
ATOM     28  C   UNL     1      -2.932  -4.400  -3.253  1.00  0.00     0.033 C 
ATOM     29  C   UNL     1      -1.820  -5.501  -3.219  1.00  0.00     0.118 C 
BRANCH  29  30
ATOM     30  O   UNL     1      -2.194  -6.681  -3.897  1.00  0.00    -0.393 OA
ATOM     31  H   UNL     1      -2.158  -6.526  -4.879  1.00  0.00     0.210 HD
ENDBRANCH  29  30
ENDBRANCH   9  11
ENDBRANCH   1   9
TORSDOF 7
ENDMDL
MODEL 7
REMARK VINA RESULT:    -5.725      3.576      6.918
REMARK INTER + INTRA:          -9.109
REMARK INTER:                  -7.163
REMARK INTRA:                  -1.947
REMARK UNBOUND:                -1.208
REMARK SMILES CC[C@@H](CC[C@H](C)[C@H]1CC[C@@H]2[C@@H]3CC=C4C[C@@H](O)CC[C@]4(C)[C@@H]3CC[C@@]21C)C(C)C
REMARK SMILES IDX 5 1 4 2 3 3 2 4 1 5 28 6 29 7 30 8 6 9 7 10 8 11 9 12 26 13
REMARK SMILES IDX 10 14 11 15 25 16 27 17 12 18 24 19 23 20 13 21 21 22 14 23
REMARK SMILES IDX 15 24 20 25 22 26 16 27 19 28 17 29 18 30
REMARK H PARENT 18 31
REMARK Flexibility Score: inf
ROOT
ATOM      1  C   UNL     1      -3.235  -3.345  -1.678  1.00  0.00     0.004 C 
ENDROOT
BRANCH   1   2
ATOM      2  C   UNL     1      -1.853  -3.881  -1.230  1.00  0.00     0.004 C 
BRANCH   2   3
ATOM      3  C   UNL     1      -1.171  -4.879  -2.222  1.00  0.00    -0.009 C 
BRANCH   3   4
ATOM      4  C   UNL     1      -1.738  -4.591  -3.653  1.00  0.00     0.000 C 
ATOM      5  C   UNL     1      -0.742  -3.876  -4.574  1.00  0.00     0.004 C 
ENDBRANCH   3   4
BRANCH   3   6
ATOM      6  C   UNL     1      -1.340  -6.375  -1.731  1.00  0.00    -0.014 C 
ATOM      7  C   UNL     1      -2.381  -7.223  -2.491  1.00  0.00     0.007 C 
ATOM      8  C   UNL     1      -0.005  -7.140  -1.798  1.00  0.00     0.007 C 
ENDBRANCH   3   6
ENDBRANCH   2   3
ENDBRANCH   1   2
BRANCH   1   9
ATOM      9  C   UNL     1      -4.415  -4.363  -1.546  1.00  0.00    -0.011 C 
ATOM     10  C   UNL     1      -5.439  -4.194  -2.686  1.00  0.00     0.008 C 
BRANCH   9  11
ATOM     11  C   UNL     1      -4.966  -4.450  -0.071  1.00  0.00    -0.002 C 
ATOM     12  C   UNL     1      -6.332  -3.807   0.174  1.00  0.00     0.005 C 
ATOM     13  C   UNL     1      -5.030  -5.806   0.702  1.00  0.00    -0.026 C 
ATOM     14  C   UNL     1      -6.785  -4.284   1.564  1.00  0.00     0.005 C 
ATOM     15  C   UNL     1      -5.817  -5.405   2.005  1.00  0.00    -0.001 C 
ATOM     16  C   UNL     1      -3.625  -6.432   0.944  1.00  0.00     0.007 C 
ATOM     17  C   UNL     1      -5.891  -6.875  -0.045  1.00  0.00     0.012 C 
ATOM     18  C   UNL     1      -4.969  -5.083   3.297  1.00  0.00     0.000 C 
ATOM     19  C   UNL     1      -2.886  -5.921   2.179  1.00  0.00     0.005 C 
ATOM     20  C   UNL     1      -3.782  -6.066   3.429  1.00  0.00     0.003 C 
ATOM     21  C   UNL     1      -4.523  -3.605   3.491  1.00  0.00     0.031 C 
ATOM     22  C   UNL     1      -3.057  -5.865   4.820  1.00  0.00    -0.008 C 
ATOM     23  C   UNL     1      -3.340  -3.403   4.409  1.00  0.00    -0.027 C 
ATOM     24  C   UNL     1      -2.637  -4.405   4.983  1.00  0.00    -0.065 C 
ATOM     25  C   UNL     1      -1.781  -6.754   4.933  1.00  0.00     0.014 C 
ATOM     26  C   UNL     1      -4.051  -6.259   5.965  1.00  0.00     0.016 C 
ATOM     27  C   UNL     1      -1.339  -4.076   5.707  1.00  0.00     0.063 C 
ATOM     28  C   UNL     1      -0.996  -6.571   6.252  1.00  0.00     0.033 C 
ATOM     29  C   UNL     1      -1.017  -5.106   6.805  1.00  0.00     0.118 C 
BRANCH  29  30
ATOM     30  O   UNL     1      -1.940  -4.931   7.859  1.00  0.00    -0.393 OA
ATOM     31  H   UNL     1      -2.642  -5.634   7.807  1.00  0.00     0.210 HD
ENDBRANCH  29  30
ENDBRANCH   9  11
ENDBRANCH   1   9
TORSDOF 7
ENDMDL
MODEL 8
REMARK VINA RESULT:    -5.623      1.506      2.703
REMARK INTER + INTRA:          -8.968
REMARK INTER:                  -7.589
REMARK INTRA:                  -1.378
REMARK UNBOUND:                -1.208
REMARK SMILES CC[C@@H](CC[C@H](C)[C@H]1CC[C@@H]2[C@@H]3CC=C4C[C@@H](O)CC[C@]4(C)[C@@H]3CC[C@@]21C)C(C)C
REMARK SMILES IDX 5 1 4 2 3 3 2 4 1 5 28 6 29 7 30 8 6 9 7 10 8 11 9 12 26 13
REMARK SMILES IDX 10 14 11 15 25 16 27 17 12 18 24 19 23 20 13 21 21 22 14 23
REMARK SMILES IDX 15 24 20 25 22 26 16 27 19 28 17 29 18 30
REMARK H PARENT 18 31
REMARK Flexibility Score: inf
ROOT
ATOM      1  C   UNL     1       4.089  -6.634  -4.500  1.00  0.00     0.004 C 
ENDROOT
BRANCH   1   2
ATOM      2  C   UNL     1       5.138  -6.564  -5.637  1.00  0.00     0.004 C 
BRANCH   2   3
ATOM      3  C   UNL     1       4.872  -5.471  -6.723  1.00  0.00    -0.009 C 
BRANCH   3   4
ATOM      4  C   UNL     1       5.250  -6.081  -8.115  1.00  0.00     0.000 C 
ATOM      5  C   UNL     1       4.282  -7.171  -8.591  1.00  0.00     0.004 C 
ENDBRANCH   3   4
BRANCH   3   6
ATOM      6  C   UNL     1       5.616  -4.120  -6.368  1.00  0.00    -0.014 C 
ATOM      7  C   UNL     1       4.825  -3.119  -5.501  1.00  0.00     0.007 C 
ATOM      8  C   UNL     1       6.947  -4.389  -5.639  1.00  0.00     0.007 C 
ENDBRANCH   3   6
ENDBRANCH   2   3
ENDBRANCH   1   2
BRANCH   1   9
ATOM      9  C   UNL     1       3.127  -7.865  -4.561  1.00  0.00    -0.011 C 
ATOM     10  C   UNL     1       3.721  -9.008  -5.408  1.00  0.00     0.008 C 
BRANCH   9  11
ATOM     11  C   UNL     1       1.634  -7.442  -4.844  1.00  0.00    -0.002 C 
ATOM     12  C   UNL     1       1.252  -7.271  -6.314  1.00  0.00     0.005 C 
ATOM     13  C   UNL     1       0.430  -8.216  -4.217  1.00  0.00    -0.026 C 
ATOM     14  C   UNL     1      -0.282  -7.173  -6.348  1.00  0.00     0.005 C 
ATOM     15  C   UNL     1      -0.800  -7.554  -4.943  1.00  0.00    -0.001 C 
ATOM     16  C   UNL     1       0.401  -8.135  -2.662  1.00  0.00     0.007 C 
ATOM     17  C   UNL     1       0.431  -9.730  -4.602  1.00  0.00     0.012 C 
ATOM     18  C   UNL     1      -1.563  -6.403  -4.179  1.00  0.00     0.000 C 
ATOM     19  C   UNL     1      -0.274  -6.893  -2.084  1.00  0.00     0.005 C 
ATOM     20  C   UNL     1      -1.693  -6.739  -2.674  1.00  0.00     0.003 C 
ATOM     21  C   UNL     1      -1.050  -4.952  -4.407  1.00  0.00     0.031 C 
ATOM     22  C   UNL     1      -2.624  -5.684  -1.955  1.00  0.00    -0.008 C 
ATOM     23  C   UNL     1      -1.430  -3.957  -3.335  1.00  0.00    -0.027 C 
ATOM     24  C   UNL     1      -2.099  -4.270  -2.203  1.00  0.00    -0.065 C 
ATOM     25  C   UNL     1      -2.676  -5.922  -0.416  1.00  0.00     0.014 C 
ATOM     26  C   UNL     1      -4.074  -5.816  -2.537  1.00  0.00     0.016 C 
ATOM     27  C   UNL     1      -2.226  -3.221  -1.106  1.00  0.00     0.063 C 
ATOM     28  C   UNL     1      -3.533  -4.892   0.356  1.00  0.00     0.033 C 
ATOM     29  C   UNL     1      -3.480  -3.446  -0.241  1.00  0.00     0.118 C 
BRANCH  29  30
ATOM     30  O   UNL     1      -4.615  -3.131  -1.018  1.00  0.00    -0.393 OA
ATOM     31  H   UNL     1      -5.330  -3.802  -0.850  1.00  0.00     0.210 HD
ENDBRANCH  29  30
ENDBRANCH   9  11
ENDBRANCH   1   9
TORSDOF 7
ENDMDL
MODEL 9
REMARK VINA RESULT:    -5.620      9.010     12.514
REMARK INTER + INTRA:          -8.964
REMARK INTER:                  -7.612
REMARK INTRA:                  -1.353
REMARK UNBOUND:                -1.208
REMARK SMILES CC[C@@H](CC[C@H](C)[C@H]1CC[C@@H]2[C@@H]3CC=C4C[C@@H](O)CC[C@]4(C)[C@@H]3CC[C@@]21C)C(C)C
REMARK SMILES IDX 5 1 4 2 3 3 2 4 1 5 28 6 29 7 30 8 6 9 7 10 8 11 9 12 26 13
REMARK SMILES IDX 10 14 11 15 25 16 27 17 12 18 24 19 23 20 13 21 21 22 14 23
REMARK SMILES IDX 15 24 20 25 22 26 16 27 19 28 17 29 18 30
REMARK H PARENT 18 31
REMARK Flexibility Score: inf
ROOT
ATOM      1  C   UNL     1       9.960  -2.571  -1.393  1.00  0.00     0.004 C 
ENDROOT
BRANCH   1   2
ATOM      2  C   UNL     1       9.755  -2.089   0.064  1.00  0.00     0.004 C 
BRANCH   2   3
ATOM      3  C   UNL     1       8.525  -2.707   0.805  1.00  0.00    -0.009 C 
BRANCH   3   4
ATOM      4  C   UNL     1       7.509  -1.550   1.089  1.00  0.00     0.000 C 
ATOM      5  C   UNL     1       6.205  -1.668   0.291  1.00  0.00     0.004 C 
ENDBRANCH   3   4
BRANCH   3   6
ATOM      6  C   UNL     1       8.978  -3.520   2.085  1.00  0.00    -0.014 C 
ATOM      7  C   UNL     1       9.477  -2.679   3.279  1.00  0.00     0.007 C 
ATOM      8  C   UNL     1       7.841  -4.414   2.613  1.00  0.00     0.007 C 
ENDBRANCH   3   6
ENDBRANCH   2   3
ENDBRANCH   1   2
BRANCH   1   9
ATOM      9  C   UNL     1       9.573  -1.532  -2.496  1.00  0.00    -0.011 C 
ATOM     10  C   UNL     1       9.256  -0.152  -1.887  1.00  0.00     0.008 C 
BRANCH   9  11
ATOM     11  C   UNL     1       8.553  -2.125  -3.543  1.00  0.00    -0.002 C 
ATOM     12  C   UNL     1       7.073  -1.874  -3.253  1.00  0.00     0.005 C 
ATOM     13  C   UNL     1       8.701  -1.856  -5.075  1.00  0.00    -0.026 C 
ATOM     14  C   UNL     1       6.317  -2.257  -4.536  1.00  0.00     0.005 C 
ATOM     15  C   UNL     1       7.370  -2.471  -5.646  1.00  0.00    -0.001 C 
ATOM     16  C   UNL     1      10.012  -2.449  -5.670  1.00  0.00     0.007 C 
ATOM     17  C   UNL     1       8.687  -0.331  -5.414  1.00  0.00     0.012 C 
ATOM     18  C   UNL     1       7.436  -3.937  -6.228  1.00  0.00     0.000 C 
ATOM     19  C   UNL     1       9.939  -3.920  -6.075  1.00  0.00     0.005 C 
ATOM     20  C   UNL     1       8.745  -4.148  -7.026  1.00  0.00     0.003 C 
ATOM     21  C   UNL     1       7.172  -5.099  -5.228  1.00  0.00     0.031 C 
ATOM     22  C   UNL     1       8.715  -5.544  -7.768  1.00  0.00    -0.008 C 
ATOM     23  C   UNL     1       7.713  -6.446  -5.648  1.00  0.00    -0.027 C 
ATOM     24  C   UNL     1       8.448  -6.663  -6.762  1.00  0.00    -0.065 C 
ATOM     25  C   UNL     1      10.069  -5.842  -8.480  1.00  0.00     0.014 C 
ATOM     26  C   UNL     1       7.573  -5.517  -8.841  1.00  0.00     0.016 C 
ATOM     27  C   UNL     1       9.115  -8.018  -6.955  1.00  0.00     0.063 C 
ATOM     28  C   UNL     1      10.124  -7.216  -9.186  1.00  0.00     0.033 C 
ATOM     29  C   UNL     1       9.331  -8.344  -8.444  1.00  0.00     0.118 C 
BRANCH  29  30
ATOM     30  O   UNL     1       8.072  -8.603  -9.026  1.00  0.00    -0.393 OA
ATOM     31  H   UNL     1       7.443  -7.865  -8.802  1.00  0.00     0.210 HD
ENDBRANCH  29  30
ENDBRANCH   9  11
ENDBRANCH   1   9
TORSDOF 7
ENDMDL
