MODEL 1
REMARK VINA RESULT:    -6.655      0.000      0.000
REMARK INTER + INTRA:         -16.206
REMARK INTER:                 -14.047
REMARK INTRA:                  -2.160
REMARK UNBOUND:                -2.160
REMARK SMILES CCC(=O)CCCCC[C@H]1NC(=O)[C@@H]2CCCCN2C(=O)[C@@H]([C@H](C)CC)NC(=O)[C@H](Cc2cn(OC)c3ccccc23)NC1=O
REMARK SMILES IDX 9 1 10 2 44 3 43 4 45 6 30 7 28 8 27 9 29 11 22 12 23 14
REMARK SMILES IDX 24 15 25 16 26 17 31 18 32 19 33 20 42 21 34 22 37 23 41 24
REMARK SMILES IDX 38 25 40 26 39 27 35 28 36 29 11 30 12 31 13 33 14 34 19 35
REMARK SMILES IDX 15 36 18 37 16 38 17 39 20 40 21 41 8 43 7 44 6 45 5 46 3 47
REMARK SMILES IDX 4 48 2 49 1 50
REMARK H PARENT 43 5 27 10 11 32
REMARK Flexibility Score: 80.00
ROOT
ATOM      1  C   UNL     1      21.024 -34.354  25.041  1.00  0.00     0.035 C 
ENDROOT
BRANCH   1   2
ATOM      2  C   UNL     1      20.576 -34.118  23.577  1.00  0.00     0.171 C 
BRANCH   2   3
ATOM      3  C   UNL     1      20.728 -32.694  23.093  1.00  0.00     0.243 C 
ATOM      4  N   UNL     1      19.735 -31.693  23.388  1.00  0.00    -0.342 N 
ATOM      5  H   UNL     1      19.035 -31.893  24.133  1.00  0.00     0.164 HD
ATOM      6  O   UNL     1      21.727 -32.403  22.382  1.00  0.00    -0.273 OA
BRANCH   4   7
ATOM      7  C   UNL     1      19.459 -30.537  22.529  1.00  0.00     0.175 C 
BRANCH   7   8
ATOM      8  C   UNL     1      18.103 -30.687  21.892  1.00  0.00     0.243 C 
ATOM      9  N   UNL     1      17.227 -31.720  22.366  1.00  0.00    -0.342 N 
ATOM     10  H   UNL     1      17.449 -32.167  23.282  1.00  0.00     0.164 HD
ATOM     11  O   UNL     1      17.772 -29.972  20.905  1.00  0.00    -0.273 OA
BRANCH   9  12
ATOM     12  C   UNL     1      16.115 -32.264  21.583  1.00  0.00     0.174 CG0
ATOM     13  G   UNL     1      16.155 -33.771  21.695  1.00  0.00     0.000 G0
BRANCH  12  14
ATOM     14  C   UNL     1      14.775 -31.595  22.012  1.00  0.00     0.018 C 
ATOM     15  C   UNL     1      14.095 -30.751  20.914  1.00  0.00     0.010 C 
BRANCH  14  16
ATOM     16  C   UNL     1      14.845 -30.857  23.376  1.00  0.00     0.002 C 
ATOM     17  C   UNL     1      13.503 -30.346  23.918  1.00  0.00     0.004 C 
ENDBRANCH  14  16
ENDBRANCH  12  14
ENDBRANCH   9  12
ENDBRANCH   7   8
BRANCH   7  18
ATOM     18  C   UNL     1      20.586 -30.290  21.505  1.00  0.00     0.073 C 
BRANCH  18  19
ATOM     19  C   UNL     1      21.200 -28.936  21.705  1.00  0.00    -0.016 A 
ATOM     20  C   UNL     1      21.008 -27.831  20.882  1.00  0.00     0.134 A 
ATOM     21  C   UNL     1      21.933 -28.481  22.788  1.00  0.00     0.006 A 
ATOM     22  N   UNL     1      21.607 -26.743  21.424  1.00  0.00    -0.191 N 
ATOM     23  C   UNL     1      22.164 -27.143  22.578  1.00  0.00     0.087 A 
ATOM     24  C   UNL     1      22.388 -29.130  23.936  1.00  0.00     0.011 A 
ATOM     25  C   UNL     1      22.864 -26.365  23.504  1.00  0.00     0.030 A 
ATOM     26  C   UNL     1      23.098 -28.374  24.887  1.00  0.00     0.001 A 
ATOM     27  C   UNL     1      23.326 -26.996  24.674  1.00  0.00     0.002 A 
BRANCH  22  28
ATOM     28  O   UNL     1      21.630 -25.459  20.916  1.00  0.00    -0.417 OA
ATOM     29  C   UNL     1      22.607 -25.034  19.971  1.00  0.00     0.313 C 
ENDBRANCH  22  28
ENDBRANCH  18  19
ENDBRANCH   7  18
ENDBRANCH   4   7
ENDBRANCH   2   3
BRANCH   2  30
ATOM     30  N   UNL     1      19.219 -34.616  23.315  1.00  0.00    -0.343 N 
ATOM     31  C   UNL     1      18.967 -35.705  22.408  1.00  0.00     0.243 C 
ATOM     32  H   UNL     1      18.403 -34.053  23.632  1.00  0.00     0.164 HD
ATOM     33  O   UNL     1      19.894 -36.507  22.111  1.00  0.00    -0.273 OA
BRANCH  31  34
ATOM     34  C   UNL     1      17.618 -35.854  21.743  1.00  0.00     0.174 C 
ATOM     35  N   UNL     1      17.233 -34.571  21.129  1.00  0.00    -0.329 N 
ATOM     36  C   UNL     1      17.618 -36.993  20.692  1.00  0.00     0.035 C 
ATOM     37  C   UNL     1      17.732 -34.261  19.786  1.00  0.00     0.120 C 
ATOM     38  C   UNL     1      16.769 -36.624  19.466  1.00  0.00     0.004 C 
ATOM     39  C   UNL     1      17.301 -35.351  18.784  1.00  0.00     0.022 C 
BRANCH  35  40
ATOM     40  C   UNL     1      16.163 -33.794  21.697  1.00  0.00     0.246 CG0
ATOM     41  O   UNL     1      15.300 -34.371  22.410  1.00  0.00    -0.272 OA
ATOM     42  G   UNL     1      16.157 -32.287  21.578  1.00  0.00     0.000 G0
ENDBRANCH  35  40
ENDBRANCH  31  34
ENDBRANCH   2  30
ENDBRANCH   1   2
BRANCH   1  43
ATOM     43  C   UNL     1      21.848 -35.616  25.359  1.00  0.00     0.003 C 
BRANCH  43  44
ATOM     44  C   UNL     1      21.025 -36.912  25.342  1.00  0.00     0.001 C 
BRANCH  44  45
ATOM     45  C   UNL     1      19.768 -36.781  26.211  1.00  0.00     0.008 C 
BRANCH  45  46
ATOM     46  C   UNL     1      18.588 -37.521  25.576  1.00  0.00     0.075 C 
BRANCH  46  47
ATOM     47  C   UNL     1      17.279 -37.002  26.104  1.00  0.00     0.132 C 
ATOM     48  O   UNL     1      16.810 -35.977  25.630  1.00  0.00    -0.300 OA
BRANCH  47  49
ATOM     49  C   UNL     1      16.522 -37.750  27.175  1.00  0.00     0.072 C 
ATOM     50  C   UNL     1      17.262 -37.702  28.512  1.00  0.00     0.012 C 
ENDBRANCH  47  49
ENDBRANCH  46  47
ENDBRANCH  45  46
ENDBRANCH  44  45
ENDBRANCH  43  44
ENDBRANCH   1  43
TORSDOF 12
ENDMDL
MODEL 2
REMARK VINA RESULT:    -6.374      2.657      7.773
REMARK INTER + INTRA:         -15.614
REMARK INTER:                 -12.695
REMARK INTRA:                  -2.919
REMARK UNBOUND:                -2.160
REMARK SMILES CCC(=O)CCCCC[C@H]1NC(=O)[C@@H]2CCCCN2C(=O)[C@@H]([C@H](C)CC)NC(=O)[C@H](Cc2cn(OC)c3ccccc23)NC1=O
REMARK SMILES IDX 9 1 10 2 44 3 43 4 45 6 30 7 28 8 27 9 29 11 22 12 23 14
REMARK SMILES IDX 24 15 25 16 26 17 31 18 32 19 33 20 42 21 34 22 37 23 41 24
REMARK SMILES IDX 38 25 40 26 39 27 35 28 36 29 11 30 12 31 13 33 14 34 19 35
REMARK SMILES IDX 15 36 18 37 16 38 17 39 20 40 21 41 8 43 7 44 6 45 5 46 3 47
REMARK SMILES IDX 4 48 2 49 1 50
REMARK H PARENT 43 5 27 10 11 32
REMARK Flexibility Score: 80.00
ROOT
ATOM      1  C   UNL     1      19.517 -32.948  25.339  1.00  0.00     0.035 C 
ENDROOT
BRANCH   1   2
ATOM      2  C   UNL     1      19.900 -31.508  24.916  1.00  0.00     0.171 C 
BRANCH   2   3
ATOM      3  C   UNL     1      19.360 -31.081  23.571  1.00  0.00     0.243 C 
ATOM      4  N   UNL     1      20.071 -31.371  22.352  1.00  0.00    -0.342 N 
ATOM      5  H   UNL     1      20.833 -32.081  22.379  1.00  0.00     0.164 HD
ATOM      6  O   UNL     1      18.288 -30.419  23.534  1.00  0.00    -0.273 OA
BRANCH   4   7
ATOM      7  C   UNL     1      19.996 -30.544  21.144  1.00  0.00     0.175 C 
BRANCH   7   8
ATOM      8  C   UNL     1      20.485 -29.152  21.448  1.00  0.00     0.243 C 
ATOM      9  N   UNL     1      21.870 -28.962  21.773  1.00  0.00    -0.342 N 
ATOM     10  H   UNL     1      22.535 -29.734  21.552  1.00  0.00     0.164 HD
ATOM     11  O   UNL     1      19.678 -28.182  21.496  1.00  0.00    -0.273 OA
BRANCH   9  12
ATOM     12  C   UNL     1      22.379 -27.800  22.504  1.00  0.00     0.174 CG0
ATOM     13  G   UNL     1      23.389 -28.289  23.516  1.00  0.00     0.000 G0
BRANCH  12  14
ATOM     14  C   UNL     1      22.897 -26.719  21.508  1.00  0.00     0.018 C 
ATOM     15  C   UNL     1      22.258 -25.325  21.680  1.00  0.00     0.010 C 
BRANCH  14  16
ATOM     16  C   UNL     1      22.925 -27.186  20.027  1.00  0.00     0.002 C 
ATOM     17  C   UNL     1      23.251 -26.094  19.000  1.00  0.00     0.004 C 
ENDBRANCH  14  16
ENDBRANCH  12  14
ENDBRANCH   9  12
ENDBRANCH   7   8
BRANCH   7  18
ATOM     18  C   UNL     1      18.592 -30.567  20.508  1.00  0.00     0.073 C 
BRANCH  18  19
ATOM     19  C   UNL     1      18.003 -31.946  20.565  1.00  0.00    -0.016 A 
ATOM     20  C   UNL     1      18.627 -33.110  20.127  1.00  0.00     0.134 A 
ATOM     21  C   UNL     1      16.830 -32.351  21.178  1.00  0.00     0.006 A 
ATOM     22  N   UNL     1      17.867 -34.187  20.443  1.00  0.00    -0.191 N 
ATOM     23  C   UNL     1      16.781 -33.720  21.080  1.00  0.00     0.087 A 
ATOM     24  C   UNL     1      15.828 -31.628  21.825  1.00  0.00     0.011 A 
ATOM     25  C   UNL     1      15.727 -34.457  21.625  1.00  0.00     0.030 A 
ATOM     26  C   UNL     1      14.751 -32.342  22.384  1.00  0.00     0.001 A 
ATOM     27  C   UNL     1      14.707 -33.751  22.291  1.00  0.00     0.002 A 
BRANCH  22  28
ATOM     28  O   UNL     1      18.148 -35.515  20.190  1.00  0.00    -0.417 OA
ATOM     29  C   UNL     1      17.318 -36.322  19.360  1.00  0.00     0.313 C 
ENDBRANCH  22  28
ENDBRANCH  18  19
ENDBRANCH   7  18
ENDBRANCH   4   7
ENDBRANCH   2   3
BRANCH   2  30
ATOM     30  N   UNL     1      21.347 -31.263  25.000  1.00  0.00    -0.343 N 
ATOM     31  C   UNL     1      21.905 -30.285  25.896  1.00  0.00     0.243 C 
ATOM     32  H   UNL     1      21.970 -31.655  24.264  1.00  0.00     0.164 HD
ATOM     33  O   UNL     1      21.240 -29.890  26.893  1.00  0.00    -0.273 OA
BRANCH  31  34
ATOM     34  C   UNL     1      23.254 -29.665  25.613  1.00  0.00     0.174 C 
ATOM     35  N   UNL     1      23.064 -28.380  24.919  1.00  0.00    -0.329 N 
ATOM     36  C   UNL     1      24.084 -29.478  26.909  1.00  0.00     0.035 C 
ATOM     37  C   UNL     1      22.812 -27.181  25.724  1.00  0.00     0.120 C 
ATOM     38  C   UNL     1      24.888 -28.170  26.875  1.00  0.00     0.004 C 
ATOM     39  C   UNL     1      23.961 -26.950  26.727  1.00  0.00     0.022 C 
BRANCH  35  40
ATOM     40  C   UNL     1      23.419 -28.252  23.531  1.00  0.00     0.246 CG0
ATOM     41  O   UNL     1      24.559 -28.629  23.153  1.00  0.00    -0.272 OA
ATOM     42  G   UNL     1      22.390 -27.824  22.508  1.00  0.00     0.000 G0
ENDBRANCH  35  40
ENDBRANCH  31  34
ENDBRANCH   2  30
ENDBRANCH   1   2
BRANCH   1  43
ATOM     43  C   UNL     1      18.554 -33.743  24.437  1.00  0.00     0.003 C 
BRANCH  43  44
ATOM     44  C   UNL     1      17.193 -34.029  25.088  1.00  0.00     0.001 C 
BRANCH  44  45
ATOM     45  C   UNL     1      16.876 -35.529  25.071  1.00  0.00     0.008 C 
BRANCH  45  46
ATOM     46  C   UNL     1      17.011 -36.130  26.472  1.00  0.00     0.075 C 
BRANCH  46  47
ATOM     47  C   UNL     1      18.170 -37.086  26.540  1.00  0.00     0.132 C 
ATOM     48  O   UNL     1      18.414 -37.652  27.596  1.00  0.00    -0.300 OA
BRANCH  47  49
ATOM     49  C   UNL     1      19.005 -37.384  25.318  1.00  0.00     0.072 C 
ATOM     50  C   UNL     1      20.406 -36.786  25.444  1.00  0.00     0.012 C 
ENDBRANCH  47  49
ENDBRANCH  46  47
ENDBRANCH  45  46
ENDBRANCH  44  45
ENDBRANCH  43  44
ENDBRANCH   1  43
TORSDOF 12
ENDMDL
MODEL 3
REMARK VINA RESULT:    -6.195      1.714      2.779
REMARK INTER + INTRA:         -15.237
REMARK INTER:                 -12.825
REMARK INTRA:                  -2.412
REMARK UNBOUND:                -2.160
REMARK SMILES CCC(=O)CCCCC[C@H]1NC(=O)[C@@H]2CCCCN2C(=O)[C@@H]([C@H](C)CC)NC(=O)[C@H](Cc2cn(OC)c3ccccc23)NC1=O
REMARK SMILES IDX 9 1 10 2 44 3 43 4 45 6 30 7 28 8 27 9 29 11 22 12 23 14
REMARK SMILES IDX 24 15 25 16 26 17 31 18 32 19 33 20 42 21 34 22 37 23 41 24
REMARK SMILES IDX 38 25 40 26 39 27 35 28 36 29 11 30 12 31 13 33 14 34 19 35
REMARK SMILES IDX 15 36 18 37 16 38 17 39 20 40 21 41 8 43 7 44 6 45 5 46 3 47
REMARK SMILES IDX 4 48 2 49 1 50
REMARK H PARENT 43 5 27 10 11 32
REMARK Flexibility Score: 80.00
ROOT
ATOM      1  C   UNL     1      21.174 -34.306  25.170  1.00  0.00     0.035 C 
ENDROOT
BRANCH   1   2
ATOM      2  C   UNL     1      20.697 -34.139  23.705  1.00  0.00     0.171 C 
BRANCH   2   3
ATOM      3  C   UNL     1      20.816 -32.735  23.159  1.00  0.00     0.243 C 
ATOM      4  N   UNL     1      19.778 -31.759  23.370  1.00  0.00    -0.342 N 
ATOM      5  H   UNL     1      19.059 -31.949  24.100  1.00  0.00     0.164 HD
ATOM      6  O   UNL     1      21.829 -32.441  22.469  1.00  0.00    -0.273 OA
BRANCH   4   7
ATOM      7  C   UNL     1      19.493 -30.655  22.448  1.00  0.00     0.175 C 
BRANCH   7   8
ATOM      8  C   UNL     1      18.186 -30.905  21.742  1.00  0.00     0.243 C 
ATOM      9  N   UNL     1      17.173 -31.668  22.414  1.00  0.00    -0.342 N 
ATOM     10  H   UNL     1      17.272 -31.814  23.442  1.00  0.00     0.164 HD
ATOM     11  O   UNL     1      18.013 -30.521  20.552  1.00  0.00    -0.273 OA
BRANCH   9  12
ATOM     12  C   UNL     1      16.081 -32.354  21.720  1.00  0.00     0.174 CG0
ATOM     13  G   UNL     1      16.216 -33.836  21.983  1.00  0.00     0.000 G0
BRANCH  12  14
ATOM     14  C   UNL     1      14.711 -31.724  22.115  1.00  0.00     0.018 C 
ATOM     15  C   UNL     1      14.089 -30.808  21.041  1.00  0.00     0.010 C 
BRANCH  14  16
ATOM     16  C   UNL     1      14.694 -31.084  23.530  1.00  0.00     0.002 C 
ATOM     17  C   UNL     1      13.656 -29.974  23.737  1.00  0.00     0.004 C 
ENDBRANCH  14  16
ENDBRANCH  12  14
ENDBRANCH   9  12
ENDBRANCH   7   8
BRANCH   7  18
ATOM     18  C   UNL     1      20.663 -30.388  21.480  1.00  0.00     0.073 C 
BRANCH  18  19
ATOM     19  C   UNL     1      21.268 -29.039  21.733  1.00  0.00    -0.016 A 
ATOM     20  C   UNL     1      21.059 -27.901  20.962  1.00  0.00     0.134 A 
ATOM     21  C   UNL     1      22.008 -28.625  22.828  1.00  0.00     0.006 A 
ATOM     22  N   UNL     1      21.654 -26.832  21.546  1.00  0.00    -0.191 N 
ATOM     23  C   UNL     1      22.226 -27.278  22.676  1.00  0.00     0.087 A 
ATOM     24  C   UNL     1      22.480 -29.321  23.942  1.00  0.00     0.011 A 
ATOM     25  C   UNL     1      22.928 -26.536  23.628  1.00  0.00     0.030 A 
ATOM     26  C   UNL     1      23.193 -28.601  24.919  1.00  0.00     0.001 A 
ATOM     27  C   UNL     1      23.407 -27.213  24.765  1.00  0.00     0.002 A 
BRANCH  22  28
ATOM     28  O   UNL     1      21.660 -25.526  21.095  1.00  0.00    -0.417 OA
ATOM     29  C   UNL     1      20.460 -24.784  20.904  1.00  0.00     0.313 C 
ENDBRANCH  22  28
ENDBRANCH  18  19
ENDBRANCH   7  18
ENDBRANCH   4   7
ENDBRANCH   2   3
BRANCH   2  30
ATOM     30  N   UNL     1      19.345 -34.671  23.489  1.00  0.00    -0.343 N 
ATOM     31  C   UNL     1      19.077 -35.715  22.535  1.00  0.00     0.243 C 
ATOM     32  H   UNL     1      18.529 -34.156  23.882  1.00  0.00     0.164 HD
ATOM     33  O   UNL     1      20.012 -36.465  22.143  1.00  0.00    -0.273 OA
BRANCH  31  34
ATOM     34  C   UNL     1      17.698 -35.874  21.938  1.00  0.00     0.174 C 
ATOM     35  N   UNL     1      17.270 -34.593  21.351  1.00  0.00    -0.329 N 
ATOM     36  C   UNL     1      17.658 -37.008  20.881  1.00  0.00     0.035 C 
ATOM     37  C   UNL     1      17.698 -34.270  19.986  1.00  0.00     0.120 C 
ATOM     38  C   UNL     1      16.745 -36.642  19.701  1.00  0.00     0.004 C 
ATOM     39  C   UNL     1      17.229 -35.360  19.000  1.00  0.00     0.022 C 
BRANCH  35  40
ATOM     40  C   UNL     1      16.222 -33.830  21.975  1.00  0.00     0.246 CG0
ATOM     41  O   UNL     1      15.505 -34.380  22.852  1.00  0.00    -0.272 OA
ATOM     42  G   UNL     1      16.080 -32.350  21.707  1.00  0.00     0.000 G0
ENDBRANCH  35  40
ENDBRANCH  31  34
ENDBRANCH   2  30
ENDBRANCH   1   2
BRANCH   1  43
ATOM     43  C   UNL     1      22.660 -34.620  25.424  1.00  0.00     0.003 C 
BRANCH  43  44
ATOM     44  C   UNL     1      23.414 -33.494  26.146  1.00  0.00     0.001 C 
BRANCH  44  45
ATOM     45  C   UNL     1      22.572 -32.214  26.205  1.00  0.00     0.008 C 
BRANCH  45  46
ATOM     46  C   UNL     1      22.522 -31.661  27.632  1.00  0.00     0.075 C 
BRANCH  46  47
ATOM     47  C   UNL     1      21.434 -30.633  27.775  1.00  0.00     0.132 C 
ATOM     48  O   UNL     1      21.736 -29.450  27.830  1.00  0.00    -0.300 OA
BRANCH  47  49
ATOM     49  C   UNL     1      19.980 -31.040  27.810  1.00  0.00     0.072 C 
ATOM     50  C   UNL     1      19.138 -30.166  26.881  1.00  0.00     0.012 C 
ENDBRANCH  47  49
ENDBRANCH  46  47
ENDBRANCH  45  46
ENDBRANCH  44  45
ENDBRANCH  43  44
ENDBRANCH   1  43
TORSDOF 12
ENDMDL
MODEL 4
REMARK VINA RESULT:    -6.144      1.895      3.691
REMARK INTER + INTRA:         -15.129
REMARK INTER:                 -13.316
REMARK INTRA:                  -1.813
REMARK UNBOUND:                -2.160
REMARK SMILES CCC(=O)CCCCC[C@H]1NC(=O)[C@@H]2CCCCN2C(=O)[C@@H]([C@H](C)CC)NC(=O)[C@H](Cc2cn(OC)c3ccccc23)NC1=O
REMARK SMILES IDX 9 1 10 2 44 3 43 4 45 6 30 7 28 8 27 9 29 11 22 12 23 14
REMARK SMILES IDX 24 15 25 16 26 17 31 18 32 19 33 20 42 21 34 22 37 23 41 24
REMARK SMILES IDX 38 25 40 26 39 27 35 28 36 29 11 30 12 31 13 33 14 34 19 35
REMARK SMILES IDX 15 36 18 37 16 38 17 39 20 40 21 41 8 43 7 44 6 45 5 46 3 47
REMARK SMILES IDX 4 48 2 49 1 50
REMARK H PARENT 43 5 27 10 11 32
REMARK Flexibility Score: 80.00
ROOT
ATOM      1  C   UNL     1      21.291 -34.225  25.019  1.00  0.00     0.035 C 
ENDROOT
BRANCH   1   2
ATOM      2  C   UNL     1      20.737 -34.029  23.586  1.00  0.00     0.171 C 
BRANCH   2   3
ATOM      3  C   UNL     1      20.786 -32.607  23.079  1.00  0.00     0.243 C 
ATOM      4  N   UNL     1      19.713 -31.682  23.338  1.00  0.00    -0.342 N 
ATOM      5  H   UNL     1      19.017 -31.924  24.075  1.00  0.00     0.164 HD
ATOM      6  O   UNL     1      21.772 -32.250  22.379  1.00  0.00    -0.273 OA
BRANCH   4   7
ATOM      7  C   UNL     1      19.363 -30.566  22.454  1.00  0.00     0.175 C 
BRANCH   7   8
ATOM      8  C   UNL     1      18.100 -30.888  21.699  1.00  0.00     0.243 C 
ATOM      9  N   UNL     1      17.039 -31.568  22.387  1.00  0.00    -0.342 N 
ATOM     10  H   UNL     1      17.071 -31.597  23.429  1.00  0.00     0.164 HD
ATOM     11  O   UNL     1      18.006 -30.640  20.465  1.00  0.00    -0.273 OA
BRANCH   9  12
ATOM     12  C   UNL     1      15.985 -32.323  21.706  1.00  0.00     0.174 CG0
ATOM     13  G   UNL     1      16.191 -33.790  22.006  1.00  0.00     0.000 G0
BRANCH  12  14
ATOM     14  C   UNL     1      14.584 -31.751  22.081  1.00  0.00     0.018 C 
ATOM     15  C   UNL     1      13.540 -31.811  20.947  1.00  0.00     0.010 C 
BRANCH  14  16
ATOM     16  C   UNL     1      14.633 -30.365  22.778  1.00  0.00     0.002 C 
ATOM     17  C   UNL     1      13.588 -30.146  23.881  1.00  0.00     0.004 C 
ENDBRANCH  14  16
ENDBRANCH  12  14
ENDBRANCH   9  12
ENDBRANCH   7   8
BRANCH   7  18
ATOM     18  C   UNL     1      20.533 -30.163  21.534  1.00  0.00     0.073 C 
BRANCH  18  19
ATOM     19  C   UNL     1      21.251 -28.963  22.077  1.00  0.00    -0.016 A 
ATOM     20  C   UNL     1      22.128 -28.964  23.156  1.00  0.00     0.134 A 
ATOM     21  C   UNL     1      21.304 -27.685  21.545  1.00  0.00     0.006 A 
ATOM     22  N   UNL     1      22.691 -27.739  23.295  1.00  0.00    -0.191 N 
ATOM     23  C   UNL     1      22.188 -26.970  22.315  1.00  0.00     0.087 A 
ATOM     24  C   UNL     1      20.667 -27.115  20.443  1.00  0.00     0.011 A 
ATOM     25  C   UNL     1      22.495 -25.637  22.034  1.00  0.00     0.030 A 
ATOM     26  C   UNL     1      20.954 -25.772  20.133  1.00  0.00     0.001 A 
ATOM     27  C   UNL     1      21.871 -25.041  20.921  1.00  0.00     0.002 A 
BRANCH  22  28
ATOM     28  O   UNL     1      23.620 -27.345  24.237  1.00  0.00    -0.417 OA
ATOM     29  C   UNL     1      23.974 -28.169  25.344  1.00  0.00     0.313 C 
ENDBRANCH  22  28
ENDBRANCH  18  19
ENDBRANCH   7  18
ENDBRANCH   4   7
ENDBRANCH   2   3
BRANCH   2  30
ATOM     30  N   UNL     1      19.392 -34.597  23.420  1.00  0.00    -0.343 N 
ATOM     31  C   UNL     1      19.111 -35.631  22.458  1.00  0.00     0.243 C 
ATOM     32  H   UNL     1      18.581 -34.114  23.859  1.00  0.00     0.164 HD
ATOM     33  O   UNL     1      20.049 -36.345  22.009  1.00  0.00    -0.273 OA
BRANCH  31  34
ATOM     34  C   UNL     1      17.712 -35.820  21.920  1.00  0.00     0.174 C 
ATOM     35  N   UNL     1      17.237 -34.551  21.342  1.00  0.00    -0.329 N 
ATOM     36  C   UNL     1      17.649 -36.962  20.874  1.00  0.00     0.035 C 
ATOM     37  C   UNL     1      17.601 -34.231  19.959  1.00  0.00     0.120 C 
ATOM     38  C   UNL     1      16.681 -36.622  19.730  1.00  0.00     0.004 C 
ATOM     39  C   UNL     1      17.112 -35.336  19.001  1.00  0.00     0.022 C 
BRANCH  35  40
ATOM     40  C   UNL     1      16.201 -33.802  22.005  1.00  0.00     0.246 CG0
ATOM     41  O   UNL     1      15.549 -34.349  22.933  1.00  0.00    -0.272 OA
ATOM     42  G   UNL     1      16.001 -32.334  21.708  1.00  0.00     0.000 G0
ENDBRANCH  35  40
ENDBRANCH  31  34
ENDBRANCH   2  30
ENDBRANCH   1   2
BRANCH   1  43
ATOM     43  C   UNL     1      22.359 -35.311  25.249  1.00  0.00     0.003 C 
BRANCH  43  44
ATOM     44  C   UNL     1      22.782 -36.042  23.967  1.00  0.00     0.001 C 
BRANCH  44  45
ATOM     45  C   UNL     1      24.298 -36.266  23.931  1.00  0.00     0.008 C 
BRANCH  45  46
ATOM     46  C   UNL     1      24.976 -35.257  23.001  1.00  0.00     0.075 C 
BRANCH  46  47
ATOM     47  C   UNL     1      25.450 -34.052  23.765  1.00  0.00     0.132 C 
ATOM     48  O   UNL     1      25.875 -34.197  24.902  1.00  0.00    -0.300 OA
BRANCH  47  49
ATOM     49  C   UNL     1      25.447 -32.680  23.135  1.00  0.00     0.072 C 
ATOM     50  C   UNL     1      24.659 -31.682  23.984  1.00  0.00     0.012 C 
ENDBRANCH  47  49
ENDBRANCH  46  47
ENDBRANCH  45  46
ENDBRANCH  44  45
ENDBRANCH  43  44
ENDBRANCH   1  43
TORSDOF 12
ENDMDL
MODEL 5
REMARK VINA RESULT:    -6.144      2.812      8.091
REMARK INTER + INTRA:         -15.129
REMARK INTER:                 -13.297
REMARK INTRA:                  -1.831
REMARK UNBOUND:                -2.160
REMARK SMILES CCC(=O)CCCCC[C@H]1NC(=O)[C@@H]2CCCCN2C(=O)[C@@H]([C@H](C)CC)NC(=O)[C@H](Cc2cn(OC)c3ccccc23)NC1=O
REMARK SMILES IDX 9 1 10 2 44 3 43 4 45 6 30 7 28 8 27 9 29 11 22 12 23 14
REMARK SMILES IDX 24 15 25 16 26 17 31 18 32 19 33 20 42 21 34 22 37 23 41 24
REMARK SMILES IDX 38 25 40 26 39 27 35 28 36 29 11 30 12 31 13 33 14 34 19 35
REMARK SMILES IDX 15 36 18 37 16 38 17 39 20 40 21 41 8 43 7 44 6 45 5 46 3 47
REMARK SMILES IDX 4 48 2 49 1 50
REMARK H PARENT 43 5 27 10 11 32
REMARK Flexibility Score: 80.00
ROOT
ATOM      1  C   UNL     1      20.867 -29.124  20.795  1.00  0.00     0.035 C 
ENDROOT
BRANCH   1   2
ATOM      2  C   UNL     1      20.120 -29.887  21.916  1.00  0.00     0.171 C 
BRANCH   2   3
ATOM      3  C   UNL     1      21.014 -30.659  22.859  1.00  0.00     0.243 C 
ATOM      4  N   UNL     1      21.316 -32.050  22.634  1.00  0.00    -0.342 N 
ATOM      5  H   UNL     1      21.111 -32.457  21.697  1.00  0.00     0.164 HD
ATOM      6  O   UNL     1      21.462 -30.072  23.881  1.00  0.00    -0.273 OA
BRANCH   4   7
ATOM      7  C   UNL     1      21.622 -33.003  23.706  1.00  0.00     0.175 C 
BRANCH   7   8
ATOM      8  C   UNL     1      20.349 -33.626  24.214  1.00  0.00     0.243 C 
ATOM      9  N   UNL     1      19.346 -34.019  23.266  1.00  0.00    -0.342 N 
ATOM     10  H   UNL     1      19.622 -34.090  22.263  1.00  0.00     0.164 HD
ATOM     11  O   UNL     1      20.131 -33.727  25.454  1.00  0.00    -0.273 OA
BRANCH   9  12
ATOM     12  C   UNL     1      17.935 -34.207  23.610  1.00  0.00     0.174 CG0
ATOM     13  G   UNL     1      17.099 -33.587  22.513  1.00  0.00     0.000 G0
BRANCH  12  14
ATOM     14  C   UNL     1      17.646 -35.709  23.906  1.00  0.00     0.018 C 
ATOM     15  C   UNL     1      17.296 -36.020  25.376  1.00  0.00     0.010 C 
BRANCH  14  16
ATOM     16  C   UNL     1      18.706 -36.683  23.324  1.00  0.00     0.002 C 
ATOM     17  C   UNL     1      19.130 -37.827  24.255  1.00  0.00     0.004 C 
ENDBRANCH  14  16
ENDBRANCH  12  14
ENDBRANCH   9  12
ENDBRANCH   7   8
BRANCH   7  18
ATOM     18  C   UNL     1      22.476 -32.369  24.823  1.00  0.00     0.073 C 
BRANCH  18  19
ATOM     19  C   UNL     1      23.794 -33.073  24.951  1.00  0.00    -0.016 A 
ATOM     20  C   UNL     1      23.978 -34.365  25.433  1.00  0.00     0.134 A 
ATOM     21  C   UNL     1      25.034 -32.658  24.494  1.00  0.00     0.006 A 
ATOM     22  N   UNL     1      25.276 -34.729  25.293  1.00  0.00    -0.191 N 
ATOM     23  C   UNL     1      25.909 -33.691  24.723  1.00  0.00     0.087 A 
ATOM     24  C   UNL     1      25.445 -31.473  23.883  1.00  0.00     0.011 A 
ATOM     25  C   UNL     1      27.254 -33.609  24.354  1.00  0.00     0.030 A 
ATOM     26  C   UNL     1      26.794 -31.359  23.500  1.00  0.00     0.001 A 
ATOM     27  C   UNL     1      27.691 -32.427  23.728  1.00  0.00     0.002 A 
BRANCH  22  28
ATOM     28  O   UNL     1      25.850 -35.936  25.640  1.00  0.00    -0.417 OA
ATOM     29  C   UNL     1      25.321 -36.758  26.676  1.00  0.00     0.313 C 
ENDBRANCH  22  28
ENDBRANCH  18  19
ENDBRANCH   7  18
ENDBRANCH   4   7
ENDBRANCH   2   3
BRANCH   2  30
ATOM     30  N   UNL     1      19.047 -30.745  21.395  1.00  0.00    -0.343 N 
ATOM     31  C   UNL     1      17.665 -30.339  21.416  1.00  0.00     0.243 C 
ATOM     32  H   UNL     1      19.253 -31.744  21.187  1.00  0.00     0.164 HD
ATOM     33  O   UNL     1      17.369 -29.117  21.514  1.00  0.00    -0.273 OA
BRANCH  31  34
ATOM     34  C   UNL     1      16.562 -31.371  21.398  1.00  0.00     0.174 C 
ATOM     35  N   UNL     1      16.648 -32.199  22.613  1.00  0.00    -0.329 N 
ATOM     36  C   UNL     1      15.163 -30.714  21.274  1.00  0.00     0.035 C 
ATOM     37  C   UNL     1      16.014 -31.709  23.840  1.00  0.00     0.120 C 
ATOM     38  C   UNL     1      14.118 -31.457  22.120  1.00  0.00     0.004 C 
ATOM     39  C   UNL     1      14.509 -31.461  23.609  1.00  0.00     0.022 C 
BRANCH  35  40
ATOM     40  C   UNL     1      17.071 -33.571  22.520  1.00  0.00     0.246 CG0
ATOM     41  O   UNL     1      16.850 -34.208  21.457  1.00  0.00    -0.272 OA
ATOM     42  G   UNL     1      17.909 -34.195  23.612  1.00  0.00     0.000 G0
ENDBRANCH  35  40
ENDBRANCH  31  34
ENDBRANCH   2  30
ENDBRANCH   1   2
BRANCH   1  43
ATOM     43  C   UNL     1      21.284 -27.664  21.056  1.00  0.00     0.003 C 
BRANCH  43  44
ATOM     44  C   UNL     1      20.102 -26.686  21.119  1.00  0.00     0.001 C 
BRANCH  44  45
ATOM     45  C   UNL     1      20.552 -25.304  21.608  1.00  0.00     0.008 C 
BRANCH  45  46
ATOM     46  C   UNL     1      21.961 -25.370  22.203  1.00  0.00     0.075 C 
BRANCH  46  47
ATOM     47  C   UNL     1      22.872 -24.370  21.547  1.00  0.00     0.132 C 
ATOM     48  O   UNL     1      23.256 -23.403  22.189  1.00  0.00    -0.300 OA
BRANCH  47  49
ATOM     49  C   UNL     1      23.348 -24.566  20.127  1.00  0.00     0.072 C 
ATOM     50  C   UNL     1      24.375 -23.504  19.736  1.00  0.00     0.012 C 
ENDBRANCH  47  49
ENDBRANCH  46  47
ENDBRANCH  45  46
ENDBRANCH  44  45
ENDBRANCH  43  44
ENDBRANCH   1  43
TORSDOF 12
ENDMDL
MODEL 6
REMARK VINA RESULT:    -6.017      1.653      3.229
REMARK INTER + INTRA:         -14.861
REMARK INTER:                 -12.726
REMARK INTRA:                  -2.134
REMARK UNBOUND:                -2.160
REMARK SMILES CCC(=O)CCCCC[C@H]1NC(=O)[C@@H]2CCCCN2C(=O)[C@@H]([C@H](C)CC)NC(=O)[C@H](Cc2cn(OC)c3ccccc23)NC1=O
REMARK SMILES IDX 9 1 10 2 44 3 43 4 45 6 30 7 28 8 27 9 29 11 22 12 23 14
REMARK SMILES IDX 24 15 25 16 26 17 31 18 32 19 33 20 42 21 34 22 37 23 41 24
REMARK SMILES IDX 38 25 40 26 39 27 35 28 36 29 11 30 12 31 13 33 14 34 19 35
REMARK SMILES IDX 15 36 18 37 16 38 17 39 20 40 21 41 8 43 7 44 6 45 5 46 3 47
REMARK SMILES IDX 4 48 2 49 1 50
REMARK H PARENT 43 5 27 10 11 32
REMARK Flexibility Score: 80.00
ROOT
ATOM      1  C   UNL     1      20.942 -34.497  25.375  1.00  0.00     0.035 C 
ENDROOT
BRANCH   1   2
ATOM      2  C   UNL     1      20.572 -34.303  23.884  1.00  0.00     0.171 C 
BRANCH   2   3
ATOM      3  C   UNL     1      20.760 -32.896  23.365  1.00  0.00     0.243 C 
ATOM      4  N   UNL     1      19.732 -31.899  23.518  1.00  0.00    -0.342 N 
ATOM      5  H   UNL     1      18.960 -32.082  24.193  1.00  0.00     0.164 HD
ATOM      6  O   UNL     1      21.825 -32.617  22.750  1.00  0.00    -0.273 OA
BRANCH   4   7
ATOM      7  C   UNL     1      19.535 -30.779  22.593  1.00  0.00     0.175 C 
BRANCH   7   8
ATOM      8  C   UNL     1      18.265 -30.980  21.809  1.00  0.00     0.243 C 
ATOM      9  N   UNL     1      17.170 -31.667  22.434  1.00  0.00    -0.342 N 
ATOM     10  H   UNL     1      17.194 -31.785  23.470  1.00  0.00     0.164 HD
ATOM     11  O   UNL     1      18.190 -30.625  20.600  1.00  0.00    -0.273 OA
BRANCH   9  12
ATOM     12  C   UNL     1      16.088 -32.315  21.689  1.00  0.00     0.174 CG0
ATOM     13  G   UNL     1      16.213 -33.808  21.885  1.00  0.00     0.000 G0
BRANCH  12  14
ATOM     14  C   UNL     1      14.714 -31.698  22.087  1.00  0.00     0.018 C 
ATOM     15  C   UNL     1      13.837 -31.255  20.898  1.00  0.00     0.010 C 
BRANCH  14  16
ATOM     16  C   UNL     1      14.804 -30.618  23.199  1.00  0.00     0.002 C 
ATOM     17  C   UNL     1      13.463 -30.019  23.645  1.00  0.00     0.004 C 
ENDBRANCH  14  16
ENDBRANCH  12  14
ENDBRANCH   9  12
ENDBRANCH   7   8
BRANCH   7  18
ATOM     18  C   UNL     1      20.768 -30.540  21.697  1.00  0.00     0.073 C 
BRANCH  18  19
ATOM     19  C   UNL     1      21.377 -29.197  21.975  1.00  0.00    -0.016 A 
ATOM     20  C   UNL     1      21.187 -28.049  21.212  1.00  0.00     0.134 A 
ATOM     21  C   UNL     1      22.102 -28.800  23.086  1.00  0.00     0.006 A 
ATOM     22  N   UNL     1      21.779 -26.990  21.817  1.00  0.00    -0.191 N 
ATOM     23  C   UNL     1      22.330 -27.452  22.951  1.00  0.00     0.087 A 
ATOM     24  C   UNL     1      22.551 -29.510  24.199  1.00  0.00     0.011 A 
ATOM     25  C   UNL     1      23.021 -26.724  23.922  1.00  0.00     0.030 A 
ATOM     26  C   UNL     1      23.252 -28.805  25.196  1.00  0.00     0.001 A 
ATOM     27  C   UNL     1      23.477 -27.417  25.060  1.00  0.00     0.002 A 
BRANCH  22  28
ATOM     28  O   UNL     1      21.801 -25.681  21.380  1.00  0.00    -0.417 OA
ATOM     29  C   UNL     1      20.622 -24.884  21.311  1.00  0.00     0.313 C 
ENDBRANCH  22  28
ENDBRANCH  18  19
ENDBRANCH   7  18
ENDBRANCH   4   7
ENDBRANCH   2   3
BRANCH   2  30
ATOM     30  N   UNL     1      19.227 -34.802  23.567  1.00  0.00    -0.343 N 
ATOM     31  C   UNL     1      19.000 -35.792  22.547  1.00  0.00     0.243 C 
ATOM     32  H   UNL     1      18.398 -34.295  23.941  1.00  0.00     0.164 HD
ATOM     33  O   UNL     1      19.945 -36.536  22.168  1.00  0.00    -0.273 OA
BRANCH  31  34
ATOM     34  C   UNL     1      17.654 -35.899  21.867  1.00  0.00     0.174 C 
ATOM     35  N   UNL     1      17.283 -34.586  21.311  1.00  0.00    -0.329 N 
ATOM     36  C   UNL     1      17.653 -36.988  20.764  1.00  0.00     0.035 C 
ATOM     37  C   UNL     1      17.793 -34.217  19.988  1.00  0.00     0.120 C 
ATOM     38  C   UNL     1      16.815 -36.556  19.551  1.00  0.00     0.004 C 
ATOM     39  C   UNL     1      17.361 -35.256  18.932  1.00  0.00     0.022 C 
BRANCH  35  40
ATOM     40  C   UNL     1      16.215 -33.829  21.908  1.00  0.00     0.246 CG0
ATOM     41  O   UNL     1      15.444 -34.397  22.726  1.00  0.00    -0.272 OA
ATOM     42  G   UNL     1      16.110 -32.337  21.686  1.00  0.00     0.000 G0
ENDBRANCH  35  40
ENDBRANCH  31  34
ENDBRANCH   2  30
ENDBRANCH   1   2
BRANCH   1  43
ATOM     43  C   UNL     1      22.017 -35.541  25.734  1.00  0.00     0.003 C 
BRANCH  43  44
ATOM     44  C   UNL     1      23.235 -34.949  26.455  1.00  0.00     0.001 C 
BRANCH  44  45
ATOM     45  C   UNL     1      23.875 -33.826  25.630  1.00  0.00     0.008 C 
BRANCH  45  46
ATOM     46  C   UNL     1      25.022 -34.366  24.773  1.00  0.00     0.075 C 
BRANCH  46  47
ATOM     47  C   UNL     1      24.743 -34.165  23.309  1.00  0.00     0.132 C 
ATOM     48  O   UNL     1      23.962 -34.916  22.743  1.00  0.00    -0.300 OA
BRANCH  47  49
ATOM     49  C   UNL     1      25.381 -33.029  22.545  1.00  0.00     0.072 C 
ATOM     50  C   UNL     1      26.210 -32.137  23.469  1.00  0.00     0.012 C 
ENDBRANCH  47  49
ENDBRANCH  46  47
ENDBRANCH  45  46
ENDBRANCH  44  45
ENDBRANCH  43  44
ENDBRANCH   1  43
TORSDOF 12
ENDMDL
MODEL 7
REMARK VINA RESULT:    -6.003      2.419      7.121
REMARK INTER + INTRA:         -14.831
REMARK INTER:                 -12.265
REMARK INTRA:                  -2.567
REMARK UNBOUND:                -2.160
REMARK SMILES CCC(=O)CCCCC[C@H]1NC(=O)[C@@H]2CCCCN2C(=O)[C@@H]([C@H](C)CC)NC(=O)[C@H](Cc2cn(OC)c3ccccc23)NC1=O
REMARK SMILES IDX 9 1 10 2 44 3 43 4 45 6 30 7 28 8 27 9 29 11 22 12 23 14
REMARK SMILES IDX 24 15 25 16 26 17 31 18 32 19 33 20 42 21 34 22 37 23 41 24
REMARK SMILES IDX 38 25 40 26 39 27 35 28 36 29 11 30 12 31 13 33 14 34 19 35
REMARK SMILES IDX 15 36 18 37 16 38 17 39 20 40 21 41 8 43 7 44 6 45 5 46 3 47
REMARK SMILES IDX 4 48 2 49 1 50
REMARK H PARENT 43 5 27 10 11 32
REMARK Flexibility Score: 80.00
ROOT
ATOM      1  C   UNL     1      20.025 -29.528  21.386  1.00  0.00     0.035 C 
ENDROOT
BRANCH   1   2
ATOM      2  C   UNL     1      19.299 -30.721  22.057  1.00  0.00     0.171 C 
BRANCH   2   3
ATOM      3  C   UNL     1      19.765 -31.036  23.459  1.00  0.00     0.243 C 
ATOM      4  N   UNL     1      20.756 -32.052  23.709  1.00  0.00    -0.342 N 
ATOM      5  H   UNL     1      21.321 -32.401  22.907  1.00  0.00     0.164 HD
ATOM      6  O   UNL     1      19.236 -30.420  24.423  1.00  0.00    -0.273 OA
BRANCH   4   7
ATOM      7  C   UNL     1      20.832 -32.832  24.948  1.00  0.00     0.175 C 
BRANCH   7   8
ATOM      8  C   UNL     1      19.592 -33.674  25.099  1.00  0.00     0.243 C 
ATOM      9  N   UNL     1      19.407 -34.795  24.222  1.00  0.00    -0.342 N 
ATOM     10  H   UNL     1      20.232 -35.136  23.684  1.00  0.00     0.164 HD
ATOM     11  O   UNL     1      18.693 -33.353  25.925  1.00  0.00    -0.273 OA
BRANCH   9  12
ATOM     12  C   UNL     1      18.104 -35.405  23.950  1.00  0.00     0.174 CG0
ATOM     13  G   UNL     1      18.063 -35.792  22.490  1.00  0.00     0.000 G0
BRANCH  12  14
ATOM     14  C   UNL     1      17.827 -36.560  24.959  1.00  0.00     0.018 C 
ATOM     15  C   UNL     1      16.874 -36.192  26.115  1.00  0.00     0.010 C 
BRANCH  14  16
ATOM     16  C   UNL     1      19.107 -37.292  25.447  1.00  0.00     0.002 C 
ATOM     17  C   UNL     1      19.402 -37.169  26.948  1.00  0.00     0.004 C 
ENDBRANCH  14  16
ENDBRANCH  12  14
ENDBRANCH   9  12
ENDBRANCH   7   8
BRANCH   7  18
ATOM     18  C   UNL     1      21.117 -31.946  26.178  1.00  0.00     0.073 C 
BRANCH  18  19
ATOM     19  C   UNL     1      22.407 -31.199  26.010  1.00  0.00    -0.016 A 
ATOM     20  C   UNL     1      23.633 -31.767  25.676  1.00  0.00     0.134 A 
ATOM     21  C   UNL     1      22.607 -29.829  26.003  1.00  0.00     0.006 A 
ATOM     22  N   UNL     1      24.555 -30.792  25.483  1.00  0.00    -0.191 N 
ATOM     23  C   UNL     1      23.927 -29.622  25.682  1.00  0.00     0.087 A 
ATOM     24  C   UNL     1      21.734 -28.766  26.229  1.00  0.00     0.011 A 
ATOM     25  C   UNL     1      24.459 -28.336  25.565  1.00  0.00     0.030 A 
ATOM     26  C   UNL     1      22.241 -27.457  26.119  1.00  0.00     0.001 A 
ATOM     27  C   UNL     1      23.595 -27.245  25.780  1.00  0.00     0.002 A 
BRANCH  22  28
ATOM     28  O   UNL     1      25.880 -30.950  25.128  1.00  0.00    -0.417 OA
ATOM     29  C   UNL     1      26.360 -32.133  24.498  1.00  0.00     0.313 C 
ENDBRANCH  22  28
ENDBRANCH  18  19
ENDBRANCH   7  18
ENDBRANCH   4   7
ENDBRANCH   2   3
BRANCH   2  30
ATOM     30  N   UNL     1      19.310 -31.929  21.220  1.00  0.00    -0.343 N 
ATOM     31  C   UNL     1      18.109 -32.669  20.931  1.00  0.00     0.243 C 
ATOM     32  H   UNL     1      20.220 -32.378  20.990  1.00  0.00     0.164 HD
ATOM     33  O   UNL     1      16.982 -32.115  21.050  1.00  0.00    -0.273 OA
BRANCH  31  34
ATOM     34  C   UNL     1      18.180 -34.132  20.558  1.00  0.00     0.174 C 
ATOM     35  N   UNL     1      17.389 -34.918  21.521  1.00  0.00    -0.329 N 
ATOM     36  C   UNL     1      17.691 -34.379  19.108  1.00  0.00     0.035 C 
ATOM     37  C   UNL     1      15.946 -35.051  21.300  1.00  0.00     0.120 C 
ATOM     38  C   UNL     1      16.901 -35.692  18.999  1.00  0.00     0.004 C 
ATOM     39  C   UNL     1      15.666 -35.676  19.918  1.00  0.00     0.022 C 
BRANCH  35  40
ATOM     40  C   UNL     1      18.053 -35.777  22.465  1.00  0.00     0.246 CG0
ATOM     41  O   UNL     1      18.715 -36.760  22.039  1.00  0.00    -0.272 OA
ATOM     42  G   UNL     1      18.097 -35.421  23.934  1.00  0.00     0.000 G0
ENDBRANCH  35  40
ENDBRANCH  31  34
ENDBRANCH   2  30
ENDBRANCH   1   2
BRANCH   1  43
ATOM     43  C   UNL     1      21.384 -29.084  21.959  1.00  0.00     0.003 C 
BRANCH  43  44
ATOM     44  C   UNL     1      21.616 -27.567  21.891  1.00  0.00     0.001 C 
BRANCH  44  45
ATOM     45  C   UNL     1      22.258 -27.165  20.558  1.00  0.00     0.008 C 
BRANCH  45  46
ATOM     46  C   UNL     1      21.985 -25.692  20.245  1.00  0.00     0.075 C 
BRANCH  46  47
ATOM     47  C   UNL     1      23.192 -25.037  19.630  1.00  0.00     0.132 C 
ATOM     48  O   UNL     1      23.619 -25.459  18.565  1.00  0.00    -0.300 OA
BRANCH  47  49
ATOM     49  C   UNL     1      23.851 -23.849  20.287  1.00  0.00     0.072 C 
ATOM     50  C   UNL     1      23.219 -23.546  21.646  1.00  0.00     0.012 C 
ENDBRANCH  47  49
ENDBRANCH  46  47
ENDBRANCH  45  46
ENDBRANCH  44  45
ENDBRANCH  43  44
ENDBRANCH   1  43
TORSDOF 12
ENDMDL
MODEL 8
REMARK VINA RESULT:    -5.958      2.789      9.336
REMARK INTER + INTRA:         -14.735
REMARK INTER:                 -12.169
REMARK INTRA:                  -2.566
REMARK UNBOUND:                -2.160
REMARK SMILES CCC(=O)CCCCC[C@H]1NC(=O)[C@@H]2CCCCN2C(=O)[C@@H]([C@H](C)CC)NC(=O)[C@H](Cc2cn(OC)c3ccccc23)NC1=O
REMARK SMILES IDX 9 1 10 2 44 3 43 4 45 6 30 7 28 8 27 9 29 11 22 12 23 14
REMARK SMILES IDX 24 15 25 16 26 17 31 18 32 19 33 20 42 21 34 22 37 23 41 24
REMARK SMILES IDX 38 25 40 26 39 27 35 28 36 29 11 30 12 31 13 33 14 34 19 35
REMARK SMILES IDX 15 36 18 37 16 38 17 39 20 40 21 41 8 43 7 44 6 45 5 46 3 47
REMARK SMILES IDX 4 48 2 49 1 50
REMARK H PARENT 43 5 27 10 11 32
REMARK Flexibility Score: 80.00
ROOT
ATOM      1  C   UNL     1      22.061 -26.392  20.645  1.00  0.00     0.035 C 
ENDROOT
BRANCH   1   2
ATOM      2  C   UNL     1      22.144 -27.728  21.425  1.00  0.00     0.171 C 
BRANCH   2   3
ATOM      3  C   UNL     1      21.055 -28.721  21.093  1.00  0.00     0.243 C 
ATOM      4  N   UNL     1      19.840 -28.786  21.865  1.00  0.00    -0.342 N 
ATOM      5  H   UNL     1      19.613 -27.992  22.500  1.00  0.00     0.164 HD
ATOM      6  O   UNL     1      21.246 -29.532  20.147  1.00  0.00    -0.273 OA
BRANCH   4   7
ATOM      7  C   UNL     1      19.047 -30.007  22.040  1.00  0.00     0.175 C 
BRANCH   7   8
ATOM      8  C   UNL     1      19.866 -31.052  22.751  1.00  0.00     0.243 C 
ATOM      9  N   UNL     1      20.072 -30.923  24.166  1.00  0.00    -0.342 N 
ATOM     10  H   UNL     1      19.457 -30.265  24.692  1.00  0.00     0.164 HD
ATOM     11  O   UNL     1      20.431 -31.978  22.105  1.00  0.00    -0.273 OA
BRANCH   9  12
ATOM     12  C   UNL     1      21.170 -31.569  24.888  1.00  0.00     0.174 CG0
ATOM     13  G   UNL     1      21.816 -30.535  25.781  1.00  0.00     0.000 G0
BRANCH  12  14
ATOM     14  C   UNL     1      20.660 -32.854  25.608  1.00  0.00     0.018 C 
ATOM     15  C   UNL     1      21.344 -34.161  25.157  1.00  0.00     0.010 C 
BRANCH  14  16
ATOM     16  C   UNL     1      19.113 -32.975  25.664  1.00  0.00     0.002 C 
ATOM     17  C   UNL     1      18.490 -33.918  24.626  1.00  0.00     0.004 C 
ENDBRANCH  14  16
ENDBRANCH  12  14
ENDBRANCH   9  12
ENDBRANCH   7   8
BRANCH   7  18
ATOM     18  C   UNL     1      18.448 -30.508  20.710  1.00  0.00     0.073 C 
BRANCH  18  19
ATOM     19  C   UNL     1      17.364 -31.514  20.958  1.00  0.00    -0.016 A 
ATOM     20  C   UNL     1      16.149 -31.256  21.584  1.00  0.00     0.134 A 
ATOM     21  C   UNL     1      17.286 -32.819  20.501  1.00  0.00     0.006 A 
ATOM     22  N   UNL     1      15.358 -32.356  21.528  1.00  0.00    -0.191 N 
ATOM     23  C   UNL     1      16.053 -33.298  20.870  1.00  0.00     0.087 A 
ATOM     24  C   UNL     1      18.187 -33.600  19.778  1.00  0.00     0.011 A 
ATOM     25  C   UNL     1      15.638 -34.589  20.539  1.00  0.00     0.030 A 
ATOM     26  C   UNL     1      17.799 -34.908  19.430  1.00  0.00     0.001 A 
ATOM     27  C   UNL     1      16.527 -35.395  19.802  1.00  0.00     0.002 A 
BRANCH  22  28
ATOM     28  O   UNL     1      14.077 -32.493  22.024  1.00  0.00    -0.417 OA
ATOM     29  C   UNL     1      13.482 -31.514  22.870  1.00  0.00     0.313 C 
ENDBRANCH  22  28
ENDBRANCH  18  19
ENDBRANCH   7  18
ENDBRANCH   4   7
ENDBRANCH   2   3
BRANCH   2  30
ATOM     30  N   UNL     1      22.243 -27.527  22.877  1.00  0.00    -0.343 N 
ATOM     31  C   UNL     1      23.244 -28.187  23.674  1.00  0.00     0.243 C 
ATOM     32  H   UNL     1      21.460 -27.057  23.377  1.00  0.00     0.164 HD
ATOM     33  O   UNL     1      24.286 -28.641  23.128  1.00  0.00    -0.273 OA
BRANCH  31  34
ATOM     34  C   UNL     1      23.023 -28.412  25.152  1.00  0.00     0.174 C 
ATOM     35  N   UNL     1      23.029 -29.859  25.431  1.00  0.00    -0.329 N 
ATOM     36  C   UNL     1      24.085 -27.678  26.010  1.00  0.00     0.035 C 
ATOM     37  C   UNL     1      24.318 -30.526  25.640  1.00  0.00     0.120 C 
ATOM     38  C   UNL     1      24.493 -28.513  27.232  1.00  0.00     0.004 C 
ATOM     39  C   UNL     1      25.083 -29.870  26.808  1.00  0.00     0.022 C 
BRANCH  35  40
ATOM     40  C   UNL     1      21.807 -30.527  25.790  1.00  0.00     0.246 CG0
ATOM     41  O   UNL     1      21.184 -30.153  26.818  1.00  0.00    -0.272 OA
ATOM     42  G   UNL     1      21.190 -31.554  24.867  1.00  0.00     0.000 G0
ENDBRANCH  35  40
ENDBRANCH  31  34
ENDBRANCH   2  30
ENDBRANCH   1   2
BRANCH   1  43
ATOM     43  C   UNL     1      21.620 -25.127  21.405  1.00  0.00     0.003 C 
BRANCH  43  44
ATOM     44  C   UNL     1      22.765 -24.142  21.680  1.00  0.00     0.001 C 
BRANCH  44  45
ATOM     45  C   UNL     1      22.463 -23.271  22.905  1.00  0.00     0.008 C 
BRANCH  45  46
ATOM     46  C   UNL     1      21.488 -23.978  23.849  1.00  0.00     0.075 C 
BRANCH  46  47
ATOM     47  C   UNL     1      21.120 -23.093  25.008  1.00  0.00     0.132 C 
ATOM     48  O   UNL     1      20.521 -22.049  24.793  1.00  0.00    -0.300 OA
BRANCH  47  49
ATOM     49  C   UNL     1      21.442 -23.496  26.427  1.00  0.00     0.072 C 
ATOM     50  C   UNL     1      21.442 -25.016  26.585  1.00  0.00     0.012 C 
ENDBRANCH  47  49
ENDBRANCH  46  47
ENDBRANCH  45  46
ENDBRANCH  44  45
ENDBRANCH  43  44
ENDBRANCH   1  43
TORSDOF 12
ENDMDL
MODEL 9
REMARK VINA RESULT:    -5.777      2.722      7.674
REMARK INTER + INTRA:         -14.354
REMARK INTER:                 -12.494
REMARK INTRA:                  -1.860
REMARK UNBOUND:                -2.160
REMARK SMILES CCC(=O)CCCCC[C@H]1NC(=O)[C@@H]2CCCCN2C(=O)[C@@H]([C@H](C)CC)NC(=O)[C@H](Cc2cn(OC)c3ccccc23)NC1=O
REMARK SMILES IDX 9 1 10 2 44 3 43 4 45 6 30 7 28 8 27 9 29 11 22 12 23 14
REMARK SMILES IDX 24 15 25 16 26 17 31 18 32 19 33 20 42 21 34 22 37 23 41 24
REMARK SMILES IDX 38 25 40 26 39 27 35 28 36 29 11 30 12 31 13 33 14 34 19 35
REMARK SMILES IDX 15 36 18 37 16 38 17 39 20 40 21 41 8 43 7 44 6 45 5 46 3 47
REMARK SMILES IDX 4 48 2 49 1 50
REMARK H PARENT 43 5 27 10 11 32
REMARK Flexibility Score: 80.00
ROOT
ATOM      1  C   UNL     1      20.993 -29.533  20.797  1.00  0.00     0.035 C 
ENDROOT
BRANCH   1   2
ATOM      2  C   UNL     1      20.143 -30.496  21.663  1.00  0.00     0.171 C 
BRANCH   2   3
ATOM      3  C   UNL     1      20.850 -31.040  22.882  1.00  0.00     0.243 C 
ATOM      4  N   UNL     1      21.472 -32.339  22.870  1.00  0.00    -0.342 N 
ATOM      5  H   UNL     1      21.639 -32.801  21.951  1.00  0.00     0.164 HD
ATOM      6  O   UNL     1      20.850 -30.350  23.937  1.00  0.00    -0.273 OA
BRANCH   4   7
ATOM      7  C   UNL     1      21.628 -33.183  24.059  1.00  0.00     0.175 C 
BRANCH   7   8
ATOM      8  C   UNL     1      20.275 -33.630  24.549  1.00  0.00     0.243 C 
ATOM      9  N   UNL     1      19.709 -34.834  24.011  1.00  0.00    -0.342 N 
ATOM     10  H   UNL     1      20.341 -35.483  23.494  1.00  0.00     0.164 HD
ATOM     11  O   UNL     1      19.614 -32.918  25.356  1.00  0.00    -0.273 OA
BRANCH   9  12
ATOM     12  C   UNL     1      18.278 -35.142  24.041  1.00  0.00     0.174 CG0
ATOM     13  G   UNL     1      17.822 -35.393  22.622  1.00  0.00     0.000 G0
BRANCH  12  14
ATOM     14  C   UNL     1      17.995 -36.294  25.052  1.00  0.00     0.018 C 
ATOM     15  C   UNL     1      16.846 -36.014  26.043  1.00  0.00     0.010 C 
BRANCH  14  16
ATOM     16  C   UNL     1      19.266 -36.849  25.749  1.00  0.00     0.002 C 
ATOM     17  C   UNL     1      19.057 -37.375  27.176  1.00  0.00     0.004 C 
ENDBRANCH  14  16
ENDBRANCH  12  14
ENDBRANCH   9  12
ENDBRANCH   7   8
BRANCH   7  18
ATOM     18  C   UNL     1      22.472 -32.498  25.152  1.00  0.00     0.073 C 
BRANCH  18  19
ATOM     19  C   UNL     1      23.906 -32.930  25.068  1.00  0.00    -0.016 A 
ATOM     20  C   UNL     1      24.994 -32.089  24.856  1.00  0.00     0.134 A 
ATOM     21  C   UNL     1      24.438 -34.183  25.324  1.00  0.00     0.006 A 
ATOM     22  N   UNL     1      26.148 -32.792  24.963  1.00  0.00    -0.191 N 
ATOM     23  C   UNL     1      25.804 -34.059  25.247  1.00  0.00     0.087 A 
ATOM     24  C   UNL     1      23.831 -35.400  25.635  1.00  0.00     0.011 A 
ATOM     25  C   UNL     1      26.653 -35.142  25.479  1.00  0.00     0.030 A 
ATOM     26  C   UNL     1      24.661 -36.512  25.874  1.00  0.00     0.001 A 
ATOM     27  C   UNL     1      26.065 -36.380  25.804  1.00  0.00     0.002 A 
BRANCH  22  28
ATOM     28  O   UNL     1      27.436 -32.312  24.833  1.00  0.00    -0.417 OA
ATOM     29  C   UNL     1      27.798 -31.372  23.826  1.00  0.00     0.313 C 
ENDBRANCH  22  28
ENDBRANCH  18  19
ENDBRANCH   7  18
ENDBRANCH   4   7
ENDBRANCH   2   3
BRANCH   2  30
ATOM     30  N   UNL     1      19.547 -31.584  20.875  1.00  0.00    -0.343 N 
ATOM     31  C   UNL     1      18.327 -32.237  21.273  1.00  0.00     0.243 C 
ATOM     32  H   UNL     1      20.112 -32.033  20.124  1.00  0.00     0.164 HD
ATOM     33  O   UNL     1      17.535 -31.662  22.069  1.00  0.00    -0.273 OA
BRANCH  31  34
ATOM     34  C   UNL     1      18.019 -33.640  20.806  1.00  0.00     0.174 C 
ATOM     35  N   UNL     1      17.228 -34.334  21.836  1.00  0.00    -0.329 N 
ATOM     36  C   UNL     1      17.279 -33.643  19.444  1.00  0.00     0.035 C 
ATOM     37  C   UNL     1      15.774 -34.144  21.848  1.00  0.00     0.120 C 
ATOM     38  C   UNL     1      16.214 -34.747  19.387  1.00  0.00     0.004 C 
ATOM     39  C   UNL     1      15.162 -34.563  20.496  1.00  0.00     0.022 C 
BRANCH  35  40
ATOM     40  C   UNL     1      17.820 -35.397  22.603  1.00  0.00     0.246 CG0
ATOM     41  O   UNL     1      18.089 -36.487  22.033  1.00  0.00    -0.272 OA
ATOM     42  G   UNL     1      18.264 -35.164  24.030  1.00  0.00     0.000 G0
ENDBRANCH  35  40
ENDBRANCH  31  34
ENDBRANCH   2  30
ENDBRANCH   1   2
BRANCH   1  43
ATOM     43  C   UNL     1      21.359 -28.155  21.381  1.00  0.00     0.003 C 
BRANCH  43  44
ATOM     44  C   UNL     1      21.748 -27.118  20.317  1.00  0.00     0.001 C 
BRANCH  44  45
ATOM     45  C   UNL     1      22.920 -26.252  20.792  1.00  0.00     0.008 C 
BRANCH  45  46
ATOM     46  C   UNL     1      22.565 -24.765  20.715  1.00  0.00     0.075 C 
BRANCH  46  47
ATOM     47  C   UNL     1      22.853 -24.072  22.018  1.00  0.00     0.132 C 
ATOM     48  O   UNL     1      23.643 -23.140  22.034  1.00  0.00    -0.300 OA
BRANCH  47  49
ATOM     49  C   UNL     1      22.151 -24.484  23.290  1.00  0.00     0.072 C 
ATOM     50  C   UNL     1      20.634 -24.519  23.099  1.00  0.00     0.012 C 
ENDBRANCH  47  49
ENDBRANCH  46  47
ENDBRANCH  45  46
ENDBRANCH  44  45
ENDBRANCH  43  44
ENDBRANCH   1  43
TORSDOF 12
ENDMDL
