MODEL 1
REMARK VINA RESULT:    -5.237      0.000      0.000
REMARK INTER + INTRA:          -7.844
REMARK INTER:                  -7.226
REMARK INTRA:                  -0.618
REMARK UNBOUND:                -0.618
REMARK SMILES CC[C@H](CC[C@H](C)[C@H]1CC[C@H]2[C@H]3CC=C4C[C@H](O)CC[C@]4(C)[C@H]3CC[C@@]12C)C(C)C
REMARK SMILES IDX 5 1 4 2 3 3 2 4 1 5 28 6 29 7 30 8 6 9 7 10 8 11 9 12 26 13
REMARK SMILES IDX 10 14 11 15 25 16 27 17 12 18 24 19 23 20 13 21 21 22 14 23
REMARK SMILES IDX 15 24 20 25 22 26 16 27 19 28 17 29 18 30
REMARK H PARENT 18 31
REMARK Flexibility Score: inf
ROOT
ATOM      1  C   UNL     1    -118.623  14.333  20.542  1.00  0.00     0.004 C 
ENDROOT
BRANCH   1   2
ATOM      2  C   UNL     1    -118.834  14.159  19.016  1.00  0.00     0.004 C 
BRANCH   2   3
ATOM      3  C   UNL     1    -117.636  13.468  18.300  1.00  0.00    -0.009 C 
BRANCH   3   4
ATOM      4  C   UNL     1    -118.066  12.044  17.836  1.00  0.00     0.000 C 
ATOM      5  C   UNL     1    -117.306  10.902  18.510  1.00  0.00     0.004 C 
ENDBRANCH   3   4
BRANCH   3   6
ATOM      6  C   UNL     1    -117.070  14.396  17.169  1.00  0.00    -0.014 C 
ATOM      7  C   UNL     1    -118.014  15.544  16.782  1.00  0.00     0.007 C 
ATOM      8  C   UNL     1    -116.604  13.627  15.922  1.00  0.00     0.007 C 
ENDBRANCH   3   6
ENDBRANCH   2   3
ENDBRANCH   1   2
BRANCH   1   9
ATOM      9  C   UNL     1    -119.882  14.039  21.405  1.00  0.00    -0.011 C 
ATOM     10  C   UNL     1    -120.124  15.194  22.405  1.00  0.00     0.008 C 
BRANCH   9  11
ATOM     11  C   UNL     1    -119.774  12.673  22.183  1.00  0.00    -0.002 C 
ATOM     12  C   UNL     1    -119.199  11.567  21.288  1.00  0.00     0.005 C 
ATOM     13  C   UNL     1    -118.950  12.583  23.519  1.00  0.00    -0.026 C 
ATOM     14  C   UNL     1    -118.604  10.504  22.197  1.00  0.00     0.005 C 
ATOM     15  C   UNL     1    -118.638  11.056  23.629  1.00  0.00    -0.001 C 
ATOM     16  C   UNL     1    -117.636  13.445  23.517  1.00  0.00     0.007 C 
ATOM     17  C   UNL     1    -119.823  12.981  24.742  1.00  0.00     0.012 C 
ATOM     18  C   UNL     1    -117.386  10.711  24.496  1.00  0.00     0.000 C 
ATOM     19  C   UNL     1    -116.373  12.666  23.133  1.00  0.00     0.005 C 
ATOM     20  C   UNL     1    -116.096  11.555  24.172  1.00  0.00     0.003 C 
ATOM     21  C   UNL     1    -117.141   9.189  24.580  1.00  0.00     0.031 C 
ATOM     22  C   UNL     1    -114.775  10.720  23.917  1.00  0.00    -0.008 C 
ATOM     23  C   UNL     1    -115.836   8.892  25.253  1.00  0.00    -0.027 C 
ATOM     24  C   UNL     1    -114.720   9.576  24.936  1.00  0.00    -0.065 C 
ATOM     25  C   UNL     1    -113.530  11.640  24.130  1.00  0.00     0.014 C 
ATOM     26  C   UNL     1    -114.710  10.132  22.483  1.00  0.00     0.016 C 
ATOM     27  C   UNL     1    -113.448   9.311  25.712  1.00  0.00     0.063 C 
ATOM     28  C   UNL     1    -112.178  10.897  24.136  1.00  0.00     0.033 C 
ATOM     29  C   UNL     1    -112.221   9.503  24.809  1.00  0.00     0.118 C 
BRANCH  29  30
ATOM     30  O   UNL     1    -111.034   9.258  25.521  1.00  0.00    -0.393 OA
ATOM     31  H   UNL     1    -110.274   9.480  24.924  1.00  0.00     0.210 HD
ENDBRANCH  29  30
ENDBRANCH   9  11
ENDBRANCH   1   9
TORSDOF 7
ENDMDL
MODEL 2
REMARK VINA RESULT:    -4.374     17.601     20.107
REMARK INTER + INTRA:          -6.654
REMARK INTER:                  -6.088
REMARK INTRA:                  -0.566
REMARK UNBOUND:                -0.618
REMARK SMILES CC[C@H](CC[C@H](C)[C@H]1CC[C@H]2[C@H]3CC=C4C[C@H](O)CC[C@]4(C)[C@H]3CC[C@@]12C)C(C)C
REMARK SMILES IDX 5 1 4 2 3 3 2 4 1 5 28 6 29 7 30 8 6 9 7 10 8 11 9 12 26 13
REMARK SMILES IDX 10 14 11 15 25 16 27 17 12 18 24 19 23 20 13 21 21 22 14 23
REMARK SMILES IDX 15 24 20 25 22 26 16 27 19 28 17 29 18 30
REMARK H PARENT 18 31
REMARK Flexibility Score: inf
ROOT
ATOM      1  C   UNL     1    -102.103  25.119  17.257  1.00  0.00     0.004 C 
ENDROOT
BRANCH   1   2
ATOM      2  C   UNL     1    -102.472  24.520  15.876  1.00  0.00     0.004 C 
BRANCH   2   3
ATOM      3  C   UNL     1    -102.763  22.990  15.922  1.00  0.00    -0.009 C 
BRANCH   3   4
ATOM      4  C   UNL     1    -101.611  22.269  16.685  1.00  0.00     0.000 C 
ATOM      5  C   UNL     1    -101.267  20.881  16.145  1.00  0.00     0.004 C 
ENDBRANCH   3   4
BRANCH   3   6
ATOM      6  C   UNL     1    -104.203  22.728  16.487  1.00  0.00    -0.014 C 
ATOM      7  C   UNL     1    -105.187  23.880  16.228  1.00  0.00     0.007 C 
ATOM      8  C   UNL     1    -104.215  22.323  17.970  1.00  0.00     0.007 C 
ENDBRANCH   3   6
ENDBRANCH   2   3
ENDBRANCH   1   2
BRANCH   1   9
ATOM      9  C   UNL     1    -101.774  26.638  17.234  1.00  0.00    -0.011 C 
ATOM     10  C   UNL     1    -100.267  26.852  16.968  1.00  0.00     0.008 C 
BRANCH   9  11
ATOM     11  C   UNL     1    -102.189  27.365  18.569  1.00  0.00    -0.002 C 
ATOM     12  C   UNL     1    -102.791  28.748  18.285  1.00  0.00     0.005 C 
ATOM     13  C   UNL     1    -103.194  26.683  19.566  1.00  0.00    -0.026 C 
ATOM     14  C   UNL     1    -103.657  29.125  19.476  1.00  0.00     0.005 C 
ATOM     15  C   UNL     1    -103.741  27.893  20.388  1.00  0.00    -0.001 C 
ATOM     16  C   UNL     1    -104.354  25.890  18.860  1.00  0.00     0.007 C 
ATOM     17  C   UNL     1    -102.450  25.735  20.549  1.00  0.00     0.012 C 
ATOM     18  C   UNL     1    -105.138  27.655  21.043  1.00  0.00     0.000 C 
ATOM     19  C   UNL     1    -105.653  26.687  18.697  1.00  0.00     0.005 C 
ATOM     20  C   UNL     1    -106.231  27.051  20.084  1.00  0.00     0.003 C 
ATOM     21  C   UNL     1    -105.614  28.879  21.854  1.00  0.00     0.031 C 
ATOM     22  C   UNL     1    -107.613  27.824  20.046  1.00  0.00    -0.008 C 
ATOM     23  C   UNL     1    -107.030  28.701  22.313  1.00  0.00    -0.027 C 
ATOM     24  C   UNL     1    -107.977  28.238  21.476  1.00  0.00    -0.065 C 
ATOM     25  C   UNL     1    -108.726  26.871  19.502  1.00  0.00     0.014 C 
ATOM     26  C   UNL     1    -107.565  29.085  19.144  1.00  0.00     0.016 C 
ATOM     27  C   UNL     1    -109.369  27.980  22.010  1.00  0.00     0.063 C 
ATOM     28  C   UNL     1    -110.161  27.425  19.628  1.00  0.00     0.033 C 
ATOM     29  C   UNL     1    -110.417  28.240  20.918  1.00  0.00     0.118 C 
BRANCH  29  30
ATOM     30  O   UNL     1    -111.715  28.003  21.406  1.00  0.00    -0.393 OA
ATOM     31  H   UNL     1    -111.977  27.088  21.130  1.00  0.00     0.210 HD
ENDBRANCH  29  30
ENDBRANCH   9  11
ENDBRANCH   1   9
TORSDOF 7
ENDMDL
MODEL 3
REMARK VINA RESULT:    -4.309     16.364     18.772
REMARK INTER + INTRA:          -6.564
REMARK INTER:                  -4.670
REMARK INTRA:                  -1.894
REMARK UNBOUND:                -0.618
REMARK SMILES CC[C@H](CC[C@H](C)[C@H]1CC[C@H]2[C@H]3CC=C4C[C@H](O)CC[C@]4(C)[C@H]3CC[C@@]12C)C(C)C
REMARK SMILES IDX 5 1 4 2 3 3 2 4 1 5 28 6 29 7 30 8 6 9 7 10 8 11 9 12 26 13
REMARK SMILES IDX 10 14 11 15 25 16 27 17 12 18 24 19 23 20 13 21 21 22 14 23
REMARK SMILES IDX 15 24 20 25 22 26 16 27 19 28 17 29 18 30
REMARK H PARENT 18 31
REMARK Flexibility Score: inf
ROOT
ATOM      1  C   UNL     1    -111.382  28.141  21.021  1.00  0.00     0.004 C 
ENDROOT
BRANCH   1   2
ATOM      2  C   UNL     1    -112.558  27.428  20.306  1.00  0.00     0.004 C 
BRANCH   2   3
ATOM      3  C   UNL     1    -112.096  26.405  19.225  1.00  0.00    -0.009 C 
BRANCH   3   4
ATOM      4  C   UNL     1    -112.696  25.004  19.553  1.00  0.00     0.000 C 
ATOM      5  C   UNL     1    -112.935  24.752  21.041  1.00  0.00     0.004 C 
ENDBRANCH   3   4
BRANCH   3   6
ATOM      6  C   UNL     1    -112.418  26.949  17.790  1.00  0.00    -0.014 C 
ATOM      7  C   UNL     1    -113.777  26.484  17.243  1.00  0.00     0.007 C 
ATOM      8  C   UNL     1    -111.299  26.685  16.769  1.00  0.00     0.007 C 
ENDBRANCH   3   6
ENDBRANCH   2   3
ENDBRANCH   1   2
BRANCH   1   9
ATOM      9  C   UNL     1    -110.026  27.386  20.945  1.00  0.00    -0.011 C 
ATOM     10  C   UNL     1    -109.728  26.688  22.292  1.00  0.00     0.008 C 
BRANCH   9  11
ATOM     11  C   UNL     1    -108.829  28.334  20.558  1.00  0.00    -0.002 C 
ATOM     12  C   UNL     1    -107.660  28.184  21.542  1.00  0.00     0.005 C 
ATOM     13  C   UNL     1    -108.172  28.243  19.133  1.00  0.00    -0.026 C 
ATOM     14  C   UNL     1    -106.399  28.646  20.831  1.00  0.00     0.005 C 
ATOM     15  C   UNL     1    -106.765  28.884  19.359  1.00  0.00    -0.001 C 
ATOM     16  C   UNL     1    -108.058  26.778  18.575  1.00  0.00     0.007 C 
ATOM     17  C   UNL     1    -108.939  29.125  18.107  1.00  0.00     0.012 C 
ATOM     18  C   UNL     1    -105.678  28.441  18.331  1.00  0.00     0.000 C 
ATOM     19  C   UNL     1    -106.700  26.114  18.823  1.00  0.00     0.005 C 
ATOM     20  C   UNL     1    -105.586  26.889  18.084  1.00  0.00     0.003 C 
ATOM     21  C   UNL     1    -104.318  29.121  18.597  1.00  0.00     0.031 C 
ATOM     22  C   UNL     1    -104.139  26.258  18.212  1.00  0.00    -0.008 C 
ATOM     23  C   UNL     1    -103.247  28.542  17.722  1.00  0.00    -0.027 C 
ATOM     24  C   UNL     1    -103.133  27.210  17.555  1.00  0.00    -0.065 C 
ATOM     25  C   UNL     1    -104.100  24.890  17.456  1.00  0.00     0.014 C 
ATOM     26  C   UNL     1    -103.724  26.013  19.687  1.00  0.00     0.016 C 
ATOM     27  C   UNL     1    -102.103  26.676  16.585  1.00  0.00     0.063 C 
ATOM     28  C   UNL     1    -102.690  24.279  17.310  1.00  0.00     0.033 C 
ATOM     29  C   UNL     1    -101.569  25.318  17.067  1.00  0.00     0.118 C 
BRANCH  29  30
ATOM     30  O   UNL     1    -100.609  24.814  16.171  1.00  0.00    -0.393 OA
ATOM     31  H   UNL     1     -99.890  24.391  16.708  1.00  0.00     0.210 HD
ENDBRANCH  29  30
ENDBRANCH   9  11
ENDBRANCH   1   9
TORSDOF 7
ENDMDL
MODEL 4
REMARK VINA RESULT:    -4.180     14.765     17.088
REMARK INTER + INTRA:          -6.386
REMARK INTER:                  -4.898
REMARK INTRA:                  -1.488
REMARK UNBOUND:                -0.618
REMARK SMILES CC[C@H](CC[C@H](C)[C@H]1CC[C@H]2[C@H]3CC=C4C[C@H](O)CC[C@]4(C)[C@H]3CC[C@@]12C)C(C)C
REMARK SMILES IDX 5 1 4 2 3 3 2 4 1 5 28 6 29 7 30 8 6 9 7 10 8 11 9 12 26 13
REMARK SMILES IDX 10 14 11 15 25 16 27 17 12 18 24 19 23 20 13 21 21 22 14 23
REMARK SMILES IDX 15 24 20 25 22 26 16 27 19 28 17 29 18 30
REMARK H PARENT 18 31
REMARK Flexibility Score: inf
ROOT
ATOM      1  C   UNL     1    -116.348  27.400  16.917  1.00  0.00     0.004 C 
ENDROOT
BRANCH   1   2
ATOM      2  C   UNL     1    -117.098  26.925  18.187  1.00  0.00     0.004 C 
BRANCH   2   3
ATOM      3  C   UNL     1    -118.006  28.023  18.818  1.00  0.00    -0.009 C 
BRANCH   3   4
ATOM      4  C   UNL     1    -118.297  29.124  17.754  1.00  0.00     0.000 C 
ATOM      5  C   UNL     1    -119.679  29.028  17.107  1.00  0.00     0.004 C 
ENDBRANCH   3   4
BRANCH   3   6
ATOM      6  C   UNL     1    -119.276  27.371  19.468  1.00  0.00    -0.014 C 
ATOM      7  C   UNL     1    -119.750  28.082  20.745  1.00  0.00     0.007 C 
ATOM      8  C   UNL     1    -119.135  25.859  19.706  1.00  0.00     0.007 C 
ENDBRANCH   3   6
ENDBRANCH   2   3
ENDBRANCH   1   2
BRANCH   1   9
ATOM      9  C   UNL     1    -114.798  27.363  17.031  1.00  0.00    -0.011 C 
ATOM     10  C   UNL     1    -114.205  26.457  15.929  1.00  0.00     0.008 C 
BRANCH   9  11
ATOM     11  C   UNL     1    -114.309  26.872  18.446  1.00  0.00    -0.002 C 
ATOM     12  C   UNL     1    -113.354  25.677  18.321  1.00  0.00     0.005 C 
ATOM     13  C   UNL     1    -113.586  27.866  19.426  1.00  0.00    -0.026 C 
ATOM     14  C   UNL     1    -112.510  25.629  19.584  1.00  0.00     0.005 C 
ATOM     15  C   UNL     1    -112.809  26.906  20.382  1.00  0.00    -0.001 C 
ATOM     16  C   UNL     1    -112.620  28.878  18.710  1.00  0.00     0.007 C 
ATOM     17  C   UNL     1    -114.617  28.658  20.279  1.00  0.00     0.012 C 
ATOM     18  C   UNL     1    -111.571  27.549  21.082  1.00  0.00     0.000 C 
ATOM     19  C   UNL     1    -111.152  28.437  18.686  1.00  0.00     0.005 C 
ATOM     20  C   UNL     1    -110.602  28.342  20.127  1.00  0.00     0.003 C 
ATOM     21  C   UNL     1    -110.858  26.556  22.025  1.00  0.00     0.031 C 
ATOM     22  C   UNL     1    -109.069  27.956  20.230  1.00  0.00    -0.008 C 
ATOM     23  C   UNL     1    -109.572  27.131  22.536  1.00  0.00    -0.027 C 
ATOM     24  C   UNL     1    -108.715  27.761  21.709  1.00  0.00    -0.065 C 
ATOM     25  C   UNL     1    -108.201  29.123  19.658  1.00  0.00     0.014 C 
ATOM     26  C   UNL     1    -108.727  26.662  19.447  1.00  0.00     0.016 C 
ATOM     27  C   UNL     1    -107.478  28.413  22.287  1.00  0.00     0.063 C 
ATOM     28  C   UNL     1    -106.685  28.973  19.906  1.00  0.00     0.033 C 
ATOM     29  C   UNL     1    -106.322  28.353  21.277  1.00  0.00     0.118 C 
BRANCH  29  30
ATOM     30  O   UNL     1    -105.168  28.956  21.805  1.00  0.00    -0.393 OA
ATOM     31  H   UNL     1    -104.861  28.402  22.569  1.00  0.00     0.210 HD
ENDBRANCH  29  30
ENDBRANCH   9  11
ENDBRANCH   1   9
TORSDOF 7
ENDMDL
MODEL 5
REMARK VINA RESULT:    -4.137     15.403     18.511
REMARK INTER + INTRA:          -6.327
REMARK INTER:                  -4.684
REMARK INTRA:                  -1.642
REMARK UNBOUND:                -0.618
REMARK SMILES CC[C@H](CC[C@H](C)[C@H]1CC[C@H]2[C@H]3CC=C4C[C@H](O)CC[C@]4(C)[C@H]3CC[C@@]12C)C(C)C
REMARK SMILES IDX 5 1 4 2 3 3 2 4 1 5 28 6 29 7 30 8 6 9 7 10 8 11 9 12 26 13
REMARK SMILES IDX 10 14 11 15 25 16 27 17 12 18 24 19 23 20 13 21 21 22 14 23
REMARK SMILES IDX 15 24 20 25 22 26 16 27 19 28 17 29 18 30
REMARK H PARENT 18 31
REMARK Flexibility Score: inf
ROOT
ATOM      1  C   UNL     1    -107.922  28.593  22.100  1.00  0.00     0.004 C 
ENDROOT
BRANCH   1   2
ATOM      2  C   UNL     1    -107.109  27.527  21.323  1.00  0.00     0.004 C 
BRANCH   2   3
ATOM      3  C   UNL     1    -105.781  28.077  20.721  1.00  0.00    -0.009 C 
BRANCH   3   4
ATOM      4  C   UNL     1    -104.638  27.924  21.769  1.00  0.00     0.000 C 
ATOM      5  C   UNL     1    -103.229  28.044  21.190  1.00  0.00     0.004 C 
ENDBRANCH   3   4
BRANCH   3   6
ATOM      6  C   UNL     1    -105.501  27.414  19.327  1.00  0.00    -0.014 C 
ATOM      7  C   UNL     1    -105.498  28.411  18.158  1.00  0.00     0.007 C 
ATOM      8  C   UNL     1    -106.418  26.218  19.023  1.00  0.00     0.007 C 
ENDBRANCH   3   6
ENDBRANCH   2   3
ENDBRANCH   1   2
BRANCH   1   9
ATOM      9  C   UNL     1    -109.433  28.642  21.739  1.00  0.00    -0.011 C 
ATOM     10  C   UNL     1    -110.290  28.544  23.021  1.00  0.00     0.008 C 
BRANCH   9  11
ATOM     11  C   UNL     1    -109.849  27.506  20.729  1.00  0.00    -0.002 C 
ATOM     12  C   UNL     1    -110.866  26.546  21.361  1.00  0.00     0.005 C 
ATOM     13  C   UNL     1    -110.456  27.873  19.327  1.00  0.00    -0.026 C 
ATOM     14  C   UNL     1    -111.626  25.873  20.230  1.00  0.00     0.005 C 
ATOM     15  C   UNL     1    -111.213  26.567  18.925  1.00  0.00    -0.001 C 
ATOM     16  C   UNL     1    -111.419  29.115  19.353  1.00  0.00     0.007 C 
ATOM     17  C   UNL     1    -109.334  28.116  18.279  1.00  0.00     0.012 C 
ATOM     18  C   UNL     1    -112.369  26.777  17.898  1.00  0.00     0.000 C 
ATOM     19  C   UNL     1    -112.904  28.758  19.476  1.00  0.00     0.005 C 
ATOM     20  C   UNL     1    -113.361  27.951  18.239  1.00  0.00     0.003 C 
ATOM     21  C   UNL     1    -113.064  25.448  17.529  1.00  0.00     0.031 C 
ATOM     22  C   UNL     1    -114.900  27.577  18.220  1.00  0.00    -0.008 C 
ATOM     23  C   UNL     1    -114.284  25.695  16.694  1.00  0.00    -0.027 C 
ATOM     24  C   UNL     1    -115.163  26.663  17.018  1.00  0.00    -0.065 C 
ATOM     25  C   UNL     1    -115.748  28.880  18.053  1.00  0.00     0.014 C 
ATOM     26  C   UNL     1    -115.355  26.860  19.518  1.00  0.00     0.016 C 
ATOM     27  C   UNL     1    -116.326  26.942  16.091  1.00  0.00     0.063 C 
ATOM     28  C   UNL     1    -117.249  28.636  17.790  1.00  0.00     0.033 C 
ATOM     29  C   UNL     1    -117.548  27.410  16.895  1.00  0.00     0.118 C 
BRANCH  29  30
ATOM     30  O   UNL     1    -118.635  27.671  16.042  1.00  0.00    -0.393 OA
ATOM     31  H   UNL     1    -119.464  27.614  16.584  1.00  0.00     0.210 HD
ENDBRANCH  29  30
ENDBRANCH   9  11
ENDBRANCH   1   9
TORSDOF 7
ENDMDL
MODEL 6
REMARK VINA RESULT:    -4.128     17.251     19.567
REMARK INTER + INTRA:          -6.315
REMARK INTER:                  -5.932
REMARK INTRA:                  -0.383
REMARK UNBOUND:                -0.618
REMARK SMILES CC[C@H](CC[C@H](C)[C@H]1CC[C@H]2[C@H]3CC=C4C[C@H](O)CC[C@]4(C)[C@H]3CC[C@@]12C)C(C)C
REMARK SMILES IDX 5 1 4 2 3 3 2 4 1 5 28 6 29 7 30 8 6 9 7 10 8 11 9 12 26 13
REMARK SMILES IDX 10 14 11 15 25 16 27 17 12 18 24 19 23 20 13 21 21 22 14 23
REMARK SMILES IDX 15 24 20 25 22 26 16 27 19 28 17 29 18 30
REMARK H PARENT 18 31
REMARK Flexibility Score: inf
ROOT
ATOM      1  C   UNL     1    -106.817  27.929  20.474  1.00  0.00     0.004 C 
ENDROOT
BRANCH   1   2
ATOM      2  C   UNL     1    -108.309  28.306  20.659  1.00  0.00     0.004 C 
BRANCH   2   3
ATOM      3  C   UNL     1    -109.282  27.108  20.447  1.00  0.00    -0.009 C 
BRANCH   3   4
ATOM      4  C   UNL     1    -110.194  26.957  21.701  1.00  0.00     0.000 C 
ATOM      5  C   UNL     1    -110.006  28.049  22.754  1.00  0.00     0.004 C 
ENDBRANCH   3   4
BRANCH   3   6
ATOM      6  C   UNL     1    -110.043  27.262  19.084  1.00  0.00    -0.014 C 
ATOM      7  C   UNL     1    -111.503  26.786  19.134  1.00  0.00     0.007 C 
ATOM      8  C   UNL     1    -109.303  26.629  17.894  1.00  0.00     0.007 C 
ENDBRANCH   3   6
ENDBRANCH   2   3
ENDBRANCH   1   2
BRANCH   1   9
ATOM      9  C   UNL     1    -105.989  28.955  19.650  1.00  0.00    -0.011 C 
ATOM     10  C   UNL     1    -106.560  29.074  18.219  1.00  0.00     0.008 C 
BRANCH   9  11
ATOM     11  C   UNL     1    -104.459  28.584  19.586  1.00  0.00    -0.002 C 
ATOM     12  C   UNL     1    -104.084  27.581  20.686  1.00  0.00     0.005 C 
ATOM     13  C   UNL     1    -103.840  27.991  18.269  1.00  0.00    -0.026 C 
ATOM     14  C   UNL     1    -102.825  26.857  20.237  1.00  0.00     0.005 C 
ATOM     15  C   UNL     1    -102.552  27.274  18.785  1.00  0.00    -0.001 C 
ATOM     16  C   UNL     1    -104.791  26.997  17.509  1.00  0.00     0.007 C 
ATOM     17  C   UNL     1    -103.401  29.123  17.299  1.00  0.00     0.012 C 
ATOM     18  C   UNL     1    -102.032  26.129  17.860  1.00  0.00     0.000 C 
ATOM     19  C   UNL     1    -104.548  25.519  17.834  1.00  0.00     0.005 C 
ATOM     20  C   UNL     1    -103.128  25.103  17.386  1.00  0.00     0.003 C 
ATOM     21  C   UNL     1    -100.749  25.474  18.414  1.00  0.00     0.031 C 
ATOM     22  C   UNL     1    -102.781  23.574  17.612  1.00  0.00    -0.008 C 
ATOM     23  C   UNL     1    -100.377  24.262  17.615  1.00  0.00    -0.027 C 
ATOM     24  C   UNL     1    -101.305  23.354  17.258  1.00  0.00    -0.065 C 
ATOM     25  C   UNL     1    -103.659  22.697  16.663  1.00  0.00     0.014 C 
ATOM     26  C   UNL     1    -103.031  23.116  19.073  1.00  0.00     0.016 C 
ATOM     27  C   UNL     1    -100.902  22.199  16.367  1.00  0.00     0.063 C 
ATOM     28  C   UNL     1    -103.261  21.206  16.618  1.00  0.00     0.033 C 
ATOM     29  C   UNL     1    -101.736  20.953  16.699  1.00  0.00     0.118 C 
BRANCH  29  30
ATOM     30  O   UNL     1    -101.367  19.874  15.876  1.00  0.00    -0.393 OA
ATOM     31  H   UNL     1    -100.817  20.235  15.134  1.00  0.00     0.210 HD
ENDBRANCH  29  30
ENDBRANCH   9  11
ENDBRANCH   1   9
TORSDOF 7
ENDMDL
MODEL 7
REMARK VINA RESULT:    -4.084     16.631     19.227
REMARK INTER + INTRA:          -6.254
REMARK INTER:                  -5.710
REMARK INTRA:                  -0.544
REMARK UNBOUND:                -0.618
REMARK SMILES CC[C@H](CC[C@H](C)[C@H]1CC[C@H]2[C@H]3CC=C4C[C@H](O)CC[C@]4(C)[C@H]3CC[C@@]12C)C(C)C
REMARK SMILES IDX 5 1 4 2 3 3 2 4 1 5 28 6 29 7 30 8 6 9 7 10 8 11 9 12 26 13
REMARK SMILES IDX 10 14 11 15 25 16 27 17 12 18 24 19 23 20 13 21 21 22 14 23
REMARK SMILES IDX 15 24 20 25 22 26 16 27 19 28 17 29 18 30
REMARK H PARENT 18 31
REMARK Flexibility Score: inf
ROOT
ATOM      1  C   UNL     1    -108.344  27.793  20.336  1.00  0.00     0.004 C 
ENDROOT
BRANCH   1   2
ATOM      2  C   UNL     1    -109.711  27.083  20.505  1.00  0.00     0.004 C 
BRANCH   2   3
ATOM      3  C   UNL     1    -110.687  27.835  21.459  1.00  0.00    -0.009 C 
BRANCH   3   4
ATOM      4  C   UNL     1    -112.153  27.440  21.110  1.00  0.00     0.000 C 
ATOM      5  C   UNL     1    -112.288  26.129  20.336  1.00  0.00     0.004 C 
ENDBRANCH   3   4
BRANCH   3   6
ATOM      6  C   UNL     1    -110.271  27.604  22.954  1.00  0.00    -0.014 C 
ATOM      7  C   UNL     1    -110.242  26.124  23.365  1.00  0.00     0.007 C 
ATOM      8  C   UNL     1    -111.095  28.432  23.953  1.00  0.00     0.007 C 
ENDBRANCH   3   6
ENDBRANCH   2   3
ENDBRANCH   1   2
BRANCH   1   9
ATOM      9  C   UNL     1    -108.354  28.983  19.336  1.00  0.00    -0.011 C 
ATOM     10  C   UNL     1    -109.526  28.830  18.339  1.00  0.00     0.008 C 
BRANCH   9  11
ATOM     11  C   UNL     1    -106.997  29.120  18.547  1.00  0.00    -0.002 C 
ATOM     12  C   UNL     1    -105.792  29.000  19.490  1.00  0.00     0.005 C 
ATOM     13  C   UNL     1    -106.673  28.154  17.350  1.00  0.00    -0.026 C 
ATOM     14  C   UNL     1    -104.596  28.573  18.654  1.00  0.00     0.005 C 
ATOM     15  C   UNL     1    -105.116  28.241  17.249  1.00  0.00    -0.001 C 
ATOM     16  C   UNL     1    -107.157  26.676  17.574  1.00  0.00     0.007 C 
ATOM     17  C   UNL     1    -107.269  28.694  16.020  1.00  0.00     0.012 C 
ATOM     18  C   UNL     1    -104.441  27.006  16.573  1.00  0.00     0.000 C 
ATOM     19  C   UNL     1    -106.079  25.736  18.124  1.00  0.00     0.005 C 
ATOM     20  C   UNL     1    -104.920  25.606  17.111  1.00  0.00     0.003 C 
ATOM     21  C   UNL     1    -102.907  27.160  16.487  1.00  0.00     0.031 C 
ATOM     22  C   UNL     1    -103.769  24.605  17.541  1.00  0.00    -0.008 C 
ATOM     23  C   UNL     1    -102.266  25.891  16.012  1.00  0.00    -0.027 C 
ATOM     24  C   UNL     1    -102.636  24.697  16.513  1.00  0.00    -0.065 C 
ATOM     25  C   UNL     1    -104.326  23.145  17.543  1.00  0.00     0.014 C 
ATOM     26  C   UNL     1    -103.206  24.917  18.952  1.00  0.00     0.016 C 
ATOM     27  C   UNL     1    -102.034  23.436  15.932  1.00  0.00     0.063 C 
ATOM     28  C   UNL     1    -103.252  22.051  17.723  1.00  0.00     0.033 C 
ATOM     29  C   UNL     1    -101.909  22.355  17.016  1.00  0.00     0.118 C 
BRANCH  29  30
ATOM     30  O   UNL     1    -101.349  21.180  16.485  1.00  0.00    -0.393 OA
ATOM     31  H   UNL     1    -100.475  21.418  16.082  1.00  0.00     0.210 HD
ENDBRANCH  29  30
ENDBRANCH   9  11
ENDBRANCH   1   9
TORSDOF 7
ENDMDL
MODEL 8
REMARK VINA RESULT:    -3.522     16.383     19.681
REMARK INTER + INTRA:          -5.478
REMARK INTER:                  -4.607
REMARK INTRA:                  -0.872
REMARK UNBOUND:                -0.618
REMARK SMILES CC[C@H](CC[C@H](C)[C@H]1CC[C@H]2[C@H]3CC=C4C[C@H](O)CC[C@]4(C)[C@H]3CC[C@@]12C)C(C)C
REMARK SMILES IDX 5 1 4 2 3 3 2 4 1 5 28 6 29 7 30 8 6 9 7 10 8 11 9 12 26 13
REMARK SMILES IDX 10 14 11 15 25 16 27 17 12 18 24 19 23 20 13 21 21 22 14 23
REMARK SMILES IDX 15 24 20 25 22 26 16 27 19 28 17 29 18 30
REMARK H PARENT 18 31
REMARK Flexibility Score: inf
ROOT
ATOM      1  C   UNL     1    -103.357  25.321  16.589  1.00  0.00     0.004 C 
ENDROOT
BRANCH   1   2
ATOM      2  C   UNL     1    -101.902  24.805  16.728  1.00  0.00     0.004 C 
BRANCH   2   3
ATOM      3  C   UNL     1    -101.756  23.626  17.737  1.00  0.00    -0.009 C 
BRANCH   3   4
ATOM      4  C   UNL     1    -101.852  24.179  19.191  1.00  0.00     0.000 C 
ATOM      5  C   UNL     1    -101.019  25.435  19.446  1.00  0.00     0.004 C 
ENDBRANCH   3   4
BRANCH   3   6
ATOM      6  C   UNL     1    -102.773  22.485  17.388  1.00  0.00    -0.014 C 
ATOM      7  C   UNL     1    -103.602  22.007  18.591  1.00  0.00     0.007 C 
ATOM      8  C   UNL     1    -102.131  21.293  16.660  1.00  0.00     0.007 C 
ENDBRANCH   3   6
ENDBRANCH   2   3
ENDBRANCH   1   2
BRANCH   1   9
ATOM      9  C   UNL     1    -103.476  26.808  16.153  1.00  0.00    -0.011 C 
ATOM     10  C   UNL     1    -102.070  27.435  16.008  1.00  0.00     0.008 C 
BRANCH   9  11
ATOM     11  C   UNL     1    -104.340  27.663  17.156  1.00  0.00    -0.002 C 
ATOM     12  C   UNL     1    -105.141  28.744  16.418  1.00  0.00     0.005 C 
ATOM     13  C   UNL     1    -105.381  26.964  18.103  1.00  0.00    -0.026 C 
ATOM     14  C   UNL     1    -106.323  29.119  17.296  1.00  0.00     0.005 C 
ATOM     15  C   UNL     1    -106.353  28.130  18.469  1.00  0.00    -0.001 C 
ATOM     16  C   UNL     1    -106.143  25.761  17.437  1.00  0.00     0.007 C 
ATOM     17  C   UNL     1    -104.703  26.478  19.416  1.00  0.00     0.012 C 
ATOM     18  C   UNL     1    -107.780  27.672  18.907  1.00  0.00     0.000 C 
ATOM     19  C   UNL     1    -107.507  26.131  16.845  1.00  0.00     0.005 C 
ATOM     20  C   UNL     1    -108.460  26.612  17.962  1.00  0.00     0.003 C 
ATOM     21  C   UNL     1    -108.685  28.868  19.272  1.00  0.00     0.031 C 
ATOM     22  C   UNL     1    -109.927  26.963  17.480  1.00  0.00    -0.008 C 
ATOM     23  C   UNL     1    -110.097  28.421  19.504  1.00  0.00    -0.027 C 
ATOM     24  C   UNL     1    -110.699  27.557  18.664  1.00  0.00    -0.065 C 
ATOM     25  C   UNL     1    -110.648  25.656  17.018  1.00  0.00     0.014 C 
ATOM     26  C   UNL     1    -109.941  27.972  16.302  1.00  0.00     0.016 C 
ATOM     27  C   UNL     1    -112.088  27.056  18.994  1.00  0.00     0.063 C 
ATOM     28  C   UNL     1    -112.157  25.821  16.739  1.00  0.00     0.033 C 
ATOM     29  C   UNL     1    -112.880  26.792  17.704  1.00  0.00     0.118 C 
BRANCH  29  30
ATOM     30  O   UNL     1    -114.173  26.327  18.000  1.00  0.00    -0.393 OA
ATOM     31  H   UNL     1    -114.539  26.897  18.725  1.00  0.00     0.210 HD
ENDBRANCH  29  30
ENDBRANCH   9  11
ENDBRANCH   1   9
TORSDOF 7
ENDMDL
MODEL 9
REMARK VINA RESULT:    -3.234     16.937     19.464
REMARK INTER + INTRA:          -5.080
REMARK INTER:                  -4.669
REMARK INTRA:                  -0.411
REMARK UNBOUND:                -0.618
REMARK SMILES CC[C@H](CC[C@H](C)[C@H]1CC[C@H]2[C@H]3CC=C4C[C@H](O)CC[C@]4(C)[C@H]3CC[C@@]12C)C(C)C
REMARK SMILES IDX 5 1 4 2 3 3 2 4 1 5 28 6 29 7 30 8 6 9 7 10 8 11 9 12 26 13
REMARK SMILES IDX 10 14 11 15 25 16 27 17 12 18 24 19 23 20 13 21 21 22 14 23
REMARK SMILES IDX 15 24 20 25 22 26 16 27 19 28 17 29 18 30
REMARK H PARENT 18 31
REMARK Flexibility Score: inf
ROOT
ATOM      1  C   UNL     1    -103.391  25.756  16.312  1.00  0.00     0.004 C 
ENDROOT
BRANCH   1   2
ATOM      2  C   UNL     1    -103.176  24.533  17.239  1.00  0.00     0.004 C 
BRANCH   2   3
ATOM      3  C   UNL     1    -101.876  23.735  16.922  1.00  0.00    -0.009 C 
BRANCH   3   4
ATOM      4  C   UNL     1    -100.651  24.487  17.524  1.00  0.00     0.000 C 
ATOM      5  C   UNL     1    -100.892  25.074  18.915  1.00  0.00     0.004 C 
ENDBRANCH   3   4
BRANCH   3   6
ATOM      6  C   UNL     1    -102.031  22.242  17.375  1.00  0.00    -0.014 C 
ATOM      7  C   UNL     1    -102.074  21.243  16.207  1.00  0.00     0.007 C 
ATOM      8  C   UNL     1    -103.210  22.011  18.334  1.00  0.00     0.007 C 
ENDBRANCH   3   6
ENDBRANCH   2   3
ENDBRANCH   1   2
BRANCH   1   9
ATOM      9  C   UNL     1    -104.203  26.917  16.952  1.00  0.00    -0.011 C 
ATOM     10  C   UNL     1    -103.932  26.981  18.472  1.00  0.00     0.008 C 
BRANCH   9  11
ATOM     11  C   UNL     1    -105.751  26.785  16.690  1.00  0.00    -0.002 C 
ATOM     12  C   UNL     1    -106.329  25.544  17.383  1.00  0.00     0.005 C 
ATOM     13  C   UNL     1    -106.725  27.957  17.080  1.00  0.00    -0.026 C 
ATOM     14  C   UNL     1    -107.818  25.779  17.579  1.00  0.00     0.005 C 
ATOM     15  C   UNL     1    -108.106  27.236  17.190  1.00  0.00    -0.001 C 
ATOM     16  C   UNL     1    -106.342  28.685  18.419  1.00  0.00     0.007 C 
ATOM     17  C   UNL     1    -106.823  29.005  15.936  1.00  0.00     0.012 C 
ATOM     18  C   UNL     1    -109.147  27.964  18.096  1.00  0.00     0.000 C 
ATOM     19  C   UNL     1    -107.089  28.166  19.653  1.00  0.00     0.005 C 
ATOM     20  C   UNL     1    -108.606  28.420  19.503  1.00  0.00     0.003 C 
ATOM     21  C   UNL     1    -110.495  27.213  18.150  1.00  0.00     0.031 C 
ATOM     22  C   UNL     1    -109.480  27.983  20.749  1.00  0.00    -0.008 C 
ATOM     23  C   UNL     1    -111.410  27.824  19.168  1.00  0.00    -0.027 C 
ATOM     24  C   UNL     1    -110.960  28.161  20.392  1.00  0.00    -0.065 C 
ATOM     25  C   UNL     1    -109.145  28.904  21.967  1.00  0.00     0.014 C 
ATOM     26  C   UNL     1    -109.228  26.510  21.166  1.00  0.00     0.016 C 
ATOM     27  C   UNL     1    -111.894  28.867  21.351  1.00  0.00     0.063 C 
ATOM     28  C   UNL     1    -110.088  28.734  23.177  1.00  0.00     0.033 C 
ATOM     29  C   UNL     1    -111.566  28.475  22.799  1.00  0.00     0.118 C 
BRANCH  29  30
ATOM     30  O   UNL     1    -112.430  29.125  23.698  1.00  0.00    -0.393 OA
ATOM     31  H   UNL     1    -112.334  28.682  24.581  1.00  0.00     0.210 HD
ENDBRANCH  29  30
ENDBRANCH   9  11
ENDBRANCH   1   9
TORSDOF 7
ENDMDL
