MODEL 1
REMARK VINA RESULT:    -6.879      0.000      0.000
REMARK INTER + INTRA:          -8.399
REMARK INTER:                  -8.085
REMARK INTRA:                  -0.314
REMARK UNBOUND:                -0.314
REMARK SMILES Oc1ccc(-c2[o+]c3cc(O)cc(O)c3cc2O)cc1.[Cl-]
REMARK SMILES IDX 6 1 7 2 8 3 9 4 10 5 12 6 13 7 15 8 16 9 17 10 5 11 4 12
REMARK SMILES IDX 3 13 2 14 19 15 20 16 1 17 18 19 11 21 14 23
REMARK H PARENT 1 18 18 20 11 22 14 24
REMARK Flexibility Score: inf
ROOT
ATOM      1  C   UNL     1      -7.919 -22.717 -20.103  1.00  0.00     0.401 A 
ATOM      2  O   UNL     1      -7.051 -22.135 -19.276  1.00  0.00    -0.202 OA
ATOM      3  C   UNL     1      -6.939 -22.463 -17.992  1.00  0.00     0.368 A 
ATOM      4  C   UNL     1      -6.006 -21.800 -17.188  1.00  0.00     0.162 A 
ATOM      5  C   UNL     1      -5.880 -22.133 -15.836  1.00  0.00     0.128 A 
ATOM      6  C   UNL     1      -6.690 -23.135 -15.284  1.00  0.00     0.093 A 
ATOM      7  C   UNL     1      -7.629 -23.809 -16.078  1.00  0.00     0.136 A 
ATOM      8  C   UNL     1      -7.756 -23.473 -17.440  1.00  0.00     0.125 A 
ATOM      9  C   UNL     1      -8.669 -24.117 -18.281  1.00  0.00     0.078 A 
ATOM     10  C   UNL     1      -8.751 -23.750 -19.628  1.00  0.00     0.223 A 
ENDROOT
BRANCH   1  11
ATOM     11  C   UNL     1      -7.957 -22.259 -21.511  1.00  0.00     0.084 A 
ATOM     12  C   UNL     1      -7.096 -22.801 -22.482  1.00  0.00     0.022 A 
ATOM     13  C   UNL     1      -7.168 -22.369 -23.811  1.00  0.00     0.047 A 
ATOM     14  C   UNL     1      -8.108 -21.399 -24.187  1.00  0.00     0.115 A 
ATOM     15  C   UNL     1      -8.911 -21.303 -21.901  1.00  0.00     0.022 A 
ATOM     16  C   UNL     1      -8.979 -20.871 -23.229  1.00  0.00     0.047 A 
BRANCH  14  17
ATOM     17  O   UNL     1      -8.187 -20.960 -25.506  1.00  0.00    -0.508 OA
ATOM     18  H   UNL     1      -7.583 -20.226 -25.857  1.00  0.00     0.293 HD
ENDBRANCH  14  17
ENDBRANCH   1  11
BRANCH  10  19
ATOM     19  O   UNL     1      -9.623 -24.423 -20.484  1.00  0.00    -0.500 OA
ATOM     20  H   UNL     1     -10.615 -24.484 -20.291  1.00  0.00     0.294 HD
ENDBRANCH  10  19
BRANCH   5  21
ATOM     21  O   UNL     1      -4.946 -21.462 -15.050  1.00  0.00    -0.507 OA
ATOM     22  H   UNL     1      -4.337 -21.959 -14.410  1.00  0.00     0.293 HD
ENDBRANCH   5  21
BRANCH   7  23
ATOM     23  O   UNL     1      -8.429 -24.805 -15.518  1.00  0.00    -0.507 OA
ATOM     24  H   UNL     1      -8.033 -25.667 -15.162  1.00  0.00     0.293 HD
ENDBRANCH   7  23
TORSDOF 5
ENDMDL
MODEL 2
REMARK VINA RESULT:    -6.823      1.020      2.685
REMARK INTER + INTRA:          -8.334
REMARK INTER:                  -8.056
REMARK INTRA:                  -0.279
REMARK UNBOUND:                -0.314
REMARK SMILES Oc1ccc(-c2[o+]c3cc(O)cc(O)c3cc2O)cc1.[Cl-]
REMARK SMILES IDX 6 1 7 2 8 3 9 4 10 5 12 6 13 7 15 8 16 9 17 10 5 11 4 12
REMARK SMILES IDX 3 13 2 14 19 15 20 16 1 17 18 19 11 21 14 23
REMARK H PARENT 1 18 18 20 11 22 14 24
REMARK Flexibility Score: inf
ROOT
ATOM      1  C   UNL     1      -7.001 -21.944 -20.033  1.00  0.00     0.401 A 
ATOM      2  O   UNL     1      -7.676 -22.792 -19.259  1.00  0.00    -0.202 OA
ATOM      3  C   UNL     1      -7.428 -22.948 -17.962  1.00  0.00     0.368 A 
ATOM      4  C   UNL     1      -8.179 -23.864 -17.218  1.00  0.00     0.162 A 
ATOM      5  C   UNL     1      -7.927 -24.040 -15.855  1.00  0.00     0.128 A 
ATOM      6  C   UNL     1      -6.919 -23.294 -15.229  1.00  0.00     0.093 A 
ATOM      7  C   UNL     1      -6.158 -22.371 -15.961  1.00  0.00     0.136 A 
ATOM      8  C   UNL     1      -6.412 -22.194 -17.334  1.00  0.00     0.125 A 
ATOM      9  C   UNL     1      -5.691 -21.283 -18.112  1.00  0.00     0.078 A 
ATOM     10  C   UNL     1      -5.988 -21.141 -19.471  1.00  0.00     0.223 A 
ENDROOT
BRANCH   1  11
ATOM     11  C   UNL     1      -7.363 -21.867 -21.467  1.00  0.00     0.084 A 
ATOM     12  C   UNL     1      -6.549 -22.440 -22.461  1.00  0.00     0.022 A 
ATOM     13  C   UNL     1      -6.924 -22.375 -23.807  1.00  0.00     0.047 A 
ATOM     14  C   UNL     1      -8.122 -21.747 -24.175  1.00  0.00     0.115 A 
ATOM     15  C   UNL     1      -8.573 -21.259 -21.844  1.00  0.00     0.022 A 
ATOM     16  C   UNL     1      -8.944 -21.193 -23.189  1.00  0.00     0.047 A 
BRANCH  14  17
ATOM     17  O   UNL     1      -8.504 -21.675 -25.511  1.00  0.00    -0.508 OA
ATOM     18  H   UNL     1      -7.866 -21.350 -26.228  1.00  0.00     0.293 HD
ENDBRANCH  14  17
ENDBRANCH   1  11
BRANCH  10  19
ATOM     19  O   UNL     1      -5.308 -20.197 -20.241  1.00  0.00    -0.500 OA
ATOM     20  H   UNL     1      -4.688 -20.472 -20.993  1.00  0.00     0.294 HD
ENDBRANCH  10  19
BRANCH   5  21
ATOM     21  O   UNL     1      -8.684 -24.957 -15.130  1.00  0.00    -0.507 OA
ATOM     22  H   UNL     1      -8.870 -25.888 -15.485  1.00  0.00     0.293 HD
ENDBRANCH   5  21
BRANCH   7  23
ATOM     23  O   UNL     1      -5.157 -21.633 -15.327  1.00  0.00    -0.507 OA
ATOM     24  H   UNL     1      -5.363 -21.019 -14.547  1.00  0.00     0.293 HD
ENDBRANCH   7  23
TORSDOF 5
ENDMDL
MODEL 3
REMARK VINA RESULT:    -6.253      1.179      1.688
REMARK INTER + INTRA:          -7.664
REMARK INTER:                  -7.591
REMARK INTRA:                  -0.073
REMARK UNBOUND:                -0.314
REMARK SMILES Oc1ccc(-c2[o+]c3cc(O)cc(O)c3cc2O)cc1.[Cl-]
REMARK SMILES IDX 6 1 7 2 8 3 9 4 10 5 12 6 13 7 15 8 16 9 17 10 5 11 4 12
REMARK SMILES IDX 3 13 2 14 19 15 20 16 1 17 18 19 11 21 14 23
REMARK H PARENT 1 18 18 20 11 22 14 24
REMARK Flexibility Score: inf
ROOT
ATOM      1  C   UNL     1      -6.995 -22.945 -20.497  1.00  0.00     0.401 A 
ATOM      2  O   UNL     1      -6.350 -22.367 -19.484  1.00  0.00    -0.202 OA
ATOM      3  C   UNL     1      -6.617 -22.629 -18.208  1.00  0.00     0.368 A 
ATOM      4  C   UNL     1      -5.897 -21.976 -17.202  1.00  0.00     0.162 A 
ATOM      5  C   UNL     1      -6.169 -22.239 -15.857  1.00  0.00     0.128 A 
ATOM      6  C   UNL     1      -7.167 -23.162 -15.514  1.00  0.00     0.093 A 
ATOM      7  C   UNL     1      -7.896 -23.825 -16.511  1.00  0.00     0.136 A 
ATOM      8  C   UNL     1      -7.621 -23.560 -17.866  1.00  0.00     0.125 A 
ATOM      9  C   UNL     1      -8.311 -24.197 -18.903  1.00  0.00     0.078 A 
ATOM     10  C   UNL     1      -7.995 -23.902 -20.232  1.00  0.00     0.223 A 
ENDROOT
BRANCH   1  11
ATOM     11  C   UNL     1      -6.615 -22.564 -21.876  1.00  0.00     0.084 A 
ATOM     12  C   UNL     1      -7.575 -22.135 -22.810  1.00  0.00     0.022 A 
ATOM     13  C   UNL     1      -7.188 -21.757 -24.101  1.00  0.00     0.047 A 
ATOM     14  C   UNL     1      -5.836 -21.793 -24.469  1.00  0.00     0.115 A 
ATOM     15  C   UNL     1      -5.259 -22.576 -22.249  1.00  0.00     0.022 A 
ATOM     16  C   UNL     1      -4.875 -22.200 -23.539  1.00  0.00     0.047 A 
BRANCH  14  17
ATOM     17  O   UNL     1      -5.440 -21.421 -25.751  1.00  0.00    -0.508 OA
ATOM     18  H   UNL     1      -5.107 -20.485 -25.953  1.00  0.00     0.293 HD
ENDBRANCH  14  17
ENDBRANCH   1  11
BRANCH  10  19
ATOM     19  O   UNL     1      -8.643 -24.572 -21.270  1.00  0.00    -0.500 OA
ATOM     20  H   UNL     1      -9.569 -24.303 -21.580  1.00  0.00     0.294 HD
ENDBRANCH  10  19
BRANCH   5  21
ATOM     21  O   UNL     1      -5.443 -21.579 -14.869  1.00  0.00    -0.507 OA
ATOM     22  H   UNL     1      -4.786 -20.843 -15.097  1.00  0.00     0.293 HD
ENDBRANCH   5  21
BRANCH   7  23
ATOM     23  O   UNL     1      -8.887 -24.743 -16.157  1.00  0.00    -0.507 OA
ATOM     24  H   UNL     1      -9.385 -24.674 -15.277  1.00  0.00     0.293 HD
ENDBRANCH   7  23
TORSDOF 5
ENDMDL
MODEL 4
REMARK VINA RESULT:    -6.066      1.486      6.986
REMARK INTER + INTRA:          -7.444
REMARK INTER:                  -7.148
REMARK INTRA:                  -0.296
REMARK UNBOUND:                -0.314
REMARK SMILES Oc1ccc(-c2[o+]c3cc(O)cc(O)c3cc2O)cc1.[Cl-]
REMARK SMILES IDX 6 1 7 2 8 3 9 4 10 5 12 6 13 7 15 8 16 9 17 10 5 11 4 12
REMARK SMILES IDX 3 13 2 14 19 15 20 16 1 17 18 19 11 21 14 23
REMARK H PARENT 1 18 18 20 11 22 14 24
REMARK Flexibility Score: inf
ROOT
ATOM      1  C   UNL     1      -6.899 -22.437 -20.058  1.00  0.00     0.401 A 
ATOM      2  O   UNL     1      -7.910 -21.735 -20.569  1.00  0.00    -0.202 OA
ATOM      3  C   UNL     1      -8.083 -21.554 -21.875  1.00  0.00     0.368 A 
ATOM      4  C   UNL     1      -9.168 -20.798 -22.331  1.00  0.00     0.162 A 
ATOM      5  C   UNL     1      -9.360 -20.598 -23.701  1.00  0.00     0.128 A 
ATOM      6  C   UNL     1      -8.463 -21.157 -24.621  1.00  0.00     0.093 A 
ATOM      7  C   UNL     1      -7.372 -21.918 -24.179  1.00  0.00     0.136 A 
ATOM      8  C   UNL     1      -7.178 -22.119 -22.799  1.00  0.00     0.125 A 
ATOM      9  C   UNL     1      -6.112 -22.875 -22.301  1.00  0.00     0.078 A 
ATOM     10  C   UNL     1      -5.970 -23.051 -20.921  1.00  0.00     0.223 A 
ENDROOT
BRANCH   1  11
ATOM     11  C   UNL     1      -6.807 -22.560 -18.585  1.00  0.00     0.084 A 
ATOM     12  C   UNL     1      -7.569 -23.509 -17.879  1.00  0.00     0.022 A 
ATOM     13  C   UNL     1      -7.447 -23.622 -16.490  1.00  0.00     0.047 A 
ATOM     14  C   UNL     1      -6.554 -22.797 -15.792  1.00  0.00     0.115 A 
ATOM     15  C   UNL     1      -5.899 -21.752 -17.879  1.00  0.00     0.022 A 
ATOM     16  C   UNL     1      -5.781 -21.865 -16.491  1.00  0.00     0.047 A 
BRANCH  14  17
ATOM     17  O   UNL     1      -6.426 -22.900 -14.410  1.00  0.00    -0.508 OA
ATOM     18  H   UNL     1      -6.207 -22.094 -13.836  1.00  0.00     0.293 HD
ENDBRANCH  14  17
ENDBRANCH   1  11
BRANCH  10  19
ATOM     19  O   UNL     1      -4.938 -23.846 -20.421  1.00  0.00    -0.500 OA
ATOM     20  H   UNL     1      -4.383 -23.557 -19.624  1.00  0.00     0.294 HD
ENDBRANCH  10  19
BRANCH   5  21
ATOM     21  O   UNL     1     -10.446 -19.842 -24.137  1.00  0.00    -0.507 OA
ATOM     22  H   UNL     1     -10.478 -18.838 -24.006  1.00  0.00     0.293 HD
ENDBRANCH   5  21
BRANCH   7  23
ATOM     23  O   UNL     1      -6.486 -22.470 -25.105  1.00  0.00    -0.507 OA
ATOM     24  H   UNL     1      -5.487 -22.309 -25.046  1.00  0.00     0.293 HD
ENDBRANCH   7  23
TORSDOF 5
ENDMDL
MODEL 5
REMARK VINA RESULT:    -4.927      2.847      6.927
REMARK INTER + INTRA:          -6.106
REMARK INTER:                  -6.090
REMARK INTRA:                  -0.016
REMARK UNBOUND:                -0.314
REMARK SMILES Oc1ccc(-c2[o+]c3cc(O)cc(O)c3cc2O)cc1.[Cl-]
REMARK SMILES IDX 6 1 7 2 8 3 9 4 10 5 12 6 13 7 15 8 16 9 17 10 5 11 4 12
REMARK SMILES IDX 3 13 2 14 19 15 20 16 1 17 18 19 11 21 14 23
REMARK H PARENT 1 18 18 20 11 22 14 24
REMARK Flexibility Score: inf
ROOT
ATOM      1  C   UNL     1      -6.302 -23.418 -19.427  1.00  0.00     0.401 A 
ATOM      2  O   UNL     1      -6.083 -24.679 -19.797  1.00  0.00    -0.202 OA
ATOM      3  C   UNL     1      -5.695 -25.020 -21.022  1.00  0.00     0.368 A 
ATOM      4  C   UNL     1      -5.492 -26.368 -21.333  1.00  0.00     0.162 A 
ATOM      5  C   UNL     1      -5.087 -26.741 -22.618  1.00  0.00     0.128 A 
ATOM      6  C   UNL     1      -4.883 -25.760 -23.599  1.00  0.00     0.093 A 
ATOM      7  C   UNL     1      -5.082 -24.405 -23.301  1.00  0.00     0.136 A 
ATOM      8  C   UNL     1      -5.490 -24.029 -22.007  1.00  0.00     0.125 A 
ATOM      9  C   UNL     1      -5.697 -22.692 -21.651  1.00  0.00     0.078 A 
ATOM     10  C   UNL     1      -6.095 -22.373 -20.349  1.00  0.00     0.223 A 
ENDROOT
BRANCH   1  11
ATOM     11  C   UNL     1      -6.741 -23.164 -18.035  1.00  0.00     0.084 A 
ATOM     12  C   UNL     1      -7.843 -23.839 -17.479  1.00  0.00     0.022 A 
ATOM     13  C   UNL     1      -8.225 -23.600 -16.154  1.00  0.00     0.047 A 
ATOM     14  C   UNL     1      -7.502 -22.694 -15.366  1.00  0.00     0.115 A 
ATOM     15  C   UNL     1      -6.010 -22.273 -17.230  1.00  0.00     0.022 A 
ATOM     16  C   UNL     1      -6.394 -22.035 -15.908  1.00  0.00     0.047 A 
BRANCH  14  17
ATOM     17  O   UNL     1      -7.874 -22.447 -14.048  1.00  0.00    -0.508 OA
ATOM     18  H   UNL     1      -8.549 -21.728 -13.813  1.00  0.00     0.293 HD
ENDBRANCH  14  17
ENDBRANCH   1  11
BRANCH  10  19
ATOM     19  O   UNL     1      -6.252 -21.039 -19.974  1.00  0.00    -0.500 OA
ATOM     20  H   UNL     1      -6.547 -20.332 -20.636  1.00  0.00     0.294 HD
ENDBRANCH  10  19
BRANCH   5  21
ATOM     21  O   UNL     1      -4.889 -28.088 -22.911  1.00  0.00    -0.507 OA
ATOM     22  H   UNL     1      -5.585 -28.788 -22.679  1.00  0.00     0.293 HD
ENDBRANCH   5  21
BRANCH   7  23
ATOM     23  O   UNL     1      -4.875 -23.437 -24.286  1.00  0.00    -0.507 OA
ATOM     24  H   UNL     1      -4.228 -23.588 -25.051  1.00  0.00     0.293 HD
ENDBRANCH   7  23
TORSDOF 5
ENDMDL
