MODEL 1
REMARK VINA RESULT:    -4.465      0.000      0.000
REMARK INTER + INTRA:          -8.208
REMARK INTER:                  -6.162
REMARK INTRA:                  -2.046
REMARK UNBOUND:                -2.046
REMARK SMILES CC[C@H](CC[C@H](C)[C@H]1CC[C@H]2[C@@H]3CC=C4C[C@@H](O)CC[C@@]4(C)[C@@H]3CC[C@@]12C)C(C)C
REMARK SMILES IDX 5 1 4 2 3 3 2 4 1 5 28 6 29 7 30 8 6 9 7 10 8 11 9 12 26 13
REMARK SMILES IDX 10 14 11 15 25 16 27 17 12 18 24 19 23 20 13 21 21 22 14 23
REMARK SMILES IDX 15 24 20 25 22 26 16 27 19 28 17 29 18 30
REMARK H PARENT 18 31
REMARK Flexibility Score: inf
ROOT
ATOM      1  C   UNL     1      40.274 -46.315  31.583  1.00  0.00     0.004 C 
ENDROOT
BRANCH   1   2
ATOM      2  C   UNL     1      38.770 -46.251  31.929  1.00  0.00     0.004 C 
BRANCH   2   3
ATOM      3  C   UNL     1      38.096 -44.900  31.544  1.00  0.00    -0.009 C 
BRANCH   3   4
ATOM      4  C   UNL     1      37.011 -45.125  30.453  1.00  0.00     0.000 C 
ATOM      5  C   UNL     1      37.010 -46.548  29.885  1.00  0.00     0.004 C 
ENDBRANCH   3   4
BRANCH   3   6
ATOM      6  C   UNL     1      37.539 -44.119  32.786  1.00  0.00    -0.014 C 
ATOM      7  C   UNL     1      37.920 -42.627  32.798  1.00  0.00     0.007 C 
ATOM      8  C   UNL     1      37.930 -44.777  34.122  1.00  0.00     0.007 C 
ENDBRANCH   3   6
ENDBRANCH   2   3
ENDBRANCH   1   2
BRANCH   1   9
ATOM      9  C   UNL     1      40.752 -45.099  30.744  1.00  0.00    -0.011 C 
ATOM     10  C   UNL     1      40.758 -45.495  29.253  1.00  0.00     0.008 C 
BRANCH   9  11
ATOM     11  C   UNL     1      42.119 -44.528  31.292  1.00  0.00    -0.002 C 
ATOM     12  C   UNL     1      43.253 -44.373  30.270  1.00  0.00     0.005 C 
ATOM     13  C   UNL     1      42.077 -43.181  32.071  1.00  0.00    -0.026 C 
ATOM     14  C   UNL     1      44.236 -43.375  30.882  1.00  0.00     0.005 C 
ATOM     15  C   UNL     1      43.589 -42.826  32.169  1.00  0.00    -0.001 C 
ATOM     16  C   UNL     1      41.301 -42.089  31.285  1.00  0.00     0.007 C 
ATOM     17  C   UNL     1      41.438 -43.402  33.469  1.00  0.00     0.012 C 
ATOM     18  C   UNL     1      43.956 -41.330  32.421  1.00  0.00     0.000 C 
ATOM     19  C   UNL     1      41.597 -40.659  31.758  1.00  0.00     0.005 C 
ATOM     20  C   UNL     1      43.106 -40.327  31.603  1.00  0.00     0.003 C 
ATOM     21  C   UNL     1      43.907 -40.968  33.912  1.00  0.00     0.031 C 
ATOM     22  C   UNL     1      43.532 -38.807  31.879  1.00  0.00    -0.008 C 
ATOM     23  C   UNL     1      44.435 -39.588  34.125  1.00  0.00    -0.027 C 
ATOM     24  C   UNL     1      44.265 -38.601  33.223  1.00  0.00    -0.065 C 
ATOM     25  C   UNL     1      44.522 -38.385  30.746  1.00  0.00     0.014 C 
ATOM     26  C   UNL     1      42.306 -37.854  31.845  1.00  0.00     0.016 C 
ATOM     27  C   UNL     1      44.934 -37.264  33.485  1.00  0.00     0.063 C 
ATOM     28  C   UNL     1      45.203 -37.017  30.961  1.00  0.00     0.033 C 
ATOM     29  C   UNL     1      45.888 -36.895  32.335  1.00  0.00     0.118 C 
BRANCH  29  30
ATOM     30  O   UNL     1      47.072 -37.655  32.387  1.00  0.00    -0.393 OA
ATOM     31  H   UNL     1      46.831 -38.594  32.594  1.00  0.00     0.210 HD
ENDBRANCH  29  30
ENDBRANCH   9  11
ENDBRANCH   1   9
TORSDOF 7
ENDMDL
MODEL 2
REMARK VINA RESULT:    -3.581      1.407      2.494
REMARK INTER + INTRA:          -6.987
REMARK INTER:                  -6.297
REMARK INTRA:                  -0.691
REMARK UNBOUND:                -2.046
REMARK SMILES CC[C@H](CC[C@H](C)[C@H]1CC[C@H]2[C@@H]3CC=C4C[C@@H](O)CC[C@@]4(C)[C@@H]3CC[C@@]12C)C(C)C
REMARK SMILES IDX 5 1 4 2 3 3 2 4 1 5 28 6 29 7 30 8 6 9 7 10 8 11 9 12 26 13
REMARK SMILES IDX 10 14 11 15 25 16 27 17 12 18 24 19 23 20 13 21 21 22 14 23
REMARK SMILES IDX 15 24 20 25 22 26 16 27 19 28 17 29 18 30
REMARK H PARENT 18 31
REMARK Flexibility Score: inf
ROOT
ATOM      1  C   UNL     1      38.788 -43.713  31.405  1.00  0.00     0.004 C 
ENDROOT
BRANCH   1   2
ATOM      2  C   UNL     1      37.560 -44.043  30.527  1.00  0.00     0.004 C 
BRANCH   2   3
ATOM      3  C   UNL     1      37.777 -43.751  29.012  1.00  0.00    -0.009 C 
BRANCH   3   4
ATOM      4  C   UNL     1      38.720 -42.529  28.824  1.00  0.00     0.000 C 
ATOM      5  C   UNL     1      37.997 -41.183  28.935  1.00  0.00     0.004 C 
ENDBRANCH   3   4
BRANCH   3   6
ATOM      6  C   UNL     1      38.265 -45.009  28.211  1.00  0.00    -0.014 C 
ATOM      7  C   UNL     1      37.822 -46.346  28.832  1.00  0.00     0.007 C 
ATOM      8  C   UNL     1      39.787 -45.009  27.980  1.00  0.00     0.007 C 
ENDBRANCH   3   6
ENDBRANCH   2   3
ENDBRANCH   1   2
BRANCH   1   9
ATOM      9  C   UNL     1      39.736 -44.928  31.596  1.00  0.00    -0.011 C 
ATOM     10  C   UNL     1      39.130 -45.869  32.657  1.00  0.00     0.008 C 
BRANCH   9  11
ATOM     11  C   UNL     1      41.217 -44.458  31.883  1.00  0.00    -0.002 C 
ATOM     12  C   UNL     1      42.165 -44.415  30.679  1.00  0.00     0.005 C 
ATOM     13  C   UNL     1      41.412 -43.096  32.613  1.00  0.00    -0.026 C 
ATOM     14  C   UNL     1      43.312 -43.486  31.080  1.00  0.00     0.005 C 
ATOM     15  C   UNL     1      42.940 -42.863  32.440  1.00  0.00    -0.001 C 
ATOM     16  C   UNL     1      40.597 -41.962  31.935  1.00  0.00     0.007 C 
ATOM     17  C   UNL     1      41.008 -43.238  34.106  1.00  0.00     0.012 C 
ATOM     18  C   UNL     1      43.458 -41.396  32.576  1.00  0.00     0.000 C 
ATOM     19  C   UNL     1      41.077 -40.551  32.303  1.00  0.00     0.005 C 
ATOM     20  C   UNL     1      42.558 -40.344  31.882  1.00  0.00     0.003 C 
ATOM     21  C   UNL     1      43.694 -41.002  34.040  1.00  0.00     0.031 C 
ATOM     22  C   UNL     1      43.139 -38.858  32.031  1.00  0.00    -0.008 C 
ATOM     23  C   UNL     1      44.354 -39.665  34.114  1.00  0.00    -0.027 C 
ATOM     24  C   UNL     1      44.105 -38.685  33.223  1.00  0.00    -0.065 C 
ATOM     25  C   UNL     1      43.947 -38.540  30.733  1.00  0.00     0.014 C 
ATOM     26  C   UNL     1      42.001 -37.811  32.175  1.00  0.00     0.016 C 
ATOM     27  C   UNL     1      44.909 -37.401  33.322  1.00  0.00     0.063 C 
ATOM     28  C   UNL     1      44.756 -37.226  30.782  1.00  0.00     0.033 C 
ATOM     29  C   UNL     1      45.675 -37.133  32.015  1.00  0.00     0.118 C 
BRANCH  29  30
ATOM     30  O   UNL     1      46.790 -37.984  31.889  1.00  0.00    -0.393 OA
ATOM     31  H   UNL     1      46.617 -38.805  32.417  1.00  0.00     0.210 HD
ENDBRANCH  29  30
ENDBRANCH   9  11
ENDBRANCH   1   9
TORSDOF 7
ENDMDL
MODEL 3
REMARK VINA RESULT:    -3.268      1.817      2.267
REMARK INTER + INTRA:          -6.556
REMARK INTER:                  -5.773
REMARK INTRA:                  -0.783
REMARK UNBOUND:                -2.046
REMARK SMILES CC[C@H](CC[C@H](C)[C@H]1CC[C@H]2[C@@H]3CC=C4C[C@@H](O)CC[C@@]4(C)[C@@H]3CC[C@@]12C)C(C)C
REMARK SMILES IDX 5 1 4 2 3 3 2 4 1 5 28 6 29 7 30 8 6 9 7 10 8 11 9 12 26 13
REMARK SMILES IDX 10 14 11 15 25 16 27 17 12 18 24 19 23 20 13 21 21 22 14 23
REMARK SMILES IDX 15 24 20 25 22 26 16 27 19 28 17 29 18 30
REMARK H PARENT 18 31
REMARK Flexibility Score: inf
ROOT
ATOM      1  C   UNL     1      39.412 -44.541  29.878  1.00  0.00     0.004 C 
ENDROOT
BRANCH   1   2
ATOM      2  C   UNL     1      38.047 -43.818  29.901  1.00  0.00     0.004 C 
BRANCH   2   3
ATOM      3  C   UNL     1      37.970 -42.596  28.938  1.00  0.00    -0.009 C 
BRANCH   3   4
ATOM      4  C   UNL     1      37.285 -43.001  27.601  1.00  0.00     0.000 C 
ATOM      5  C   UNL     1      37.493 -41.977  26.480  1.00  0.00     0.004 C 
ENDBRANCH   3   4
BRANCH   3   6
ATOM      6  C   UNL     1      37.295 -41.341  29.596  1.00  0.00    -0.014 C 
ATOM      7  C   UNL     1      38.061 -40.029  29.348  1.00  0.00     0.007 C 
ATOM      8  C   UNL     1      37.040 -41.530  31.103  1.00  0.00     0.007 C 
ENDBRANCH   3   6
ENDBRANCH   2   3
ENDBRANCH   1   2
BRANCH   1   9
ATOM      9  C   UNL     1      39.867 -45.013  31.286  1.00  0.00    -0.011 C 
ATOM     10  C   UNL     1      38.801 -44.596  32.319  1.00  0.00     0.008 C 
BRANCH   9  11
ATOM     11  C   UNL     1      41.336 -44.526  31.605  1.00  0.00    -0.002 C 
ATOM     12  C   UNL     1      42.286 -44.391  30.408  1.00  0.00     0.005 C 
ATOM     13  C   UNL     1      41.498 -43.204  32.412  1.00  0.00    -0.026 C 
ATOM     14  C   UNL     1      43.409 -43.461  30.865  1.00  0.00     0.005 C 
ATOM     15  C   UNL     1      43.021 -42.925  32.258  1.00  0.00    -0.001 C 
ATOM     16  C   UNL     1      40.658 -42.052  31.797  1.00  0.00     0.007 C 
ATOM     17  C   UNL     1      41.094 -43.440  33.892  1.00  0.00     0.012 C 
ATOM     18  C   UNL     1      43.503 -41.457  32.479  1.00  0.00     0.000 C 
ATOM     19  C   UNL     1      41.104 -40.653  32.246  1.00  0.00     0.005 C 
ATOM     20  C   UNL     1      42.579 -40.388  31.842  1.00  0.00     0.003 C 
ATOM     21  C   UNL     1      43.726 -41.141  33.964  1.00  0.00     0.031 C 
ATOM     22  C   UNL     1      43.125 -38.900  32.078  1.00  0.00    -0.008 C 
ATOM     23  C   UNL     1      44.354 -39.796  34.116  1.00  0.00    -0.027 C 
ATOM     24  C   UNL     1      44.085 -38.772  33.281  1.00  0.00    -0.065 C 
ATOM     25  C   UNL     1      43.929 -38.489  30.803  1.00  0.00     0.014 C 
ATOM     26  C   UNL     1      41.962 -37.890  32.278  1.00  0.00     0.016 C 
ATOM     27  C   UNL     1      44.858 -37.478  33.456  1.00  0.00     0.063 C 
ATOM     28  C   UNL     1      44.706 -37.162  30.930  1.00  0.00     0.033 C 
ATOM     29  C   UNL     1      45.620 -37.117  32.169  1.00  0.00     0.118 C 
BRANCH  29  30
ATOM     30  O   UNL     1      46.755 -37.933  31.999  1.00  0.00    -0.393 OA
ATOM     31  H   UNL     1      47.005 -37.923  31.039  1.00  0.00     0.210 HD
ENDBRANCH  29  30
ENDBRANCH   9  11
ENDBRANCH   1   9
TORSDOF 7
ENDMDL
MODEL 4
REMARK VINA RESULT:    -2.759      1.162      2.001
REMARK INTER + INTRA:          -5.854
REMARK INTER:                  -5.312
REMARK INTRA:                  -0.542
REMARK UNBOUND:                -2.046
REMARK SMILES CC[C@H](CC[C@H](C)[C@H]1CC[C@H]2[C@@H]3CC=C4C[C@@H](O)CC[C@@]4(C)[C@@H]3CC[C@@]12C)C(C)C
REMARK SMILES IDX 5 1 4 2 3 3 2 4 1 5 28 6 29 7 30 8 6 9 7 10 8 11 9 12 26 13
REMARK SMILES IDX 10 14 11 15 25 16 27 17 12 18 24 19 23 20 13 21 21 22 14 23
REMARK SMILES IDX 15 24 20 25 22 26 16 27 19 28 17 29 18 30
REMARK H PARENT 18 31
REMARK Flexibility Score: inf
ROOT
ATOM      1  C   UNL     1      39.240 -43.704  30.427  1.00  0.00     0.004 C 
ENDROOT
BRANCH   1   2
ATOM      2  C   UNL     1      37.824 -44.055  30.935  1.00  0.00     0.004 C 
BRANCH   2   3
ATOM      3  C   UNL     1      37.045 -42.836  31.511  1.00  0.00    -0.009 C 
BRANCH   3   4
ATOM      4  C   UNL     1      36.877 -42.977  33.051  1.00  0.00     0.000 C 
ATOM      5  C   UNL     1      38.056 -43.686  33.726  1.00  0.00     0.004 C 
ENDBRANCH   3   4
BRANCH   3   6
ATOM      6  C   UNL     1      37.677 -41.458  31.105  1.00  0.00    -0.014 C 
ATOM      7  C   UNL     1      37.389 -40.327  32.109  1.00  0.00     0.007 C 
ATOM      8  C   UNL     1      37.278 -41.021  29.683  1.00  0.00     0.007 C 
ENDBRANCH   3   6
ENDBRANCH   2   3
ENDBRANCH   1   2
BRANCH   1   9
ATOM      9  C   UNL     1      40.230 -44.896  30.530  1.00  0.00    -0.011 C 
ATOM     10  C   UNL     1      39.640 -45.950  31.488  1.00  0.00     0.008 C 
BRANCH   9  11
ATOM     11  C   UNL     1      41.686 -44.400  30.893  1.00  0.00    -0.002 C 
ATOM     12  C   UNL     1      42.588 -44.012  29.715  1.00  0.00     0.005 C 
ATOM     13  C   UNL     1      41.817 -43.234  31.916  1.00  0.00    -0.026 C 
ATOM     14  C   UNL     1      43.684 -43.122  30.301  1.00  0.00     0.005 C 
ATOM     15  C   UNL     1      43.319 -42.858  31.775  1.00  0.00    -0.001 C 
ATOM     16  C   UNL     1      40.906 -42.035  31.536  1.00  0.00     0.007 C 
ATOM     17  C   UNL     1      41.474 -43.746  33.341  1.00  0.00     0.012 C 
ATOM     18  C   UNL     1      43.744 -41.429  32.240  1.00  0.00     0.000 C 
ATOM     19  C   UNL     1      41.305 -40.716  32.214  1.00  0.00     0.005 C 
ATOM     20  C   UNL     1      42.754 -40.313  31.826  1.00  0.00     0.003 C 
ATOM     21  C   UNL     1      44.003 -41.369  33.751  1.00  0.00     0.031 C 
ATOM     22  C   UNL     1      43.241 -38.864  32.307  1.00  0.00    -0.008 C 
ATOM     23  C   UNL     1      44.576 -40.041  34.123  1.00  0.00    -0.027 C 
ATOM     24  C   UNL     1      44.234 -38.902  33.489  1.00  0.00    -0.065 C 
ATOM     25  C   UNL     1      43.982 -38.196  31.104  1.00  0.00     0.014 C 
ATOM     26  C   UNL     1      42.042 -37.962  32.712  1.00  0.00     0.016 C 
ATOM     27  C   UNL     1      44.955 -37.621  33.870  1.00  0.00     0.063 C 
ATOM     28  C   UNL     1      44.704 -36.876  31.444  1.00  0.00     0.033 C 
ATOM     29  C   UNL     1      45.657 -37.004  32.648  1.00  0.00     0.118 C 
BRANCH  29  30
ATOM     30  O   UNL     1      46.820 -37.721  32.308  1.00  0.00    -0.393 OA
ATOM     31  H   UNL     1      47.450 -37.675  33.073  1.00  0.00     0.210 HD
ENDBRANCH  29  30
ENDBRANCH   9  11
ENDBRANCH   1   9
TORSDOF 7
ENDMDL
MODEL 5
REMARK VINA RESULT:    -2.670      6.187      9.467
REMARK INTER + INTRA:          -5.731
REMARK INTER:                  -5.162
REMARK INTRA:                  -0.568
REMARK UNBOUND:                -2.046
REMARK SMILES CC[C@H](CC[C@H](C)[C@H]1CC[C@H]2[C@@H]3CC=C4C[C@@H](O)CC[C@@]4(C)[C@@H]3CC[C@@]12C)C(C)C
REMARK SMILES IDX 5 1 4 2 3 3 2 4 1 5 28 6 29 7 30 8 6 9 7 10 8 11 9 12 26 13
REMARK SMILES IDX 10 14 11 15 25 16 27 17 12 18 24 19 23 20 13 21 21 22 14 23
REMARK SMILES IDX 15 24 20 25 22 26 16 27 19 28 17 29 18 30
REMARK H PARENT 18 31
REMARK Flexibility Score: inf
ROOT
ATOM      1  C   UNL     1      38.140 -41.893  23.706  1.00  0.00     0.004 C 
ENDROOT
BRANCH   1   2
ATOM      2  C   UNL     1      37.781 -41.380  22.293  1.00  0.00     0.004 C 
BRANCH   2   3
ATOM      3  C   UNL     1      38.562 -40.100  21.873  1.00  0.00    -0.009 C 
BRANCH   3   4
ATOM      4  C   UNL     1      39.451 -39.597  23.047  1.00  0.00     0.000 C 
ATOM      5  C   UNL     1      38.927 -38.311  23.694  1.00  0.00     0.004 C 
ENDBRANCH   3   4
BRANCH   3   6
ATOM      6  C   UNL     1      39.380 -40.290  20.547  1.00  0.00    -0.014 C 
ATOM      7  C   UNL     1      39.321 -39.072  19.607  1.00  0.00     0.007 C 
ATOM      8  C   UNL     1      38.981 -41.568  19.785  1.00  0.00     0.007 C 
ENDBRANCH   3   6
ENDBRANCH   2   3
ENDBRANCH   1   2
BRANCH   1   9
ATOM      9  C   UNL     1      38.177 -43.442  23.793  1.00  0.00    -0.011 C 
ATOM     10  C   UNL     1      37.755 -44.027  22.429  1.00  0.00     0.008 C 
BRANCH   9  11
ATOM     11  C   UNL     1      37.348 -43.965  25.032  1.00  0.00    -0.002 C 
ATOM     12  C   UNL     1      37.250 -45.487  25.194  1.00  0.00     0.005 C 
ATOM     13  C   UNL     1      37.736 -43.423  26.439  1.00  0.00    -0.026 C 
ATOM     14  C   UNL     1      36.876 -45.730  26.657  1.00  0.00     0.005 C 
ATOM     15  C   UNL     1      36.927 -44.367  27.375  1.00  0.00    -0.001 C 
ATOM     16  C   UNL     1      39.261 -43.554  26.702  1.00  0.00     0.007 C 
ATOM     17  C   UNL     1      37.287 -41.943  26.573  1.00  0.00     0.012 C 
ATOM     18  C   UNL     1      37.415 -44.497  28.851  1.00  0.00     0.000 C 
ATOM     19  C   UNL     1      39.641 -43.469  28.188  1.00  0.00     0.005 C 
ATOM     20  C   UNL     1      38.953 -44.599  29.000  1.00  0.00     0.003 C 
ATOM     21  C   UNL     1      36.875 -43.367  29.738  1.00  0.00     0.031 C 
ATOM     22  C   UNL     1      39.405 -44.751  30.530  1.00  0.00    -0.008 C 
ATOM     23  C   UNL     1      37.215 -43.627  31.169  1.00  0.00    -0.027 C 
ATOM     24  C   UNL     1      38.356 -44.240  31.542  1.00  0.00    -0.065 C 
ATOM     25  C   UNL     1      39.608 -46.275  30.808  1.00  0.00     0.014 C 
ATOM     26  C   UNL     1      40.744 -44.014  30.807  1.00  0.00     0.016 C 
ATOM     27  C   UNL     1      38.557 -44.555  33.013  1.00  0.00     0.063 C 
ATOM     28  C   UNL     1      39.844 -46.634  32.290  1.00  0.00     0.033 C 
ATOM     29  C   UNL     1      38.761 -46.064  33.227  1.00  0.00     0.118 C 
BRANCH  29  30
ATOM     30  O   UNL     1      37.550 -46.770  33.099  1.00  0.00    -0.393 OA
ATOM     31  H   UNL     1      36.869 -46.155  32.721  1.00  0.00     0.210 HD
ENDBRANCH  29  30
ENDBRANCH   9  11
ENDBRANCH   1   9
TORSDOF 7
ENDMDL
MODEL 6
REMARK VINA RESULT:    -2.303      3.010      8.448
REMARK INTER + INTRA:          -5.223
REMARK INTER:                  -4.680
REMARK INTRA:                  -0.544
REMARK UNBOUND:                -2.046
REMARK SMILES CC[C@H](CC[C@H](C)[C@H]1CC[C@H]2[C@@H]3CC=C4C[C@@H](O)CC[C@@]4(C)[C@@H]3CC[C@@]12C)C(C)C
REMARK SMILES IDX 5 1 4 2 3 3 2 4 1 5 28 6 29 7 30 8 6 9 7 10 8 11 9 12 26 13
REMARK SMILES IDX 10 14 11 15 25 16 27 17 12 18 24 19 23 20 13 21 21 22 14 23
REMARK SMILES IDX 15 24 20 25 22 26 16 27 19 28 17 29 18 30
REMARK H PARENT 18 31
REMARK Flexibility Score: inf
ROOT
ATOM      1  C   UNL     1      42.029 -37.701  31.743  1.00  0.00     0.004 C 
ENDROOT
BRANCH   1   2
ATOM      2  C   UNL     1      43.365 -37.405  32.459  1.00  0.00     0.004 C 
BRANCH   2   3
ATOM      3  C   UNL     1      44.492 -38.429  32.132  1.00  0.00    -0.009 C 
BRANCH   3   4
ATOM      4  C   UNL     1      43.922 -39.618  31.305  1.00  0.00     0.000 C 
ATOM      5  C   UNL     1      44.574 -40.961  31.649  1.00  0.00     0.004 C 
ENDBRANCH   3   4
BRANCH   3   6
ATOM      6  C   UNL     1      45.738 -37.768  31.443  1.00  0.00    -0.014 C 
ATOM      7  C   UNL     1      46.577 -36.895  32.395  1.00  0.00     0.007 C 
ATOM      8  C   UNL     1      45.362 -36.969  30.183  1.00  0.00     0.007 C 
ENDBRANCH   3   6
ENDBRANCH   2   3
ENDBRANCH   1   2
BRANCH   1   9
ATOM      9  C   UNL     1      40.797 -37.529  32.671  1.00  0.00    -0.011 C 
ATOM     10  C   UNL     1      41.225 -37.816  34.125  1.00  0.00     0.008 C 
BRANCH   9  11
ATOM     11  C   UNL     1      39.568 -38.377  32.155  1.00  0.00    -0.002 C 
ATOM     12  C   UNL     1      39.314 -38.360  30.642  1.00  0.00     0.005 C 
ATOM     13  C   UNL     1      39.502 -39.877  32.569  1.00  0.00    -0.026 C 
ATOM     14  C   UNL     1      38.459 -39.592  30.346  1.00  0.00     0.005 C 
ATOM     15  C   UNL     1      38.364 -40.407  31.651  1.00  0.00    -0.001 C 
ATOM     16  C   UNL     1      40.839 -40.610  32.275  1.00  0.00     0.007 C 
ATOM     17  C   UNL     1      39.140 -39.990  34.074  1.00  0.00     0.012 C 
ATOM     18  C   UNL     1      38.322 -41.944  31.382  1.00  0.00     0.000 C 
ATOM     19  C   UNL     1      40.709 -42.139  32.231  1.00  0.00     0.005 C 
ATOM     20  C   UNL     1      39.712 -42.577  31.124  1.00  0.00     0.003 C 
ATOM     21  C   UNL     1      37.599 -42.705  32.502  1.00  0.00     0.031 C 
ATOM     22  C   UNL     1      39.617 -44.150  30.834  1.00  0.00    -0.008 C 
ATOM     23  C   UNL     1      37.424 -44.138  32.122  1.00  0.00    -0.027 C 
ATOM     24  C   UNL     1      38.330 -44.806  31.380  1.00  0.00    -0.065 C 
ATOM     25  C   UNL     1      39.608 -44.340  29.283  1.00  0.00     0.014 C 
ATOM     26  C   UNL     1      40.836 -44.914  31.420  1.00  0.00     0.016 C 
ATOM     27  C   UNL     1      38.007 -46.228  30.957  1.00  0.00     0.063 C 
ATOM     28  C   UNL     1      39.311 -45.779  28.812  1.00  0.00     0.033 C 
ATOM     29  C   UNL     1      38.022 -46.359  29.424  1.00  0.00     0.118 C 
BRANCH  29  30
ATOM     30  O   UNL     1      36.875 -45.779  28.848  1.00  0.00    -0.393 OA
ATOM     31  H   UNL     1      36.843 -44.823  29.111  1.00  0.00     0.210 HD
ENDBRANCH  29  30
ENDBRANCH   9  11
ENDBRANCH   1   9
TORSDOF 7
ENDMDL
