MODEL 1
REMARK VINA RESULT:    -5.024      0.000      0.000
REMARK INTER + INTRA:          -7.950
REMARK INTER:                  -6.933
REMARK INTRA:                  -1.017
REMARK UNBOUND:                -1.017
REMARK SMILES CC[C@@H](CC[C@@H](C)[C@@H]1CC[C@@H]2[C@@H]3CC=C4C[C@H](O)CC[C@@]4(C)[C@H]3CC[C@]21C)C(C)C
REMARK SMILES IDX 5 1 4 2 3 3 2 4 1 5 28 6 29 7 30 8 6 9 7 10 8 11 9 12 26 13
REMARK SMILES IDX 10 14 11 15 25 16 27 17 12 18 24 19 23 20 13 21 21 22 14 23
REMARK SMILES IDX 15 24 20 25 22 26 16 27 19 28 17 29 18 30
REMARK H PARENT 18 31
REMARK Flexibility Score: inf
ROOT
ATOM      1  C   UNL     1      74.718  87.903  73.252  1.00  0.00     0.004 C 
ENDROOT
BRANCH   1   2
ATOM      2  C   UNL     1      75.516  89.225  73.201  1.00  0.00     0.004 C 
BRANCH   2   3
ATOM      3  C   UNL     1      74.850  90.359  74.043  1.00  0.00    -0.009 C 
BRANCH   3   4
ATOM      4  C   UNL     1      74.375  91.508  73.108  1.00  0.00     0.000 C 
ATOM      5  C   UNL     1      72.855  91.580  72.926  1.00  0.00     0.004 C 
ENDBRANCH   3   4
BRANCH   3   6
ATOM      6  C   UNL     1      75.765  90.857  75.215  1.00  0.00    -0.014 C 
ATOM      7  C   UNL     1      75.202  92.124  75.888  1.00  0.00     0.007 C 
ATOM      8  C   UNL     1      75.967  89.779  76.294  1.00  0.00     0.007 C 
ENDBRANCH   3   6
ENDBRANCH   2   3
ENDBRANCH   1   2
BRANCH   1   9
ATOM      9  C   UNL     1      75.621  86.663  73.519  1.00  0.00    -0.011 C 
ATOM     10  C   UNL     1      77.005  87.138  74.012  1.00  0.00     0.008 C 
BRANCH   9  11
ATOM     11  C   UNL     1      74.871  85.651  74.453  1.00  0.00    -0.002 C 
ATOM     12  C   UNL     1      74.795  86.018  75.954  1.00  0.00     0.005 C 
ATOM     13  C   UNL     1      75.217  84.128  74.438  1.00  0.00    -0.026 C 
ATOM     14  C   UNL     1      74.522  84.694  76.704  1.00  0.00     0.005 C 
ATOM     15  C   UNL     1      74.296  83.671  75.590  1.00  0.00    -0.001 C 
ATOM     16  C   UNL     1      74.804  83.386  73.123  1.00  0.00     0.007 C 
ATOM     17  C   UNL     1      76.725  83.884  74.773  1.00  0.00     0.012 C 
ATOM     18  C   UNL     1      74.265  82.143  75.896  1.00  0.00     0.000 C 
ATOM     19  C   UNL     1      74.189  81.971  73.352  1.00  0.00     0.005 C 
ATOM     20  C   UNL     1      74.690  81.302  74.661  1.00  0.00     0.003 C 
ATOM     21  C   UNL     1      75.059  81.665  77.116  1.00  0.00     0.031 C 
ATOM     22  C   UNL     1      74.319  79.781  74.847  1.00  0.00    -0.008 C 
ATOM     23  C   UNL     1      74.841  80.188  77.319  1.00  0.00    -0.027 C 
ATOM     24  C   UNL     1      74.510  79.335  76.314  1.00  0.00    -0.065 C 
ATOM     25  C   UNL     1      72.834  79.501  74.454  1.00  0.00     0.014 C 
ATOM     26  C   UNL     1      75.268  78.939  73.946  1.00  0.00     0.016 C 
ATOM     27  C   UNL     1      74.077  77.928  76.677  1.00  0.00     0.063 C 
ATOM     28  C   UNL     1      72.366  78.074  74.800  1.00  0.00     0.033 C 
ATOM     29  C   UNL     1      72.602  77.737  76.286  1.00  0.00     0.118 C 
BRANCH  29  30
ATOM     30  O   UNL     1      72.179  76.426  76.570  1.00  0.00    -0.393 OA
ATOM     31  H   UNL     1      71.185  76.410  76.508  1.00  0.00     0.210 HD
ENDBRANCH  29  30
ENDBRANCH   9  11
ENDBRANCH   1   9
TORSDOF 7
ENDMDL
MODEL 2
REMARK VINA RESULT:    -4.622      6.394      9.932
REMARK INTER + INTRA:          -7.395
REMARK INTER:                  -5.033
REMARK INTRA:                  -2.362
REMARK UNBOUND:                -1.017
REMARK SMILES CC[C@@H](CC[C@@H](C)[C@@H]1CC[C@@H]2[C@@H]3CC=C4C[C@H](O)CC[C@@]4(C)[C@H]3CC[C@]21C)C(C)C
REMARK SMILES IDX 5 1 4 2 3 3 2 4 1 5 28 6 29 7 30 8 6 9 7 10 8 11 9 12 26 13
REMARK SMILES IDX 10 14 11 15 25 16 27 17 12 18 24 19 23 20 13 21 21 22 14 23
REMARK SMILES IDX 15 24 20 25 22 26 16 27 19 28 17 29 18 30
REMARK H PARENT 18 31
REMARK Flexibility Score: inf
ROOT
ATOM      1  C   UNL     1      75.378  88.092  79.747  1.00  0.00     0.004 C 
ENDROOT
BRANCH   1   2
ATOM      2  C   UNL     1      76.277  89.268  80.189  1.00  0.00     0.004 C 
BRANCH   2   3
ATOM      3  C   UNL     1      75.518  90.633  80.192  1.00  0.00    -0.009 C 
BRANCH   3   4
ATOM      4  C   UNL     1      73.999  90.399  79.949  1.00  0.00     0.000 C 
ATOM      5  C   UNL     1      73.089  91.420  80.641  1.00  0.00     0.004 C 
ENDBRANCH   3   4
BRANCH   3   6
ATOM      6  C   UNL     1      76.146  91.675  79.201  1.00  0.00    -0.014 C 
ATOM      7  C   UNL     1      77.660  91.452  79.013  1.00  0.00     0.007 C 
ATOM      8  C   UNL     1      75.471  91.643  77.819  1.00  0.00     0.007 C 
ENDBRANCH   3   6
ENDBRANCH   2   3
ENDBRANCH   1   2
BRANCH   1   9
ATOM      9  C   UNL     1      76.030  87.221  78.633  1.00  0.00    -0.011 C 
ATOM     10  C   UNL     1      74.993  86.203  78.111  1.00  0.00     0.008 C 
BRANCH   9  11
ATOM     11  C   UNL     1      76.687  88.146  77.550  1.00  0.00    -0.002 C 
ATOM     12  C   UNL     1      75.886  88.362  76.244  1.00  0.00     0.005 C 
ATOM     13  C   UNL     1      78.157  87.920  77.076  1.00  0.00    -0.026 C 
ATOM     14  C   UNL     1      76.914  88.819  75.183  1.00  0.00     0.005 C 
ATOM     15  C   UNL     1      78.212  88.996  75.971  1.00  0.00    -0.001 C 
ATOM     16  C   UNL     1      79.240  88.238  78.161  1.00  0.00     0.007 C 
ATOM     17  C   UNL     1      78.351  86.482  76.493  1.00  0.00     0.012 C 
ATOM     18  C   UNL     1      79.577  89.179  75.240  1.00  0.00     0.000 C 
ATOM     19  C   UNL     1      80.497  88.982  77.612  1.00  0.00     0.005 C 
ATOM     20  C   UNL     1      80.765  88.684  76.111  1.00  0.00     0.003 C 
ATOM     21  C   UNL     1      79.701  88.567  73.842  1.00  0.00     0.031 C 
ATOM     22  C   UNL     1      82.144  89.190  75.541  1.00  0.00    -0.008 C 
ATOM     23  C   UNL     1      81.040  88.919  73.249  1.00  0.00    -0.027 C 
ATOM     24  C   UNL     1      82.140  89.200  73.995  1.00  0.00    -0.065 C 
ATOM     25  C   UNL     1      82.469  90.639  76.025  1.00  0.00     0.014 C 
ATOM     26  C   UNL     1      83.255  88.214  76.027  1.00  0.00     0.016 C 
ATOM     27  C   UNL     1      83.356  89.777  73.299  1.00  0.00     0.063 C 
ATOM     28  C   UNL     1      83.708  91.251  75.343  1.00  0.00     0.033 C 
ATOM     29  C   UNL     1      83.595  91.210  73.805  1.00  0.00     0.118 C 
BRANCH  29  30
ATOM     30  O   UNL     1      84.744  91.761  73.210  1.00  0.00    -0.393 OA
ATOM     31  H   UNL     1      85.192  91.037  72.692  1.00  0.00     0.210 HD
ENDBRANCH  29  30
ENDBRANCH   9  11
ENDBRANCH   1   9
TORSDOF 7
ENDMDL
MODEL 3
REMARK VINA RESULT:    -4.482     10.563     12.855
REMARK INTER + INTRA:          -7.202
REMARK INTER:                  -5.472
REMARK INTRA:                  -1.730
REMARK UNBOUND:                -1.017
REMARK SMILES CC[C@@H](CC[C@@H](C)[C@@H]1CC[C@@H]2[C@@H]3CC=C4C[C@H](O)CC[C@@]4(C)[C@H]3CC[C@]21C)C(C)C
REMARK SMILES IDX 5 1 4 2 3 3 2 4 1 5 28 6 29 7 30 8 6 9 7 10 8 11 9 12 26 13
REMARK SMILES IDX 10 14 11 15 25 16 27 17 12 18 24 19 23 20 13 21 21 22 14 23
REMARK SMILES IDX 15 24 20 25 22 26 16 27 19 28 17 29 18 30
REMARK H PARENT 18 31
REMARK Flexibility Score: inf
ROOT
ATOM      1  C   UNL     1      81.228  74.715  74.999  1.00  0.00     0.004 C 
ENDROOT
BRANCH   1   2
ATOM      2  C   UNL     1      81.971  73.421  75.400  1.00  0.00     0.004 C 
BRANCH   2   3
ATOM      3  C   UNL     1      82.604  73.511  76.824  1.00  0.00    -0.009 C 
BRANCH   3   4
ATOM      4  C   UNL     1      82.747  72.087  77.435  1.00  0.00     0.000 C 
ATOM      5  C   UNL     1      84.035  71.875  78.238  1.00  0.00     0.004 C 
ENDBRANCH   3   4
BRANCH   3   6
ATOM      6  C   UNL     1      81.841  74.509  77.762  1.00  0.00    -0.014 C 
ATOM      7  C   UNL     1      81.113  73.781  78.909  1.00  0.00     0.007 C 
ATOM      8  C   UNL     1      82.777  75.568  78.371  1.00  0.00     0.007 C 
ENDBRANCH   3   6
ENDBRANCH   2   3
ENDBRANCH   1   2
BRANCH   1   9
ATOM      9  C   UNL     1      79.851  74.436  74.329  1.00  0.00    -0.011 C 
ATOM     10  C   UNL     1      80.080  73.882  72.906  1.00  0.00     0.008 C 
BRANCH   9  11
ATOM     11  C   UNL     1      78.969  73.550  75.276  1.00  0.00    -0.002 C 
ATOM     12  C   UNL     1      78.327  72.290  74.648  1.00  0.00     0.005 C 
ATOM     13  C   UNL     1      77.833  74.176  76.145  1.00  0.00    -0.026 C 
ATOM     14  C   UNL     1      77.138  71.915  75.561  1.00  0.00     0.005 C 
ATOM     15  C   UNL     1      77.257  72.877  76.745  1.00  0.00    -0.001 C 
ATOM     16  C   UNL     1      78.342  75.098  77.304  1.00  0.00     0.007 C 
ATOM     17  C   UNL     1      76.781  74.919  75.257  1.00  0.00     0.012 C 
ATOM     18  C   UNL     1      76.094  73.035  77.772  1.00  0.00     0.000 C 
ATOM     19  C   UNL     1      77.567  74.925  78.647  1.00  0.00     0.005 C 
ATOM     20  C   UNL     1      76.107  74.437  78.440  1.00  0.00     0.003 C 
ATOM     21  C   UNL     1      74.679  72.742  77.265  1.00  0.00     0.031 C 
ATOM     22  C   UNL     1      75.178  74.473  79.714  1.00  0.00    -0.008 C 
ATOM     23  C   UNL     1      73.698  72.849  78.404  1.00  0.00    -0.027 C 
ATOM     24  C   UNL     1      73.908  73.618  79.504  1.00  0.00    -0.065 C 
ATOM     25  C   UNL     1      75.916  73.928  80.978  1.00  0.00     0.014 C 
ATOM     26  C   UNL     1      74.747  75.950  79.954  1.00  0.00     0.016 C 
ATOM     27  C   UNL     1      72.974  73.456  80.686  1.00  0.00     0.063 C 
ATOM     28  C   UNL     1      74.995  73.762  82.202  1.00  0.00     0.033 C 
ATOM     29  C   UNL     1      73.763  72.892  81.880  1.00  0.00     0.118 C 
BRANCH  29  30
ATOM     30  O   UNL     1      72.935  72.769  83.009  1.00  0.00    -0.393 OA
ATOM     31  H   UNL     1      72.254  73.496  82.964  1.00  0.00     0.210 HD
ENDBRANCH  29  30
ENDBRANCH   9  11
ENDBRANCH   1   9
TORSDOF 7
ENDMDL
MODEL 4
REMARK VINA RESULT:    -4.431      6.646     11.769
REMARK INTER + INTRA:          -7.131
REMARK INTER:                  -4.838
REMARK INTRA:                  -2.293
REMARK UNBOUND:                -1.017
REMARK SMILES CC[C@@H](CC[C@@H](C)[C@@H]1CC[C@@H]2[C@@H]3CC=C4C[C@H](O)CC[C@@]4(C)[C@H]3CC[C@]21C)C(C)C
REMARK SMILES IDX 5 1 4 2 3 3 2 4 1 5 28 6 29 7 30 8 6 9 7 10 8 11 9 12 26 13
REMARK SMILES IDX 10 14 11 15 25 16 27 17 12 18 24 19 23 20 13 21 21 22 14 23
REMARK SMILES IDX 15 24 20 25 22 26 16 27 19 28 17 29 18 30
REMARK H PARENT 18 31
REMARK Flexibility Score: inf
ROOT
ATOM      1  C   UNL     1      76.393  74.792  82.754  1.00  0.00     0.004 C 
ENDROOT
BRANCH   1   2
ATOM      2  C   UNL     1      75.161  73.879  82.563  1.00  0.00     0.004 C 
BRANCH   2   3
ATOM      3  C   UNL     1      73.941  74.640  81.955  1.00  0.00    -0.009 C 
BRANCH   3   4
ATOM      4  C   UNL     1      73.114  75.314  83.088  1.00  0.00     0.000 C 
ATOM      5  C   UNL     1      72.198  74.352  83.852  1.00  0.00     0.004 C 
ENDBRANCH   3   4
BRANCH   3   6
ATOM      6  C   UNL     1      73.073  73.734  81.014  1.00  0.00    -0.014 C 
ATOM      7  C   UNL     1      72.613  74.487  79.751  1.00  0.00     0.007 C 
ATOM      8  C   UNL     1      73.820  72.461  80.581  1.00  0.00     0.007 C 
ENDBRANCH   3   6
ENDBRANCH   2   3
ENDBRANCH   1   2
BRANCH   1   9
ATOM      9  C   UNL     1      77.453  74.618  81.627  1.00  0.00    -0.011 C 
ATOM     10  C   UNL     1      78.377  73.431  81.976  1.00  0.00     0.008 C 
BRANCH   9  11
ATOM     11  C   UNL     1      76.739  74.543  80.233  1.00  0.00    -0.002 C 
ATOM     12  C   UNL     1      77.251  73.466  79.247  1.00  0.00     0.005 C 
ATOM     13  C   UNL     1      76.545  75.819  79.353  1.00  0.00    -0.026 C 
ATOM     14  C   UNL     1      76.805  73.926  77.841  1.00  0.00     0.005 C 
ATOM     15  C   UNL     1      75.927  75.150  78.108  1.00  0.00    -0.001 C 
ATOM     16  C   UNL     1      75.530  76.857  79.939  1.00  0.00     0.007 C 
ATOM     17  C   UNL     1      77.916  76.496  79.025  1.00  0.00     0.012 C 
ATOM     18  C   UNL     1      75.493  76.096  76.947  1.00  0.00     0.000 C 
ATOM     19  C   UNL     1      74.588  77.501  78.875  1.00  0.00     0.005 C 
ATOM     20  C   UNL     1      75.219  77.538  77.456  1.00  0.00     0.003 C 
ATOM     21  C   UNL     1      76.420  76.169  75.731  1.00  0.00     0.031 C 
ATOM     22  C   UNL     1      74.447  78.390  76.377  1.00  0.00    -0.008 C 
ATOM     23  C   UNL     1      75.805  77.049  74.674  1.00  0.00    -0.027 C 
ATOM     24  C   UNL     1      74.922  78.044  74.948  1.00  0.00    -0.065 C 
ATOM     25  C   UNL     1      72.907  78.137  76.442  1.00  0.00     0.014 C 
ATOM     26  C   UNL     1      74.743  79.894  76.648  1.00  0.00     0.016 C 
ATOM     27  C   UNL     1      74.187  78.694  73.793  1.00  0.00     0.063 C 
ATOM     28  C   UNL     1      72.129  78.795  75.286  1.00  0.00     0.033 C 
ATOM     29  C   UNL     1      72.685  78.380  73.909  1.00  0.00     0.118 C 
BRANCH  29  30
ATOM     30  O   UNL     1      71.966  79.005  72.875  1.00  0.00    -0.393 OA
ATOM     31  H   UNL     1      72.408  78.767  72.014  1.00  0.00     0.210 HD
ENDBRANCH  29  30
ENDBRANCH   9  11
ENDBRANCH   1   9
TORSDOF 7
ENDMDL
MODEL 5
REMARK VINA RESULT:    -4.337     15.769     17.954
REMARK INTER + INTRA:          -7.002
REMARK INTER:                  -5.116
REMARK INTRA:                  -1.886
REMARK UNBOUND:                -1.017
REMARK SMILES CC[C@@H](CC[C@@H](C)[C@@H]1CC[C@@H]2[C@@H]3CC=C4C[C@H](O)CC[C@@]4(C)[C@H]3CC[C@]21C)C(C)C
REMARK SMILES IDX 5 1 4 2 3 3 2 4 1 5 28 6 29 7 30 8 6 9 7 10 8 11 9 12 26 13
REMARK SMILES IDX 10 14 11 15 25 16 27 17 12 18 24 19 23 20 13 21 21 22 14 23
REMARK SMILES IDX 15 24 20 25 22 26 16 27 19 28 17 29 18 30
REMARK H PARENT 18 31
REMARK Flexibility Score: inf
ROOT
ATOM      1  C   UNL     1      74.842  89.002  93.113  1.00  0.00     0.004 C 
ENDROOT
BRANCH   1   2
ATOM      2  C   UNL     1      73.587  88.742  92.250  1.00  0.00     0.004 C 
BRANCH   2   3
ATOM      3  C   UNL     1      73.706  87.439  91.397  1.00  0.00    -0.009 C 
BRANCH   3   4
ATOM      4  C   UNL     1      73.489  87.766  89.891  1.00  0.00     0.000 C 
ATOM      5  C   UNL     1      74.782  87.842  89.073  1.00  0.00     0.004 C 
ENDBRANCH   3   4
BRANCH   3   6
ATOM      6  C   UNL     1      72.776  86.289  91.918  1.00  0.00    -0.014 C 
ATOM      7  C   UNL     1      73.578  85.034  92.314  1.00  0.00     0.007 C 
ATOM      8  C   UNL     1      71.928  86.729  93.124  1.00  0.00     0.007 C 
ENDBRANCH   3   6
ENDBRANCH   2   3
ENDBRANCH   1   2
BRANCH   1   9
ATOM      9  C   UNL     1      76.058  89.493  92.275  1.00  0.00    -0.011 C 
ATOM     10  C   UNL     1      76.161  91.030  92.380  1.00  0.00     0.008 C 
BRANCH   9  11
ATOM     11  C   UNL     1      77.343  88.692  92.684  1.00  0.00    -0.002 C 
ATOM     12  C   UNL     1      78.572  89.527  93.120  1.00  0.00     0.005 C 
ATOM     13  C   UNL     1      77.933  87.581  91.759  1.00  0.00    -0.026 C 
ATOM     14  C   UNL     1      79.799  88.603  92.946  1.00  0.00     0.005 C 
ATOM     15  C   UNL     1      79.198  87.246  92.576  1.00  0.00    -0.001 C 
ATOM     16  C   UNL     1      77.041  86.300  91.641  1.00  0.00     0.007 C 
ATOM     17  C   UNL     1      78.291  88.149  90.346  1.00  0.00     0.012 C 
ATOM     18  C   UNL     1      80.095  86.091  92.036  1.00  0.00     0.000 C 
ATOM     19  C   UNL     1      77.838  84.960  91.663  1.00  0.00     0.005 C 
ATOM     20  C   UNL     1      79.290  85.115  91.134  1.00  0.00     0.003 C 
ATOM     21  C   UNL     1      81.379  86.494  91.306  1.00  0.00     0.031 C 
ATOM     22  C   UNL     1      80.084  83.776  90.887  1.00  0.00    -0.008 C 
ATOM     23  C   UNL     1      82.166  85.263  90.940  1.00  0.00    -0.027 C 
ATOM     24  C   UNL     1      81.600  84.042  90.750  1.00  0.00    -0.065 C 
ATOM     25  C   UNL     1      79.882  82.765  92.059  1.00  0.00     0.014 C 
ATOM     26  C   UNL     1      79.570  83.148  89.558  1.00  0.00     0.016 C 
ATOM     27  C   UNL     1      82.511  82.837  90.630  1.00  0.00     0.063 C 
ATOM     28  C   UNL     1      80.787  81.521  91.960  1.00  0.00     0.033 C 
ATOM     29  C   UNL     1      82.275  81.904  91.830  1.00  0.00     0.118 C 
BRANCH  29  30
ATOM     30  O   UNL     1      83.075  80.752  91.728  1.00  0.00    -0.393 OA
ATOM     31  H   UNL     1      83.752  80.789  92.459  1.00  0.00     0.210 HD
ENDBRANCH  29  30
ENDBRANCH   9  11
ENDBRANCH   1   9
TORSDOF 7
ENDMDL
MODEL 6
REMARK VINA RESULT:    -4.299     12.388     15.525
REMARK INTER + INTRA:          -6.949
REMARK INTER:                  -5.213
REMARK INTRA:                  -1.737
REMARK UNBOUND:                -1.017
REMARK SMILES CC[C@@H](CC[C@@H](C)[C@@H]1CC[C@@H]2[C@@H]3CC=C4C[C@H](O)CC[C@@]4(C)[C@H]3CC[C@]21C)C(C)C
REMARK SMILES IDX 5 1 4 2 3 3 2 4 1 5 28 6 29 7 30 8 6 9 7 10 8 11 9 12 26 13
REMARK SMILES IDX 10 14 11 15 25 16 27 17 12 18 24 19 23 20 13 21 21 22 14 23
REMARK SMILES IDX 15 24 20 25 22 26 16 27 19 28 17 29 18 30
REMARK H PARENT 18 31
REMARK Flexibility Score: inf
ROOT
ATOM      1  C   UNL     1      84.533  87.047  74.832  1.00  0.00     0.004 C 
ENDROOT
BRANCH   1   2
ATOM      2  C   UNL     1      85.375  88.253  74.357  1.00  0.00     0.004 C 
BRANCH   2   3
ATOM      3  C   UNL     1      84.624  89.611  74.528  1.00  0.00    -0.009 C 
BRANCH   3   4
ATOM      4  C   UNL     1      83.867  89.635  75.888  1.00  0.00     0.000 C 
ATOM      5  C   UNL     1      84.053  90.929  76.686  1.00  0.00     0.004 C 
ENDBRANCH   3   4
BRANCH   3   6
ATOM      6  C   UNL     1      83.702  89.950  73.305  1.00  0.00    -0.014 C 
ATOM      7  C   UNL     1      82.220  89.647  73.598  1.00  0.00     0.007 C 
ATOM      8  C   UNL     1      83.825  91.423  72.875  1.00  0.00     0.007 C 
ENDBRANCH   3   6
ENDBRANCH   2   3
ENDBRANCH   1   2
BRANCH   1   9
ATOM      9  C   UNL     1      85.326  86.091  75.771  1.00  0.00    -0.011 C 
ATOM     10  C   UNL     1      85.411  84.694  75.120  1.00  0.00     0.008 C 
BRANCH   9  11
ATOM     11  C   UNL     1      86.694  86.748  76.165  1.00  0.00    -0.002 C 
ATOM     12  C   UNL     1      87.974  86.047  75.651  1.00  0.00     0.005 C 
ATOM     13  C   UNL     1      87.018  87.117  77.648  1.00  0.00    -0.026 C 
ATOM     14  C   UNL     1      89.122  86.523  76.571  1.00  0.00     0.005 C 
ATOM     15  C   UNL     1      88.475  87.589  77.456  1.00  0.00    -0.001 C 
ATOM     16  C   UNL     1      86.164  88.297  78.220  1.00  0.00     0.007 C 
ATOM     17  C   UNL     1      86.936  85.861  78.576  1.00  0.00     0.012 C 
ATOM     18  C   UNL     1      89.205  88.135  78.721  1.00  0.00     0.000 C 
ATOM     19  C   UNL     1      86.967  89.300  79.104  1.00  0.00     0.005 C 
ATOM     20  C   UNL     1      88.199  88.646  79.788  1.00  0.00     0.003 C 
ATOM     21  C   UNL     1      90.211  87.199  79.397  1.00  0.00     0.031 C 
ATOM     22  C   UNL     1      88.921  89.513  80.889  1.00  0.00    -0.008 C 
ATOM     23  C   UNL     1      90.889  87.917  80.535  1.00  0.00    -0.027 C 
ATOM     24  C   UNL     1      90.324  88.952  81.211  1.00  0.00    -0.065 C 
ATOM     25  C   UNL     1      89.094  90.995  80.429  1.00  0.00     0.014 C 
ATOM     26  C   UNL     1      88.059  89.464  82.184  1.00  0.00     0.016 C 
ATOM     27  C   UNL     1      91.192  89.749  82.163  1.00  0.00     0.063 C 
ATOM     28  C   UNL     1      89.963  91.837  81.383  1.00  0.00     0.033 C 
ATOM     29  C   UNL     1      91.339  91.185  81.632  1.00  0.00     0.118 C 
BRANCH  29  30
ATOM     30  O   UNL     1      92.104  91.966  82.516  1.00  0.00    -0.393 OA
ATOM     31  H   UNL     1      91.986  92.921  82.254  1.00  0.00     0.210 HD
ENDBRANCH  29  30
ENDBRANCH   9  11
ENDBRANCH   1   9
TORSDOF 7
ENDMDL
MODEL 7
REMARK VINA RESULT:    -4.278     15.956     18.166
REMARK INTER + INTRA:          -6.921
REMARK INTER:                  -4.720
REMARK INTRA:                  -2.200
REMARK UNBOUND:                -1.017
REMARK SMILES CC[C@@H](CC[C@@H](C)[C@@H]1CC[C@@H]2[C@@H]3CC=C4C[C@H](O)CC[C@@]4(C)[C@H]3CC[C@]21C)C(C)C
REMARK SMILES IDX 5 1 4 2 3 3 2 4 1 5 28 6 29 7 30 8 6 9 7 10 8 11 9 12 26 13
REMARK SMILES IDX 10 14 11 15 25 16 27 17 12 18 24 19 23 20 13 21 21 22 14 23
REMARK SMILES IDX 15 24 20 25 22 26 16 27 19 28 17 29 18 30
REMARK H PARENT 18 31
REMARK Flexibility Score: inf
ROOT
ATOM      1  C   UNL     1      87.563  87.937  79.204  1.00  0.00     0.004 C 
ENDROOT
BRANCH   1   2
ATOM      2  C   UNL     1      87.539  89.446  78.871  1.00  0.00     0.004 C 
BRANCH   2   3
ATOM      3  C   UNL     1      87.206  90.329  80.115  1.00  0.00    -0.009 C 
BRANCH   3   4
ATOM      4  C   UNL     1      85.842  91.048  79.908  1.00  0.00     0.000 C 
ATOM      5  C   UNL     1      85.656  91.650  78.512  1.00  0.00     0.004 C 
ENDBRANCH   3   4
BRANCH   3   6
ATOM      6  C   UNL     1      88.370  91.312  80.486  1.00  0.00    -0.014 C 
ATOM      7  C   UNL     1      88.971  90.999  81.870  1.00  0.00     0.007 C 
ATOM      8  C   UNL     1      89.503  91.292  79.445  1.00  0.00     0.007 C 
ENDBRANCH   3   6
ENDBRANCH   2   3
ENDBRANCH   1   2
BRANCH   1   9
ATOM      9  C   UNL     1      88.995  87.329  79.144  1.00  0.00    -0.011 C 
ATOM     10  C   UNL     1      89.621  87.636  77.767  1.00  0.00     0.008 C 
BRANCH   9  11
ATOM     11  C   UNL     1      89.823  87.795  80.392  1.00  0.00    -0.002 C 
ATOM     12  C   UNL     1      91.354  87.913  80.203  1.00  0.00     0.005 C 
ATOM     13  C   UNL     1      89.651  87.102  81.781  1.00  0.00    -0.026 C 
ATOM     14  C   UNL     1      91.966  87.848  81.622  1.00  0.00     0.005 C 
ATOM     15  C   UNL     1      90.753  87.858  82.554  1.00  0.00    -0.001 C 
ATOM     16  C   UNL     1      88.268  87.366  82.466  1.00  0.00     0.007 C 
ATOM     17  C   UNL     1      89.954  85.570  81.694  1.00  0.00     0.012 C 
ATOM     18  C   UNL     1      90.901  87.522  84.069  1.00  0.00     0.000 C 
ATOM     19  C   UNL     1      88.353  87.625  84.002  1.00  0.00     0.005 C 
ATOM     20  C   UNL     1      89.585  86.946  84.660  1.00  0.00     0.003 C 
ATOM     21  C   UNL     1      92.063  86.605  84.464  1.00  0.00     0.031 C 
ATOM     22  C   UNL     1      89.616  86.945  86.236  1.00  0.00    -0.008 C 
ATOM     23  C   UNL     1      92.115  86.465  85.963  1.00  0.00    -0.027 C 
ATOM     24  C   UNL     1      91.029  86.614  86.767  1.00  0.00    -0.065 C 
ATOM     25  C   UNL     1      89.201  88.333  86.818  1.00  0.00     0.014 C 
ATOM     26  C   UNL     1      88.630  85.850  86.737  1.00  0.00     0.016 C 
ATOM     27  C   UNL     1      91.247  86.695  88.264  1.00  0.00     0.063 C 
ATOM     28  C   UNL     1      89.400  88.444  88.342  1.00  0.00     0.033 C 
ATOM     29  C   UNL     1      90.843  88.095  88.759  1.00  0.00     0.118 C 
BRANCH  29  30
ATOM     30  O   UNL     1      90.993  88.190  90.154  1.00  0.00    -0.393 OA
ATOM     31  H   UNL     1      90.341  87.562  90.571  1.00  0.00     0.210 HD
ENDBRANCH  29  30
ENDBRANCH   9  11
ENDBRANCH   1   9
TORSDOF 7
ENDMDL
MODEL 8
REMARK VINA RESULT:    -4.258     14.490     17.417
REMARK INTER + INTRA:          -6.893
REMARK INTER:                  -4.618
REMARK INTRA:                  -2.276
REMARK UNBOUND:                -1.017
REMARK SMILES CC[C@@H](CC[C@@H](C)[C@@H]1CC[C@@H]2[C@@H]3CC=C4C[C@H](O)CC[C@@]4(C)[C@H]3CC[C@]21C)C(C)C
REMARK SMILES IDX 5 1 4 2 3 3 2 4 1 5 28 6 29 7 30 8 6 9 7 10 8 11 9 12 26 13
REMARK SMILES IDX 10 14 11 15 25 16 27 17 12 18 24 19 23 20 13 21 21 22 14 23
REMARK SMILES IDX 15 24 20 25 22 26 16 27 19 28 17 29 18 30
REMARK H PARENT 18 31
REMARK Flexibility Score: inf
ROOT
ATOM      1  C   UNL     1      85.805  75.278  74.198  1.00  0.00     0.004 C 
ENDROOT
BRANCH   1   2
ATOM      2  C   UNL     1      84.757  75.917  75.137  1.00  0.00     0.004 C 
BRANCH   2   3
ATOM      3  C   UNL     1      84.473  75.043  76.400  1.00  0.00    -0.009 C 
BRANCH   3   4
ATOM      4  C   UNL     1      83.286  74.075  76.122  1.00  0.00     0.000 C 
ATOM      5  C   UNL     1      81.905  74.730  76.233  1.00  0.00     0.004 C 
ENDBRANCH   3   4
BRANCH   3   6
ATOM      6  C   UNL     1      84.276  75.902  77.697  1.00  0.00    -0.014 C 
ATOM      7  C   UNL     1      85.107  75.363  78.877  1.00  0.00     0.007 C 
ATOM      8  C   UNL     1      84.642  77.381  77.476  1.00  0.00     0.007 C 
ENDBRANCH   3   6
ENDBRANCH   2   3
ENDBRANCH   1   2
BRANCH   1   9
ATOM      9  C   UNL     1      87.099  76.133  74.068  1.00  0.00    -0.011 C 
ATOM     10  C   UNL     1      86.875  77.238  73.013  1.00  0.00     0.008 C 
BRANCH   9  11
ATOM     11  C   UNL     1      87.557  76.623  75.486  1.00  0.00    -0.002 C 
ATOM     12  C   UNL     1      88.039  78.090  75.591  1.00  0.00     0.005 C 
ATOM     13  C   UNL     1      88.590  75.809  76.328  1.00  0.00    -0.026 C 
ATOM     14  C   UNL     1      88.905  78.164  76.869  1.00  0.00     0.005 C 
ATOM     15  C   UNL     1      88.743  76.786  77.513  1.00  0.00    -0.001 C 
ATOM     16  C   UNL     1      88.052  74.438  76.857  1.00  0.00     0.007 C 
ATOM     17  C   UNL     1      89.936  75.625  75.554  1.00  0.00     0.012 C 
ATOM     18  C   UNL     1      89.670  76.330  78.680  1.00  0.00     0.000 C 
ATOM     19  C   UNL     1      88.474  74.106  78.322  1.00  0.00     0.005 C 
ATOM     20  C   UNL     1      89.810  74.784  78.732  1.00  0.00     0.003 C 
ATOM     21  C   UNL     1      91.068  76.955  78.739  1.00  0.00     0.031 C 
ATOM     22  C   UNL     1      90.437  74.310  80.098  1.00  0.00    -0.008 C 
ATOM     23  C   UNL     1      91.787  76.479  79.974  1.00  0.00    -0.027 C 
ATOM     24  C   UNL     1      91.516  75.300  80.592  1.00  0.00    -0.065 C 
ATOM     25  C   UNL     1      89.352  74.190  81.216  1.00  0.00     0.014 C 
ATOM     26  C   UNL     1      91.106  72.923  79.866  1.00  0.00     0.016 C 
ATOM     27  C   UNL     1      92.125  75.043  81.955  1.00  0.00     0.063 C 
ATOM     28  C   UNL     1      89.940  73.918  82.614  1.00  0.00     0.033 C 
ATOM     29  C   UNL     1      91.003  74.966  83.004  1.00  0.00     0.118 C 
BRANCH  29  30
ATOM     30  O   UNL     1      91.531  74.685  84.277  1.00  0.00    -0.393 OA
ATOM     31  H   UNL     1      90.914  75.079  84.952  1.00  0.00     0.210 HD
ENDBRANCH  29  30
ENDBRANCH   9  11
ENDBRANCH   1   9
TORSDOF 7
ENDMDL
MODEL 9
REMARK VINA RESULT:    -4.176     18.461     20.988
REMARK INTER + INTRA:          -6.780
REMARK INTER:                  -4.491
REMARK INTRA:                  -2.289
REMARK UNBOUND:                -1.017
REMARK SMILES CC[C@@H](CC[C@@H](C)[C@@H]1CC[C@@H]2[C@@H]3CC=C4C[C@H](O)CC[C@@]4(C)[C@H]3CC[C@]21C)C(C)C
REMARK SMILES IDX 5 1 4 2 3 3 2 4 1 5 28 6 29 7 30 8 6 9 7 10 8 11 9 12 26 13
REMARK SMILES IDX 10 14 11 15 25 16 27 17 12 18 24 19 23 20 13 21 21 22 14 23
REMARK SMILES IDX 15 24 20 25 22 26 16 27 19 28 17 29 18 30
REMARK H PARENT 18 31
REMARK Flexibility Score: inf
ROOT
ATOM      1  C   UNL     1      87.973  85.083  91.106  1.00  0.00     0.004 C 
ENDROOT
BRANCH   1   2
ATOM      2  C   UNL     1      88.835  84.543  92.270  1.00  0.00     0.004 C 
BRANCH   2   3
ATOM      3  C   UNL     1      89.780  83.382  91.826  1.00  0.00    -0.009 C 
BRANCH   3   4
ATOM      4  C   UNL     1      91.226  83.919  91.622  1.00  0.00     0.000 C 
ATOM      5  C   UNL     1      91.651  84.978  92.644  1.00  0.00     0.004 C 
ENDBRANCH   3   4
BRANCH   3   6
ATOM      6  C   UNL     1      89.232  82.600  90.581  1.00  0.00    -0.014 C 
ATOM      7  C   UNL     1      90.147  82.760  89.352  1.00  0.00     0.007 C 
ATOM      8  C   UNL     1      89.055  81.099  90.869  1.00  0.00     0.007 C 
ENDBRANCH   3   6
ENDBRANCH   2   3
ENDBRANCH   1   2
BRANCH   1   9
ATOM      9  C   UNL     1      88.431  86.489  90.619  1.00  0.00    -0.011 C 
ATOM     10  C   UNL     1      88.852  87.338  91.839  1.00  0.00     0.008 C 
BRANCH   9  11
ATOM     11  C   UNL     1      89.505  86.336  89.487  1.00  0.00    -0.002 C 
ATOM     12  C   UNL     1      90.828  87.117  89.676  1.00  0.00     0.005 C 
ATOM     13  C   UNL     1      89.135  86.550  87.985  1.00  0.00    -0.026 C 
ATOM     14  C   UNL     1      91.453  87.246  88.268  1.00  0.00     0.005 C 
ATOM     15  C   UNL     1      90.544  86.399  87.376  1.00  0.00    -0.001 C 
ATOM     16  C   UNL     1      88.195  85.449  87.391  1.00  0.00     0.007 C 
ATOM     17  C   UNL     1      88.551  87.980  87.742  1.00  0.00     0.012 C 
ATOM     18  C   UNL     1      90.647  86.476  85.822  1.00  0.00     0.000 C 
ATOM     19  C   UNL     1      88.567  85.002  85.944  1.00  0.00     0.005 C 
ATOM     20  C   UNL     1      89.299  86.112  85.140  1.00  0.00     0.003 C 
ATOM     21  C   UNL     1      91.163  87.788  85.226  1.00  0.00     0.031 C 
ATOM     22  C   UNL     1      89.491  85.839  83.599  1.00  0.00    -0.008 C 
ATOM     23  C   UNL     1      91.289  87.655  83.731  1.00  0.00    -0.027 C 
ATOM     24  C   UNL     1      90.548  86.788  82.991  1.00  0.00    -0.065 C 
ATOM     25  C   UNL     1      89.955  84.373  83.330  1.00  0.00     0.014 C 
ATOM     26  C   UNL     1      88.128  86.096  82.891  1.00  0.00     0.016 C 
ATOM     27  C   UNL     1      90.932  86.567  81.542  1.00  0.00     0.063 C 
ATOM     28  C   UNL     1      90.342  84.112  81.861  1.00  0.00     0.033 C 
ATOM     29  C   UNL     1      91.403  85.114  81.360  1.00  0.00     0.118 C 
BRANCH  29  30
ATOM     30  O   UNL     1      91.726  84.861  80.015  1.00  0.00    -0.393 OA
ATOM     31  H   UNL     1      92.684  84.588  79.982  1.00  0.00     0.210 HD
ENDBRANCH  29  30
ENDBRANCH   9  11
ENDBRANCH   1   9
TORSDOF 7
ENDMDL
