MODEL 1
REMARK VINA RESULT:    16.309      0.000      0.000
REMARK INTER + INTRA:          23.431
REMARK INTER:                  22.507
REMARK INTRA:                   0.924
REMARK UNBOUND:                 0.924
REMARK SMILES CC[C@@H](CC[C@@H](C)[C@@H]1CC[C@H]2[C@H]3CC=C4C[C@H](O)CC[C@]4(C)[C@H]3CC[C@]21C)C(C)C
REMARK SMILES IDX 5 1 4 2 3 3 2 4 1 5 28 6 29 7 30 8 6 9 7 10 8 11 9 12 26 13
REMARK SMILES IDX 10 14 11 15 25 16 27 17 12 18 24 19 23 20 13 21 21 22 14 23
REMARK SMILES IDX 15 24 20 25 22 26 16 27 19 28 17 29 18 30
REMARK H PARENT 18 31
REMARK Flexibility Score: inf
ROOT
ATOM      1  C   UNL     1       7.099 -34.897  16.376  1.00  0.00     0.004 C 
ENDROOT
BRANCH   1   2
ATOM      2  C   UNL     1       6.982 -33.648  17.270  1.00  0.00     0.004 C 
BRANCH   2   3
ATOM      3  C   UNL     1       8.185 -33.524  18.260  1.00  0.00    -0.009 C 
BRANCH   3   4
ATOM      4  C   UNL     1       8.216 -34.702  19.267  1.00  0.00     0.000 C 
ATOM      5  C   UNL     1       7.779 -36.025  18.633  1.00  0.00     0.004 C 
ENDBRANCH   3   4
BRANCH   3   6
ATOM      6  C   UNL     1       8.242 -32.148  18.997  1.00  0.00    -0.014 C 
ATOM      7  C   UNL     1       7.568 -30.997  18.228  1.00  0.00     0.007 C 
ATOM      8  C   UNL     1       9.679 -31.769  19.393  1.00  0.00     0.007 C 
ENDBRANCH   3   6
ENDBRANCH   2   3
ENDBRANCH   1   2
BRANCH   1   9
ATOM      9  C   UNL     1       6.987 -34.564  14.859  1.00  0.00    -0.011 C 
ATOM     10  C   UNL     1       5.915 -33.470  14.646  1.00  0.00     0.008 C 
BRANCH   9  11
ATOM     11  C   UNL     1       8.403 -34.220  14.255  1.00  0.00    -0.002 C 
ATOM     12  C   UNL     1       9.548 -34.900  15.019  1.00  0.00     0.005 C 
ATOM     13  C   UNL     1       8.827 -32.709  14.160  1.00  0.00    -0.026 C 
ATOM     14  C   UNL     1      10.196 -33.831  15.896  1.00  0.00     0.005 C 
ATOM     15  C   UNL     1       9.620 -32.463  15.475  1.00  0.00    -0.001 C 
ATOM     16  C   UNL     1       9.728 -32.479  12.883  1.00  0.00     0.007 C 
ATOM     17  C   UNL     1       7.623 -31.738  14.054  1.00  0.00     0.012 C 
ATOM     18  C   UNL     1      10.654 -31.297  15.399  1.00  0.00     0.000 C 
ATOM     19  C   UNL     1      11.235 -32.452  13.161  1.00  0.00     0.005 C 
ATOM     20  C   UNL     1      11.577 -31.299  14.128  1.00  0.00     0.003 C 
ATOM     21  C   UNL     1      11.411 -31.116  16.727  1.00  0.00     0.031 C 
ATOM     22  C   UNL     1      13.127 -31.102  14.388  1.00  0.00    -0.008 C 
ATOM     23  C   UNL     1      12.507 -30.103  16.597  1.00  0.00    -0.027 C 
ATOM     24  C   UNL     1      13.328 -30.086  15.528  1.00  0.00    -0.065 C 
ATOM     25  C   UNL     1      13.784 -30.577  13.066  1.00  0.00     0.014 C 
ATOM     26  C   UNL     1      13.829 -32.425  14.790  1.00  0.00     0.016 C 
ATOM     27  C   UNL     1      14.586 -29.242  15.620  1.00  0.00     0.063 C 
ATOM     28  C   UNL     1      15.167 -29.949  13.261  1.00  0.00     0.033 C 
ATOM     29  C   UNL     1      15.113 -28.783  14.252  1.00  0.00     0.118 C 
BRANCH  29  30
ATOM     30  O   UNL     1      14.370 -27.705  13.731  1.00  0.00    -0.393 OA
ATOM     31  H   UNL     1      13.732 -27.397  14.426  1.00  0.00     0.210 HD
ENDBRANCH  29  30
ENDBRANCH   9  11
ENDBRANCH   1   9
TORSDOF 7
ENDMDL
MODEL 2
REMARK VINA RESULT:    16.855      1.263      2.186
REMARK INTER + INTRA:          24.184
REMARK INTER:                  22.118
REMARK INTRA:                   2.066
REMARK UNBOUND:                 0.924
REMARK SMILES CC[C@@H](CC[C@@H](C)[C@@H]1CC[C@H]2[C@H]3CC=C4C[C@H](O)CC[C@]4(C)[C@H]3CC[C@]21C)C(C)C
REMARK SMILES IDX 5 1 4 2 3 3 2 4 1 5 28 6 29 7 30 8 6 9 7 10 8 11 9 12 26 13
REMARK SMILES IDX 10 14 11 15 25 16 27 17 12 18 24 19 23 20 13 21 21 22 14 23
REMARK SMILES IDX 15 24 20 25 22 26 16 27 19 28 17 29 18 30
REMARK H PARENT 18 31
REMARK Flexibility Score: inf
ROOT
ATOM      1  C   UNL     1       7.110 -33.710  16.271  1.00  0.00     0.004 C 
ENDROOT
BRANCH   1   2
ATOM      2  C   UNL     1       7.922 -34.683  17.147  1.00  0.00     0.004 C 
BRANCH   2   3
ATOM      3  C   UNL     1       7.537 -36.173  16.876  1.00  0.00    -0.009 C 
BRANCH   3   4
ATOM      4  C   UNL     1       6.289 -36.280  15.962  1.00  0.00     0.000 C 
ATOM      5  C   UNL     1       6.578 -37.039  14.665  1.00  0.00     0.004 C 
ENDBRANCH   3   4
BRANCH   3   6
ATOM      6  C   UNL     1       7.357 -37.014  18.180  1.00  0.00    -0.014 C 
ATOM      7  C   UNL     1       5.898 -37.125  18.658  1.00  0.00     0.007 C 
ATOM      8  C   UNL     1       8.264 -36.512  19.315  1.00  0.00     0.007 C 
ENDBRANCH   3   6
ENDBRANCH   2   3
ENDBRANCH   1   2
BRANCH   1   9
ATOM      9  C   UNL     1       7.124 -34.103  14.764  1.00  0.00    -0.011 C 
ATOM     10  C   UNL     1       5.882 -33.507  14.061  1.00  0.00     0.008 C 
BRANCH   9  11
ATOM     11  C   UNL     1       8.501 -33.720  14.098  1.00  0.00    -0.002 C 
ATOM     12  C   UNL     1       9.673 -34.535  14.662  1.00  0.00     0.005 C 
ATOM     13  C   UNL     1       8.978 -32.224  14.178  1.00  0.00    -0.026 C 
ATOM     14  C   UNL     1      10.431 -33.621  15.622  1.00  0.00     0.005 C 
ATOM     15  C   UNL     1       9.881 -32.190  15.444  1.00  0.00    -0.001 C 
ATOM     16  C   UNL     1       9.786 -31.842  12.875  1.00  0.00     0.007 C 
ATOM     17  C   UNL     1       7.811 -31.212  14.308  1.00  0.00     0.012 C 
ATOM     18  C   UNL     1      10.953 -31.057  15.445  1.00  0.00     0.000 C 
ATOM     19  C   UNL     1      11.310 -31.901  13.029  1.00  0.00     0.005 C 
ATOM     20  C   UNL     1      11.774 -30.906  14.114  1.00  0.00     0.003 C 
ATOM     21  C   UNL     1      11.819 -31.088  16.718  1.00  0.00     0.031 C 
ATOM     22  C   UNL     1      13.346 -30.795  14.269  1.00  0.00    -0.008 C 
ATOM     23  C   UNL     1      12.942 -30.101  16.639  1.00  0.00    -0.027 C 
ATOM     24  C   UNL     1      13.677 -29.958  15.518  1.00  0.00    -0.065 C 
ATOM     25  C   UNL     1      13.919 -30.108  12.983  1.00  0.00     0.014 C 
ATOM     26  C   UNL     1      14.022 -32.182  14.424  1.00  0.00     0.016 C 
ATOM     27  C   UNL     1      14.973 -29.172  15.622  1.00  0.00     0.063 C 
ATOM     28  C   UNL     1      15.338 -29.556  13.148  1.00  0.00     0.033 C 
ATOM     29  C   UNL     1      15.409 -28.540  14.292  1.00  0.00     0.118 C 
BRANCH  29  30
ATOM     30  O   UNL     1      14.673 -27.378  13.989  1.00  0.00    -0.393 OA
ATOM     31  H   UNL     1      15.038 -26.626  14.524  1.00  0.00     0.210 HD
ENDBRANCH  29  30
ENDBRANCH   9  11
ENDBRANCH   1   9
TORSDOF 7
ENDMDL
MODEL 3
REMARK VINA RESULT:    17.095      0.634      1.896
REMARK INTER + INTRA:          24.516
REMARK INTER:                  23.349
REMARK INTRA:                   1.167
REMARK UNBOUND:                 0.924
REMARK SMILES CC[C@@H](CC[C@@H](C)[C@@H]1CC[C@H]2[C@H]3CC=C4C[C@H](O)CC[C@]4(C)[C@H]3CC[C@]21C)C(C)C
REMARK SMILES IDX 5 1 4 2 3 3 2 4 1 5 28 6 29 7 30 8 6 9 7 10 8 11 9 12 26 13
REMARK SMILES IDX 10 14 11 15 25 16 27 17 12 18 24 19 23 20 13 21 21 22 14 23
REMARK SMILES IDX 15 24 20 25 22 26 16 27 19 28 17 29 18 30
REMARK H PARENT 18 31
REMARK Flexibility Score: inf
ROOT
ATOM      1  C   UNL     1       6.980 -35.105  15.969  1.00  0.00     0.004 C 
ENDROOT
BRANCH   1   2
ATOM      2  C   UNL     1       6.560 -34.352  17.245  1.00  0.00     0.004 C 
BRANCH   2   3
ATOM      3  C   UNL     1       7.356 -34.837  18.498  1.00  0.00    -0.009 C 
BRANCH   3   4
ATOM      4  C   UNL     1       8.491 -33.848  18.870  1.00  0.00     0.000 C 
ATOM      5  C   UNL     1       8.260 -32.451  18.290  1.00  0.00     0.004 C 
ENDBRANCH   3   4
BRANCH   3   6
ATOM      6  C   UNL     1       7.900 -36.295  18.361  1.00  0.00    -0.014 C 
ATOM      7  C   UNL     1       7.267 -37.094  17.206  1.00  0.00     0.007 C 
ATOM      8  C   UNL     1       7.792 -37.074  19.682  1.00  0.00     0.007 C 
ENDBRANCH   3   6
ENDBRANCH   2   3
ENDBRANCH   1   2
BRANCH   1   9
ATOM      9  C   UNL     1       6.789 -34.255  14.678  1.00  0.00    -0.011 C 
ATOM     10  C   UNL     1       5.875 -33.046  14.983  1.00  0.00     0.008 C 
BRANCH   9  11
ATOM     11  C   UNL     1       8.183 -33.880  14.042  1.00  0.00    -0.002 C 
ATOM     12  C   UNL     1       9.333 -34.720  14.611  1.00  0.00     0.005 C 
ATOM     13  C   UNL     1       8.678 -32.392  14.157  1.00  0.00    -0.026 C 
ATOM     14  C   UNL     1      10.087 -33.834  15.600  1.00  0.00     0.005 C 
ATOM     15  C   UNL     1       9.560 -32.394  15.439  1.00  0.00    -0.001 C 
ATOM     16  C   UNL     1       9.513 -31.998  12.875  1.00  0.00     0.007 C 
ATOM     17  C   UNL     1       7.523 -31.367  14.286  1.00  0.00     0.012 C 
ATOM     18  C   UNL     1      10.647 -31.275  15.478  1.00  0.00     0.000 C 
ATOM     19  C   UNL     1      11.033 -32.081  13.053  1.00  0.00     0.005 C 
ATOM     20  C   UNL     1      11.492 -31.112  14.164  1.00  0.00     0.003 C 
ATOM     21  C   UNL     1      11.490 -31.341  16.764  1.00  0.00     0.031 C 
ATOM     22  C   UNL     1      13.063 -31.026  14.348  1.00  0.00    -0.008 C 
ATOM     23  C   UNL     1      12.628 -30.368  16.722  1.00  0.00    -0.027 C 
ATOM     24  C   UNL     1      13.384 -30.215  15.617  1.00  0.00    -0.065 C 
ATOM     25  C   UNL     1      13.667 -30.324  13.084  1.00  0.00     0.014 C 
ATOM     26  C   UNL     1      13.717 -32.424  14.489  1.00  0.00     0.016 C 
ATOM     27  C   UNL     1      14.688 -29.450  15.756  1.00  0.00     0.063 C 
ATOM     28  C   UNL     1      15.090 -29.794  13.283  1.00  0.00     0.033 C 
ATOM     29  C   UNL     1      15.156 -28.801  14.445  1.00  0.00     0.118 C 
BRANCH  29  30
ATOM     30  O   UNL     1      14.441 -27.623  14.151  1.00  0.00    -0.393 OA
ATOM     31  H   UNL     1      14.491 -27.020  14.937  1.00  0.00     0.210 HD
ENDBRANCH  29  30
ENDBRANCH   9  11
ENDBRANCH   1   9
TORSDOF 7
ENDMDL
