MODEL 1
REMARK VINA RESULT:    -3.992      0.000      0.000
REMARK INTER + INTRA:         -11.328
REMARK INTER:                  -8.426
REMARK INTRA:                  -2.902
REMARK UNBOUND:                -2.902
REMARK SMILES CCC(=O)CCCCC[C@@H]1NC(=O)[C@@H]2CCCCN2C(=O)[C@H]([C@@H](C)CC)NC(=O)[C@@H](Cc2cn(OC)c3ccccc23)NC1=O
REMARK SMILES IDX 9 1 10 2 44 3 43 4 45 6 30 7 28 8 27 9 29 11 22 12 23 14
REMARK SMILES IDX 24 15 25 16 26 17 31 18 32 19 33 20 42 21 34 22 37 23 41 24
REMARK SMILES IDX 38 25 40 26 39 27 35 28 36 29 11 30 12 31 13 33 14 34 19 35
REMARK SMILES IDX 15 36 18 37 16 38 17 39 20 40 21 41 8 43 7 44 6 45 5 46 3 47
REMARK SMILES IDX 4 48 2 49 1 50
REMARK H PARENT 43 5 27 10 11 32
REMARK Flexibility Score: 80.00
ROOT
ATOM      1  C   UNL     1      62.035  26.554  49.935  1.00  0.00     0.035 C 
ENDROOT
BRANCH   1   2
ATOM      2  C   UNL     1      61.250  27.760  49.319  1.00  0.00     0.171 C 
BRANCH   2   3
ATOM      3  C   UNL     1      59.720  27.516  49.358  1.00  0.00     0.243 C 
ATOM      4  N   UNL     1      58.832  28.591  49.674  1.00  0.00    -0.342 N 
ATOM      5  H   UNL     1      58.524  29.254  48.908  1.00  0.00     0.164 HD
ATOM      6  O   UNL     1      59.247  26.326  49.332  1.00  0.00    -0.273 OA
BRANCH   4   7
ATOM      7  C   UNL     1      58.093  28.528  50.926  1.00  0.00     0.175 C 
BRANCH   7   8
ATOM      8  C   UNL     1      58.583  29.657  51.800  1.00  0.00     0.243 C 
ATOM      9  N   UNL     1      59.919  29.592  52.287  1.00  0.00    -0.342 N 
ATOM     10  H   UNL     1      60.501  28.708  52.244  1.00  0.00     0.164 HD
ATOM     11  O   UNL     1      57.763  30.518  52.236  1.00  0.00    -0.273 OA
BRANCH   9  12
ATOM     12  C   UNL     1      60.506  30.761  52.933  1.00  0.00     0.174 CG0
ATOM     13  G   UNL     1      61.855  30.985  52.301  1.00  0.00     0.000 G0
BRANCH  12  14
ATOM     14  C   UNL     1      60.497  30.582  54.489  1.00  0.00     0.018 C 
ATOM     15  C   UNL     1      59.467  31.524  55.129  1.00  0.00     0.010 C 
BRANCH  14  16
ATOM     16  C   UNL     1      60.191  29.126  54.968  1.00  0.00     0.002 C 
ATOM     17  C   UNL     1      61.457  28.414  55.473  1.00  0.00     0.004 C 
ENDBRANCH  14  16
ENDBRANCH  12  14
ENDBRANCH   9  12
ENDBRANCH   7   8
BRANCH   7  18
ATOM     18  C   UNL     1      56.554  28.639  50.751  1.00  0.00     0.073 C 
BRANCH  18  19
ATOM     19  C   UNL     1      55.848  27.459  51.393  1.00  0.00    -0.016 A 
ATOM     20  C   UNL     1      55.951  27.040  52.719  1.00  0.00     0.134 A 
ATOM     21  C   UNL     1      54.933  26.628  50.804  1.00  0.00     0.006 A 
ATOM     22  N   UNL     1      55.146  25.979  52.941  1.00  0.00    -0.191 N 
ATOM     23  C   UNL     1      54.519  25.714  51.767  1.00  0.00     0.087 A 
ATOM     24  C   UNL     1      54.444  26.607  49.482  1.00  0.00     0.011 A 
ATOM     25  C   UNL     1      53.472  24.822  51.475  1.00  0.00     0.030 A 
ATOM     26  C   UNL     1      53.414  25.686  49.176  1.00  0.00     0.001 A 
ATOM     27  C   UNL     1      52.925  24.806  50.165  1.00  0.00     0.002 A 
BRANCH  22  28
ATOM     28  O   UNL     1      55.172  25.213  54.102  1.00  0.00    -0.417 OA
ATOM     29  C   UNL     1      56.102  24.170  54.391  1.00  0.00     0.313 C 
ENDBRANCH  22  28
ENDBRANCH  18  19
ENDBRANCH   7  18
ENDBRANCH   4   7
ENDBRANCH   2   3
BRANCH   2  30
ATOM     30  N   UNL     1      61.537  28.994  50.082  1.00  0.00    -0.343 N 
ATOM     31  C   UNL     1      62.527  29.941  49.619  1.00  0.00     0.243 C 
ATOM     32  H   UNL     1      60.945  29.248  50.906  1.00  0.00     0.164 HD
ATOM     33  O   UNL     1      63.473  29.533  48.889  1.00  0.00    -0.273 OA
BRANCH  31  34
ATOM     34  C   UNL     1      62.267  31.419  49.746  1.00  0.00     0.174 C 
ATOM     35  N   UNL     1      62.088  31.890  51.160  1.00  0.00    -0.329 N 
ATOM     36  C   UNL     1      63.450  32.190  49.088  1.00  0.00     0.035 C 
ATOM     37  C   UNL     1      62.348  33.295  51.501  1.00  0.00     0.120 C 
ATOM     38  C   UNL     1      63.235  33.707  49.129  1.00  0.00     0.004 C 
ATOM     39  C   UNL     1      62.280  34.161  50.260  1.00  0.00     0.022 C 
BRANCH  35  40
ATOM     40  C   UNL     1      61.897  30.969  52.282  1.00  0.00     0.246 CG0
ATOM     41  O   UNL     1      62.869  30.258  52.654  1.00  0.00    -0.272 OA
ATOM     42  G   UNL     1      60.531  30.781  52.891  1.00  0.00     0.000 G0
ENDBRANCH  35  40
ENDBRANCH  31  34
ENDBRANCH   2  30
ENDBRANCH   1   2
BRANCH   1  43
ATOM     43  C   UNL     1      62.572  26.796  51.339  1.00  0.00     0.003 C 
BRANCH  43  44
ATOM     44  C   UNL     1      61.903  25.879  52.362  1.00  0.00     0.001 C 
BRANCH  44  45
ATOM     45  C   UNL     1      60.452  26.297  52.632  1.00  0.00     0.008 C 
BRANCH  45  46
ATOM     46  C   UNL     1      59.715  25.310  53.541  1.00  0.00     0.075 C 
BRANCH  46  47
ATOM     47  C   UNL     1      59.560  23.982  52.824  1.00  0.00     0.132 C 
ATOM     48  O   UNL     1      58.834  23.913  51.840  1.00  0.00    -0.300 OA
BRANCH  47  49
ATOM     49  C   UNL     1      60.167  22.685  53.375  1.00  0.00     0.072 C 
ATOM     50  C   UNL     1      59.130  21.578  53.623  1.00  0.00     0.012 C 
ENDBRANCH  47  49
ENDBRANCH  46  47
ENDBRANCH  45  46
ENDBRANCH  44  45
ENDBRANCH  43  44
ENDBRANCH   1  43
TORSDOF 12
ENDMDL
MODEL 2
REMARK VINA RESULT:    -3.570      1.821      3.730
REMARK INTER + INTRA:         -10.437
REMARK INTER:                  -8.712
REMARK INTRA:                  -1.725
REMARK UNBOUND:                -2.902
REMARK SMILES CCC(=O)CCCCC[C@@H]1NC(=O)[C@@H]2CCCCN2C(=O)[C@H]([C@@H](C)CC)NC(=O)[C@@H](Cc2cn(OC)c3ccccc23)NC1=O
REMARK SMILES IDX 9 1 10 2 44 3 43 4 45 6 30 7 28 8 27 9 29 11 22 12 23 14
REMARK SMILES IDX 24 15 25 16 26 17 31 18 32 19 33 20 42 21 34 22 37 23 41 24
REMARK SMILES IDX 38 25 40 26 39 27 35 28 36 29 11 30 12 31 13 33 14 34 19 35
REMARK SMILES IDX 15 36 18 37 16 38 17 39 20 40 21 41 8 43 7 44 6 45 5 46 3 47
REMARK SMILES IDX 4 48 2 49 1 50
REMARK H PARENT 43 5 27 10 11 32
REMARK Flexibility Score: 80.00
ROOT
ATOM      1  C   UNL     1      62.414  26.660  50.009  1.00  0.00     0.035 C 
ENDROOT
BRANCH   1   2
ATOM      2  C   UNL     1      61.633  27.844  49.347  1.00  0.00     0.171 C 
BRANCH   2   3
ATOM      3  C   UNL     1      60.115  27.542  49.266  1.00  0.00     0.243 C 
ATOM      4  N   UNL     1      59.165  28.574  49.545  1.00  0.00    -0.342 N 
ATOM      5  H   UNL     1      58.887  29.248  48.776  1.00  0.00     0.164 HD
ATOM      6  O   UNL     1      59.692  26.337  49.174  1.00  0.00    -0.273 OA
BRANCH   4   7
ATOM      7  C   UNL     1      58.340  28.447  50.737  1.00  0.00     0.175 C 
BRANCH   7   8
ATOM      8  C   UNL     1      58.761  29.532  51.699  1.00  0.00     0.243 C 
ATOM      9  N   UNL     1      60.055  29.438  52.286  1.00  0.00    -0.342 N 
ATOM     10  H   UNL     1      60.637  28.553  52.247  1.00  0.00     0.164 HD
ATOM     11  O   UNL     1      57.911  30.376  52.108  1.00  0.00    -0.273 OA
BRANCH   9  12
ATOM     12  C   UNL     1      60.591  30.572  53.030  1.00  0.00     0.174 CG0
ATOM     13  G   UNL     1      61.896  30.952  52.379  1.00  0.00     0.000 G0
BRANCH  12  14
ATOM     14  C   UNL     1      60.655  30.236  54.558  1.00  0.00     0.018 C 
ATOM     15  C   UNL     1      59.779  31.212  55.358  1.00  0.00     0.010 C 
BRANCH  14  16
ATOM     16  C   UNL     1      60.217  28.780  54.916  1.00  0.00     0.002 C 
ATOM     17  C   UNL     1      60.703  28.364  56.314  1.00  0.00     0.004 C 
ENDBRANCH  14  16
ENDBRANCH  12  14
ENDBRANCH   9  12
ENDBRANCH   7   8
BRANCH   7  18
ATOM     18  C   UNL     1      56.817  28.564  50.460  1.00  0.00     0.073 C 
BRANCH  18  19
ATOM     19  C   UNL     1      56.042  27.513  51.235  1.00  0.00    -0.016 A 
ATOM     20  C   UNL     1      56.065  27.301  52.613  1.00  0.00     0.134 A 
ATOM     21  C   UNL     1      55.130  26.624  50.730  1.00  0.00     0.006 A 
ATOM     22  N   UNL     1      55.217  26.306  52.950  1.00  0.00    -0.191 N 
ATOM     23  C   UNL     1      54.640  25.880  51.798  1.00  0.00     0.087 A 
ATOM     24  C   UNL     1      54.707  26.413  49.403  1.00  0.00     0.011 A 
ATOM     25  C   UNL     1      53.580  24.979  51.589  1.00  0.00     0.030 A 
ATOM     26  C   UNL     1      53.664  25.482  49.186  1.00  0.00     0.001 A 
ATOM     27  C   UNL     1      53.099  24.776  50.269  1.00  0.00     0.002 A 
BRANCH  22  28
ATOM     28  O   UNL     1      55.161  25.727  54.213  1.00  0.00    -0.417 OA
ATOM     29  C   UNL     1      55.947  24.622  54.659  1.00  0.00     0.313 C 
ENDBRANCH  22  28
ENDBRANCH  18  19
ENDBRANCH   7  18
ENDBRANCH   4   7
ENDBRANCH   2   3
BRANCH   2  30
ATOM     30  N   UNL     1      61.814  29.078  50.141  1.00  0.00    -0.343 N 
ATOM     31  C   UNL     1      62.638  30.162  49.654  1.00  0.00     0.243 C 
ATOM     32  H   UNL     1      61.255  29.224  51.013  1.00  0.00     0.164 HD
ATOM     33  O   UNL     1      63.573  29.906  48.845  1.00  0.00    -0.273 OA
BRANCH  31  34
ATOM     34  C   UNL     1      62.201  31.588  49.862  1.00  0.00     0.174 C 
ATOM     35  N   UNL     1      61.993  31.961  51.302  1.00  0.00    -0.329 N 
ATOM     36  C   UNL     1      63.266  32.532  49.231  1.00  0.00     0.035 C 
ATOM     37  C   UNL     1      62.086  33.368  51.713  1.00  0.00     0.120 C 
ATOM     38  C   UNL     1      62.867  34.006  49.354  1.00  0.00     0.004 C 
ATOM     39  C   UNL     1      61.887  34.280  50.521  1.00  0.00     0.022 C 
BRANCH  35  40
ATOM     40  C   UNL     1      61.939  30.967  52.376  1.00  0.00     0.246 CG0
ATOM     41  O   UNL     1      62.998  30.362  52.695  1.00  0.00    -0.272 OA
ATOM     42  G   UNL     1      60.620  30.584  52.995  1.00  0.00     0.000 G0
ENDBRANCH  35  40
ENDBRANCH  31  34
ENDBRANCH   2  30
ENDBRANCH   1   2
BRANCH   1  43
ATOM     43  C   UNL     1      63.913  26.886  50.145  1.00  0.00     0.003 C 
BRANCH  43  44
ATOM     44  C   UNL     1      64.631  26.719  48.807  1.00  0.00     0.001 C 
BRANCH  44  45
ATOM     45  C   UNL     1      66.135  26.487  48.998  1.00  0.00     0.008 C 
BRANCH  45  46
ATOM     46  C   UNL     1      66.965  27.019  47.826  1.00  0.00     0.075 C 
BRANCH  46  47
ATOM     47  C   UNL     1      66.715  28.506  47.664  1.00  0.00     0.132 C 
ATOM     48  O   UNL     1      66.265  28.927  46.605  1.00  0.00    -0.300 OA
BRANCH  47  49
ATOM     49  C   UNL     1      67.143  29.523  48.730  1.00  0.00     0.072 C 
ATOM     50  C   UNL     1      68.564  29.290  49.266  1.00  0.00     0.012 C 
ENDBRANCH  47  49
ENDBRANCH  46  47
ENDBRANCH  45  46
ENDBRANCH  44  45
ENDBRANCH  43  44
ENDBRANCH   1  43
TORSDOF 12
ENDMDL
MODEL 3
REMARK VINA RESULT:    -3.467      7.465     11.301
REMARK INTER + INTRA:         -10.221
REMARK INTER:                  -8.369
REMARK INTRA:                  -1.852
REMARK UNBOUND:                -2.902
REMARK SMILES CCC(=O)CCCCC[C@@H]1NC(=O)[C@@H]2CCCCN2C(=O)[C@H]([C@@H](C)CC)NC(=O)[C@@H](Cc2cn(OC)c3ccccc23)NC1=O
REMARK SMILES IDX 9 1 10 2 44 3 43 4 45 6 30 7 28 8 27 9 29 11 22 12 23 14
REMARK SMILES IDX 24 15 25 16 26 17 31 18 32 19 33 20 42 21 34 22 37 23 41 24
REMARK SMILES IDX 38 25 40 26 39 27 35 28 36 29 11 30 12 31 13 33 14 34 19 35
REMARK SMILES IDX 15 36 18 37 16 38 17 39 20 40 21 41 8 43 7 44 6 45 5 46 3 47
REMARK SMILES IDX 4 48 2 49 1 50
REMARK H PARENT 43 5 27 10 11 32
REMARK Flexibility Score: 80.00
ROOT
ATOM      1  C   UNL     1      61.643  28.423  60.497  1.00  0.00     0.035 C 
ENDROOT
BRANCH   1   2
ATOM      2  C   UNL     1      60.337  29.266  60.676  1.00  0.00     0.171 C 
BRANCH   2   3
ATOM      3  C   UNL     1      59.805  29.778  59.313  1.00  0.00     0.243 C 
ATOM      4  N   UNL     1      58.427  30.131  59.170  1.00  0.00    -0.342 N 
ATOM      5  H   UNL     1      58.106  31.100  59.453  1.00  0.00     0.164 HD
ATOM      6  O   UNL     1      60.520  29.680  58.254  1.00  0.00    -0.273 OA
BRANCH   4   7
ATOM      7  C   UNL     1      57.590  29.308  58.311  1.00  0.00     0.175 C 
BRANCH   7   8
ATOM      8  C   UNL     1      56.483  28.739  59.165  1.00  0.00     0.243 C 
ATOM      9  N   UNL     1      56.547  27.360  59.510  1.00  0.00    -0.342 N 
ATOM     10  H   UNL     1      57.204  26.681  59.029  1.00  0.00     0.164 HD
ATOM     11  O   UNL     1      55.444  29.428  59.390  1.00  0.00    -0.273 OA
BRANCH   9  12
ATOM     12  C   UNL     1      55.636  26.827  60.517  1.00  0.00     0.174 CG0
ATOM     13  G   UNL     1      56.342  26.916  61.844  1.00  0.00     0.000 G0
BRANCH  12  14
ATOM     14  C   UNL     1      55.137  25.403  60.096  1.00  0.00     0.018 C 
ATOM     15  C   UNL     1      53.667  25.461  59.655  1.00  0.00     0.010 C 
BRANCH  14  16
ATOM     16  C   UNL     1      55.966  24.743  58.949  1.00  0.00     0.002 C 
ATOM     17  C   UNL     1      56.384  23.305  59.301  1.00  0.00     0.004 C 
ENDBRANCH  14  16
ENDBRANCH  12  14
ENDBRANCH   9  12
ENDBRANCH   7   8
BRANCH   7  18
ATOM     18  C   UNL     1      56.976  30.077  57.111  1.00  0.00     0.073 C 
BRANCH  18  19
ATOM     19  C   UNL     1      57.370  31.543  57.145  1.00  0.00    -0.016 A 
ATOM     20  C   UNL     1      58.535  32.110  56.631  1.00  0.00     0.134 A 
ATOM     21  C   UNL     1      56.624  32.584  57.630  1.00  0.00     0.006 A 
ATOM     22  N   UNL     1      58.524  33.448  56.808  1.00  0.00    -0.191 N 
ATOM     23  C   UNL     1      57.354  33.750  57.426  1.00  0.00     0.087 A 
ATOM     24  C   UNL     1      55.357  32.584  58.247  1.00  0.00     0.011 A 
ATOM     25  C   UNL     1      56.767  34.997  57.705  1.00  0.00     0.030 A 
ATOM     26  C   UNL     1      54.778  33.836  58.562  1.00  0.00     0.001 A 
ATOM     27  C   UNL     1      55.472  35.033  58.286  1.00  0.00     0.002 A 
BRANCH  22  28
ATOM     28  O   UNL     1      59.623  34.271  56.584  1.00  0.00    -0.417 OA
ATOM     29  C   UNL     1      60.496  34.787  57.588  1.00  0.00     0.313 C 
ENDBRANCH  22  28
ENDBRANCH  18  19
ENDBRANCH   7  18
ENDBRANCH   4   7
ENDBRANCH   2   3
BRANCH   2  30
ATOM     30  N   UNL     1      59.281  28.440  61.299  1.00  0.00    -0.343 N 
ATOM     31  C   UNL     1      59.098  27.056  60.921  1.00  0.00     0.243 C 
ATOM     32  H   UNL     1      58.729  28.819  62.103  1.00  0.00     0.164 HD
ATOM     33  O   UNL     1      59.458  26.682  59.770  1.00  0.00    -0.273 OA
BRANCH  31  34
ATOM     34  C   UNL     1      58.776  26.028  61.973  1.00  0.00     0.174 C 
ATOM     35  N   UNL     1      57.314  25.927  62.303  1.00  0.00    -0.329 N 
ATOM     36  C   UNL     1      59.294  24.642  61.489  1.00  0.00     0.035 C 
ATOM     37  C   UNL     1      56.778  24.686  62.875  1.00  0.00     0.120 C 
ATOM     38  C   UNL     1      59.051  23.545  62.531  1.00  0.00     0.004 C 
ATOM     39  C   UNL     1      57.889  23.870  63.503  1.00  0.00     0.022 C 
BRANCH  35  40
ATOM     40  C   UNL     1      56.334  26.923  61.863  1.00  0.00     0.246 CG0
ATOM     41  O   UNL     1      55.991  27.831  62.668  1.00  0.00    -0.272 OA
ATOM     42  G   UNL     1      55.657  26.787  60.524  1.00  0.00     0.000 G0
ENDBRANCH  35  40
ENDBRANCH  31  34
ENDBRANCH   2  30
ENDBRANCH   1   2
BRANCH   1  43
ATOM     43  C   UNL     1      62.688  28.632  61.584  1.00  0.00     0.003 C 
BRANCH  43  44
ATOM     44  C   UNL     1      63.861  29.472  61.082  1.00  0.00     0.001 C 
BRANCH  44  45
ATOM     45  C   UNL     1      63.382  30.712  60.316  1.00  0.00     0.008 C 
BRANCH  45  46
ATOM     46  C   UNL     1      63.591  32.007  61.105  1.00  0.00     0.075 C 
BRANCH  46  47
ATOM     47  C   UNL     1      62.756  33.114  60.490  1.00  0.00     0.132 C 
ATOM     48  O   UNL     1      61.594  32.884  60.176  1.00  0.00    -0.300 OA
BRANCH  47  49
ATOM     49  C   UNL     1      63.359  34.472  60.111  1.00  0.00     0.072 C 
ATOM     50  C   UNL     1      63.778  35.318  61.324  1.00  0.00     0.012 C 
ENDBRANCH  47  49
ENDBRANCH  46  47
ENDBRANCH  45  46
ENDBRANCH  44  45
ENDBRANCH  43  44
ENDBRANCH   1  43
TORSDOF 12
ENDMDL
MODEL 4
REMARK VINA RESULT:    -3.405      7.726     12.518
REMARK INTER + INTRA:         -10.089
REMARK INTER:                  -8.403
REMARK INTRA:                  -1.686
REMARK UNBOUND:                -2.902
REMARK SMILES CCC(=O)CCCCC[C@@H]1NC(=O)[C@@H]2CCCCN2C(=O)[C@H]([C@@H](C)CC)NC(=O)[C@@H](Cc2cn(OC)c3ccccc23)NC1=O
REMARK SMILES IDX 9 1 10 2 44 3 43 4 45 6 30 7 28 8 27 9 29 11 22 12 23 14
REMARK SMILES IDX 24 15 25 16 26 17 31 18 32 19 33 20 42 21 34 22 37 23 41 24
REMARK SMILES IDX 38 25 40 26 39 27 35 28 36 29 11 30 12 31 13 33 14 34 19 35
REMARK SMILES IDX 15 36 18 37 16 38 17 39 20 40 21 41 8 43 7 44 6 45 5 46 3 47
REMARK SMILES IDX 4 48 2 49 1 50
REMARK H PARENT 43 5 27 10 11 32
REMARK Flexibility Score: 80.00
ROOT
ATOM      1  C   UNL     1      66.379  29.354  58.768  1.00  0.00     0.035 C 
ENDROOT
BRANCH   1   2
ATOM      2  C   UNL     1      65.519  29.359  60.076  1.00  0.00     0.171 C 
BRANCH   2   3
ATOM      3  C   UNL     1      64.845  30.736  60.302  1.00  0.00     0.243 C 
ATOM      4  N   UNL     1      63.612  30.819  61.022  1.00  0.00    -0.342 N 
ATOM      5  H   UNL     1      63.629  30.857  62.080  1.00  0.00     0.164 HD
ATOM      6  O   UNL     1      65.249  31.773  59.669  1.00  0.00    -0.273 OA
BRANCH   4   7
ATOM      7  C   UNL     1      62.417  31.220  60.297  1.00  0.00     0.175 C 
BRANCH   7   8
ATOM      8  C   UNL     1      61.497  30.024  60.240  1.00  0.00     0.243 C 
ATOM      9  N   UNL     1      61.721  29.058  59.218  1.00  0.00    -0.342 N 
ATOM     10  H   UNL     1      62.350  29.242  58.386  1.00  0.00     0.164 HD
ATOM     11  O   UNL     1      60.452  29.998  60.955  1.00  0.00    -0.273 OA
BRANCH   9  12
ATOM     12  C   UNL     1      61.014  27.783  59.268  1.00  0.00     0.174 CG0
ATOM     13  G   UNL     1      62.049  26.698  59.116  1.00  0.00     0.000 G0
BRANCH  12  14
ATOM     14  C   UNL     1      59.845  27.770  58.225  1.00  0.00     0.018 C 
ATOM     15  C   UNL     1      58.488  27.775  58.944  1.00  0.00     0.010 C 
BRANCH  14  16
ATOM     16  C   UNL     1      59.869  28.964  57.217  1.00  0.00     0.002 C 
ATOM     17  C   UNL     1      60.312  28.517  55.814  1.00  0.00     0.004 C 
ENDBRANCH  14  16
ENDBRANCH  12  14
ENDBRANCH   9  12
ENDBRANCH   7   8
BRANCH   7  18
ATOM     18  C   UNL     1      61.667  32.419  60.938  1.00  0.00     0.073 C 
BRANCH  18  19
ATOM     19  C   UNL     1      62.036  33.721  60.250  1.00  0.00    -0.016 A 
ATOM     20  C   UNL     1      61.379  34.317  59.174  1.00  0.00     0.134 A 
ATOM     21  C   UNL     1      63.044  34.580  60.601  1.00  0.00     0.006 A 
ATOM     22  N   UNL     1      61.967  35.490  58.855  1.00  0.00    -0.191 N 
ATOM     23  C   UNL     1      62.995  35.659  59.725  1.00  0.00     0.087 A 
ATOM     24  C   UNL     1      64.006  34.481  61.625  1.00  0.00     0.011 A 
ATOM     25  C   UNL     1      63.832  36.768  59.939  1.00  0.00     0.030 A 
ATOM     26  C   UNL     1      64.874  35.581  61.821  1.00  0.00     0.001 A 
ATOM     27  C   UNL     1      64.784  36.718  60.992  1.00  0.00     0.002 A 
BRANCH  22  28
ATOM     28  O   UNL     1      61.671  36.221  57.710  1.00  0.00    -0.417 OA
ATOM     29  C   UNL     1      60.402  36.791  57.390  1.00  0.00     0.313 C 
ENDBRANCH  22  28
ENDBRANCH  18  19
ENDBRANCH   7  18
ENDBRANCH   4   7
ENDBRANCH   2   3
BRANCH   2  30
ATOM     30  N   UNL     1      64.455  28.336  59.987  1.00  0.00    -0.343 N 
ATOM     31  C   UNL     1      64.747  26.937  60.210  1.00  0.00     0.243 C 
ATOM     32  H   UNL     1      63.457  28.629  59.873  1.00  0.00     0.164 HD
ATOM     33  O   UNL     1      65.914  26.511  59.991  1.00  0.00    -0.273 OA
BRANCH  31  34
ATOM     34  C   UNL     1      63.771  26.080  60.973  1.00  0.00     0.174 C 
ATOM     35  N   UNL     1      62.456  25.880  60.277  1.00  0.00    -0.329 N 
ATOM     36  C   UNL     1      64.431  24.695  61.242  1.00  0.00     0.035 C 
ATOM     37  C   UNL     1      61.631  24.708  60.595  1.00  0.00     0.120 C 
ATOM     38  C   UNL     1      63.519  23.779  62.065  1.00  0.00     0.004 C 
ATOM     39  C   UNL     1      62.018  24.141  61.946  1.00  0.00     0.022 C 
BRANCH  35  40
ATOM     40  C   UNL     1      62.050  26.670  59.113  1.00  0.00     0.246 CG0
ATOM     41  O   UNL     1      62.625  26.462  58.010  1.00  0.00    -0.272 OA
ATOM     42  G   UNL     1      61.059  27.795  59.261  1.00  0.00     0.000 G0
ENDBRANCH  35  40
ENDBRANCH  31  34
ENDBRANCH   2  30
ENDBRANCH   1   2
BRANCH   1  43
ATOM     43  C   UNL     1      67.872  29.545  58.990  1.00  0.00     0.003 C 
BRANCH  43  44
ATOM     44  C   UNL     1      68.365  30.864  58.397  1.00  0.00     0.001 C 
BRANCH  44  45
ATOM     45  C   UNL     1      69.891  30.882  58.247  1.00  0.00     0.008 C 
BRANCH  45  46
ATOM     46  C   UNL     1      70.610  30.350  59.491  1.00  0.00     0.075 C 
BRANCH  46  47
ATOM     47  C   UNL     1      72.108  30.499  59.310  1.00  0.00     0.132 C 
ATOM     48  O   UNL     1      72.611  30.238  58.224  1.00  0.00    -0.300 OA
BRANCH  47  49
ATOM     49  C   UNL     1      73.040  30.827  60.485  1.00  0.00     0.072 C 
ATOM     50  C   UNL     1      72.589  30.207  61.817  1.00  0.00     0.012 C 
ENDBRANCH  47  49
ENDBRANCH  46  47
ENDBRANCH  45  46
ENDBRANCH  44  45
ENDBRANCH  43  44
ENDBRANCH   1  43
TORSDOF 12
ENDMDL
MODEL 5
REMARK VINA RESULT:    -3.396      8.447     13.498
REMARK INTER + INTRA:         -10.070
REMARK INTER:                  -7.697
REMARK INTRA:                  -2.373
REMARK UNBOUND:                -2.902
REMARK SMILES CCC(=O)CCCCC[C@@H]1NC(=O)[C@@H]2CCCCN2C(=O)[C@H]([C@@H](C)CC)NC(=O)[C@@H](Cc2cn(OC)c3ccccc23)NC1=O
REMARK SMILES IDX 9 1 10 2 44 3 43 4 45 6 30 7 28 8 27 9 29 11 22 12 23 14
REMARK SMILES IDX 24 15 25 16 26 17 31 18 32 19 33 20 42 21 34 22 37 23 41 24
REMARK SMILES IDX 38 25 40 26 39 27 35 28 36 29 11 30 12 31 13 33 14 34 19 35
REMARK SMILES IDX 15 36 18 37 16 38 17 39 20 40 21 41 8 43 7 44 6 45 5 46 3 47
REMARK SMILES IDX 4 48 2 49 1 50
REMARK H PARENT 43 5 27 10 11 32
REMARK Flexibility Score: 80.00
ROOT
ATOM      1  C   UNL     1      68.487  28.633  58.863  1.00  0.00     0.035 C 
ENDROOT
BRANCH   1   2
ATOM      2  C   UNL     1      68.358  30.151  59.219  1.00  0.00     0.171 C 
BRANCH   2   3
ATOM      3  C   UNL     1      68.453  31.037  57.950  1.00  0.00     0.243 C 
ATOM      4  N   UNL     1      67.807  32.313  57.920  1.00  0.00    -0.342 N 
ATOM      5  H   UNL     1      68.303  33.157  58.325  1.00  0.00     0.164 HD
ATOM      6  O   UNL     1      68.905  30.559  56.852  1.00  0.00    -0.273 OA
BRANCH   4   7
ATOM      7  C   UNL     1      66.678  32.492  57.020  1.00  0.00     0.175 C 
BRANCH   7   8
ATOM      8  C   UNL     1      65.487  32.887  57.859  1.00  0.00     0.243 C 
ATOM      9  N   UNL     1      64.465  31.918  58.065  1.00  0.00    -0.342 N 
ATOM     10  H   UNL     1      64.400  31.027  57.496  1.00  0.00     0.164 HD
ATOM     11  O   UNL     1      65.324  34.099  58.191  1.00  0.00    -0.273 OA
BRANCH   9  12
ATOM     12  C   UNL     1      63.421  32.173  59.052  1.00  0.00     0.174 CG0
ATOM     13  G   UNL     1      63.937  31.682  60.379  1.00  0.00     0.000 G0
BRANCH  12  14
ATOM     14  C   UNL     1      62.061  31.561  58.572  1.00  0.00     0.018 C 
ATOM     15  C   UNL     1      61.196  32.640  57.903  1.00  0.00     0.010 C 
BRANCH  14  16
ATOM     16  C   UNL     1      62.209  30.367  57.576  1.00  0.00     0.002 C 
ATOM     17  C   UNL     1      61.289  29.193  57.952  1.00  0.00     0.004 C 
ENDBRANCH  14  16
ENDBRANCH  12  14
ENDBRANCH   9  12
ENDBRANCH   7   8
BRANCH   7  18
ATOM     18  C   UNL     1      66.917  33.563  55.921  1.00  0.00     0.073 C 
BRANCH  18  19
ATOM     19  C   UNL     1      68.400  33.799  55.706  1.00  0.00    -0.016 A 
ATOM     20  C   UNL     1      69.228  33.154  54.788  1.00  0.00     0.134 A 
ATOM     21  C   UNL     1      69.184  34.735  56.329  1.00  0.00     0.006 A 
ATOM     22  N   UNL     1      70.480  33.653  54.851  1.00  0.00    -0.191 N 
ATOM     23  C   UNL     1      70.465  34.624  55.800  1.00  0.00     0.087 A 
ATOM     24  C   UNL     1      68.859  35.669  57.333  1.00  0.00     0.011 A 
ATOM     25  C   UNL     1      71.450  35.561  56.160  1.00  0.00     0.030 A 
ATOM     26  C   UNL     1      69.858  36.591  57.722  1.00  0.00     0.001 A 
ATOM     27  C   UNL     1      71.141  36.544  57.137  1.00  0.00     0.002 A 
BRANCH  22  28
ATOM     28  O   UNL     1      71.576  33.088  54.207  1.00  0.00    -0.417 OA
ATOM     29  C   UNL     1      71.742  32.966  52.795  1.00  0.00     0.313 C 
ENDBRANCH  22  28
ENDBRANCH  18  19
ENDBRANCH   7  18
ENDBRANCH   4   7
ENDBRANCH   2   3
BRANCH   2  30
ATOM     30  N   UNL     1      67.054  30.412  59.865  1.00  0.00    -0.343 N 
ATOM     31  C   UNL     1      65.860  29.720  59.437  1.00  0.00     0.243 C 
ATOM     32  H   UNL     1      67.006  31.019  60.716  1.00  0.00     0.164 HD
ATOM     33  O   UNL     1      65.790  29.291  58.251  1.00  0.00    -0.273 OA
BRANCH  31  34
ATOM     34  C   UNL     1      64.856  29.252  60.458  1.00  0.00     0.174 C 
ATOM     35  N   UNL     1      63.809  30.273  60.800  1.00  0.00    -0.329 N 
ATOM     36  C   UNL     1      64.168  27.961  59.925  1.00  0.00     0.035 C 
ATOM     37  C   UNL     1      62.513  29.839  61.337  1.00  0.00     0.120 C 
ATOM     38  C   UNL     1      63.167  27.390  60.935  1.00  0.00     0.004 C 
ATOM     39  C   UNL     1      62.626  28.448  61.928  1.00  0.00     0.022 C 
BRANCH  35  40
ATOM     40  C   UNL     1      63.915  31.678  60.401  1.00  0.00     0.246 CG0
ATOM     41  O   UNL     1      64.319  32.519  61.250  1.00  0.00    -0.272 OA
ATOM     42  G   UNL     1      63.429  32.126  59.047  1.00  0.00     0.000 G0
ENDBRANCH  35  40
ENDBRANCH  31  34
ENDBRANCH   2  30
ENDBRANCH   1   2
BRANCH   1  43
ATOM     43  C   UNL     1      69.733  27.955  59.415  1.00  0.00     0.003 C 
BRANCH  43  44
ATOM     44  C   UNL     1      70.591  28.927  60.223  1.00  0.00     0.001 C 
BRANCH  44  45
ATOM     45  C   UNL     1      72.074  28.823  59.842  1.00  0.00     0.008 C 
BRANCH  45  46
ATOM     46  C   UNL     1      72.716  30.192  59.605  1.00  0.00     0.075 C 
BRANCH  46  47
ATOM     47  C   UNL     1      72.510  31.066  60.827  1.00  0.00     0.132 C 
ATOM     48  O   UNL     1      72.932  30.687  61.913  1.00  0.00    -0.300 OA
BRANCH  47  49
ATOM     49  C   UNL     1      71.662  32.344  60.780  1.00  0.00     0.072 C 
ATOM     50  C   UNL     1      71.269  32.767  59.356  1.00  0.00     0.012 C 
ENDBRANCH  47  49
ENDBRANCH  46  47
ENDBRANCH  45  46
ENDBRANCH  44  45
ENDBRANCH  43  44
ENDBRANCH   1  43
TORSDOF 12
ENDMDL
MODEL 6
REMARK VINA RESULT:    -3.381      1.546      2.634
REMARK INTER + INTRA:         -10.038
REMARK INTER:                  -8.042
REMARK INTRA:                  -1.996
REMARK UNBOUND:                -2.902
REMARK SMILES CCC(=O)CCCCC[C@@H]1NC(=O)[C@@H]2CCCCN2C(=O)[C@H]([C@@H](C)CC)NC(=O)[C@@H](Cc2cn(OC)c3ccccc23)NC1=O
REMARK SMILES IDX 9 1 10 2 44 3 43 4 45 6 30 7 28 8 27 9 29 11 22 12 23 14
REMARK SMILES IDX 24 15 25 16 26 17 31 18 32 19 33 20 42 21 34 22 37 23 41 24
REMARK SMILES IDX 38 25 40 26 39 27 35 28 36 29 11 30 12 31 13 33 14 34 19 35
REMARK SMILES IDX 15 36 18 37 16 38 17 39 20 40 21 41 8 43 7 44 6 45 5 46 3 47
REMARK SMILES IDX 4 48 2 49 1 50
REMARK H PARENT 43 5 27 10 11 32
REMARK Flexibility Score: 80.00
ROOT
ATOM      1  C   UNL     1      62.769  26.760  50.104  1.00  0.00     0.035 C 
ENDROOT
BRANCH   1   2
ATOM      2  C   UNL     1      61.896  27.825  49.359  1.00  0.00     0.171 C 
BRANCH   2   3
ATOM      3  C   UNL     1      60.416  27.373  49.263  1.00  0.00     0.243 C 
ATOM      4  N   UNL     1      59.366  28.332  49.418  1.00  0.00    -0.342 N 
ATOM      5  H   UNL     1      59.056  28.903  48.582  1.00  0.00     0.164 HD
ATOM      6  O   UNL     1      60.110  26.130  49.272  1.00  0.00    -0.273 OA
BRANCH   4   7
ATOM      7  C   UNL     1      58.512  28.234  50.592  1.00  0.00     0.175 C 
BRANCH   7   8
ATOM      8  C   UNL     1      58.785  29.444  51.453  1.00  0.00     0.243 C 
ATOM      9  N   UNL     1      60.040  29.517  52.122  1.00  0.00    -0.342 N 
ATOM     10  H   UNL     1      60.688  28.685  52.213  1.00  0.00     0.164 HD
ATOM     11  O   UNL     1      57.848  30.253  51.718  1.00  0.00    -0.273 OA
BRANCH   9  12
ATOM     12  C   UNL     1      60.437  30.763  52.768  1.00  0.00     0.174 CG0
ATOM     13  G   UNL     1      61.790  31.135  52.218  1.00  0.00     0.000 G0
BRANCH  12  14
ATOM     14  C   UNL     1      60.342  30.620  54.325  1.00  0.00     0.018 C 
ATOM     15  C   UNL     1      59.423  31.705  54.906  1.00  0.00     0.010 C 
BRANCH  14  16
ATOM     16  C   UNL     1      59.826  29.229  54.813  1.00  0.00     0.002 C 
ATOM     17  C   UNL     1      60.866  28.507  55.685  1.00  0.00     0.004 C 
ENDBRANCH  14  16
ENDBRANCH  12  14
ENDBRANCH   9  12
ENDBRANCH   7   8
BRANCH   7  18
ATOM     18  C   UNL     1      56.997  28.165  50.261  1.00  0.00     0.073 C 
BRANCH  18  19
ATOM     19  C   UNL     1      56.304  27.113  51.109  1.00  0.00    -0.016 A 
ATOM     20  C   UNL     1      56.597  26.773  52.429  1.00  0.00     0.134 A 
ATOM     21  C   UNL     1      55.222  26.351  50.752  1.00  0.00     0.006 A 
ATOM     22  N   UNL     1      55.745  25.823  52.870  1.00  0.00    -0.191 N 
ATOM     23  C   UNL     1      54.898  25.554  51.844  1.00  0.00     0.087 A 
ATOM     24  C   UNL     1      54.509  26.299  49.538  1.00  0.00     0.011 A 
ATOM     25  C   UNL     1      53.734  24.765  51.808  1.00  0.00     0.030 A 
ATOM     26  C   UNL     1      53.357  25.479  49.487  1.00  0.00     0.001 A 
ATOM     27  C   UNL     1      52.967  24.724  50.613  1.00  0.00     0.002 A 
BRANCH  22  28
ATOM     28  O   UNL     1      55.900  25.136  54.069  1.00  0.00    -0.417 OA
ATOM     29  C   UNL     1      55.672  23.741  54.266  1.00  0.00     0.313 C 
ENDBRANCH  22  28
ENDBRANCH  18  19
ENDBRANCH   7  18
ENDBRANCH   4   7
ENDBRANCH   2   3
BRANCH   2  30
ATOM     30  N   UNL     1      61.938  29.112  50.085  1.00  0.00    -0.343 N 
ATOM     31  C   UNL     1      62.764  30.203  49.618  1.00  0.00     0.243 C 
ATOM     32  H   UNL     1      61.281  29.284  50.881  1.00  0.00     0.164 HD
ATOM     33  O   UNL     1      63.791  29.945  48.932  1.00  0.00    -0.273 OA
BRANCH  31  34
ATOM     34  C   UNL     1      62.248  31.616  49.684  1.00  0.00     0.174 C 
ATOM     35  N   UNL     1      61.900  32.077  51.071  1.00  0.00    -0.329 N 
ATOM     36  C   UNL     1      63.320  32.567  49.076  1.00  0.00     0.035 C 
ATOM     37  C   UNL     1      61.894  33.512  51.384  1.00  0.00     0.120 C 
ATOM     38  C   UNL     1      62.847  34.024  49.057  1.00  0.00     0.004 C 
ATOM     39  C   UNL     1      61.758  34.329  50.115  1.00  0.00     0.022 C 
BRANCH  35  40
ATOM     40  C   UNL     1      61.798  31.159  52.206  1.00  0.00     0.246 CG0
ATOM     41  O   UNL     1      62.851  30.628  52.652  1.00  0.00    -0.272 OA
ATOM     42  G   UNL     1      60.449  30.758  52.745  1.00  0.00     0.000 G0
ENDBRANCH  35  40
ENDBRANCH  31  34
ENDBRANCH   2  30
ENDBRANCH   1   2
BRANCH   1  43
ATOM     43  C   UNL     1      64.103  26.455  49.439  1.00  0.00     0.003 C 
BRANCH  43  44
ATOM     44  C   UNL     1      64.911  25.436  50.241  1.00  0.00     0.001 C 
BRANCH  44  45
ATOM     45  C   UNL     1      66.100  26.092  50.955  1.00  0.00     0.008 C 
BRANCH  45  46
ATOM     46  C   UNL     1      65.889  26.202  52.467  1.00  0.00     0.075 C 
BRANCH  46  47
ATOM     47  C   UNL     1      65.089  27.453  52.777  1.00  0.00     0.132 C 
ATOM     48  O   UNL     1      65.374  28.502  52.211  1.00  0.00    -0.300 OA
BRANCH  47  49
ATOM     49  C   UNL     1      64.027  27.485  53.883  1.00  0.00     0.072 C 
ATOM     50  C   UNL     1      64.396  28.399  55.062  1.00  0.00     0.012 C 
ENDBRANCH  47  49
ENDBRANCH  46  47
ENDBRANCH  45  46
ENDBRANCH  44  45
ENDBRANCH  43  44
ENDBRANCH   1  43
TORSDOF 12
ENDMDL
MODEL 7
REMARK VINA RESULT:    -3.379      3.450      7.866
REMARK INTER + INTRA:         -10.034
REMARK INTER:                  -8.270
REMARK INTRA:                  -1.764
REMARK UNBOUND:                -2.902
REMARK SMILES CCC(=O)CCCCC[C@@H]1NC(=O)[C@@H]2CCCCN2C(=O)[C@H]([C@@H](C)CC)NC(=O)[C@@H](Cc2cn(OC)c3ccccc23)NC1=O
REMARK SMILES IDX 9 1 10 2 44 3 43 4 45 6 30 7 28 8 27 9 29 11 22 12 23 14
REMARK SMILES IDX 24 15 25 16 26 17 31 18 32 19 33 20 42 21 34 22 37 23 41 24
REMARK SMILES IDX 38 25 40 26 39 27 35 28 36 29 11 30 12 31 13 33 14 34 19 35
REMARK SMILES IDX 15 36 18 37 16 38 17 39 20 40 21 41 8 43 7 44 6 45 5 46 3 47
REMARK SMILES IDX 4 48 2 49 1 50
REMARK H PARENT 43 5 27 10 11 32
REMARK Flexibility Score: 80.00
ROOT
ATOM      1  C   UNL     1      61.694  28.031  51.321  1.00  0.00     0.035 C 
ENDROOT
BRANCH   1   2
ATOM      2  C   UNL     1      61.814  28.974  50.078  1.00  0.00     0.171 C 
BRANCH   2   3
ATOM      3  C   UNL     1      61.214  30.373  50.371  1.00  0.00     0.243 C 
ATOM      4  N   UNL     1      61.654  31.510  49.624  1.00  0.00    -0.342 N 
ATOM      5  H   UNL     1      61.212  31.718  48.684  1.00  0.00     0.164 HD
ATOM      6  O   UNL     1      60.500  30.572  51.415  1.00  0.00    -0.273 OA
BRANCH   4   7
ATOM      7  C   UNL     1      62.409  32.541  50.319  1.00  0.00     0.175 C 
BRANCH   7   8
ATOM      8  C   UNL     1      63.823  32.504  49.791  1.00  0.00     0.243 C 
ATOM      9  N   UNL     1      64.756  31.648  50.442  1.00  0.00    -0.342 N 
ATOM     10  H   UNL     1      64.566  31.211  51.388  1.00  0.00     0.164 HD
ATOM     11  O   UNL     1      64.196  33.354  48.930  1.00  0.00    -0.273 OA
BRANCH   9  12
ATOM     12  C   UNL     1      66.056  31.404  49.828  1.00  0.00     0.174 CG0
ATOM     13  G   UNL     1      66.217  29.910  49.711  1.00  0.00     0.000 G0
BRANCH  12  14
ATOM     14  C   UNL     1      67.179  32.158  50.619  1.00  0.00     0.018 C 
ATOM     15  C   UNL     1      68.136  32.863  49.647  1.00  0.00     0.010 C 
BRANCH  14  16
ATOM     16  C   UNL     1      66.648  33.216  51.638  1.00  0.00     0.002 C 
ATOM     17  C   UNL     1      66.717  34.643  51.067  1.00  0.00     0.004 C 
ENDBRANCH  14  16
ENDBRANCH  12  14
ENDBRANCH   9  12
ENDBRANCH   7   8
BRANCH   7  18
ATOM     18  C   UNL     1      61.827  33.970  50.143  1.00  0.00     0.073 C 
BRANCH  18  19
ATOM     19  C   UNL     1      61.952  34.769  51.427  1.00  0.00    -0.016 A 
ATOM     20  C   UNL     1      62.983  35.640  51.777  1.00  0.00     0.134 A 
ATOM     21  C   UNL     1      61.041  34.831  52.449  1.00  0.00     0.006 A 
ATOM     22  N   UNL     1      62.734  36.205  52.977  1.00  0.00    -0.191 N 
ATOM     23  C   UNL     1      61.544  35.710  53.402  1.00  0.00     0.087 A 
ATOM     24  C   UNL     1      59.810  34.164  52.610  1.00  0.00     0.011 A 
ATOM     25  C   UNL     1      60.748  36.073  54.503  1.00  0.00     0.030 A 
ATOM     26  C   UNL     1      59.022  34.501  53.735  1.00  0.00     0.001 A 
ATOM     27  C   UNL     1      59.482  35.452  54.671  1.00  0.00     0.002 A 
BRANCH  22  28
ATOM     28  O   UNL     1      63.661  36.961  53.687  1.00  0.00    -0.417 OA
ATOM     29  C   UNL     1      64.826  36.455  54.338  1.00  0.00     0.313 C 
ENDBRANCH  22  28
ENDBRANCH  18  19
ENDBRANCH   7  18
ENDBRANCH   4   7
ENDBRANCH   2   3
BRANCH   2  30
ATOM     30  N   UNL     1      63.235  29.151  49.710  1.00  0.00    -0.343 N 
ATOM     31  C   UNL     1      63.984  28.079  49.094  1.00  0.00     0.243 C 
ATOM     32  H   UNL     1      63.681  30.094  49.791  1.00  0.00     0.164 HD
ATOM     33  O   UNL     1      63.633  26.885  49.306  1.00  0.00    -0.273 OA
BRANCH  31  34
ATOM     34  C   UNL     1      64.959  28.385  47.988  1.00  0.00     0.174 C 
ATOM     35  N   UNL     1      66.142  29.201  48.422  1.00  0.00    -0.329 N 
ATOM     36  C   UNL     1      65.454  27.041  47.375  1.00  0.00     0.035 C 
ATOM     37  C   UNL     1      67.392  29.144  47.653  1.00  0.00     0.120 C 
ATOM     38  C   UNL     1      66.413  27.268  46.202  1.00  0.00     0.004 C 
ATOM     39  C   UNL     1      67.125  28.642  46.249  1.00  0.00     0.022 C 
BRANCH  35  40
ATOM     40  C   UNL     1      66.202  29.878  49.719  1.00  0.00     0.246 CG0
ATOM     41  O   UNL     1      66.248  29.176  50.766  1.00  0.00    -0.272 OA
ATOM     42  G   UNL     1      66.079  31.377  49.805  1.00  0.00     0.000 G0
ENDBRANCH  35  40
ENDBRANCH  31  34
ENDBRANCH   2  30
ENDBRANCH   1   2
BRANCH   1  43
ATOM     43  C   UNL     1      60.540  27.041  51.259  1.00  0.00     0.003 C 
BRANCH  43  44
ATOM     44  C   UNL     1      60.229  26.630  49.821  1.00  0.00     0.001 C 
BRANCH  44  45
ATOM     45  C   UNL     1      58.760  26.887  49.464  1.00  0.00     0.008 C 
BRANCH  45  46
ATOM     46  C   UNL     1      57.822  25.814  50.025  1.00  0.00     0.075 C 
BRANCH  46  47
ATOM     47  C   UNL     1      56.646  26.480  50.713  1.00  0.00     0.132 C 
ATOM     48  O   UNL     1      56.721  26.744  51.908  1.00  0.00    -0.300 OA
BRANCH  47  49
ATOM     49  C   UNL     1      55.307  26.704  50.000  1.00  0.00     0.072 C 
ATOM     50  C   UNL     1      54.631  28.035  50.366  1.00  0.00     0.012 C 
ENDBRANCH  47  49
ENDBRANCH  46  47
ENDBRANCH  45  46
ENDBRANCH  44  45
ENDBRANCH  43  44
ENDBRANCH   1  43
TORSDOF 12
ENDMDL
MODEL 8
REMARK VINA RESULT:    -3.293      6.908     11.874
REMARK INTER + INTRA:          -9.852
REMARK INTER:                  -7.942
REMARK INTRA:                  -1.910
REMARK UNBOUND:                -2.902
REMARK SMILES CCC(=O)CCCCC[C@@H]1NC(=O)[C@@H]2CCCCN2C(=O)[C@H]([C@@H](C)CC)NC(=O)[C@@H](Cc2cn(OC)c3ccccc23)NC1=O
REMARK SMILES IDX 9 1 10 2 44 3 43 4 45 6 30 7 28 8 27 9 29 11 22 12 23 14
REMARK SMILES IDX 24 15 25 16 26 17 31 18 32 19 33 20 42 21 34 22 37 23 41 24
REMARK SMILES IDX 38 25 40 26 39 27 35 28 36 29 11 30 12 31 13 33 14 34 19 35
REMARK SMILES IDX 15 36 18 37 16 38 17 39 20 40 21 41 8 43 7 44 6 45 5 46 3 47
REMARK SMILES IDX 4 48 2 49 1 50
REMARK H PARENT 43 5 27 10 11 32
REMARK Flexibility Score: 80.00
ROOT
ATOM      1  C   UNL     1      63.242  26.832  61.125  1.00  0.00     0.035 C 
ENDROOT
BRANCH   1   2
ATOM      2  C   UNL     1      62.140  27.681  61.844  1.00  0.00     0.171 C 
BRANCH   2   3
ATOM      3  C   UNL     1      62.556  29.170  61.951  1.00  0.00     0.243 C 
ATOM      4  N   UNL     1      61.592  30.200  61.718  1.00  0.00    -0.342 N 
ATOM      5  H   UNL     1      60.959  30.509  62.510  1.00  0.00     0.164 HD
ATOM      6  O   UNL     1      63.792  29.500  62.022  1.00  0.00    -0.273 OA
BRANCH   4   7
ATOM      7  C   UNL     1      61.753  31.042  60.543  1.00  0.00     0.175 C 
BRANCH   7   8
ATOM      8  C   UNL     1      60.627  30.714  59.592  1.00  0.00     0.243 C 
ATOM      9  N   UNL     1      60.620  29.426  58.985  1.00  0.00    -0.342 N 
ATOM     10  H   UNL     1      61.460  28.782  59.002  1.00  0.00     0.164 HD
ATOM     11  O   UNL     1      59.840  31.629  59.208  1.00  0.00    -0.273 OA
BRANCH   9  12
ATOM     12  C   UNL     1      59.439  28.984  58.251  1.00  0.00     0.174 CG0
ATOM     13  G   UNL     1      58.949  27.725  58.918  1.00  0.00     0.000 G0
BRANCH  12  14
ATOM     14  C   UNL     1      59.761  28.874  56.722  1.00  0.00     0.018 C 
ATOM     15  C   UNL     1      59.134  30.049  55.958  1.00  0.00     0.010 C 
BRANCH  14  16
ATOM     16  C   UNL     1      61.286  28.830  56.387  1.00  0.00     0.002 C 
ATOM     17  C   UNL     1      61.739  27.421  55.970  1.00  0.00     0.004 C 
ENDBRANCH  14  16
ENDBRANCH  12  14
ENDBRANCH   9  12
ENDBRANCH   7   8
BRANCH   7  18
ATOM     18  C   UNL     1      61.741  32.563  60.854  1.00  0.00     0.073 C 
BRANCH  18  19
ATOM     19  C   UNL     1      62.801  33.290  60.046  1.00  0.00    -0.016 A 
ATOM     20  C   UNL     1      63.458  32.821  58.909  1.00  0.00     0.134 A 
ATOM     21  C   UNL     1      63.258  34.566  60.248  1.00  0.00     0.006 A 
ATOM     22  N   UNL     1      64.305  33.759  58.435  1.00  0.00    -0.191 N 
ATOM     23  C   UNL     1      64.193  34.835  59.255  1.00  0.00     0.087 A 
ATOM     24  C   UNL     1      62.922  35.504  61.245  1.00  0.00     0.011 A 
ATOM     25  C   UNL     1      64.727  36.130  59.135  1.00  0.00     0.030 A 
ATOM     26  C   UNL     1      63.485  36.798  61.148  1.00  0.00     0.001 A 
ATOM     27  C   UNL     1      64.374  37.113  60.098  1.00  0.00     0.002 A 
BRANCH  22  28
ATOM     28  O   UNL     1      65.245  33.525  57.437  1.00  0.00    -0.417 OA
ATOM     29  C   UNL     1      66.585  33.079  57.642  1.00  0.00     0.313 C 
ENDBRANCH  22  28
ENDBRANCH  18  19
ENDBRANCH   7  18
ENDBRANCH   4   7
ENDBRANCH   2   3
BRANCH   2  30
ATOM     30  N   UNL     1      60.872  27.612  61.086  1.00  0.00    -0.343 N 
ATOM     31  C   UNL     1      59.724  26.912  61.619  1.00  0.00     0.243 C 
ATOM     32  H   UNL     1      60.759  28.166  60.206  1.00  0.00     0.164 HD
ATOM     33  O   UNL     1      59.906  25.972  62.440  1.00  0.00    -0.273 OA
BRANCH  31  34
ATOM     34  C   UNL     1      58.345  27.489  61.438  1.00  0.00     0.174 C 
ATOM     35  N   UNL     1      57.970  27.744  60.006  1.00  0.00    -0.329 N 
ATOM     36  C   UNL     1      57.311  26.516  62.079  1.00  0.00     0.035 C 
ATOM     37  C   UNL     1      56.554  27.794  59.619  1.00  0.00     0.120 C 
ATOM     38  C   UNL     1      55.881  27.059  61.984  1.00  0.00     0.004 C 
ATOM     39  C   UNL     1      55.686  28.071  60.829  1.00  0.00     0.022 C 
BRANCH  35  40
ATOM     40  C   UNL     1      58.947  27.709  58.916  1.00  0.00     0.246 CG0
ATOM     41  O   UNL     1      59.446  26.600  58.585  1.00  0.00    -0.272 OA
ATOM     42  G   UNL     1      59.439  28.989  58.292  1.00  0.00     0.000 G0
ENDBRANCH  35  40
ENDBRANCH  31  34
ENDBRANCH   2  30
ENDBRANCH   1   2
BRANCH   1  43
ATOM     43  C   UNL     1      63.162  26.845  59.605  1.00  0.00     0.003 C 
BRANCH  43  44
ATOM     44  C   UNL     1      64.552  26.826  58.970  1.00  0.00     0.001 C 
BRANCH  44  45
ATOM     45  C   UNL     1      65.659  26.835  60.031  1.00  0.00     0.008 C 
BRANCH  45  46
ATOM     46  C   UNL     1      66.295  28.217  60.206  1.00  0.00     0.075 C 
BRANCH  46  47
ATOM     47  C   UNL     1      67.759  28.153  59.814  1.00  0.00     0.132 C 
ATOM     48  O   UNL     1      68.461  29.147  59.952  1.00  0.00    -0.300 OA
BRANCH  47  49
ATOM     49  C   UNL     1      68.359  26.928  59.112  1.00  0.00     0.072 C 
ATOM     50  C   UNL     1      68.820  25.828  60.082  1.00  0.00     0.012 C 
ENDBRANCH  47  49
ENDBRANCH  46  47
ENDBRANCH  45  46
ENDBRANCH  44  45
ENDBRANCH  43  44
ENDBRANCH   1  43
TORSDOF 12
ENDMDL
MODEL 9
REMARK VINA RESULT:    -3.190      2.850      4.248
REMARK INTER + INTRA:          -9.635
REMARK INTER:                  -6.141
REMARK INTRA:                  -3.495
REMARK UNBOUND:                -2.902
REMARK SMILES CCC(=O)CCCCC[C@@H]1NC(=O)[C@@H]2CCCCN2C(=O)[C@H]([C@@H](C)CC)NC(=O)[C@@H](Cc2cn(OC)c3ccccc23)NC1=O
REMARK SMILES IDX 9 1 10 2 44 3 43 4 45 6 30 7 28 8 27 9 29 11 22 12 23 14
REMARK SMILES IDX 24 15 25 16 26 17 31 18 32 19 33 20 42 21 34 22 37 23 41 24
REMARK SMILES IDX 38 25 40 26 39 27 35 28 36 29 11 30 12 31 13 33 14 34 19 35
REMARK SMILES IDX 15 36 18 37 16 38 17 39 20 40 21 41 8 43 7 44 6 45 5 46 3 47
REMARK SMILES IDX 4 48 2 49 1 50
REMARK H PARENT 43 5 27 10 11 32
REMARK Flexibility Score: 80.00
ROOT
ATOM      1  C   UNL     1      65.340  26.148  49.807  1.00  0.00     0.035 C 
ENDROOT
BRANCH   1   2
ATOM      2  C   UNL     1      64.563  27.146  48.885  1.00  0.00     0.171 C 
BRANCH   2   3
ATOM      3  C   UNL     1      63.030  27.003  49.067  1.00  0.00     0.243 C 
ATOM      4  N   UNL     1      62.180  28.137  48.875  1.00  0.00    -0.342 N 
ATOM      5  H   UNL     1      61.858  28.387  47.897  1.00  0.00     0.164 HD
ATOM      6  O   UNL     1      62.530  25.953  49.601  1.00  0.00    -0.273 OA
BRANCH   4   7
ATOM      7  C   UNL     1      61.487  28.682  50.033  1.00  0.00     0.175 C 
BRANCH   7   8
ATOM      8  C   UNL     1      62.094  30.032  50.331  1.00  0.00     0.243 C 
ATOM      9  N   UNL     1      63.238  30.077  51.178  1.00  0.00    -0.342 N 
ATOM     10  H   UNL     1      63.546  29.252  51.766  1.00  0.00     0.164 HD
ATOM     11  O   UNL     1      61.479  31.087  49.996  1.00  0.00    -0.273 OA
BRANCH   9  12
ATOM     12  C   UNL     1      63.991  31.320  51.302  1.00  0.00     0.174 CG0
ATOM     13  G   UNL     1      65.346  31.080  50.688  1.00  0.00     0.000 G0
BRANCH  12  14
ATOM     14  C   UNL     1      63.986  31.810  52.790  1.00  0.00     0.018 C 
ATOM     15  C   UNL     1      63.135  33.080  52.932  1.00  0.00     0.010 C 
BRANCH  14  16
ATOM     16  C   UNL     1      63.461  30.753  53.814  1.00  0.00     0.002 C 
ATOM     17  C   UNL     1      62.322  31.314  54.682  1.00  0.00     0.004 C 
ENDBRANCH  14  16
ENDBRANCH  12  14
ENDBRANCH   9  12
ENDBRANCH   7   8
BRANCH   7  18
ATOM     18  C   UNL     1      59.956  28.836  49.832  1.00  0.00     0.073 C 
BRANCH  18  19
ATOM     19  C   UNL     1      59.190  28.160  50.955  1.00  0.00    -0.016 A 
ATOM     20  C   UNL     1      58.777  26.829  51.006  1.00  0.00     0.134 A 
ATOM     21  C   UNL     1      58.822  28.716  52.151  1.00  0.00     0.006 A 
ATOM     22  N   UNL     1      58.159  26.573  52.178  1.00  0.00    -0.191 N 
ATOM     23  C   UNL     1      58.177  27.729  52.889  1.00  0.00     0.087 A 
ATOM     24  C   UNL     1      59.002  30.027  52.637  1.00  0.00     0.011 A 
ATOM     25  C   UNL     1      57.812  27.984  54.222  1.00  0.00     0.030 A 
ATOM     26  C   UNL     1      58.603  30.296  53.967  1.00  0.00     0.001 A 
ATOM     27  C   UNL     1      58.020  29.283  54.757  1.00  0.00     0.002 A 
BRANCH  22  28
ATOM     28  O   UNL     1      57.462  25.400  52.449  1.00  0.00    -0.417 OA
ATOM     29  C   UNL     1      58.042  24.108  52.624  1.00  0.00     0.313 C 
ENDBRANCH  22  28
ENDBRANCH  18  19
ENDBRANCH   7  18
ENDBRANCH   4   7
ENDBRANCH   2   3
BRANCH   2  30
ATOM     30  N   UNL     1      64.937  28.538  49.214  1.00  0.00    -0.343 N 
ATOM     31  C   UNL     1      65.985  29.218  48.487  1.00  0.00     0.243 C 
ATOM     32  H   UNL     1      64.369  29.082  49.904  1.00  0.00     0.164 HD
ATOM     33  O   UNL     1      66.897  28.536  47.942  1.00  0.00    -0.273 OA
BRANCH  31  34
ATOM     34  C   UNL     1      65.827  30.672  48.128  1.00  0.00     0.174 C 
ATOM     35  N   UNL     1      65.645  31.579  49.312  1.00  0.00    -0.329 N 
ATOM     36  C   UNL     1      67.076  31.124  47.316  1.00  0.00     0.035 C 
ATOM     37  C   UNL     1      65.994  33.001  49.203  1.00  0.00     0.120 C 
ATOM     38  C   UNL     1      66.967  32.584  46.865  1.00  0.00     0.004 C 
ATOM     39  C   UNL     1      66.018  33.429  47.750  1.00  0.00     0.022 C 
BRANCH  35  40
ATOM     40  C   UNL     1      65.361  31.075  50.657  1.00  0.00     0.246 CG0
ATOM     41  O   UNL     1      66.223  30.352  51.226  1.00  0.00    -0.272 OA
ATOM     42  G   UNL     1      64.015  31.309  51.291  1.00  0.00     0.000 G0
ENDBRANCH  35  40
ENDBRANCH  31  34
ENDBRANCH   2  30
ENDBRANCH   1   2
BRANCH   1  43
ATOM     43  C   UNL     1      65.826  26.744  51.120  1.00  0.00     0.003 C 
BRANCH  43  44
ATOM     44  C   UNL     1      64.710  26.796  52.162  1.00  0.00     0.001 C 
BRANCH  44  45
ATOM     45  C   UNL     1      64.750  25.579  53.095  1.00  0.00     0.008 C 
BRANCH  45  46
ATOM     46  C   UNL     1      63.581  24.619  52.859  1.00  0.00     0.075 C 
BRANCH  46  47
ATOM     47  C   UNL     1      62.285  25.290  53.272  1.00  0.00     0.132 C 
ATOM     48  O   UNL     1      61.334  25.286  52.499  1.00  0.00    -0.300 OA
BRANCH  47  49
ATOM     49  C   UNL     1      62.167  26.103  54.568  1.00  0.00     0.072 C 
ATOM     50  C   UNL     1      61.635  27.529  54.353  1.00  0.00     0.012 C 
ENDBRANCH  47  49
ENDBRANCH  46  47
ENDBRANCH  45  46
ENDBRANCH  44  45
ENDBRANCH  43  44
ENDBRANCH   1  43
TORSDOF 12
ENDMDL
