MODEL 1
REMARK VINA RESULT:    -7.896      0.000      0.000
REMARK INTER + INTRA:         -13.002
REMARK INTER:                 -10.896
REMARK INTRA:                  -2.106
REMARK UNBOUND:                -2.106
REMARK SMILES CC[C@H](CC[C@H](C)[C@H]1CC[C@H]2[C@@H]3CC=C4C[C@H](O)CC[C@@]4(C)[C@H]3CC[C@@]12C)C(C)C
REMARK SMILES IDX 5 1 4 2 3 3 2 4 1 5 28 6 29 7 30 8 6 9 7 10 8 11 9 12 26 13
REMARK SMILES IDX 10 14 11 15 25 16 27 17 12 18 24 19 23 20 13 21 21 22 14 23
REMARK SMILES IDX 15 24 20 25 22 26 16 27 19 28 17 29 18 30
REMARK H PARENT 18 31
REMARK Flexibility Score: inf
ROOT
ATOM      1  C   UNL     1     -29.431 -22.907 103.503  1.00  0.00     0.004 C 
ENDROOT
BRANCH   1   2
ATOM      2  C   UNL     1     -29.798 -24.197 102.733  1.00  0.00     0.004 C 
BRANCH   2   3
ATOM      3  C   UNL     1     -29.080 -24.288 101.358  1.00  0.00    -0.009 C 
BRANCH   3   4
ATOM      4  C   UNL     1     -28.234 -22.993 101.121  1.00  0.00     0.000 C 
ATOM      5  C   UNL     1     -26.733 -23.253 101.249  1.00  0.00     0.004 C 
ENDBRANCH   3   4
BRANCH   3   6
ATOM      6  C   UNL     1     -28.190 -25.573 101.228  1.00  0.00    -0.014 C 
ATOM      7  C   UNL     1     -28.771 -26.783 101.987  1.00  0.00     0.007 C 
ATOM      8  C   UNL     1     -27.999 -25.976  99.752  1.00  0.00     0.007 C 
ENDBRANCH   3   6
ENDBRANCH   2   3
ENDBRANCH   1   2
BRANCH   1   9
ATOM      9  C   UNL     1     -28.641 -23.204 104.804  1.00  0.00    -0.011 C 
ATOM     10  C   UNL     1     -27.697 -22.022 105.098  1.00  0.00     0.008 C 
BRANCH   9  11
ATOM     11  C   UNL     1     -27.918 -24.599 104.720  1.00  0.00    -0.002 C 
ATOM     12  C   UNL     1     -26.401 -24.571 104.609  1.00  0.00     0.005 C 
ATOM     13  C   UNL     1     -28.221 -25.641 105.839  1.00  0.00    -0.026 C 
ATOM     14  C   UNL     1     -25.997 -26.025 104.780  1.00  0.00     0.005 C 
ATOM     15  C   UNL     1     -27.045 -26.667 105.720  1.00  0.00    -0.001 C 
ATOM     16  C   UNL     1     -28.234 -25.011 107.256  1.00  0.00     0.007 C 
ATOM     17  C   UNL     1     -29.583 -26.325 105.547  1.00  0.00     0.012 C 
ATOM     18  C   UNL     1     -26.387 -27.099 107.075  1.00  0.00     0.000 C 
ATOM     19  C   UNL     1     -28.399 -26.065 108.355  1.00  0.00     0.005 C 
ATOM     20  C   UNL     1     -27.406 -27.263 108.232  1.00  0.00     0.003 C 
ATOM     21  C   UNL     1     -25.654 -28.438 106.875  1.00  0.00     0.031 C 
ATOM     22  C   UNL     1     -26.695 -27.661 109.594  1.00  0.00    -0.008 C 
ATOM     23  C   UNL     1     -25.066 -28.959 108.149  1.00  0.00    -0.027 C 
ATOM     24  C   UNL     1     -25.581 -28.697 109.368  1.00  0.00    -0.065 C 
ATOM     25  C   UNL     1     -26.014 -26.440 110.306  1.00  0.00     0.014 C 
ATOM     26  C   UNL     1     -27.783 -28.270 110.519  1.00  0.00     0.016 C 
ATOM     27  C   UNL     1     -24.784 -29.138 110.577  1.00  0.00     0.063 C 
ATOM     28  C   UNL     1     -25.145 -26.826 111.525  1.00  0.00     0.033 C 
ATOM     29  C   UNL     1     -24.105 -27.910 111.190  1.00  0.00     0.118 C 
BRANCH  29  30
ATOM     30  O   UNL     1     -23.426 -28.297 112.355  1.00  0.00    -0.393 OA
ATOM     31  H   UNL     1     -23.199 -27.462 112.844  1.00  0.00     0.210 HD
ENDBRANCH  29  30
ENDBRANCH   9  11
ENDBRANCH   1   9
TORSDOF 7
ENDMDL
MODEL 2
REMARK VINA RESULT:    -7.742      2.921      9.045
REMARK INTER + INTRA:         -12.790
REMARK INTER:                 -10.612
REMARK INTRA:                  -2.178
REMARK UNBOUND:                -2.106
REMARK SMILES CC[C@H](CC[C@H](C)[C@H]1CC[C@H]2[C@@H]3CC=C4C[C@H](O)CC[C@@]4(C)[C@H]3CC[C@@]12C)C(C)C
REMARK SMILES IDX 5 1 4 2 3 3 2 4 1 5 28 6 29 7 30 8 6 9 7 10 8 11 9 12 26 13
REMARK SMILES IDX 10 14 11 15 25 16 27 17 12 18 24 19 23 20 13 21 21 22 14 23
REMARK SMILES IDX 15 24 20 25 22 26 16 27 19 28 17 29 18 30
REMARK H PARENT 18 31
REMARK Flexibility Score: inf
ROOT
ATOM      1  C   UNL     1     -24.400 -29.296 112.222  1.00  0.00     0.004 C 
ENDROOT
BRANCH   1   2
ATOM      2  C   UNL     1     -23.837 -28.662 113.515  1.00  0.00     0.004 C 
BRANCH   2   3
ATOM      3  C   UNL     1     -24.956 -28.303 114.532  1.00  0.00    -0.009 C 
BRANCH   3   4
ATOM      4  C   UNL     1     -25.080 -26.748 114.649  1.00  0.00     0.000 C 
ATOM      5  C   UNL     1     -23.736 -26.045 114.450  1.00  0.00     0.004 C 
ENDBRANCH   3   4
BRANCH   3   6
ATOM      6  C   UNL     1     -26.336 -28.951 114.161  1.00  0.00    -0.014 C 
ATOM      7  C   UNL     1     -26.862 -29.904 115.253  1.00  0.00     0.007 C 
ATOM      8  C   UNL     1     -27.410 -27.874 113.904  1.00  0.00     0.007 C 
ENDBRANCH   3   6
ENDBRANCH   2   3
ENDBRANCH   1   2
BRANCH   1   9
ATOM      9  C   UNL     1     -24.274 -28.349 111.000  1.00  0.00    -0.011 C 
ATOM     10  C   UNL     1     -22.986 -27.514 111.143  1.00  0.00     0.008 C 
BRANCH   9  11
ATOM     11  C   UNL     1     -25.580 -27.491 110.813  1.00  0.00    -0.002 C 
ATOM     12  C   UNL     1     -25.450 -25.995 111.061  1.00  0.00     0.005 C 
ATOM     13  C   UNL     1     -26.338 -27.610 109.457  1.00  0.00    -0.026 C 
ATOM     14  C   UNL     1     -26.776 -25.431 110.585  1.00  0.00     0.005 C 
ATOM     15  C   UNL     1     -27.257 -26.342 109.431  1.00  0.00    -0.001 C 
ATOM     16  C   UNL     1     -25.384 -27.598 108.234  1.00  0.00     0.007 C 
ATOM     17  C   UNL     1     -27.187 -28.908 109.457  1.00  0.00     0.012 C 
ATOM     18  C   UNL     1     -27.285 -25.557 108.076  1.00  0.00     0.000 C 
ATOM     19  C   UNL     1     -26.146 -27.580 106.906  1.00  0.00     0.005 C 
ATOM     20  C   UNL     1     -27.248 -26.477 106.828  1.00  0.00     0.003 C 
ATOM     21  C   UNL     1     -28.563 -24.702 108.015  1.00  0.00     0.031 C 
ATOM     22  C   UNL     1     -27.236 -25.642 105.478  1.00  0.00    -0.008 C 
ATOM     23  C   UNL     1     -28.704 -23.983 106.710  1.00  0.00    -0.027 C 
ATOM     24  C   UNL     1     -28.197 -24.442 105.548  1.00  0.00    -0.065 C 
ATOM     25  C   UNL     1     -25.824 -25.048 105.139  1.00  0.00     0.014 C 
ATOM     26  C   UNL     1     -27.691 -26.598 104.343  1.00  0.00     0.016 C 
ATOM     27  C   UNL     1     -28.257 -23.527 104.344  1.00  0.00     0.063 C 
ATOM     28  C   UNL     1     -25.824 -24.067 103.945  1.00  0.00     0.033 C 
ATOM     29  C   UNL     1     -26.863 -22.943 104.102  1.00  0.00     0.118 C 
BRANCH  29  30
ATOM     30  O   UNL     1     -26.892 -22.153 102.943  1.00  0.00    -0.393 OA
ATOM     31  H   UNL     1     -27.135 -21.234 103.230  1.00  0.00     0.210 HD
ENDBRANCH  29  30
ENDBRANCH   9  11
ENDBRANCH   1   9
TORSDOF 7
ENDMDL
MODEL 3
REMARK VINA RESULT:    -7.685      2.927      8.542
REMARK INTER + INTRA:         -12.712
REMARK INTER:                 -10.599
REMARK INTRA:                  -2.113
REMARK UNBOUND:                -2.106
REMARK SMILES CC[C@H](CC[C@H](C)[C@H]1CC[C@H]2[C@@H]3CC=C4C[C@H](O)CC[C@@]4(C)[C@H]3CC[C@@]12C)C(C)C
REMARK SMILES IDX 5 1 4 2 3 3 2 4 1 5 28 6 29 7 30 8 6 9 7 10 8 11 9 12 26 13
REMARK SMILES IDX 10 14 11 15 25 16 27 17 12 18 24 19 23 20 13 21 21 22 14 23
REMARK SMILES IDX 15 24 20 25 22 26 16 27 19 28 17 29 18 30
REMARK H PARENT 18 31
REMARK Flexibility Score: inf
ROOT
ATOM      1  C   UNL     1     -27.898 -27.712 111.096  1.00  0.00     0.004 C 
ENDROOT
BRANCH   1   2
ATOM      2  C   UNL     1     -26.560 -26.998 111.397  1.00  0.00     0.004 C 
BRANCH   2   3
ATOM      3  C   UNL     1     -25.679 -27.795 112.399  1.00  0.00    -0.009 C 
BRANCH   3   4
ATOM      4  C   UNL     1     -26.495 -29.002 112.971  1.00  0.00     0.000 C 
ATOM      5  C   UNL     1     -26.149 -29.291 114.432  1.00  0.00     0.004 C 
ENDBRANCH   3   4
BRANCH   3   6
ATOM      6  C   UNL     1     -24.330 -28.279 111.762  1.00  0.00    -0.014 C 
ATOM      7  C   UNL     1     -24.471 -29.615 111.005  1.00  0.00     0.007 C 
ATOM      8  C   UNL     1     -23.763 -27.230 110.784  1.00  0.00     0.007 C 
ENDBRANCH   3   6
ENDBRANCH   2   3
ENDBRANCH   1   2
BRANCH   1   9
ATOM      9  C   UNL     1     -27.971 -28.233 109.636  1.00  0.00    -0.011 C 
ATOM     10  C   UNL     1     -27.882 -29.771 109.648  1.00  0.00     0.008 C 
BRANCH   9  11
ATOM     11  C   UNL     1     -26.891 -27.532 108.732  1.00  0.00    -0.002 C 
ATOM     12  C   UNL     1     -26.074 -28.440 107.824  1.00  0.00     0.005 C 
ATOM     13  C   UNL     1     -27.360 -26.362 107.815  1.00  0.00    -0.026 C 
ATOM     14  C   UNL     1     -25.310 -27.474 106.937  1.00  0.00     0.005 C 
ATOM     15  C   UNL     1     -26.205 -26.225 106.767  1.00  0.00    -0.001 C 
ATOM     16  C   UNL     1     -28.698 -26.667 107.094  1.00  0.00     0.007 C 
ATOM     17  C   UNL     1     -27.494 -25.069 108.663  1.00  0.00     0.012 C 
ATOM     18  C   UNL     1     -26.663 -26.066 105.277  1.00  0.00     0.000 C 
ATOM     19  C   UNL     1     -29.080 -25.569 106.096  1.00  0.00     0.005 C 
ATOM     20  C   UNL     1     -27.931 -25.188 105.110  1.00  0.00     0.003 C 
ATOM     21  C   UNL     1     -25.520 -25.433 104.463  1.00  0.00     0.031 C 
ATOM     22  C   UNL     1     -28.384 -25.087 103.593  1.00  0.00    -0.008 C 
ATOM     23  C   UNL     1     -25.911 -25.172 103.042  1.00  0.00    -0.027 C 
ATOM     24  C   UNL     1     -27.178 -24.920 102.653  1.00  0.00    -0.065 C 
ATOM     25  C   UNL     1     -29.147 -26.365 103.096  1.00  0.00     0.014 C 
ATOM     26  C   UNL     1     -29.305 -23.843 103.471  1.00  0.00     0.016 C 
ATOM     27  C   UNL     1     -27.456 -24.854 101.166  1.00  0.00     0.063 C 
ATOM     28  C   UNL     1     -29.423 -26.382 101.575  1.00  0.00     0.033 C 
ATOM     29  C   UNL     1     -28.152 -26.149 100.741  1.00  0.00     0.118 C 
BRANCH  29  30
ATOM     30  O   UNL     1     -28.482 -26.066  99.380  1.00  0.00    -0.393 OA
ATOM     31  H   UNL     1     -27.651 -25.807  98.900  1.00  0.00     0.210 HD
ENDBRANCH  29  30
ENDBRANCH   9  11
ENDBRANCH   1   9
TORSDOF 7
ENDMDL
MODEL 4
REMARK VINA RESULT:    -7.563      2.792      8.601
REMARK INTER + INTRA:         -12.543
REMARK INTER:                 -10.395
REMARK INTRA:                  -2.149
REMARK UNBOUND:                -2.106
REMARK SMILES CC[C@H](CC[C@H](C)[C@H]1CC[C@H]2[C@@H]3CC=C4C[C@H](O)CC[C@@]4(C)[C@H]3CC[C@@]12C)C(C)C
REMARK SMILES IDX 5 1 4 2 3 3 2 4 1 5 28 6 29 7 30 8 6 9 7 10 8 11 9 12 26 13
REMARK SMILES IDX 10 14 11 15 25 16 27 17 12 18 24 19 23 20 13 21 21 22 14 23
REMARK SMILES IDX 15 24 20 25 22 26 16 27 19 28 17 29 18 30
REMARK H PARENT 18 31
REMARK Flexibility Score: inf
ROOT
ATOM      1  C   UNL     1     -27.752 -27.947 112.883  1.00  0.00     0.004 C 
ENDROOT
BRANCH   1   2
ATOM      2  C   UNL     1     -26.416 -28.640 113.240  1.00  0.00     0.004 C 
BRANCH   2   3
ATOM      3  C   UNL     1     -25.208 -27.666 113.167  1.00  0.00    -0.009 C 
BRANCH   3   4
ATOM      4  C   UNL     1     -24.851 -27.164 114.605  1.00  0.00     0.000 C 
ATOM      5  C   UNL     1     -24.688 -25.645 114.662  1.00  0.00     0.004 C 
ENDBRANCH   3   4
BRANCH   3   6
ATOM      6  C   UNL     1     -23.959 -28.308 112.469  1.00  0.00    -0.014 C 
ATOM      7  C   UNL     1     -24.213 -29.754 111.998  1.00  0.00     0.007 C 
ATOM      8  C   UNL     1     -23.508 -27.477 111.250  1.00  0.00     0.007 C 
ENDBRANCH   3   6
ENDBRANCH   2   3
ENDBRANCH   1   2
BRANCH   1   9
ATOM      9  C   UNL     1     -28.252 -28.331 111.466  1.00  0.00    -0.011 C 
ATOM     10  C   UNL     1     -28.821 -29.762 111.505  1.00  0.00     0.008 C 
BRANCH   9  11
ATOM     11  C   UNL     1     -27.123 -28.116 110.390  1.00  0.00    -0.002 C 
ATOM     12  C   UNL     1     -26.852 -29.280 109.449  1.00  0.00     0.005 C 
ATOM     13  C   UNL     1     -27.232 -26.867 109.464  1.00  0.00    -0.026 C 
ATOM     14  C   UNL     1     -25.908 -28.698 108.413  1.00  0.00     0.005 C 
ATOM     15  C   UNL     1     -26.271 -27.201 108.274  1.00  0.00    -0.001 C 
ATOM     16  C   UNL     1     -28.671 -26.637 108.936  1.00  0.00     0.007 C 
ATOM     17  C   UNL     1     -26.741 -25.613 110.236  1.00  0.00     0.012 C 
ATOM     18  C   UNL     1     -26.836 -26.895 106.846  1.00  0.00     0.000 C 
ATOM     19  C   UNL     1     -28.739 -25.489 107.923  1.00  0.00     0.005 C 
ATOM     20  C   UNL     1     -27.681 -25.596 106.780  1.00  0.00     0.003 C 
ATOM     21  C   UNL     1     -25.664 -26.766 105.857  1.00  0.00     0.031 C 
ATOM     22  C   UNL     1     -28.268 -25.345 105.327  1.00  0.00    -0.008 C 
ATOM     23  C   UNL     1     -26.119 -26.391 104.481  1.00  0.00    -0.027 C 
ATOM     24  C   UNL     1     -27.234 -25.672 104.236  1.00  0.00    -0.065 C 
ATOM     25  C   UNL     1     -29.523 -26.233 105.013  1.00  0.00     0.014 C 
ATOM     26  C   UNL     1     -28.650 -23.843 105.239  1.00  0.00     0.016 C 
ATOM     27  C   UNL     1     -27.670 -25.521 102.794  1.00  0.00     0.063 C 
ATOM     28  C   UNL     1     -29.995 -26.161 103.543  1.00  0.00     0.033 C 
ATOM     29  C   UNL     1     -28.861 -26.450 102.544  1.00  0.00     0.118 C 
BRANCH  29  30
ATOM     30  O   UNL     1     -29.320 -26.262 101.231  1.00  0.00    -0.393 OA
ATOM     31  H   UNL     1     -29.956 -25.499 101.258  1.00  0.00     0.210 HD
ENDBRANCH  29  30
ENDBRANCH   9  11
ENDBRANCH   1   9
TORSDOF 7
ENDMDL
MODEL 5
REMARK VINA RESULT:    -7.403      6.821     10.356
REMARK INTER + INTRA:         -12.322
REMARK INTER:                 -10.609
REMARK INTRA:                  -1.713
REMARK UNBOUND:                -2.106
REMARK SMILES CC[C@H](CC[C@H](C)[C@H]1CC[C@H]2[C@@H]3CC=C4C[C@H](O)CC[C@@]4(C)[C@H]3CC[C@@]12C)C(C)C
REMARK SMILES IDX 5 1 4 2 3 3 2 4 1 5 28 6 29 7 30 8 6 9 7 10 8 11 9 12 26 13
REMARK SMILES IDX 10 14 11 15 25 16 27 17 12 18 24 19 23 20 13 21 21 22 14 23
REMARK SMILES IDX 15 24 20 25 22 26 16 27 19 28 17 29 18 30
REMARK H PARENT 18 31
REMARK Flexibility Score: inf
ROOT
ATOM      1  C   UNL     1     -23.788 -25.991 114.756  1.00  0.00     0.004 C 
ENDROOT
BRANCH   1   2
ATOM      2  C   UNL     1     -23.286 -26.580 113.417  1.00  0.00     0.004 C 
BRANCH   2   3
ATOM      3  C   UNL     1     -23.847 -25.813 112.188  1.00  0.00    -0.009 C 
BRANCH   3   4
ATOM      4  C   UNL     1     -22.832 -24.706 111.750  1.00  0.00     0.000 C 
ATOM      5  C   UNL     1     -23.085 -23.377 112.462  1.00  0.00     0.004 C 
ENDBRANCH   3   4
BRANCH   3   6
ATOM      6  C   UNL     1     -24.192 -26.766 110.990  1.00  0.00    -0.014 C 
ATOM      7  C   UNL     1     -23.650 -28.196 111.187  1.00  0.00     0.007 C 
ATOM      8  C   UNL     1     -25.715 -26.855 110.763  1.00  0.00     0.007 C 
ENDBRANCH   3   6
ENDBRANCH   2   3
ENDBRANCH   1   2
BRANCH   1   9
ATOM      9  C   UNL     1     -25.317 -26.171 114.940  1.00  0.00    -0.011 C 
ATOM     10  C   UNL     1     -25.917 -24.854 115.470  1.00  0.00     0.008 C 
BRANCH   9  11
ATOM     11  C   UNL     1     -25.635 -27.427 115.832  1.00  0.00    -0.002 C 
ATOM     12  C   UNL     1     -26.535 -27.194 117.037  1.00  0.00     0.005 C 
ATOM     13  C   UNL     1     -26.223 -28.687 115.128  1.00  0.00    -0.026 C 
ATOM     14  C   UNL     1     -26.836 -28.594 117.542  1.00  0.00     0.005 C 
ATOM     15  C   UNL     1     -26.830 -29.522 116.305  1.00  0.00    -0.001 C 
ATOM     16  C   UNL     1     -27.329 -28.336 114.100  1.00  0.00     0.007 C 
ATOM     17  C   UNL     1     -25.076 -29.467 114.432  1.00  0.00     0.012 C 
ATOM     18  C   UNL     1     -28.258 -30.112 116.046  1.00  0.00     0.000 C 
ATOM     19  C   UNL     1     -27.991 -29.587 113.514  1.00  0.00     0.005 C 
ATOM     20  C   UNL     1     -28.466 -30.611 114.592  1.00  0.00     0.003 C 
ATOM     21  C   UNL     1     -28.498 -31.291 117.006  1.00  0.00     0.031 C 
ATOM     22  C   UNL     1     -29.936 -31.163 114.361  1.00  0.00    -0.008 C 
ATOM     23  C   UNL     1     -29.813 -31.963 116.763  1.00  0.00    -0.027 C 
ATOM     24  C   UNL     1     -30.422 -31.996 115.560  1.00  0.00    -0.065 C 
ATOM     25  C   UNL     1     -30.994 -30.021 114.169  1.00  0.00     0.014 C 
ATOM     26  C   UNL     1     -29.895 -32.061 113.095  1.00  0.00     0.016 C 
ATOM     27  C   UNL     1     -31.828 -32.552 115.498  1.00  0.00     0.063 C 
ATOM     28  C   UNL     1     -32.458 -30.516 114.144  1.00  0.00     0.033 C 
ATOM     29  C   UNL     1     -32.810 -31.384 115.365  1.00  0.00     0.118 C 
BRANCH  29  30
ATOM     30  O   UNL     1     -34.111 -31.893 115.231  1.00  0.00    -0.393 OA
ATOM     31  H   UNL     1     -34.313 -31.908 114.258  1.00  0.00     0.210 HD
ENDBRANCH  29  30
ENDBRANCH   9  11
ENDBRANCH   1   9
TORSDOF 7
ENDMDL
MODEL 6
REMARK VINA RESULT:    -7.238      1.442      2.679
REMARK INTER + INTRA:         -12.095
REMARK INTER:                 -10.571
REMARK INTRA:                  -1.524
REMARK UNBOUND:                -2.106
REMARK SMILES CC[C@H](CC[C@H](C)[C@H]1CC[C@H]2[C@@H]3CC=C4C[C@H](O)CC[C@@]4(C)[C@H]3CC[C@@]12C)C(C)C
REMARK SMILES IDX 5 1 4 2 3 3 2 4 1 5 28 6 29 7 30 8 6 9 7 10 8 11 9 12 26 13
REMARK SMILES IDX 10 14 11 15 25 16 27 17 12 18 24 19 23 20 13 21 21 22 14 23
REMARK SMILES IDX 15 24 20 25 22 26 16 27 19 28 17 29 18 30
REMARK H PARENT 18 31
REMARK Flexibility Score: inf
ROOT
ATOM      1  C   UNL     1     -27.367 -25.156 102.887  1.00  0.00     0.004 C 
ENDROOT
BRANCH   1   2
ATOM      2  C   UNL     1     -28.105 -23.908 102.351  1.00  0.00     0.004 C 
BRANCH   2   3
ATOM      3  C   UNL     1     -29.648 -24.036 102.476  1.00  0.00    -0.009 C 
BRANCH   3   4
ATOM      4  C   UNL     1     -30.035 -25.536 102.692  1.00  0.00     0.000 C 
ATOM      5  C   UNL     1     -31.530 -25.782 102.486  1.00  0.00     0.004 C 
ENDBRANCH   3   4
BRANCH   3   6
ATOM      6  C   UNL     1     -30.236 -23.134 103.618  1.00  0.00    -0.014 C 
ATOM      7  C   UNL     1     -29.984 -23.710 105.025  1.00  0.00     0.007 C 
ATOM      8  C   UNL     1     -29.646 -21.710 103.567  1.00  0.00     0.007 C 
ENDBRANCH   3   6
ENDBRANCH   2   3
ENDBRANCH   1   2
BRANCH   1   9
ATOM      9  C   UNL     1     -26.843 -24.953 104.333  1.00  0.00    -0.011 C 
ATOM     10  C   UNL     1     -25.703 -23.916 104.312  1.00  0.00     0.008 C 
BRANCH   9  11
ATOM     11  C   UNL     1     -26.452 -26.328 104.991  1.00  0.00    -0.002 C 
ATOM     12  C   UNL     1     -24.963 -26.613 105.132  1.00  0.00     0.005 C 
ATOM     13  C   UNL     1     -27.060 -26.664 106.385  1.00  0.00    -0.026 C 
ATOM     14  C   UNL     1     -24.913 -27.866 105.988  1.00  0.00     0.005 C 
ATOM     15  C   UNL     1     -26.143 -27.812 106.925  1.00  0.00    -0.001 C 
ATOM     16  C   UNL     1     -27.030 -25.458 107.358  1.00  0.00     0.007 C 
ATOM     17  C   UNL     1     -28.518 -27.163 106.201  1.00  0.00     0.012 C 
ATOM     18  C   UNL     1     -25.697 -27.670 108.420  1.00  0.00     0.000 C 
ATOM     19  C   UNL     1     -27.507 -25.836 108.764  1.00  0.00     0.005 C 
ATOM     20  C   UNL     1     -26.805 -27.104 109.345  1.00  0.00     0.003 C 
ATOM     21  C   UNL     1     -25.274 -29.052 108.953  1.00  0.00     0.031 C 
ATOM     22  C   UNL     1     -26.301 -26.939 110.841  1.00  0.00    -0.008 C 
ATOM     23  C   UNL     1     -24.912 -29.014 110.404  1.00  0.00    -0.027 C 
ATOM     24  C   UNL     1     -25.437 -28.134 111.281  1.00  0.00    -0.065 C 
ATOM     25  C   UNL     1     -25.412 -25.663 111.048  1.00  0.00     0.014 C 
ATOM     26  C   UNL     1     -27.560 -26.856 111.744  1.00  0.00     0.016 C 
ATOM     27  C   UNL     1     -24.848 -28.093 112.674  1.00  0.00     0.063 C 
ATOM     28  C   UNL     1     -24.741 -25.581 112.438  1.00  0.00     0.033 C 
ATOM     29  C   UNL     1     -23.954 -26.856 112.791  1.00  0.00     0.118 C 
BRANCH  29  30
ATOM     30  O   UNL     1     -23.463 -26.767 114.102  1.00  0.00    -0.393 OA
ATOM     31  H   UNL     1     -23.393 -25.800 114.316  1.00  0.00     0.210 HD
ENDBRANCH  29  30
ENDBRANCH   9  11
ENDBRANCH   1   9
TORSDOF 7
ENDMDL
MODEL 7
REMARK VINA RESULT:    -7.142      1.522      3.381
REMARK INTER + INTRA:         -11.961
REMARK INTER:                  -9.922
REMARK INTRA:                  -2.039
REMARK UNBOUND:                -2.106
REMARK SMILES CC[C@H](CC[C@H](C)[C@H]1CC[C@H]2[C@@H]3CC=C4C[C@H](O)CC[C@@]4(C)[C@H]3CC[C@@]12C)C(C)C
REMARK SMILES IDX 5 1 4 2 3 3 2 4 1 5 28 6 29 7 30 8 6 9 7 10 8 11 9 12 26 13
REMARK SMILES IDX 10 14 11 15 25 16 27 17 12 18 24 19 23 20 13 21 21 22 14 23
REMARK SMILES IDX 15 24 20 25 22 26 16 27 19 28 17 29 18 30
REMARK H PARENT 18 31
REMARK Flexibility Score: inf
ROOT
ATOM      1  C   UNL     1     -27.977 -25.829 102.224  1.00  0.00     0.004 C 
ENDROOT
BRANCH   1   2
ATOM      2  C   UNL     1     -28.308 -24.388 101.773  1.00  0.00     0.004 C 
BRANCH   2   3
ATOM      3  C   UNL     1     -27.332 -23.342 102.378  1.00  0.00    -0.009 C 
BRANCH   3   4
ATOM      4  C   UNL     1     -26.352 -22.835 101.269  1.00  0.00     0.000 C 
ATOM      5  C   UNL     1     -24.996 -22.422 101.842  1.00  0.00     0.004 C 
ENDBRANCH   3   4
BRANCH   3   6
ATOM      6  C   UNL     1     -28.081 -22.142 103.058  1.00  0.00    -0.014 C 
ATOM      7  C   UNL     1     -29.612 -22.329 103.082  1.00  0.00     0.007 C 
ATOM      8  C   UNL     1     -27.599 -21.928 104.507  1.00  0.00     0.007 C 
ENDBRANCH   3   6
ENDBRANCH   2   3
ENDBRANCH   1   2
BRANCH   1   9
ATOM      9  C   UNL     1     -28.838 -26.279 103.434  1.00  0.00    -0.011 C 
ATOM     10  C   UNL     1     -30.328 -26.172 103.056  1.00  0.00     0.008 C 
BRANCH   9  11
ATOM     11  C   UNL     1     -28.446 -25.484 104.734  1.00  0.00    -0.002 C 
ATOM     12  C   UNL     1     -29.585 -25.113 105.672  1.00  0.00     0.005 C 
ATOM     13  C   UNL     1     -27.348 -26.096 105.655  1.00  0.00    -0.026 C 
ATOM     14  C   UNL     1     -28.880 -24.580 106.906  1.00  0.00     0.005 C 
ATOM     15  C   UNL     1     -27.537 -25.340 107.013  1.00  0.00    -0.001 C 
ATOM     16  C   UNL     1     -27.527 -27.622 105.867  1.00  0.00     0.007 C 
ATOM     17  C   UNL     1     -25.949 -25.804 105.049  1.00  0.00     0.012 C 
ATOM     18  C   UNL     1     -27.506 -26.240 108.295  1.00  0.00     0.000 C 
ATOM     19  C   UNL     1     -26.525 -28.187 106.879  1.00  0.00     0.005 C 
ATOM     20  C   UNL     1     -26.467 -27.388 108.219  1.00  0.00     0.003 C 
ATOM     21  C   UNL     1     -27.177 -25.364 109.517  1.00  0.00     0.031 C 
ATOM     22  C   UNL     1     -26.496 -28.299 109.519  1.00  0.00    -0.008 C 
ATOM     23  C   UNL     1     -27.048 -26.166 110.774  1.00  0.00    -0.027 C 
ATOM     24  C   UNL     1     -26.651 -27.456 110.796  1.00  0.00    -0.065 C 
ATOM     25  C   UNL     1     -27.690 -29.317 109.525  1.00  0.00     0.014 C 
ATOM     26  C   UNL     1     -25.148 -29.068 109.571  1.00  0.00     0.016 C 
ATOM     27  C   UNL     1     -26.738 -28.195 112.113  1.00  0.00     0.063 C 
ATOM     28  C   UNL     1     -27.865 -30.075 110.860  1.00  0.00     0.033 C 
ATOM     29  C   UNL     1     -27.951 -29.129 112.071  1.00  0.00     0.118 C 
BRANCH  29  30
ATOM     30  O   UNL     1     -27.997 -29.875 113.258  1.00  0.00    -0.393 OA
ATOM     31  H   UNL     1     -28.956 -29.982 113.491  1.00  0.00     0.210 HD
ENDBRANCH  29  30
ENDBRANCH   9  11
ENDBRANCH   1   9
TORSDOF 7
ENDMDL
MODEL 8
REMARK VINA RESULT:    -6.978      7.873     10.849
REMARK INTER + INTRA:         -11.735
REMARK INTER:                 -10.756
REMARK INTRA:                  -0.979
REMARK UNBOUND:                -2.106
REMARK SMILES CC[C@H](CC[C@H](C)[C@H]1CC[C@H]2[C@@H]3CC=C4C[C@H](O)CC[C@@]4(C)[C@H]3CC[C@@]12C)C(C)C
REMARK SMILES IDX 5 1 4 2 3 3 2 4 1 5 28 6 29 7 30 8 6 9 7 10 8 11 9 12 26 13
REMARK SMILES IDX 10 14 11 15 25 16 27 17 12 18 24 19 23 20 13 21 21 22 14 23
REMARK SMILES IDX 15 24 20 25 22 26 16 27 19 28 17 29 18 30
REMARK H PARENT 18 31
REMARK Flexibility Score: inf
ROOT
ATOM      1  C   UNL     1     -24.950 -26.502 115.823  1.00  0.00     0.004 C 
ENDROOT
BRANCH   1   2
ATOM      2  C   UNL     1     -25.168 -25.943 114.398  1.00  0.00     0.004 C 
BRANCH   2   3
ATOM      3  C   UNL     1     -23.830 -25.747 113.631  1.00  0.00    -0.009 C 
BRANCH   3   4
ATOM      4  C   UNL     1     -23.268 -27.139 113.193  1.00  0.00     0.000 C 
ATOM      5  C   UNL     1     -22.756 -27.127 111.752  1.00  0.00     0.004 C 
ENDBRANCH   3   4
BRANCH   3   6
ATOM      6  C   UNL     1     -23.979 -24.787 112.399  1.00  0.00    -0.014 C 
ATOM      7  C   UNL     1     -25.427 -24.301 112.190  1.00  0.00     0.007 C 
ATOM      8  C   UNL     1     -23.070 -23.549 112.540  1.00  0.00     0.007 C 
ENDBRANCH   3   6
ENDBRANCH   2   3
ENDBRANCH   1   2
BRANCH   1   9
ATOM      9  C   UNL     1     -26.289 -26.817 116.541  1.00  0.00    -0.011 C 
ATOM     10  C   UNL     1     -26.363 -25.997 117.844  1.00  0.00     0.008 C 
BRANCH   9  11
ATOM     11  C   UNL     1     -26.471 -28.366 116.744  1.00  0.00    -0.002 C 
ATOM     12  C   UNL     1     -27.473 -28.798 117.805  1.00  0.00     0.005 C 
ATOM     13  C   UNL     1     -26.815 -29.226 115.491  1.00  0.00    -0.026 C 
ATOM     14  C   UNL     1     -27.592 -30.298 117.602  1.00  0.00     0.005 C 
ATOM     15  C   UNL     1     -27.366 -30.561 116.095  1.00  0.00    -0.001 C 
ATOM     16  C   UNL     1     -27.892 -28.568 114.590  1.00  0.00     0.007 C 
ATOM     17  C   UNL     1     -25.521 -29.482 114.673  1.00  0.00     0.012 C 
ATOM     18  C   UNL     1     -28.668 -31.117 115.425  1.00  0.00     0.000 C 
ATOM     19  C   UNL     1     -28.318 -29.481 113.436  1.00  0.00     0.005 C 
ATOM     20  C   UNL     1     -28.703 -30.925 113.887  1.00  0.00     0.003 C 
ATOM     21  C   UNL     1     -28.790 -32.621 115.732  1.00  0.00     0.031 C 
ATOM     22  C   UNL     1     -30.055 -31.464 113.253  1.00  0.00    -0.008 C 
ATOM     23  C   UNL     1     -29.971 -33.245 115.056  1.00  0.00    -0.027 C 
ATOM     24  C   UNL     1     -30.487 -32.795 113.894  1.00  0.00    -0.065 C 
ATOM     25  C   UNL     1     -31.258 -30.477 113.451  1.00  0.00     0.014 C 
ATOM     26  C   UNL     1     -29.797 -31.684 111.738  1.00  0.00     0.016 C 
ATOM     27  C   UNL     1     -31.787 -33.407 113.418  1.00  0.00     0.063 C 
ATOM     28  C   UNL     1     -32.626 -31.059 113.026  1.00  0.00     0.033 C 
ATOM     29  C   UNL     1     -32.922 -32.416 113.687  1.00  0.00     0.118 C 
BRANCH  29  30
ATOM     30  O   UNL     1     -34.120 -32.943 113.181  1.00  0.00    -0.393 OA
ATOM     31  H   UNL     1     -33.954 -33.906 113.000  1.00  0.00     0.210 HD
ENDBRANCH  29  30
ENDBRANCH   9  11
ENDBRANCH   1   9
TORSDOF 7
ENDMDL
MODEL 9
REMARK VINA RESULT:    -6.865      8.672     12.123
REMARK INTER + INTRA:         -11.579
REMARK INTER:                 -10.516
REMARK INTRA:                  -1.063
REMARK UNBOUND:                -2.106
REMARK SMILES CC[C@H](CC[C@H](C)[C@H]1CC[C@H]2[C@@H]3CC=C4C[C@H](O)CC[C@@]4(C)[C@H]3CC[C@@]12C)C(C)C
REMARK SMILES IDX 5 1 4 2 3 3 2 4 1 5 28 6 29 7 30 8 6 9 7 10 8 11 9 12 26 13
REMARK SMILES IDX 10 14 11 15 25 16 27 17 12 18 24 19 23 20 13 21 21 22 14 23
REMARK SMILES IDX 15 24 20 25 22 26 16 27 19 28 17 29 18 30
REMARK H PARENT 18 31
REMARK Flexibility Score: inf
ROOT
ATOM      1  C   UNL     1     -25.585 -26.337 115.925  1.00  0.00     0.004 C 
ENDROOT
BRANCH   1   2
ATOM      2  C   UNL     1     -24.356 -25.864 115.116  1.00  0.00     0.004 C 
BRANCH   2   3
ATOM      3  C   UNL     1     -23.934 -26.891 114.029  1.00  0.00    -0.009 C 
BRANCH   3   4
ATOM      4  C   UNL     1     -24.935 -28.094 114.027  1.00  0.00     0.000 C 
ATOM      5  C   UNL     1     -24.219 -29.439 113.900  1.00  0.00     0.004 C 
ENDBRANCH   3   4
BRANCH   3   6
ATOM      6  C   UNL     1     -23.826 -26.247 112.602  1.00  0.00    -0.014 C 
ATOM      7  C   UNL     1     -23.539 -24.733 112.649  1.00  0.00     0.007 C 
ATOM      8  C   UNL     1     -22.720 -26.921 111.765  1.00  0.00     0.007 C 
ENDBRANCH   3   6
ENDBRANCH   2   3
ENDBRANCH   1   2
BRANCH   1   9
ATOM      9  C   UNL     1     -26.439 -25.150 116.443  1.00  0.00    -0.011 C 
ATOM     10  C   UNL     1     -26.493 -25.204 117.982  1.00  0.00     0.008 C 
BRANCH   9  11
ATOM     11  C   UNL     1     -27.852 -25.126 115.751  1.00  0.00    -0.002 C 
ATOM     12  C   UNL     1     -29.014 -25.682 116.561  1.00  0.00     0.005 C 
ATOM     13  C   UNL     1     -28.364 -23.763 115.195  1.00  0.00    -0.026 C 
ATOM     14  C   UNL     1     -30.238 -25.313 115.741  1.00  0.00     0.005 C 
ATOM     15  C   UNL     1     -29.903 -23.988 115.017  1.00  0.00    -0.001 C 
ATOM     16  C   UNL     1     -28.109 -22.585 116.170  1.00  0.00     0.007 C 
ATOM     17  C   UNL     1     -27.685 -23.480 113.828  1.00  0.00     0.012 C 
ATOM     18  C   UNL     1     -30.818 -22.825 115.532  1.00  0.00     0.000 C 
ATOM     19  C   UNL     1     -28.735 -21.277 115.673  1.00  0.00     0.005 C 
ATOM     20  C   UNL     1     -30.235 -21.414 115.263  1.00  0.00     0.003 C 
ATOM     21  C   UNL     1     -32.193 -22.925 114.847  1.00  0.00     0.031 C 
ATOM     22  C   UNL     1     -31.171 -20.268 115.836  1.00  0.00    -0.008 C 
ATOM     23  C   UNL     1     -33.100 -21.796 115.227  1.00  0.00    -0.027 C 
ATOM     24  C   UNL     1     -32.658 -20.571 115.579  1.00  0.00    -0.065 C 
ATOM     25  C   UNL     1     -31.029 -20.082 117.387  1.00  0.00     0.014 C 
ATOM     26  C   UNL     1     -30.783 -18.952 115.110  1.00  0.00     0.016 C 
ATOM     27  C   UNL     1     -33.673 -19.583 116.111  1.00  0.00     0.063 C 
ATOM     28  C   UNL     1     -32.069 -19.118 118.004  1.00  0.00     0.033 C 
ATOM     29  C   UNL     1     -33.515 -19.490 117.631  1.00  0.00     0.118 C 
BRANCH  29  30
ATOM     30  O   UNL     1     -34.400 -18.520 118.125  1.00  0.00    -0.393 OA
ATOM     31  H   UNL     1     -34.026 -17.636 117.871  1.00  0.00     0.210 HD
ENDBRANCH  29  30
ENDBRANCH   9  11
ENDBRANCH   1   9
TORSDOF 7
ENDMDL
