MODEL 1
REMARK VINA RESULT:    -6.648      0.000      0.000
REMARK INTER + INTRA:         -11.449
REMARK INTER:                  -9.174
REMARK INTRA:                  -2.275
REMARK UNBOUND:                -2.275
REMARK SMILES CC[C@H](CC[C@H](C)[C@@H]1CC[C@@H]2[C@H]3CC=C4C[C@@H](O)CC[C@]4(C)[C@H]3CC[C@@]21C)C(C)C
REMARK SMILES IDX 5 1 4 2 3 3 2 4 1 5 28 6 29 7 30 8 6 9 7 10 8 11 9 12 26 13
REMARK SMILES IDX 10 14 11 15 25 16 27 17 12 18 24 19 23 20 13 21 21 22 14 23
REMARK SMILES IDX 15 24 20 25 22 26 16 27 19 28 17 29 18 30
REMARK H PARENT 18 31
REMARK Flexibility Score: inf
ROOT
ATOM      1  C   UNL     1     113.256 116.033 125.940  1.00  0.00     0.004 C 
ENDROOT
BRANCH   1   2
ATOM      2  C   UNL     1     111.988 116.531 125.204  1.00  0.00     0.004 C 
BRANCH   2   3
ATOM      3  C   UNL     1     112.103 117.937 124.532  1.00  0.00    -0.009 C 
BRANCH   3   4
ATOM      4  C   UNL     1     111.929 117.851 122.988  1.00  0.00     0.000 C 
ATOM      5  C   UNL     1     111.956 116.440 122.405  1.00  0.00     0.004 C 
ENDBRANCH   3   4
BRANCH   3   6
ATOM      6  C   UNL     1     111.263 119.060 125.230  1.00  0.00    -0.014 C 
ATOM      7  C   UNL     1     111.252 120.378 124.436  1.00  0.00     0.007 C 
ATOM      8  C   UNL     1     111.802 119.356 126.642  1.00  0.00     0.007 C 
ENDBRANCH   3   6
ENDBRANCH   2   3
ENDBRANCH   1   2
BRANCH   1   9
ATOM      9  C   UNL     1     114.559 116.332 125.157  1.00  0.00    -0.011 C 
ATOM     10  C   UNL     1     115.202 115.026 124.641  1.00  0.00     0.008 C 
BRANCH   9  11
ATOM     11  C   UNL     1     115.506 117.338 125.913  1.00  0.00    -0.002 C 
ATOM     12  C   UNL     1     114.965 117.751 127.284  1.00  0.00     0.005 C 
ATOM     13  C   UNL     1     116.049 118.654 125.259  1.00  0.00    -0.026 C 
ATOM     14  C   UNL     1     115.757 118.980 127.703  1.00  0.00     0.005 C 
ATOM     15  C   UNL     1     116.632 119.395 126.505  1.00  0.00    -0.001 C 
ATOM     16  C   UNL     1     114.931 119.492 124.578  1.00  0.00     0.007 C 
ATOM     17  C   UNL     1     117.163 118.329 124.231  1.00  0.00     0.012 C 
ATOM     18  C   UNL     1     116.785 120.947 126.423  1.00  0.00     0.000 C 
ATOM     19  C   UNL     1     115.280 120.977 124.395  1.00  0.00     0.005 C 
ATOM     20  C   UNL     1     115.574 121.646 125.761  1.00  0.00     0.003 C 
ATOM     21  C   UNL     1     118.095 121.375 125.742  1.00  0.00     0.031 C 
ATOM     22  C   UNL     1     115.734 123.233 125.760  1.00  0.00    -0.008 C 
ATOM     23  C   UNL     1     118.248 122.860 125.776  1.00  0.00    -0.027 C 
ATOM     24  C   UNL     1     117.199 123.708 125.733  1.00  0.00    -0.065 C 
ATOM     25  C   UNL     1     115.109 123.777 127.086  1.00  0.00     0.014 C 
ATOM     26  C   UNL     1     114.977 123.866 124.561  1.00  0.00     0.016 C 
ATOM     27  C   UNL     1     117.464 125.186 125.941  1.00  0.00     0.063 C 
ATOM     28  C   UNL     1     115.359 125.277 127.343  1.00  0.00     0.033 C 
ATOM     29  C   UNL     1     116.853 125.627 127.280  1.00  0.00     0.118 C 
BRANCH  29  30
ATOM     30  O   UNL     1     117.009 127.013 127.441  1.00  0.00    -0.393 OA
ATOM     31  H   UNL     1     117.212 127.168 128.401  1.00  0.00     0.210 HD
ENDBRANCH  29  30
ENDBRANCH   9  11
ENDBRANCH   1   9
TORSDOF 7
ENDMDL
MODEL 2
REMARK VINA RESULT:    -6.568      3.472      8.987
REMARK INTER + INTRA:         -11.339
REMARK INTER:                 -10.953
REMARK INTRA:                  -0.386
REMARK UNBOUND:                -2.275
REMARK SMILES CC[C@H](CC[C@H](C)[C@@H]1CC[C@@H]2[C@H]3CC=C4C[C@@H](O)CC[C@]4(C)[C@H]3CC[C@@]21C)C(C)C
REMARK SMILES IDX 5 1 4 2 3 3 2 4 1 5 28 6 29 7 30 8 6 9 7 10 8 11 9 12 26 13
REMARK SMILES IDX 10 14 11 15 25 16 27 17 12 18 24 19 23 20 13 21 21 22 14 23
REMARK SMILES IDX 15 24 20 25 22 26 16 27 19 28 17 29 18 30
REMARK H PARENT 18 31
REMARK Flexibility Score: inf
ROOT
ATOM      1  C   UNL     1     117.502 126.436 126.280  1.00  0.00     0.004 C 
ENDROOT
BRANCH   1   2
ATOM      2  C   UNL     1     118.835 127.099 125.855  1.00  0.00     0.004 C 
BRANCH   2   3
ATOM      3  C   UNL     1     118.799 128.653 125.696  1.00  0.00    -0.009 C 
BRANCH   3   4
ATOM      4  C   UNL     1     117.462 129.253 126.222  1.00  0.00     0.000 C 
ATOM      5  C   UNL     1     116.817 130.301 125.318  1.00  0.00     0.004 C 
ENDBRANCH   3   4
BRANCH   3   6
ATOM      6  C   UNL     1     120.092 129.386 126.191  1.00  0.00    -0.014 C 
ATOM      7  C   UNL     1     119.792 130.736 126.868  1.00  0.00     0.007 C 
ATOM      8  C   UNL     1     121.064 129.642 125.024  1.00  0.00     0.007 C 
ENDBRANCH   3   6
ENDBRANCH   2   3
ENDBRANCH   1   2
BRANCH   1   9
ATOM      9  C   UNL     1     117.453 124.925 125.942  1.00  0.00    -0.011 C 
ATOM     10  C   UNL     1     118.175 124.636 124.607  1.00  0.00     0.008 C 
BRANCH   9  11
ATOM     11  C   UNL     1     116.013 124.310 126.116  1.00  0.00    -0.002 C 
ATOM     12  C   UNL     1     115.492 124.409 127.553  1.00  0.00     0.005 C 
ATOM     13  C   UNL     1     115.636 122.869 125.628  1.00  0.00    -0.026 C 
ATOM     14  C   UNL     1     114.310 123.456 127.644  1.00  0.00     0.005 C 
ATOM     15  C   UNL     1     114.251 122.665 126.322  1.00  0.00    -0.001 C 
ATOM     16  C   UNL     1     116.660 121.793 126.085  1.00  0.00     0.007 C 
ATOM     17  C   UNL     1     115.497 122.840 124.084  1.00  0.00     0.012 C 
ATOM     18  C   UNL     1     113.764 121.201 126.556  1.00  0.00     0.000 C 
ATOM     19  C   UNL     1     116.102 120.362 126.103  1.00  0.00     0.005 C 
ATOM     20  C   UNL     1     114.884 120.256 127.053  1.00  0.00     0.003 C 
ATOM     21  C   UNL     1     113.065 120.608 125.323  1.00  0.00     0.031 C 
ATOM     22  C   UNL     1     114.333 118.789 127.349  1.00  0.00    -0.008 C 
ATOM     23  C   UNL     1     112.527 119.248 125.622  1.00  0.00    -0.027 C 
ATOM     24  C   UNL     1     113.115 118.399 126.492  1.00  0.00    -0.065 C 
ATOM     25  C   UNL     1     113.866 118.745 128.841  1.00  0.00     0.014 C 
ATOM     26  C   UNL     1     115.449 117.727 127.150  1.00  0.00     0.016 C 
ATOM     27  C   UNL     1     112.389 117.115 126.841  1.00  0.00     0.063 C 
ATOM     28  C   UNL     1     113.118 117.458 129.240  1.00  0.00     0.033 C 
ATOM     29  C   UNL     1     111.932 117.173 128.307  1.00  0.00     0.118 C 
BRANCH  29  30
ATOM     30  O   UNL     1     111.342 115.952 128.670  1.00  0.00    -0.393 OA
ATOM     31  H   UNL     1     111.555 115.305 127.947  1.00  0.00     0.210 HD
ENDBRANCH  29  30
ENDBRANCH   9  11
ENDBRANCH   1   9
TORSDOF 7
ENDMDL
MODEL 3
REMARK VINA RESULT:    -6.490      3.457      9.121
REMARK INTER + INTRA:         -11.232
REMARK INTER:                 -10.367
REMARK INTRA:                  -0.864
REMARK UNBOUND:                -2.275
REMARK SMILES CC[C@H](CC[C@H](C)[C@@H]1CC[C@@H]2[C@H]3CC=C4C[C@@H](O)CC[C@]4(C)[C@H]3CC[C@@]21C)C(C)C
REMARK SMILES IDX 5 1 4 2 3 3 2 4 1 5 28 6 29 7 30 8 6 9 7 10 8 11 9 12 26 13
REMARK SMILES IDX 10 14 11 15 25 16 27 17 12 18 24 19 23 20 13 21 21 22 14 23
REMARK SMILES IDX 15 24 20 25 22 26 16 27 19 28 17 29 18 30
REMARK H PARENT 18 31
REMARK Flexibility Score: inf
ROOT
ATOM      1  C   UNL     1     118.581 126.399 126.503  1.00  0.00     0.004 C 
ENDROOT
BRANCH   1   2
ATOM      2  C   UNL     1     118.753 127.661 127.382  1.00  0.00     0.004 C 
BRANCH   2   3
ATOM      3  C   UNL     1     119.313 128.925 126.653  1.00  0.00    -0.009 C 
BRANCH   3   4
ATOM      4  C   UNL     1     120.226 128.538 125.454  1.00  0.00     0.000 C 
ATOM      5  C   UNL     1     121.413 129.468 125.212  1.00  0.00     0.004 C 
ENDBRANCH   3   4
BRANCH   3   6
ATOM      6  C   UNL     1     118.238 130.021 126.339  1.00  0.00    -0.014 C 
ATOM      7  C   UNL     1     117.768 129.994 124.874  1.00  0.00     0.007 C 
ATOM      8  C   UNL     1     118.782 131.431 126.641  1.00  0.00     0.007 C 
ENDBRANCH   3   6
ENDBRANCH   2   3
ENDBRANCH   1   2
BRANCH   1   9
ATOM      9  C   UNL     1     117.107 125.934 126.406  1.00  0.00    -0.011 C 
ATOM     10  C   UNL     1     116.151 127.019 126.954  1.00  0.00     0.008 C 
BRANCH   9  11
ATOM     11  C   UNL     1     116.895 124.468 126.941  1.00  0.00    -0.002 C 
ATOM     12  C   UNL     1     117.813 123.447 126.264  1.00  0.00     0.005 C 
ATOM     13  C   UNL     1     115.487 123.784 127.020  1.00  0.00    -0.026 C 
ATOM     14  C   UNL     1     117.237 122.077 126.584  1.00  0.00     0.005 C 
ATOM     15  C   UNL     1     115.886 122.298 127.292  1.00  0.00    -0.001 C 
ATOM     16  C   UNL     1     114.680 123.918 125.699  1.00  0.00     0.007 C 
ATOM     17  C   UNL     1     114.667 124.367 128.199  1.00  0.00     0.012 C 
ATOM     18  C   UNL     1     114.857 121.187 126.912  1.00  0.00     0.000 C 
ATOM     19  C   UNL     1     113.574 122.865 125.528  1.00  0.00     0.005 C 
ATOM     20  C   UNL     1     114.166 121.434 125.550  1.00  0.00     0.003 C 
ATOM     21  C   UNL     1     113.811 120.952 128.013  1.00  0.00     0.031 C 
ATOM     22  C   UNL     1     113.176 120.245 125.163  1.00  0.00    -0.008 C 
ATOM     23  C   UNL     1     112.911 119.816 127.653  1.00  0.00    -0.027 C 
ATOM     24  C   UNL     1     112.576 119.517 126.380  1.00  0.00    -0.065 C 
ATOM     25  C   UNL     1     113.998 119.180 124.364  1.00  0.00     0.014 C 
ATOM     26  C   UNL     1     112.021 120.756 124.261  1.00  0.00     0.016 C 
ATOM     27  C   UNL     1     111.793 118.245 126.125  1.00  0.00     0.063 C 
ATOM     28  C   UNL     1     113.241 117.866 124.085  1.00  0.00     0.033 C 
ATOM     29  C   UNL     1     112.683 117.244 125.374  1.00  0.00     0.118 C 
BRANCH  29  30
ATOM     30  O   UNL     1     111.941 116.098 125.048  1.00  0.00    -0.393 OA
ATOM     31  H   UNL     1     112.070 115.939 124.076  1.00  0.00     0.210 HD
ENDBRANCH  29  30
ENDBRANCH   9  11
ENDBRANCH   1   9
TORSDOF 7
ENDMDL
MODEL 4
REMARK VINA RESULT:    -6.472      1.576      3.747
REMARK INTER + INTRA:         -11.206
REMARK INTER:                  -9.385
REMARK INTRA:                  -1.821
REMARK UNBOUND:                -2.275
REMARK SMILES CC[C@H](CC[C@H](C)[C@@H]1CC[C@@H]2[C@H]3CC=C4C[C@@H](O)CC[C@]4(C)[C@H]3CC[C@@]21C)C(C)C
REMARK SMILES IDX 5 1 4 2 3 3 2 4 1 5 28 6 29 7 30 8 6 9 7 10 8 11 9 12 26 13
REMARK SMILES IDX 10 14 11 15 25 16 27 17 12 18 24 19 23 20 13 21 21 22 14 23
REMARK SMILES IDX 15 24 20 25 22 26 16 27 19 28 17 29 18 30
REMARK H PARENT 18 31
REMARK Flexibility Score: inf
ROOT
ATOM      1  C   UNL     1     112.040 116.301 124.776  1.00  0.00     0.004 C 
ENDROOT
BRANCH   1   2
ATOM      2  C   UNL     1     113.119 115.691 123.848  1.00  0.00     0.004 C 
BRANCH   2   3
ATOM      3  C   UNL     1     114.113 114.697 124.528  1.00  0.00    -0.009 C 
BRANCH   3   4
ATOM      4  C   UNL     1     113.923 113.245 124.002  1.00  0.00     0.000 C 
ATOM      5  C   UNL     1     115.205 112.528 123.586  1.00  0.00     0.004 C 
ENDBRANCH   3   4
BRANCH   3   6
ATOM      6  C   UNL     1     115.598 115.194 124.573  1.00  0.00    -0.014 C 
ATOM      7  C   UNL     1     116.120 115.389 126.007  1.00  0.00     0.007 C 
ATOM      8  C   UNL     1     115.758 116.528 123.819  1.00  0.00     0.007 C 
ENDBRANCH   3   6
ENDBRANCH   2   3
ENDBRANCH   1   2
BRANCH   1   9
ATOM      9  C   UNL     1     112.636 116.895 126.077  1.00  0.00    -0.011 C 
ATOM     10  C   UNL     1     112.048 116.194 127.321  1.00  0.00     0.008 C 
BRANCH   9  11
ATOM     11  C   UNL     1     112.633 118.470 126.084  1.00  0.00    -0.002 C 
ATOM     12  C   UNL     1     112.495 119.073 124.683  1.00  0.00     0.005 C 
ATOM     13  C   UNL     1     113.733 119.322 126.804  1.00  0.00    -0.026 C 
ATOM     14  C   UNL     1     112.894 120.535 124.807  1.00  0.00     0.005 C 
ATOM     15  C   UNL     1     113.438 120.746 126.233  1.00  0.00    -0.001 C 
ATOM     16  C   UNL     1     115.175 118.862 126.452  1.00  0.00     0.007 C 
ATOM     17  C   UNL     1     113.529 119.283 128.340  1.00  0.00     0.012 C 
ATOM     18  C   UNL     1     114.597 121.792 126.250  1.00  0.00     0.000 C 
ATOM     19  C   UNL     1     116.252 119.933 126.683  1.00  0.00     0.005 C 
ATOM     20  C   UNL     1     115.963 121.197 125.834  1.00  0.00     0.003 C 
ATOM     21  C   UNL     1     114.714 122.520 127.599  1.00  0.00     0.031 C 
ATOM     22  C   UNL     1     117.107 122.308 125.795  1.00  0.00    -0.008 C 
ATOM     23  C   UNL     1     115.765 123.578 127.539  1.00  0.00    -0.027 C 
ATOM     24  C   UNL     1     116.871 123.474 126.772  1.00  0.00    -0.065 C 
ATOM     25  C   UNL     1     117.126 122.923 124.357  1.00  0.00     0.014 C 
ATOM     26  C   UNL     1     118.498 121.683 126.083  1.00  0.00     0.016 C 
ATOM     27  C   UNL     1     117.783 124.680 126.663  1.00  0.00     0.063 C 
ATOM     28  C   UNL     1     118.038 124.156 124.201  1.00  0.00     0.033 C 
ATOM     29  C   UNL     1     117.712 125.243 125.236  1.00  0.00     0.118 C 
BRANCH  29  30
ATOM     30  O   UNL     1     118.623 126.302 125.096  1.00  0.00    -0.393 OA
ATOM     31  H   UNL     1     118.545 126.857 125.916  1.00  0.00     0.210 HD
ENDBRANCH  29  30
ENDBRANCH   9  11
ENDBRANCH   1   9
TORSDOF 7
ENDMDL
MODEL 5
REMARK VINA RESULT:    -6.449      0.572      1.570
REMARK INTER + INTRA:         -11.175
REMARK INTER:                  -9.217
REMARK INTRA:                  -1.958
REMARK UNBOUND:                -2.275
REMARK SMILES CC[C@H](CC[C@H](C)[C@@H]1CC[C@@H]2[C@H]3CC=C4C[C@@H](O)CC[C@]4(C)[C@H]3CC[C@@]21C)C(C)C
REMARK SMILES IDX 5 1 4 2 3 3 2 4 1 5 28 6 29 7 30 8 6 9 7 10 8 11 9 12 26 13
REMARK SMILES IDX 10 14 11 15 25 16 27 17 12 18 24 19 23 20 13 21 21 22 14 23
REMARK SMILES IDX 15 24 20 25 22 26 16 27 19 28 17 29 18 30
REMARK H PARENT 18 31
REMARK Flexibility Score: inf
ROOT
ATOM      1  C   UNL     1     113.674 115.996 126.169  1.00  0.00     0.004 C 
ENDROOT
BRANCH   1   2
ATOM      2  C   UNL     1     112.364 115.987 125.344  1.00  0.00     0.004 C 
BRANCH   2   3
ATOM      3  C   UNL     1     111.817 117.390 124.927  1.00  0.00    -0.009 C 
BRANCH   3   4
ATOM      4  C   UNL     1     112.037 118.449 126.046  1.00  0.00     0.000 C 
ATOM      5  C   UNL     1     111.177 118.267 127.294  1.00  0.00     0.004 C 
ENDBRANCH   3   4
BRANCH   3   6
ATOM      6  C   UNL     1     112.241 117.850 123.490  1.00  0.00    -0.014 C 
ATOM      7  C   UNL     1     111.470 119.091 123.008  1.00  0.00     0.007 C 
ATOM      8  C   UNL     1     112.025 116.723 122.462  1.00  0.00     0.007 C 
ENDBRANCH   3   6
ENDBRANCH   2   3
ENDBRANCH   1   2
BRANCH   1   9
ATOM      9  C   UNL     1     114.920 116.324 125.309  1.00  0.00    -0.011 C 
ATOM     10  C   UNL     1     115.586 115.030 124.790  1.00  0.00     0.008 C 
BRANCH   9  11
ATOM     11  C   UNL     1     115.865 117.384 125.989  1.00  0.00    -0.002 C 
ATOM     12  C   UNL     1     115.392 117.799 127.385  1.00  0.00     0.005 C 
ATOM     13  C   UNL     1     116.308 118.711 125.282  1.00  0.00    -0.026 C 
ATOM     14  C   UNL     1     116.152 119.069 127.734  1.00  0.00     0.005 C 
ATOM     15  C   UNL     1     116.932 119.500 126.477  1.00  0.00    -0.001 C 
ATOM     16  C   UNL     1     115.114 119.485 124.658  1.00  0.00     0.007 C 
ATOM     17  C   UNL     1     117.369 118.415 124.191  1.00  0.00     0.012 C 
ATOM     18  C   UNL     1     117.010 121.055 126.361  1.00  0.00     0.000 C 
ATOM     19  C   UNL     1     115.383 120.981 124.431  1.00  0.00     0.005 C 
ATOM     20  C   UNL     1     115.730 121.688 125.765  1.00  0.00     0.003 C 
ATOM     21  C   UNL     1     118.254 121.527 125.593  1.00  0.00     0.031 C 
ATOM     22  C   UNL     1     115.818 123.280 125.729  1.00  0.00    -0.008 C 
ATOM     23  C   UNL     1     118.342 123.018 125.593  1.00  0.00    -0.027 C 
ATOM     24  C   UNL     1     117.255 123.818 125.602  1.00  0.00    -0.065 C 
ATOM     25  C   UNL     1     115.252 123.821 127.083  1.00  0.00     0.014 C 
ATOM     26  C   UNL     1     114.961 123.856 124.570  1.00  0.00     0.016 C 
ATOM     27  C   UNL     1     117.466 125.310 125.770  1.00  0.00     0.063 C 
ATOM     28  C   UNL     1     115.450 125.335 127.299  1.00  0.00     0.033 C 
ATOM     29  C   UNL     1     116.920 125.749 127.137  1.00  0.00     0.118 C 
BRANCH  29  30
ATOM     30  O   UNL     1     117.023 127.143 127.267  1.00  0.00    -0.393 OA
ATOM     31  H   UNL     1     117.919 127.397 126.922  1.00  0.00     0.210 HD
ENDBRANCH  29  30
ENDBRANCH   9  11
ENDBRANCH   1   9
TORSDOF 7
ENDMDL
MODEL 6
REMARK VINA RESULT:    -6.407      1.759      3.929
REMARK INTER + INTRA:         -11.117
REMARK INTER:                  -8.977
REMARK INTRA:                  -2.141
REMARK UNBOUND:                -2.275
REMARK SMILES CC[C@H](CC[C@H](C)[C@@H]1CC[C@@H]2[C@H]3CC=C4C[C@@H](O)CC[C@]4(C)[C@H]3CC[C@@]21C)C(C)C
REMARK SMILES IDX 5 1 4 2 3 3 2 4 1 5 28 6 29 7 30 8 6 9 7 10 8 11 9 12 26 13
REMARK SMILES IDX 10 14 11 15 25 16 27 17 12 18 24 19 23 20 13 21 21 22 14 23
REMARK SMILES IDX 15 24 20 25 22 26 16 27 19 28 17 29 18 30
REMARK H PARENT 18 31
REMARK Flexibility Score: inf
ROOT
ATOM      1  C   UNL     1     113.457 116.381 126.869  1.00  0.00     0.004 C 
ENDROOT
BRANCH   1   2
ATOM      2  C   UNL     1     112.979 116.944 128.230  1.00  0.00     0.004 C 
BRANCH   2   3
ATOM      3  C   UNL     1     114.071 117.659 129.089  1.00  0.00    -0.009 C 
BRANCH   3   4
ATOM      4  C   UNL     1     113.792 117.511 130.612  1.00  0.00     0.000 C 
ATOM      5  C   UNL     1     112.356 117.150 130.981  1.00  0.00     0.004 C 
ENDBRANCH   3   4
BRANCH   3   6
ATOM      6  C   UNL     1     115.544 117.349 128.653  1.00  0.00    -0.014 C 
ATOM      7  C   UNL     1     116.283 116.440 129.651  1.00  0.00     0.007 C 
ATOM      8  C   UNL     1     116.359 118.647 128.494  1.00  0.00     0.007 C 
ENDBRANCH   3   6
ENDBRANCH   2   3
ENDBRANCH   1   2
BRANCH   1   9
ATOM      9  C   UNL     1     112.756 117.057 125.664  1.00  0.00    -0.011 C 
ATOM     10  C   UNL     1     112.027 116.009 124.794  1.00  0.00     0.008 C 
BRANCH   9  11
ATOM     11  C   UNL     1     113.690 118.077 124.911  1.00  0.00    -0.002 C 
ATOM     12  C   UNL     1     115.175 117.717 125.018  1.00  0.00     0.005 C 
ATOM     13  C   UNL     1     113.614 119.627 125.130  1.00  0.00    -0.026 C 
ATOM     14  C   UNL     1     115.946 118.959 124.598  1.00  0.00     0.005 C 
ATOM     15  C   UNL     1     114.925 120.099 124.422  1.00  0.00    -0.001 C 
ATOM     16  C   UNL     1     113.613 120.021 126.633  1.00  0.00     0.007 C 
ATOM     17  C   UNL     1     112.360 120.211 124.432  1.00  0.00     0.012 C 
ATOM     18  C   UNL     1     115.528 121.474 124.850  1.00  0.00     0.000 C 
ATOM     19  C   UNL     1     114.061 121.465 126.906  1.00  0.00     0.005 C 
ATOM     20  C   UNL     1     115.498 121.705 126.379  1.00  0.00     0.003 C 
ATOM     21  C   UNL     1     114.880 122.657 124.113  1.00  0.00     0.031 C 
ATOM     22  C   UNL     1     116.186 123.086 126.784  1.00  0.00    -0.008 C 
ATOM     23  C   UNL     1     115.553 123.939 124.476  1.00  0.00    -0.027 C 
ATOM     24  C   UNL     1     116.099 124.166 125.689  1.00  0.00    -0.065 C 
ATOM     25  C   UNL     1     117.707 122.810 127.024  1.00  0.00     0.014 C 
ATOM     26  C   UNL     1     115.573 123.648 128.095  1.00  0.00     0.016 C 
ATOM     27  C   UNL     1     116.900 125.436 125.888  1.00  0.00     0.063 C 
ATOM     28  C   UNL     1     118.562 124.077 127.227  1.00  0.00     0.033 C 
ATOM     29  C   UNL     1     118.382 125.078 126.076  1.00  0.00     0.118 C 
BRANCH  29  30
ATOM     30  O   UNL     1     119.121 126.239 126.356  1.00  0.00    -0.393 OA
ATOM     31  H   UNL     1     119.349 126.207 127.322  1.00  0.00     0.210 HD
ENDBRANCH  29  30
ENDBRANCH   9  11
ENDBRANCH   1   9
TORSDOF 7
ENDMDL
MODEL 7
REMARK VINA RESULT:    -6.370      3.838      6.538
REMARK INTER + INTRA:         -11.065
REMARK INTER:                  -9.299
REMARK INTRA:                  -1.767
REMARK UNBOUND:                -2.275
REMARK SMILES CC[C@H](CC[C@H](C)[C@@H]1CC[C@@H]2[C@H]3CC=C4C[C@@H](O)CC[C@]4(C)[C@H]3CC[C@@]21C)C(C)C
REMARK SMILES IDX 5 1 4 2 3 3 2 4 1 5 28 6 29 7 30 8 6 9 7 10 8 11 9 12 26 13
REMARK SMILES IDX 10 14 11 15 25 16 27 17 12 18 24 19 23 20 13 21 21 22 14 23
REMARK SMILES IDX 15 24 20 25 22 26 16 27 19 28 17 29 18 30
REMARK H PARENT 18 31
REMARK Flexibility Score: inf
ROOT
ATOM      1  C   UNL     1     113.192 121.291 124.865  1.00  0.00     0.004 C 
ENDROOT
BRANCH   1   2
ATOM      2  C   UNL     1     112.626 120.015 124.197  1.00  0.00     0.004 C 
BRANCH   2   3
ATOM      3  C   UNL     1     112.545 118.750 125.111  1.00  0.00    -0.009 C 
BRANCH   3   4
ATOM      4  C   UNL     1     111.306 118.800 126.051  1.00  0.00     0.000 C 
ATOM      5  C   UNL     1     111.621 118.941 127.538  1.00  0.00     0.004 C 
ENDBRANCH   3   4
BRANCH   3   6
ATOM      6  C   UNL     1     112.749 117.392 124.357  1.00  0.00    -0.014 C 
ATOM      7  C   UNL     1     111.928 117.300 123.059  1.00  0.00     0.007 C 
ATOM      8  C   UNL     1     112.364 116.199 125.253  1.00  0.00     0.007 C 
ENDBRANCH   3   6
ENDBRANCH   2   3
ENDBRANCH   1   2
BRANCH   1   9
ATOM      9  C   UNL     1     114.417 121.000 125.768  1.00  0.00    -0.011 C 
ATOM     10  C   UNL     1     114.244 121.653 127.157  1.00  0.00     0.008 C 
BRANCH   9  11
ATOM     11  C   UNL     1     115.788 121.250 125.033  1.00  0.00    -0.002 C 
ATOM     12  C   UNL     1     115.619 121.929 123.671  1.00  0.00     0.005 C 
ATOM     13  C   UNL     1     116.858 120.126 124.816  1.00  0.00    -0.026 C 
ATOM     14  C   UNL     1     116.940 121.750 122.938  1.00  0.00     0.005 C 
ATOM     15  C   UNL     1     117.817 120.813 123.791  1.00  0.00    -0.001 C 
ATOM     16  C   UNL     1     116.248 118.823 124.230  1.00  0.00     0.007 C 
ATOM     17  C   UNL     1     117.591 119.812 126.145  1.00  0.00     0.012 C 
ATOM     18  C   UNL     1     118.705 119.893 122.896  1.00  0.00     0.000 C 
ATOM     19  C   UNL     1     117.265 117.914 123.523  1.00  0.00     0.005 C 
ATOM     20  C   UNL     1     117.947 118.659 122.349  1.00  0.00     0.003 C 
ATOM     21  C   UNL     1     120.003 119.462 123.597  1.00  0.00     0.031 C 
ATOM     22  C   UNL     1     118.864 117.782 121.381  1.00  0.00    -0.008 C 
ATOM     23  C   UNL     1     120.865 118.669 122.672  1.00  0.00    -0.027 C 
ATOM     24  C   UNL     1     120.367 117.870 121.704  1.00  0.00    -0.065 C 
ATOM     25  C   UNL     1     118.684 118.328 119.927  1.00  0.00     0.014 C 
ATOM     26  C   UNL     1     118.430 116.292 121.407  1.00  0.00     0.016 C 
ATOM     27  C   UNL     1     121.336 117.246 120.721  1.00  0.00     0.063 C 
ATOM     28  C   UNL     1     119.654 117.724 118.892  1.00  0.00     0.033 C 
ATOM     29  C   UNL     1     121.119 117.864 119.332  1.00  0.00     0.118 C 
BRANCH  29  30
ATOM     30  O   UNL     1     121.945 117.228 118.392  1.00  0.00    -0.393 OA
ATOM     31  H   UNL     1     121.945 116.261 118.619  1.00  0.00     0.210 HD
ENDBRANCH  29  30
ENDBRANCH   9  11
ENDBRANCH   1   9
TORSDOF 7
ENDMDL
MODEL 8
REMARK VINA RESULT:    -6.368      2.132      4.262
REMARK INTER + INTRA:         -11.063
REMARK INTER:                 -10.073
REMARK INTRA:                  -0.990
REMARK UNBOUND:                -2.275
REMARK SMILES CC[C@H](CC[C@H](C)[C@@H]1CC[C@@H]2[C@H]3CC=C4C[C@@H](O)CC[C@]4(C)[C@H]3CC[C@@]21C)C(C)C
REMARK SMILES IDX 5 1 4 2 3 3 2 4 1 5 28 6 29 7 30 8 6 9 7 10 8 11 9 12 26 13
REMARK SMILES IDX 10 14 11 15 25 16 27 17 12 18 24 19 23 20 13 21 21 22 14 23
REMARK SMILES IDX 15 24 20 25 22 26 16 27 19 28 17 29 18 30
REMARK H PARENT 18 31
REMARK Flexibility Score: inf
ROOT
ATOM      1  C   UNL     1     113.391 116.385 127.092  1.00  0.00     0.004 C 
ENDROOT
BRANCH   1   2
ATOM      2  C   UNL     1     112.843 116.048 128.500  1.00  0.00     0.004 C 
BRANCH   2   3
ATOM      3  C   UNL     1     113.918 115.863 129.619  1.00  0.00    -0.009 C 
BRANCH   3   4
ATOM      4  C   UNL     1     115.362 116.005 129.058  1.00  0.00     0.000 C 
ATOM      5  C   UNL     1     116.388 115.037 129.642  1.00  0.00     0.004 C 
ENDBRANCH   3   4
BRANCH   3   6
ATOM      6  C   UNL     1     113.635 116.673 130.930  1.00  0.00    -0.014 C 
ATOM      7  C   UNL     1     112.199 117.221 130.996  1.00  0.00     0.007 C 
ATOM      8  C   UNL     1     114.608 117.860 131.067  1.00  0.00     0.007 C 
ENDBRANCH   3   6
ENDBRANCH   2   3
ENDBRANCH   1   2
BRANCH   1   9
ATOM      9  C   UNL     1     112.291 116.899 126.131  1.00  0.00    -0.011 C 
ATOM     10  C   UNL     1     112.237 116.041 124.847  1.00  0.00     0.008 C 
BRANCH   9  11
ATOM     11  C   UNL     1     112.335 118.462 125.936  1.00  0.00    -0.002 C 
ATOM     12  C   UNL     1     112.439 118.877 124.466  1.00  0.00     0.005 C 
ATOM     13  C   UNL     1     113.333 119.390 126.710  1.00  0.00    -0.026 C 
ATOM     14  C   UNL     1     112.858 120.340 124.465  1.00  0.00     0.005 C 
ATOM     15  C   UNL     1     113.175 120.730 125.921  1.00  0.00    -0.001 C 
ATOM     16  C   UNL     1     114.797 118.874 126.657  1.00  0.00     0.007 C 
ATOM     17  C   UNL     1     112.886 119.554 128.185  1.00  0.00     0.012 C 
ATOM     18  C   UNL     1     114.349 121.758 125.992  1.00  0.00     0.000 C 
ATOM     19  C   UNL     1     115.856 119.955 126.919  1.00  0.00     0.005 C 
ATOM     20  C   UNL     1     115.745 121.099 125.881  1.00  0.00     0.003 C 
ATOM     21  C   UNL     1     114.273 122.654 127.237  1.00  0.00     0.031 C 
ATOM     22  C   UNL     1     116.913 122.185 125.884  1.00  0.00    -0.008 C 
ATOM     23  C   UNL     1     115.352 123.686 127.213  1.00  0.00    -0.027 C 
ATOM     24  C   UNL     1     116.562 123.471 126.654  1.00  0.00    -0.065 C 
ATOM     25  C   UNL     1     117.179 122.606 124.402  1.00  0.00     0.014 C 
ATOM     26  C   UNL     1     118.222 121.589 126.471  1.00  0.00     0.016 C 
ATOM     27  C   UNL     1     117.516 124.643 126.541  1.00  0.00     0.063 C 
ATOM     28  C   UNL     1     118.142 123.800 124.239  1.00  0.00     0.033 C 
ATOM     29  C   UNL     1     117.689 125.016 125.061  1.00  0.00     0.118 C 
BRANCH  29  30
ATOM     30  O   UNL     1     118.644 126.038 124.936  1.00  0.00    -0.393 OA
ATOM     31  H   UNL     1     118.141 126.883 124.798  1.00  0.00     0.210 HD
ENDBRANCH  29  30
ENDBRANCH   9  11
ENDBRANCH   1   9
TORSDOF 7
ENDMDL
MODEL 9
REMARK VINA RESULT:    -6.333      0.959      1.655
REMARK INTER + INTRA:         -11.015
REMARK INTER:                  -8.743
REMARK INTRA:                  -2.272
REMARK UNBOUND:                -2.275
REMARK SMILES CC[C@H](CC[C@H](C)[C@@H]1CC[C@@H]2[C@H]3CC=C4C[C@@H](O)CC[C@]4(C)[C@H]3CC[C@@]21C)C(C)C
REMARK SMILES IDX 5 1 4 2 3 3 2 4 1 5 28 6 29 7 30 8 6 9 7 10 8 11 9 12 26 13
REMARK SMILES IDX 10 14 11 15 25 16 27 17 12 18 24 19 23 20 13 21 21 22 14 23
REMARK SMILES IDX 15 24 20 25 22 26 16 27 19 28 17 29 18 30
REMARK H PARENT 18 31
REMARK Flexibility Score: inf
ROOT
ATOM      1  C   UNL     1     113.766 116.005 125.839  1.00  0.00     0.004 C 
ENDROOT
BRANCH   1   2
ATOM      2  C   UNL     1     112.545 116.883 125.475  1.00  0.00     0.004 C 
BRANCH   2   3
ATOM      3  C   UNL     1     111.815 117.563 126.677  1.00  0.00    -0.009 C 
BRANCH   3   4
ATOM      4  C   UNL     1     112.434 117.136 128.040  1.00  0.00     0.000 C 
ATOM      5  C   UNL     1     111.601 116.151 128.855  1.00  0.00     0.004 C 
ENDBRANCH   3   4
BRANCH   3   6
ATOM      6  C   UNL     1     111.586 119.104 126.510  1.00  0.00    -0.014 C 
ATOM      7  C   UNL     1     111.506 119.539 125.036  1.00  0.00     0.007 C 
ATOM      8  C   UNL     1     112.713 119.908 127.186  1.00  0.00     0.007 C 
ENDBRANCH   3   6
ENDBRANCH   2   3
ENDBRANCH   1   2
BRANCH   1   9
ATOM      9  C   UNL     1     114.998 116.293 124.945  1.00  0.00    -0.011 C 
ATOM     10  C   UNL     1     115.633 114.977 124.444  1.00  0.00     0.008 C 
BRANCH   9  11
ATOM     11  C   UNL     1     115.974 117.354 125.579  1.00  0.00    -0.002 C 
ATOM     12  C   UNL     1     115.645 117.669 127.041  1.00  0.00     0.005 C 
ATOM     13  C   UNL     1     116.285 118.736 124.908  1.00  0.00    -0.026 C 
ATOM     14  C   UNL     1     116.393 118.949 127.380  1.00  0.00     0.005 C 
ATOM     15  C   UNL     1     117.010 119.483 126.073  1.00  0.00    -0.001 C 
ATOM     16  C   UNL     1     115.000 119.491 124.468  1.00  0.00     0.007 C 
ATOM     17  C   UNL     1     117.227 118.547 123.692  1.00  0.00     0.012 C 
ATOM     18  C   UNL     1     117.017 121.044 126.043  1.00  0.00     0.000 C 
ATOM     19  C   UNL     1     115.186 121.007 124.303  1.00  0.00     0.005 C 
ATOM     20  C   UNL     1     115.655 121.653 125.630  1.00  0.00     0.003 C 
ATOM     21  C   UNL     1     118.148 121.612 125.172  1.00  0.00     0.031 C 
ATOM     22  C   UNL     1     115.680 123.247 125.680  1.00  0.00    -0.008 C 
ATOM     23  C   UNL     1     118.180 123.103 125.252  1.00  0.00    -0.027 C 
ATOM     24  C   UNL     1     117.073 123.854 125.429  1.00  0.00    -0.065 C 
ATOM     25  C   UNL     1     115.250 123.687 127.118  1.00  0.00     0.014 C 
ATOM     26  C   UNL     1     114.677 123.849 124.659  1.00  0.00     0.016 C 
ATOM     27  C   UNL     1     117.245 125.341 125.662  1.00  0.00     0.063 C 
ATOM     28  C   UNL     1     115.414 125.193 127.402  1.00  0.00     0.033 C 
ATOM     29  C   UNL     1     116.841 125.679 127.105  1.00  0.00     0.118 C 
BRANCH  29  30
ATOM     30  O   UNL     1     116.906 127.067 127.305  1.00  0.00    -0.393 OA
ATOM     31  H   UNL     1     116.086 127.454 126.900  1.00  0.00     0.210 HD
ENDBRANCH  29  30
ENDBRANCH   9  11
ENDBRANCH   1   9
TORSDOF 7
ENDMDL
