MODEL 1
REMARK VINA RESULT:    -7.638      0.000      0.000
REMARK INTER + INTRA:         -10.871
REMARK INTER:                 -10.540
REMARK INTRA:                  -0.331
REMARK UNBOUND:                -0.331
REMARK SMILES CC[C@H](CC[C@@H](C)[C@H]1CC[C@@H]2[C@H]3CC=C4C[C@@H](O)CC[C@]4(C)[C@H]3CC[C@@]21C)C(C)C
REMARK SMILES IDX 5 1 4 2 3 3 2 4 1 5 28 6 29 7 30 8 6 9 7 10 8 11 9 12 26 13
REMARK SMILES IDX 10 14 11 15 25 16 27 17 12 18 24 19 23 20 13 21 21 22 14 23
REMARK SMILES IDX 15 24 20 25 22 26 16 27 19 28 17 29 18 30
REMARK H PARENT 18 31
REMARK Flexibility Score: inf
ROOT
ATOM      1  C   UNL     1     -23.847 -15.747 -12.536  1.00  0.00     0.004 C 
ENDROOT
BRANCH   1   2
ATOM      2  C   UNL     1     -22.553 -14.943 -12.807  1.00  0.00     0.004 C 
BRANCH   2   3
ATOM      3  C   UNL     1     -21.418 -15.141 -11.756  1.00  0.00    -0.009 C 
BRANCH   3   4
ATOM      4  C   UNL     1     -19.988 -14.842 -12.300  1.00  0.00     0.000 C 
ATOM      5  C   UNL     1     -19.851 -13.617 -13.214  1.00  0.00     0.004 C 
ENDBRANCH   3   4
BRANCH   3   6
ATOM      6  C   UNL     1     -21.704 -14.461 -10.374  1.00  0.00    -0.014 C 
ATOM      7  C   UNL     1     -22.419 -13.107 -10.533  1.00  0.00     0.007 C 
ATOM      8  C   UNL     1     -20.475 -14.307  -9.461  1.00  0.00     0.007 C 
ENDBRANCH   3   6
ENDBRANCH   2   3
ENDBRANCH   1   2
BRANCH   1   9
ATOM      9  C   UNL     1     -24.268 -16.724 -13.664  1.00  0.00    -0.011 C 
ATOM     10  C   UNL     1     -23.043 -17.213 -14.473  1.00  0.00     0.008 C 
BRANCH   9  11
ATOM     11  C   UNL     1     -25.255 -17.830 -13.145  1.00  0.00    -0.002 C 
ATOM     12  C   UNL     1     -26.717 -17.518 -13.468  1.00  0.00     0.005 C 
ATOM     13  C   UNL     1     -25.064 -19.345 -13.476  1.00  0.00    -0.026 C 
ATOM     14  C   UNL     1     -27.485 -18.825 -13.317  1.00  0.00     0.005 C 
ATOM     15  C   UNL     1     -26.459 -19.963 -13.116  1.00  0.00    -0.001 C 
ATOM     16  C   UNL     1     -23.912 -19.982 -12.641  1.00  0.00     0.007 C 
ATOM     17  C   UNL     1     -24.791 -19.599 -14.979  1.00  0.00     0.012 C 
ATOM     18  C   UNL     1     -26.513 -20.577 -11.674  1.00  0.00     0.000 C 
ATOM     19  C   UNL     1     -24.169 -21.464 -12.372  1.00  0.00     0.005 C 
ATOM     20  C   UNL     1     -25.385 -21.656 -11.434  1.00  0.00     0.003 C 
ATOM     21  C   UNL     1     -27.942 -21.091 -11.320  1.00  0.00     0.031 C 
ATOM     22  C   UNL     1     -25.907 -23.143 -11.362  1.00  0.00    -0.008 C 
ATOM     23  C   UNL     1     -27.947 -22.189 -10.299  1.00  0.00    -0.027 C 
ATOM     24  C   UNL     1     -27.039 -23.178 -10.336  1.00  0.00    -0.065 C 
ATOM     25  C   UNL     1     -24.785 -24.133 -10.908  1.00  0.00     0.014 C 
ATOM     26  C   UNL     1     -26.439 -23.652 -12.726  1.00  0.00     0.016 C 
ATOM     27  C   UNL     1     -27.002 -24.209  -9.233  1.00  0.00     0.063 C 
ATOM     28  C   UNL     1     -24.435 -24.024  -9.411  1.00  0.00     0.033 C 
ATOM     29  C   UNL     1     -25.673 -24.101  -8.472  1.00  0.00     0.118 C 
BRANCH  29  30
ATOM     30  O   UNL     1     -25.561 -25.196  -7.601  1.00  0.00    -0.393 OA
ATOM     31  H   UNL     1     -26.243 -25.860  -7.891  1.00  0.00     0.210 HD
ENDBRANCH  29  30
ENDBRANCH   9  11
ENDBRANCH   1   9
TORSDOF 7
ENDMDL
MODEL 2
REMARK VINA RESULT:    -7.466      2.997      9.189
REMARK INTER + INTRA:         -10.634
REMARK INTER:                  -9.342
REMARK INTRA:                  -1.291
REMARK UNBOUND:                -0.331
REMARK SMILES CC[C@H](CC[C@@H](C)[C@H]1CC[C@@H]2[C@H]3CC=C4C[C@@H](O)CC[C@]4(C)[C@H]3CC[C@@]21C)C(C)C
REMARK SMILES IDX 5 1 4 2 3 3 2 4 1 5 28 6 29 7 30 8 6 9 7 10 8 11 9 12 26 13
REMARK SMILES IDX 10 14 11 15 25 16 27 17 12 18 24 19 23 20 13 21 21 22 14 23
REMARK SMILES IDX 15 24 20 25 22 26 16 27 19 28 17 29 18 30
REMARK H PARENT 18 31
REMARK Flexibility Score: inf
ROOT
ATOM      1  C   UNL     1     -26.734 -24.572  -9.313  1.00  0.00     0.004 C 
ENDROOT
BRANCH   1   2
ATOM      2  C   UNL     1     -28.162 -24.850  -8.785  1.00  0.00     0.004 C 
BRANCH   2   3
ATOM      3  C   UNL     1     -28.262 -25.113  -7.251  1.00  0.00    -0.009 C 
BRANCH   3   4
ATOM      4  C   UNL     1     -29.124 -24.069  -6.481  1.00  0.00     0.000 C 
ATOM      5  C   UNL     1     -29.020 -22.615  -6.960  1.00  0.00     0.004 C 
ENDBRANCH   3   4
BRANCH   3   6
ATOM      6  C   UNL     1     -28.614 -26.595  -6.881  1.00  0.00    -0.014 C 
ATOM      7  C   UNL     1     -27.451 -27.302  -6.161  1.00  0.00     0.007 C 
ATOM      8  C   UNL     1     -29.111 -27.455  -8.056  1.00  0.00     0.007 C 
ENDBRANCH   3   6
ENDBRANCH   2   3
ENDBRANCH   1   2
BRANCH   1   9
ATOM      9  C   UNL     1     -26.234 -23.116  -9.134  1.00  0.00    -0.011 C 
ATOM     10  C   UNL     1     -25.257 -22.997  -7.940  1.00  0.00     0.008 C 
BRANCH   9  11
ATOM     11  C   UNL     1     -25.764 -22.485 -10.494  1.00  0.00    -0.002 C 
ATOM     12  C   UNL     1     -25.689 -23.508 -11.627  1.00  0.00     0.005 C 
ATOM     13  C   UNL     1     -26.446 -21.221 -11.109  1.00  0.00    -0.026 C 
ATOM     14  C   UNL     1     -25.660 -22.716 -12.928  1.00  0.00     0.005 C 
ATOM     15  C   UNL     1     -25.935 -21.233 -12.591  1.00  0.00    -0.001 C 
ATOM     16  C   UNL     1     -26.038 -19.916 -10.362  1.00  0.00     0.007 C 
ATOM     17  C   UNL     1     -27.991 -21.325 -11.126  1.00  0.00     0.012 C 
ATOM     18  C   UNL     1     -24.683 -20.319 -12.824  1.00  0.00     0.000 C 
ATOM     19  C   UNL     1     -26.044 -18.709 -11.300  1.00  0.00     0.005 C 
ATOM     20  C   UNL     1     -24.929 -18.828 -12.367  1.00  0.00     0.003 C 
ATOM     21  C   UNL     1     -24.147 -20.435 -14.284  1.00  0.00     0.031 C 
ATOM     22  C   UNL     1     -25.068 -17.795 -13.552  1.00  0.00    -0.008 C 
ATOM     23  C   UNL     1     -23.410 -19.215 -14.749  1.00  0.00    -0.027 C 
ATOM     24  C   UNL     1     -23.854 -17.981 -14.461  1.00  0.00    -0.065 C 
ATOM     25  C   UNL     1     -25.091 -16.318 -13.038  1.00  0.00     0.014 C 
ATOM     26  C   UNL     1     -26.362 -18.011 -14.378  1.00  0.00     0.016 C 
ATOM     27  C   UNL     1     -23.034 -16.774 -14.850  1.00  0.00     0.063 C 
ATOM     28  C   UNL     1     -23.718 -15.811 -12.556  1.00  0.00     0.033 C 
ATOM     29  C   UNL     1     -22.573 -16.036 -13.585  1.00  0.00     0.118 C 
BRANCH  29  30
ATOM     30  O   UNL     1     -22.003 -14.809 -13.961  1.00  0.00    -0.393 OA
ATOM     31  H   UNL     1     -21.916 -14.828 -14.951  1.00  0.00     0.210 HD
ENDBRANCH  29  30
ENDBRANCH   9  11
ENDBRANCH   1   9
TORSDOF 7
ENDMDL
MODEL 3
REMARK VINA RESULT:    -7.182      1.922      3.475
REMARK INTER + INTRA:         -10.243
REMARK INTER:                  -8.860
REMARK INTRA:                  -1.382
REMARK UNBOUND:                -0.331
REMARK SMILES CC[C@H](CC[C@@H](C)[C@H]1CC[C@@H]2[C@H]3CC=C4C[C@@H](O)CC[C@]4(C)[C@H]3CC[C@@]21C)C(C)C
REMARK SMILES IDX 5 1 4 2 3 3 2 4 1 5 28 6 29 7 30 8 6 9 7 10 8 11 9 12 26 13
REMARK SMILES IDX 10 14 11 15 25 16 27 17 12 18 24 19 23 20 13 21 21 22 14 23
REMARK SMILES IDX 15 24 20 25 22 26 16 27 19 28 17 29 18 30
REMARK H PARENT 18 31
REMARK Flexibility Score: inf
ROOT
ATOM      1  C   UNL     1     -26.248 -17.061 -15.296  1.00  0.00     0.004 C 
ENDROOT
BRANCH   1   2
ATOM      2  C   UNL     1     -25.613 -15.650 -15.250  1.00  0.00     0.004 C 
BRANCH   2   3
ATOM      3  C   UNL     1     -24.058 -15.619 -15.348  1.00  0.00    -0.009 C 
BRANCH   3   4
ATOM      4  C   UNL     1     -23.498 -14.466 -16.234  1.00  0.00     0.000 C 
ATOM      5  C   UNL     1     -23.985 -13.051 -15.893  1.00  0.00     0.004 C 
ENDBRANCH   3   4
BRANCH   3   6
ATOM      6  C   UNL     1     -23.329 -15.742 -13.966  1.00  0.00    -0.014 C 
ATOM      7  C   UNL     1     -23.952 -14.821 -12.901  1.00  0.00     0.007 C 
ATOM      8  C   UNL     1     -21.805 -15.536 -14.018  1.00  0.00     0.007 C 
ENDBRANCH   3   6
ENDBRANCH   2   3
ENDBRANCH   1   2
BRANCH   1   9
ATOM      9  C   UNL     1     -26.905 -17.535 -13.974  1.00  0.00    -0.011 C 
ATOM     10  C   UNL     1     -28.449 -17.462 -14.054  1.00  0.00     0.008 C 
BRANCH   9  11
ATOM     11  C   UNL     1     -26.290 -18.887 -13.463  1.00  0.00    -0.002 C 
ATOM     12  C   UNL     1     -25.180 -19.414 -14.374  1.00  0.00     0.005 C 
ATOM     13  C   UNL     1     -25.760 -19.067 -12.005  1.00  0.00    -0.026 C 
ATOM     14  C   UNL     1     -24.401 -20.441 -13.562  1.00  0.00     0.005 C 
ATOM     15  C   UNL     1     -24.901 -20.375 -12.101  1.00  0.00    -0.001 C 
ATOM     16  C   UNL     1     -26.922 -19.207 -10.976  1.00  0.00     0.007 C 
ATOM     17  C   UNL     1     -24.834 -17.908 -11.558  1.00  0.00     0.012 C 
ATOM     18  C   UNL     1     -25.683 -21.664 -11.672  1.00  0.00     0.000 C 
ATOM     19  C   UNL     1     -26.515 -20.076  -9.787  1.00  0.00     0.005 C 
ATOM     20  C   UNL     1     -26.295 -21.545 -10.221  1.00  0.00     0.003 C 
ATOM     21  C   UNL     1     -24.827 -22.952 -11.876  1.00  0.00     0.031 C 
ATOM     22  C   UNL     1     -25.574 -22.431  -9.133  1.00  0.00    -0.008 C 
ATOM     23  C   UNL     1     -25.216 -24.078 -10.966  1.00  0.00    -0.027 C 
ATOM     24  C   UNL     1     -25.515 -23.859  -9.675  1.00  0.00    -0.065 C 
ATOM     25  C   UNL     1     -26.354 -22.439  -7.777  1.00  0.00     0.014 C 
ATOM     26  C   UNL     1     -24.135 -21.942  -8.827  1.00  0.00     0.016 C 
ATOM     27  C   UNL     1     -26.006 -24.996  -8.811  1.00  0.00     0.063 C 
ATOM     28  C   UNL     1     -27.649 -23.273  -7.816  1.00  0.00     0.033 C 
ATOM     29  C   UNL     1     -27.448 -24.716  -8.363  1.00  0.00     0.118 C 
BRANCH  29  30
ATOM     30  O   UNL     1     -27.811 -25.664  -7.393  1.00  0.00    -0.393 OA
ATOM     31  H   UNL     1     -28.495 -26.251  -7.812  1.00  0.00     0.210 HD
ENDBRANCH  29  30
ENDBRANCH   9  11
ENDBRANCH   1   9
TORSDOF 7
ENDMDL
MODEL 4
REMARK VINA RESULT:    -7.046      1.885      3.420
REMARK INTER + INTRA:         -10.054
REMARK INTER:                  -9.661
REMARK INTRA:                  -0.393
REMARK UNBOUND:                -0.331
REMARK SMILES CC[C@H](CC[C@@H](C)[C@H]1CC[C@@H]2[C@H]3CC=C4C[C@@H](O)CC[C@]4(C)[C@H]3CC[C@@]21C)C(C)C
REMARK SMILES IDX 5 1 4 2 3 3 2 4 1 5 28 6 29 7 30 8 6 9 7 10 8 11 9 12 26 13
REMARK SMILES IDX 10 14 11 15 25 16 27 17 12 18 24 19 23 20 13 21 21 22 14 23
REMARK SMILES IDX 15 24 20 25 22 26 16 27 19 28 17 29 18 30
REMARK H PARENT 18 31
REMARK Flexibility Score: inf
ROOT
ATOM      1  C   UNL     1     -22.871 -13.002 -13.118  1.00  0.00     0.004 C 
ENDROOT
BRANCH   1   2
ATOM      2  C   UNL     1     -21.353 -13.223 -13.327  1.00  0.00     0.004 C 
BRANCH   2   3
ATOM      3  C   UNL     1     -20.647 -14.063 -12.219  1.00  0.00    -0.009 C 
BRANCH   3   4
ATOM      4  C   UNL     1     -19.126 -13.762 -12.066  1.00  0.00     0.000 C 
ATOM      5  C   UNL     1     -18.164 -14.828 -12.607  1.00  0.00     0.004 C 
ENDBRANCH   3   4
BRANCH   3   6
ATOM      6  C   UNL     1     -21.411 -14.084 -10.852  1.00  0.00    -0.014 C 
ATOM      7  C   UNL     1     -20.490 -14.474  -9.681  1.00  0.00     0.007 C 
ATOM      8  C   UNL     1     -22.683 -14.948 -10.835  1.00  0.00     0.007 C 
ENDBRANCH   3   6
ENDBRANCH   2   3
ENDBRANCH   1   2
BRANCH   1   9
ATOM      9  C   UNL     1     -23.756 -13.263 -14.364  1.00  0.00    -0.011 C 
ATOM     10  C   UNL     1     -22.939 -13.138 -15.672  1.00  0.00     0.008 C 
BRANCH   9  11
ATOM     11  C   UNL     1     -24.632 -14.557 -14.202  1.00  0.00    -0.002 C 
ATOM     12  C   UNL     1     -26.092 -14.337 -14.597  1.00  0.00     0.005 C 
ATOM     13  C   UNL     1     -24.225 -15.927 -14.833  1.00  0.00    -0.026 C 
ATOM     14  C   UNL     1     -26.699 -15.717 -14.813  1.00  0.00     0.005 C 
ATOM     15  C   UNL     1     -25.554 -16.755 -14.761  1.00  0.00    -0.001 C 
ATOM     16  C   UNL     1     -23.068 -16.611 -14.044  1.00  0.00     0.007 C 
ATOM     17  C   UNL     1     -23.810 -15.800 -16.320  1.00  0.00     0.012 C 
ATOM     18  C   UNL     1     -25.640 -17.684 -13.501  1.00  0.00     0.000 C 
ATOM     19  C   UNL     1     -23.156 -18.134 -14.131  1.00  0.00     0.005 C 
ATOM     20  C   UNL     1     -24.405 -18.663 -13.387  1.00  0.00     0.003 C 
ATOM     21  C   UNL     1     -27.015 -18.415 -13.415  1.00  0.00     0.031 C 
ATOM     22  C   UNL     1     -24.739 -20.174 -13.694  1.00  0.00    -0.008 C 
ATOM     23  C   UNL     1     -26.957 -19.711 -12.663  1.00  0.00    -0.027 C 
ATOM     24  C   UNL     1     -25.932 -20.563 -12.821  1.00  0.00    -0.065 C 
ATOM     25  C   UNL     1     -23.538 -21.117 -13.354  1.00  0.00     0.014 C 
ATOM     26  C   UNL     1     -25.098 -20.412 -15.184  1.00  0.00     0.016 C 
ATOM     27  C   UNL     1     -25.848 -21.809 -11.972  1.00  0.00     0.063 C 
ATOM     28  C   UNL     1     -23.319 -21.316 -11.842  1.00  0.00     0.033 C 
ATOM     29  C   UNL     1     -24.605 -21.736 -11.074  1.00  0.00     0.118 C 
BRANCH  29  30
ATOM     30  O   UNL     1     -24.421 -22.983 -10.455  1.00  0.00    -0.393 OA
ATOM     31  H   UNL     1     -24.177 -22.798  -9.510  1.00  0.00     0.210 HD
ENDBRANCH  29  30
ENDBRANCH   9  11
ENDBRANCH   1   9
TORSDOF 7
ENDMDL
MODEL 5
REMARK VINA RESULT:    -6.894      3.058      9.115
REMARK INTER + INTRA:          -9.844
REMARK INTER:                  -8.623
REMARK INTRA:                  -1.221
REMARK UNBOUND:                -0.331
REMARK SMILES CC[C@H](CC[C@@H](C)[C@H]1CC[C@@H]2[C@H]3CC=C4C[C@@H](O)CC[C@]4(C)[C@H]3CC[C@@]21C)C(C)C
REMARK SMILES IDX 5 1 4 2 3 3 2 4 1 5 28 6 29 7 30 8 6 9 7 10 8 11 9 12 26 13
REMARK SMILES IDX 10 14 11 15 25 16 27 17 12 18 24 19 23 20 13 21 21 22 14 23
REMARK SMILES IDX 15 24 20 25 22 26 16 27 19 28 17 29 18 30
REMARK H PARENT 18 31
REMARK Flexibility Score: inf
ROOT
ATOM      1  C   UNL     1     -25.903 -24.617  -8.868  1.00  0.00     0.004 C 
ENDROOT
BRANCH   1   2
ATOM      2  C   UNL     1     -26.602 -25.225  -7.628  1.00  0.00     0.004 C 
BRANCH   2   3
ATOM      3  C   UNL     1     -27.990 -25.881  -7.905  1.00  0.00    -0.009 C 
BRANCH   3   4
ATOM      4  C   UNL     1     -28.475 -26.843  -6.779  1.00  0.00     0.000 C 
ATOM      5  C   UNL     1     -27.379 -27.522  -5.947  1.00  0.00     0.004 C 
ENDBRANCH   3   4
BRANCH   3   6
ATOM      6  C   UNL     1     -29.092 -24.867  -8.365  1.00  0.00    -0.014 C 
ATOM      7  C   UNL     1     -29.125 -24.705  -9.896  1.00  0.00     0.007 C 
ATOM      8  C   UNL     1     -29.027 -23.488  -7.688  1.00  0.00     0.007 C 
ENDBRANCH   3   6
ENDBRANCH   2   3
ENDBRANCH   1   2
BRANCH   1   9
ATOM      9  C   UNL     1     -25.701 -23.080  -8.827  1.00  0.00    -0.011 C 
ATOM     10  C   UNL     1     -24.769 -22.664  -7.665  1.00  0.00     0.008 C 
BRANCH   9  11
ATOM     11  C   UNL     1     -25.364 -22.494 -10.245  1.00  0.00    -0.002 C 
ATOM     12  C   UNL     1     -25.300 -23.569 -11.331  1.00  0.00     0.005 C 
ATOM     13  C   UNL     1     -26.164 -21.308 -10.872  1.00  0.00    -0.026 C 
ATOM     14  C   UNL     1     -25.408 -22.847 -12.667  1.00  0.00     0.005 C 
ATOM     15  C   UNL     1     -25.753 -21.367 -12.384  1.00  0.00    -0.001 C 
ATOM     16  C   UNL     1     -25.790 -19.943 -10.220  1.00  0.00     0.007 C 
ATOM     17  C   UNL     1     -27.698 -21.505 -10.776  1.00  0.00     0.012 C 
ATOM     18  C   UNL     1     -24.580 -20.394 -12.747  1.00  0.00     0.000 C 
ATOM     19  C   UNL     1     -25.936 -18.790 -11.211  1.00  0.00     0.005 C 
ATOM     20  C   UNL     1     -24.889 -18.898 -12.346  1.00  0.00     0.003 C 
ATOM     21  C   UNL     1     -24.137 -20.553 -14.234  1.00  0.00     0.031 C 
ATOM     22  C   UNL     1     -25.172 -17.939 -13.567  1.00  0.00    -0.008 C 
ATOM     23  C   UNL     1     -23.510 -19.318 -14.807  1.00  0.00    -0.027 C 
ATOM     24  C   UNL     1     -24.011 -18.099 -14.549  1.00  0.00    -0.065 C 
ATOM     25  C   UNL     1     -25.254 -16.440 -13.125  1.00  0.00     0.014 C 
ATOM     26  C   UNL     1     -26.502 -18.274 -14.290  1.00  0.00     0.016 C 
ATOM     27  C   UNL     1     -23.297 -16.867 -15.052  1.00  0.00     0.063 C 
ATOM     28  C   UNL     1     -23.887 -15.828 -12.766  1.00  0.00     0.033 C 
ATOM     29  C   UNL     1     -22.800 -16.037 -13.860  1.00  0.00     0.118 C 
BRANCH  29  30
ATOM     30  O   UNL     1     -22.336 -14.800 -14.333  1.00  0.00    -0.393 OA
ATOM     31  H   UNL     1     -23.016 -14.123 -14.073  1.00  0.00     0.210 HD
ENDBRANCH  29  30
ENDBRANCH   9  11
ENDBRANCH   1   9
TORSDOF 7
ENDMDL
MODEL 6
REMARK VINA RESULT:    -6.777      1.864      4.121
REMARK INTER + INTRA:          -9.684
REMARK INTER:                  -9.426
REMARK INTRA:                  -0.257
REMARK UNBOUND:                -0.331
REMARK SMILES CC[C@H](CC[C@@H](C)[C@H]1CC[C@@H]2[C@H]3CC=C4C[C@@H](O)CC[C@]4(C)[C@H]3CC[C@@]21C)C(C)C
REMARK SMILES IDX 5 1 4 2 3 3 2 4 1 5 28 6 29 7 30 8 6 9 7 10 8 11 9 12 26 13
REMARK SMILES IDX 10 14 11 15 25 16 27 17 12 18 24 19 23 20 13 21 21 22 14 23
REMARK SMILES IDX 15 24 20 25 22 26 16 27 19 28 17 29 18 30
REMARK H PARENT 18 31
REMARK Flexibility Score: inf
ROOT
ATOM      1  C   UNL     1     -25.426 -18.433 -13.864  1.00  0.00     0.004 C 
ENDROOT
BRANCH   1   2
ATOM      2  C   UNL     1     -24.283 -17.530 -14.390  1.00  0.00     0.004 C 
BRANCH   2   3
ATOM      3  C   UNL     1     -24.270 -16.079 -13.819  1.00  0.00    -0.009 C 
BRANCH   3   4
ATOM      4  C   UNL     1     -23.123 -15.805 -12.801  1.00  0.00     0.000 C 
ATOM      5  C   UNL     1     -23.468 -14.890 -11.618  1.00  0.00     0.004 C 
ENDBRANCH   3   4
BRANCH   3   6
ATOM      6  C   UNL     1     -24.401 -14.963 -14.912  1.00  0.00    -0.014 C 
ATOM      7  C   UNL     1     -25.247 -13.773 -14.425  1.00  0.00     0.007 C 
ATOM      8  C   UNL     1     -24.912 -15.453 -16.278  1.00  0.00     0.007 C 
ENDBRANCH   3   6
ENDBRANCH   2   3
ENDBRANCH   1   2
BRANCH   1   9
ATOM      9  C   UNL     1     -25.330 -19.926 -14.272  1.00  0.00    -0.011 C 
ATOM     10  C   UNL     1     -24.436 -20.114 -15.521  1.00  0.00     0.008 C 
BRANCH   9  11
ATOM     11  C   UNL     1     -25.023 -20.852 -13.041  1.00  0.00    -0.002 C 
ATOM     12  C   UNL     1     -23.528 -20.969 -12.745  1.00  0.00     0.005 C 
ATOM     13  C   UNL     1     -25.714 -20.654 -11.653  1.00  0.00    -0.026 C 
ATOM     14  C   UNL     1     -23.404 -21.503 -11.324  1.00  0.00     0.005 C 
ATOM     15  C   UNL     1     -24.813 -21.502 -10.689  1.00  0.00    -0.001 C 
ATOM     16  C   UNL     1     -27.190 -21.154 -11.661  1.00  0.00     0.007 C 
ATOM     17  C   UNL     1     -25.686 -19.181 -11.176  1.00  0.00     0.012 C 
ATOM     18  C   UNL     1     -25.363 -22.948 -10.437  1.00  0.00     0.000 C 
ATOM     19  C   UNL     1     -27.617 -21.659 -10.283  1.00  0.00     0.005 C 
ATOM     20  C   UNL     1     -26.848 -22.946  -9.900  1.00  0.00     0.003 C 
ATOM     21  C   UNL     1     -24.390 -23.789  -9.554  1.00  0.00     0.031 C 
ATOM     22  C   UNL     1     -26.995 -23.349  -8.382  1.00  0.00    -0.008 C 
ATOM     23  C   UNL     1     -25.073 -24.880  -8.785  1.00  0.00    -0.027 C 
ATOM     24  C   UNL     1     -26.259 -24.675  -8.190  1.00  0.00    -0.065 C 
ATOM     25  C   UNL     1     -28.492 -23.540  -7.971  1.00  0.00     0.014 C 
ATOM     26  C   UNL     1     -26.392 -22.288  -7.425  1.00  0.00     0.016 C 
ATOM     27  C   UNL     1     -26.972 -25.822  -7.514  1.00  0.00     0.063 C 
ATOM     28  C   UNL     1     -29.125 -24.828  -8.531  1.00  0.00     0.033 C 
ATOM     29  C   UNL     1     -28.291 -26.110  -8.245  1.00  0.00     0.118 C 
BRANCH  29  30
ATOM     30  O   UNL     1     -29.039 -27.023  -7.483  1.00  0.00    -0.393 OA
ATOM     31  H   UNL     1     -28.390 -27.513  -6.911  1.00  0.00     0.210 HD
ENDBRANCH  29  30
ENDBRANCH   9  11
ENDBRANCH   1   9
TORSDOF 7
ENDMDL
MODEL 7
REMARK VINA RESULT:    -6.474      1.487      2.266
REMARK INTER + INTRA:          -9.265
REMARK INTER:                  -8.603
REMARK INTRA:                  -0.662
REMARK UNBOUND:                -0.331
REMARK SMILES CC[C@H](CC[C@@H](C)[C@H]1CC[C@@H]2[C@H]3CC=C4C[C@@H](O)CC[C@]4(C)[C@H]3CC[C@@]21C)C(C)C
REMARK SMILES IDX 5 1 4 2 3 3 2 4 1 5 28 6 29 7 30 8 6 9 7 10 8 11 9 12 26 13
REMARK SMILES IDX 10 14 11 15 25 16 27 17 12 18 24 19 23 20 13 21 21 22 14 23
REMARK SMILES IDX 15 24 20 25 22 26 16 27 19 28 17 29 18 30
REMARK H PARENT 18 31
REMARK Flexibility Score: inf
ROOT
ATOM      1  C   UNL     1     -24.852 -16.296 -14.457  1.00  0.00     0.004 C 
ENDROOT
BRANCH   1   2
ATOM      2  C   UNL     1     -24.451 -14.804 -14.550  1.00  0.00     0.004 C 
BRANCH   2   3
ATOM      3  C   UNL     1     -22.971 -14.541 -14.965  1.00  0.00    -0.009 C 
BRANCH   3   4
ATOM      4  C   UNL     1     -22.703 -14.687 -16.493  1.00  0.00     0.000 C 
ATOM      5  C   UNL     1     -23.937 -14.888 -17.383  1.00  0.00     0.004 C 
ENDBRANCH   3   4
BRANCH   3   6
ATOM      6  C   UNL     1     -22.362 -13.232 -14.357  1.00  0.00    -0.014 C 
ATOM      7  C   UNL     1     -20.822 -13.247 -14.377  1.00  0.00     0.007 C 
ATOM      8  C   UNL     1     -22.870 -12.875 -12.949  1.00  0.00     0.007 C 
ENDBRANCH   3   6
ENDBRANCH   2   3
ENDBRANCH   1   2
BRANCH   1   9
ATOM      9  C   UNL     1     -24.359 -17.036 -13.186  1.00  0.00    -0.011 C 
ATOM     10  C   UNL     1     -23.886 -16.040 -12.101  1.00  0.00     0.008 C 
BRANCH   9  11
ATOM     11  C   UNL     1     -25.367 -18.150 -12.728  1.00  0.00    -0.002 C 
ATOM     12  C   UNL     1     -26.812 -17.840 -13.119  1.00  0.00     0.005 C 
ATOM     13  C   UNL     1     -25.153 -19.661 -13.064  1.00  0.00    -0.026 C 
ATOM     14  C   UNL     1     -27.582 -19.151 -13.019  1.00  0.00     0.005 C 
ATOM     15  C   UNL     1     -26.562 -20.287 -12.779  1.00  0.00    -0.001 C 
ATOM     16  C   UNL     1     -24.041 -20.303 -12.180  1.00  0.00     0.007 C 
ATOM     17  C   UNL     1     -24.806 -19.899 -14.554  1.00  0.00     0.012 C 
ATOM     18  C   UNL     1     -26.685 -20.916 -11.348  1.00  0.00     0.000 C 
ATOM     19  C   UNL     1     -24.306 -21.788 -11.938  1.00  0.00     0.005 C 
ATOM     20  C   UNL     1     -25.566 -21.993 -11.063  1.00  0.00     0.003 C 
ATOM     21  C   UNL     1     -28.128 -21.439 -11.070  1.00  0.00     0.031 C 
ATOM     22  C   UNL     1     -26.085 -23.483 -11.032  1.00  0.00    -0.008 C 
ATOM     23  C   UNL     1     -28.178 -22.547 -10.061  1.00  0.00    -0.027 C 
ATOM     24  C   UNL     1     -27.266 -23.532 -10.063  1.00  0.00    -0.065 C 
ATOM     25  C   UNL     1     -24.983 -24.474 -10.532  1.00  0.00     0.014 C 
ATOM     26  C   UNL     1     -26.547 -23.980 -12.426  1.00  0.00     0.016 C 
ATOM     27  C   UNL     1     -27.280 -24.574  -8.970  1.00  0.00     0.063 C 
ATOM     28  C   UNL     1     -24.708 -24.378  -9.020  1.00  0.00     0.033 C 
ATOM     29  C   UNL     1     -25.990 -24.469  -8.143  1.00  0.00     0.118 C 
BRANCH  29  30
ATOM     30  O   UNL     1     -25.917 -25.573  -7.279  1.00  0.00    -0.393 OA
ATOM     31  H   UNL     1     -25.233 -25.351  -6.593  1.00  0.00     0.210 HD
ENDBRANCH  29  30
ENDBRANCH   9  11
ENDBRANCH   1   9
TORSDOF 7
ENDMDL
MODEL 8
REMARK VINA RESULT:    -6.231      4.537      9.670
REMARK INTER + INTRA:          -8.930
REMARK INTER:                  -9.584
REMARK INTRA:                   0.654
REMARK UNBOUND:                -0.331
REMARK SMILES CC[C@H](CC[C@@H](C)[C@H]1CC[C@@H]2[C@H]3CC=C4C[C@@H](O)CC[C@]4(C)[C@H]3CC[C@@]21C)C(C)C
REMARK SMILES IDX 5 1 4 2 3 3 2 4 1 5 28 6 29 7 30 8 6 9 7 10 8 11 9 12 26 13
REMARK SMILES IDX 10 14 11 15 25 16 27 17 12 18 24 19 23 20 13 21 21 22 14 23
REMARK SMILES IDX 15 24 20 25 22 26 16 27 19 28 17 29 18 30
REMARK H PARENT 18 31
REMARK Flexibility Score: inf
ROOT
ATOM      1  C   UNL     1     -28.349 -25.306  -7.505  1.00  0.00     0.004 C 
ENDROOT
BRANCH   1   2
ATOM      2  C   UNL     1     -29.116 -26.387  -6.705  1.00  0.00     0.004 C 
BRANCH   2   3
ATOM      3  C   UNL     1     -28.282 -27.115  -5.607  1.00  0.00    -0.009 C 
BRANCH   3   4
ATOM      4  C   UNL     1     -29.106 -28.113  -4.740  1.00  0.00     0.000 C 
ATOM      5  C   UNL     1     -28.765 -29.600  -4.909  1.00  0.00     0.004 C 
ENDBRANCH   3   4
BRANCH   3   6
ATOM      6  C   UNL     1     -26.933 -27.719  -6.126  1.00  0.00    -0.014 C 
ATOM      7  C   UNL     1     -26.024 -28.180  -4.973  1.00  0.00     0.007 C 
ATOM      8  C   UNL     1     -26.148 -26.813  -7.090  1.00  0.00     0.007 C 
ENDBRANCH   3   6
ENDBRANCH   2   3
ENDBRANCH   1   2
BRANCH   1   9
ATOM      9  C   UNL     1     -28.998 -23.898  -7.506  1.00  0.00    -0.011 C 
ATOM     10  C   UNL     1     -29.125 -23.334  -6.071  1.00  0.00     0.008 C 
BRANCH   9  11
ATOM     11  C   UNL     1     -28.349 -22.952  -8.579  1.00  0.00    -0.002 C 
ATOM     12  C   UNL     1     -28.705 -21.481  -8.366  1.00  0.00     0.005 C 
ATOM     13  C   UNL     1     -26.820 -22.975  -8.898  1.00  0.00    -0.026 C 
ATOM     14  C   UNL     1     -27.694 -20.667  -9.164  1.00  0.00     0.005 C 
ATOM     15  C   UNL     1     -26.604 -21.633  -9.680  1.00  0.00    -0.001 C 
ATOM     16  C   UNL     1     -26.420 -24.217  -9.751  1.00  0.00     0.007 C 
ATOM     17  C   UNL     1     -25.943 -22.942  -7.622  1.00  0.00     0.012 C 
ATOM     18  C   UNL     1     -26.641 -21.809 -11.237  1.00  0.00     0.000 C 
ATOM     19  C   UNL     1     -25.227 -23.914 -10.656  1.00  0.00     0.005 C 
ATOM     20  C   UNL     1     -25.606 -22.886 -11.749  1.00  0.00     0.003 C 
ATOM     21  C   UNL     1     -26.521 -20.440 -11.975  1.00  0.00     0.031 C 
ATOM     22  C   UNL     1     -24.365 -22.287 -12.518  1.00  0.00    -0.008 C 
ATOM     23  C   UNL     1     -25.945 -20.553 -13.355  1.00  0.00    -0.027 C 
ATOM     24  C   UNL     1     -24.909 -21.368 -13.612  1.00  0.00    -0.065 C 
ATOM     25  C   UNL     1     -23.497 -23.404 -13.185  1.00  0.00     0.014 C 
ATOM     26  C   UNL     1     -23.427 -21.474 -11.589  1.00  0.00     0.016 C 
ATOM     27  C   UNL     1     -24.419 -21.541 -15.030  1.00  0.00     0.063 C 
ATOM     28  C   UNL     1     -24.153 -24.036 -14.427  1.00  0.00     0.033 C 
ATOM     29  C   UNL     1     -24.639 -22.994 -15.476  1.00  0.00     0.118 C 
BRANCH  29  30
ATOM     30  O   UNL     1     -23.987 -23.192 -16.703  1.00  0.00    -0.393 OA
ATOM     31  H   UNL     1     -23.776 -24.162 -16.759  1.00  0.00     0.210 HD
ENDBRANCH  29  30
ENDBRANCH   9  11
ENDBRANCH   1   9
TORSDOF 7
ENDMDL
MODEL 9
REMARK VINA RESULT:    -5.983      3.014      8.636
REMARK INTER + INTRA:          -8.588
REMARK INTER:                  -7.099
REMARK INTRA:                  -1.489
REMARK UNBOUND:                -0.331
REMARK SMILES CC[C@H](CC[C@@H](C)[C@H]1CC[C@@H]2[C@H]3CC=C4C[C@@H](O)CC[C@]4(C)[C@H]3CC[C@@]21C)C(C)C
REMARK SMILES IDX 5 1 4 2 3 3 2 4 1 5 28 6 29 7 30 8 6 9 7 10 8 11 9 12 26 13
REMARK SMILES IDX 10 14 11 15 25 16 27 17 12 18 24 19 23 20 13 21 21 22 14 23
REMARK SMILES IDX 15 24 20 25 22 26 16 27 19 28 17 29 18 30
REMARK H PARENT 18 31
REMARK Flexibility Score: inf
ROOT
ATOM      1  C   UNL     1     -26.427 -23.724 -11.299  1.00  0.00     0.004 C 
ENDROOT
BRANCH   1   2
ATOM      2  C   UNL     1     -27.807 -23.995 -10.652  1.00  0.00     0.004 C 
BRANCH   2   3
ATOM      3  C   UNL     1     -28.099 -23.187  -9.351  1.00  0.00    -0.009 C 
BRANCH   3   4
ATOM      4  C   UNL     1     -28.950 -21.902  -9.577  1.00  0.00     0.000 C 
ATOM      5  C   UNL     1     -28.332 -20.584  -9.094  1.00  0.00     0.004 C 
ENDBRANCH   3   4
BRANCH   3   6
ATOM      6  C   UNL     1     -28.615 -24.064  -8.159  1.00  0.00    -0.014 C 
ATOM      7  C   UNL     1     -28.975 -23.212  -6.928  1.00  0.00     0.007 C 
ATOM      8  C   UNL     1     -27.679 -25.215  -7.751  1.00  0.00     0.007 C 
ENDBRANCH   3   6
ENDBRANCH   2   3
ENDBRANCH   1   2
BRANCH   1   9
ATOM      9  C   UNL     1     -25.667 -22.492 -10.744  1.00  0.00    -0.011 C 
ATOM     10  C   UNL     1     -24.633 -22.903  -9.669  1.00  0.00     0.008 C 
BRANCH   9  11
ATOM     11  C   UNL     1     -25.152 -21.553 -11.894  1.00  0.00    -0.002 C 
ATOM     12  C   UNL     1     -24.964 -22.290 -13.220  1.00  0.00     0.005 C 
ATOM     13  C   UNL     1     -25.858 -20.207 -12.254  1.00  0.00    -0.026 C 
ATOM     14  C   UNL     1     -24.899 -21.223 -14.306  1.00  0.00     0.005 C 
ATOM     15  C   UNL     1     -25.264 -19.865 -13.664  1.00  0.00    -0.001 C 
ATOM     16  C   UNL     1     -25.555 -19.092 -11.208  1.00  0.00     0.007 C 
ATOM     17  C   UNL     1     -27.393 -20.357 -12.395  1.00  0.00     0.012 C 
ATOM     18  C   UNL     1     -24.046 -18.880 -13.602  1.00  0.00     0.000 C 
ATOM     19  C   UNL     1     -25.567 -17.705 -11.849  1.00  0.00     0.005 C 
ATOM     20  C   UNL     1     -24.389 -17.541 -12.839  1.00  0.00     0.003 C 
ATOM     21  C   UNL     1     -23.424 -18.643 -15.013  1.00  0.00     0.031 C 
ATOM     22  C   UNL     1     -24.510 -16.271 -13.769  1.00  0.00    -0.008 C 
ATOM     23  C   UNL     1     -22.720 -17.325 -15.142  1.00  0.00    -0.027 C 
ATOM     24  C   UNL     1     -23.239 -16.205 -14.614  1.00  0.00    -0.065 C 
ATOM     25  C   UNL     1     -24.633 -14.951 -12.939  1.00  0.00     0.014 C 
ATOM     26  C   UNL     1     -25.743 -16.337 -14.706  1.00  0.00     0.016 C 
ATOM     27  C   UNL     1     -22.456 -14.914 -14.668  1.00  0.00     0.063 C 
ATOM     28  C   UNL     1     -23.315 -14.520 -12.267  1.00  0.00     0.033 C 
ATOM     29  C   UNL     1     -22.104 -14.467 -13.242  1.00  0.00     0.118 C 
BRANCH  29  30
ATOM     30  O   UNL     1     -21.573 -13.168 -13.295  1.00  0.00    -0.393 OA
ATOM     31  H   UNL     1     -20.989 -13.132 -14.099  1.00  0.00     0.210 HD
ENDBRANCH  29  30
ENDBRANCH   9  11
ENDBRANCH   1   9
TORSDOF 7
ENDMDL
