MODEL 1
REMARK VINA RESULT:    23.969      0.000      0.000
REMARK INTER + INTRA:          27.901
REMARK INTER:                  28.172
REMARK INTRA:                  -0.272
REMARK UNBOUND:                -0.272
REMARK SMILES Oc1ccc(-c2[o+]c3cc(O)cc(O)c3cc2O)cc1
REMARK SMILES IDX 6 1 7 2 8 3 9 4 10 5 12 6 13 7 15 8 16 9 17 10 5 11 4 12
REMARK SMILES IDX 3 13 2 14 19 15 20 16 1 17 18 19 11 21 14 23
REMARK H PARENT 1 18 18 20 11 22 14 24
REMARK Flexibility Score: inf
ROOT
ATOM      1  C   UNL     1      20.094 -12.587 -15.442  1.00  0.00     0.401 A 
ATOM      2  O   UNL     1      20.110 -12.654 -16.770  1.00  0.00    -0.202 OA
ATOM      3  C   UNL     1      21.175 -12.349 -17.505  1.00  0.00     0.368 A 
ATOM      4  C   UNL     1      21.095 -12.453 -18.896  1.00  0.00     0.162 A 
ATOM      5  C   UNL     1      22.202 -12.140 -19.691  1.00  0.00     0.128 A 
ATOM      6  C   UNL     1      23.392 -11.723 -19.093  1.00  0.00     0.093 A 
ATOM      7  C   UNL     1      23.498 -11.611 -17.700  1.00  0.00     0.136 A 
ATOM      8  C   UNL     1      22.377 -11.924 -16.889  1.00  0.00     0.125 A 
ATOM      9  C   UNL     1      22.388 -11.828 -15.488  1.00  0.00     0.078 A 
ATOM     10  C   UNL     1      21.242 -12.150 -14.755  1.00  0.00     0.223 A 
ENDROOT
BRANCH   1  11
ATOM     11  C   UNL     1      18.848 -12.965 -14.737  1.00  0.00     0.084 A 
ATOM     12  C   UNL     1      18.477 -14.312 -14.573  1.00  0.00     0.022 A 
ATOM     13  C   UNL     1      17.283 -14.642 -13.923  1.00  0.00     0.047 A 
ATOM     14  C   UNL     1      16.441 -13.633 -13.441  1.00  0.00     0.115 A 
ATOM     15  C   UNL     1      17.987 -11.959 -14.268  1.00  0.00     0.022 A 
ATOM     16  C   UNL     1      16.795 -12.291 -13.618  1.00  0.00     0.047 A 
BRANCH  14  17
ATOM     17  O   UNL     1      15.250 -13.950 -12.791  1.00  0.00    -0.508 OA
ATOM     18  H   UNL     1      14.601 -13.231 -12.495  1.00  0.00     0.293 HD
ENDBRANCH  14  17
ENDBRANCH   1  11
BRANCH  10  19
ATOM     19  O   UNL     1      21.235 -12.007 -13.367  1.00  0.00    -0.500 OA
ATOM     20  H   UNL     1      22.094 -11.992 -12.829  1.00  0.00     0.294 HD
ENDBRANCH  10  19
BRANCH   5  21
ATOM     21  O   UNL     1      22.129 -12.241 -21.078  1.00  0.00    -0.507 OA
ATOM     22  H   UNL     1      21.391 -12.766 -21.533  1.00  0.00     0.293 HD
ENDBRANCH   5  21
BRANCH   7  23
ATOM     23  O   UNL     1      24.726 -11.190 -17.180  1.00  0.00    -0.507 OA
ATOM     24  H   UNL     1      24.834 -10.679 -16.315  1.00  0.00     0.293 HD
ENDBRANCH   7  23
TORSDOF 5
ENDMDL
MODEL 2
REMARK VINA RESULT:    24.143      1.081      2.669
REMARK INTER + INTRA:          28.106
REMARK INTER:                  28.382
REMARK INTRA:                  -0.276
REMARK UNBOUND:                -0.272
REMARK SMILES Oc1ccc(-c2[o+]c3cc(O)cc(O)c3cc2O)cc1
REMARK SMILES IDX 6 1 7 2 8 3 9 4 10 5 12 6 13 7 15 8 16 9 17 10 5 11 4 12
REMARK SMILES IDX 3 13 2 14 19 15 20 16 1 17 18 19 11 21 14 23
REMARK H PARENT 1 18 18 20 11 22 14 24
REMARK Flexibility Score: inf
ROOT
ATOM      1  C   UNL     1      19.908 -12.660 -16.240  1.00  0.00     0.401 A 
ATOM      2  O   UNL     1      21.089 -12.221 -15.815  1.00  0.00    -0.202 OA
ATOM      3  C   UNL     1      22.083 -11.888 -16.632  1.00  0.00     0.368 A 
ATOM      4  C   UNL     1      23.287 -11.433 -16.090  1.00  0.00     0.162 A 
ATOM      5  C   UNL     1      24.348 -11.074 -16.929  1.00  0.00     0.128 A 
ATOM      6  C   UNL     1      24.201 -11.169 -18.314  1.00  0.00     0.093 A 
ATOM      7  C   UNL     1      23.004 -11.622 -18.883  1.00  0.00     0.136 A 
ATOM      8  C   UNL     1      21.926 -11.990 -18.036  1.00  0.00     0.125 A 
ATOM      9  C   UNL     1      20.695 -12.466 -18.517  1.00  0.00     0.078 A 
ATOM     10  C   UNL     1      19.680 -12.815 -17.620  1.00  0.00     0.223 A 
ENDROOT
BRANCH   1  11
ATOM     11  C   UNL     1      18.877 -12.988 -15.228  1.00  0.00     0.084 A 
ATOM     12  C   UNL     1      18.603 -14.319 -14.865  1.00  0.00     0.022 A 
ATOM     13  C   UNL     1      17.609 -14.604 -13.923  1.00  0.00     0.047 A 
ATOM     14  C   UNL     1      16.868 -13.566 -13.344  1.00  0.00     0.115 A 
ATOM     15  C   UNL     1      18.116 -11.955 -14.658  1.00  0.00     0.022 A 
ATOM     16  C   UNL     1      17.123 -12.242 -13.717  1.00  0.00     0.047 A 
BRANCH  14  17
ATOM     17  O   UNL     1      15.877 -13.837 -12.404  1.00  0.00    -0.508 OA
ATOM     18  H   UNL     1      14.999 -13.332 -12.400  1.00  0.00     0.293 HD
ENDBRANCH  14  17
ENDBRANCH   1  11
BRANCH  10  19
ATOM     19  O   UNL     1      18.476 -13.335 -18.095  1.00  0.00    -0.500 OA
ATOM     20  H   UNL     1      17.791 -13.745 -17.470  1.00  0.00     0.294 HD
ENDBRANCH  10  19
BRANCH   5  21
ATOM     21  O   UNL     1      25.551 -10.620 -16.395  1.00  0.00    -0.507 OA
ATOM     22  H   UNL     1      25.866  -9.667 -16.533  1.00  0.00     0.293 HD
ENDBRANCH   5  21
BRANCH   7  23
ATOM     23  O   UNL     1      22.937 -11.685 -20.278  1.00  0.00    -0.507 OA
ATOM     24  H   UNL     1      22.307 -11.134 -20.844  1.00  0.00     0.293 HD
ENDBRANCH   7  23
TORSDOF 5
ENDMDL
MODEL 3
REMARK VINA RESULT:    25.953      4.796      7.135
REMARK INTER + INTRA:          30.233
REMARK INTER:                  30.499
REMARK INTRA:                  -0.266
REMARK UNBOUND:                -0.272
REMARK SMILES Oc1ccc(-c2[o+]c3cc(O)cc(O)c3cc2O)cc1
REMARK SMILES IDX 6 1 7 2 8 3 9 4 10 5 12 6 13 7 15 8 16 9 17 10 5 11 4 12
REMARK SMILES IDX 3 13 2 14 19 15 20 16 1 17 18 19 11 21 14 23
REMARK H PARENT 1 18 18 20 11 22 14 24
REMARK Flexibility Score: inf
ROOT
ATOM      1  C   UNL     1      22.462  -7.953 -18.352  1.00  0.00     0.401 A 
ATOM      2  O   UNL     1      22.086  -8.977 -19.113  1.00  0.00    -0.202 OA
ATOM      3  C   UNL     1      22.385 -10.242 -18.836  1.00  0.00     0.368 A 
ATOM      4  C   UNL     1      21.943 -11.250 -19.696  1.00  0.00     0.162 A 
ATOM      5  C   UNL     1      22.242 -12.589 -19.426  1.00  0.00     0.128 A 
ATOM      6  C   UNL     1      22.984 -12.921 -18.291  1.00  0.00     0.093 A 
ATOM      7  C   UNL     1      23.439 -11.929 -17.413  1.00  0.00     0.136 A 
ATOM      8  C   UNL     1      23.141 -10.568 -17.684  1.00  0.00     0.125 A 
ATOM      9  C   UNL     1      23.566  -9.507 -16.867  1.00  0.00     0.078 A 
ATOM     10  C   UNL     1      23.238  -8.190 -17.202  1.00  0.00     0.223 A 
ENDROOT
BRANCH   1  11
ATOM     11  C   UNL     1      22.056  -6.589 -18.762  1.00  0.00     0.084 A 
ATOM     12  C   UNL     1      22.966  -5.703 -19.366  1.00  0.00     0.022 A 
ATOM     13  C   UNL     1      22.564  -4.413 -19.724  1.00  0.00     0.047 A 
ATOM     14  C   UNL     1      21.254  -3.987 -19.472  1.00  0.00     0.115 A 
ATOM     15  C   UNL     1      20.749  -6.147 -18.495  1.00  0.00     0.022 A 
ATOM     16  C   UNL     1      20.350  -4.857 -18.854  1.00  0.00     0.047 A 
BRANCH  14  17
ATOM     17  O   UNL     1      20.842  -2.704 -19.826  1.00  0.00    -0.508 OA
ATOM     18  H   UNL     1      21.483  -2.039 -20.243  1.00  0.00     0.293 HD
ENDBRANCH  14  17
ENDBRANCH   1  11
BRANCH  10  19
ATOM     19  O   UNL     1      23.701  -7.133 -16.419  1.00  0.00    -0.500 OA
ATOM     20  H   UNL     1      23.913  -7.252 -15.435  1.00  0.00     0.294 HD
ENDBRANCH  10  19
BRANCH   5  21
ATOM     21  O   UNL     1      21.805 -13.599 -20.280  1.00  0.00    -0.507 OA
ATOM     22  H   UNL     1      22.429 -14.332 -20.597  1.00  0.00     0.293 HD
ENDBRANCH   5  21
BRANCH   7  23
ATOM     23  O   UNL     1      24.173 -12.344 -16.297  1.00  0.00    -0.507 OA
ATOM     24  H   UNL     1      24.194 -13.292 -15.949  1.00  0.00     0.293 HD
ENDBRANCH   7  23
TORSDOF 5
ENDMDL
