MODEL 1
REMARK VINA RESULT:    -9.027      0.000      0.000
REMARK INTER + INTRA:          -9.818
REMARK INTER:                  -9.818
REMARK INTRA:                   0.000
REMARK UNBOUND:                 0.000
REMARK SMILES C[C@@H]1CC[C@@H]2[N@H+](C1)C[C@H]1[C@H]3C[C@H]4[C@@H](C[C@@H](O)[C@@H]5C[C@@H](O)CC[C@]45C)[C@H]3CC[C@@H]1[C@@]2(C)O
REMARK SMILES IDX 5 1 6 2 8 3 7 4 4 5 29 6 3 7 28 8 30 9 2 10 27 11 9 12 1 13
REMARK SMILES IDX 26 14 10 15 25 16 11 17 13 18 12 19 14 20 23 21 15 22 17 23
REMARK SMILES IDX 22 24 24 25 18 26 21 27 19 28 31 30 16 32 20 34
REMARK H PARENT 6 29 31 31 16 33 20 35
REMARK Flexibility Score: inf
ROOT
ATOM      1  C   UNL     1      23.478 -24.309  26.286  1.00  0.00     0.216 C 
ATOM      2  N   UNL     1      23.189 -23.546  25.031  1.00  0.00    -0.330 N 
ATOM      3  C   UNL     1      22.844 -22.125  25.276  1.00  0.00     0.266 C 
ATOM      4  C   UNL     1      24.179 -23.701  23.932  1.00  0.00     0.265 C 
ATOM      5  C   UNL     1      23.739 -25.824  26.006  1.00  0.00     0.069 C 
ATOM      6  C   UNL     1      24.513 -23.624  27.267  1.00  0.00     0.117 C 
ATOM      7  C   UNL     1      23.871 -26.157  24.517  1.00  0.00     0.015 C 
ATOM      8  C   UNL     1      24.066 -22.144  27.496  1.00  0.00     0.036 C 
ATOM      9  C   UNL     1      25.990 -23.708  26.774  1.00  0.00     0.049 C 
ATOM     10  C   UNL     1      24.768 -25.130  23.819  1.00  0.00     0.041 C 
ATOM     11  C   UNL     1      24.948 -21.357  28.515  1.00  0.00     0.007 C 
ATOM     12  C   UNL     1      23.886 -21.401  26.152  1.00  0.00     0.054 C 
ATOM     13  C   UNL     1      25.000 -25.522  22.355  1.00  0.00     0.013 C 
ATOM     14  C   UNL     1      25.657 -20.152  27.881  1.00  0.00     0.004 C 
ATOM     15  C   UNL     1      23.576 -19.889  26.358  1.00  0.00     0.002 C 
ATOM     16  C   UNL     1      24.661 -19.167  27.210  1.00  0.00    -0.004 C 
ATOM     17  C   UNL     1      22.205 -19.587  27.007  1.00  0.00     0.009 C 
ATOM     18  C   UNL     1      23.870 -18.217  28.144  1.00  0.00    -0.001 C 
ATOM     19  C   UNL     1      22.483 -18.824  28.307  1.00  0.00    -0.001 C 
ATOM     20  C   UNL     1      24.470 -17.846  29.519  1.00  0.00     0.036 C 
ATOM     21  C   UNL     1      21.429 -17.752  28.785  1.00  0.00    -0.024 C 
ATOM     22  C   UNL     1      23.391 -17.367  30.529  1.00  0.00     0.118 C 
ATOM     23  C   UNL     1      22.101 -16.787  29.858  1.00  0.00     0.026 C 
ATOM     24  C   UNL     1      20.175 -18.487  29.370  1.00  0.00     0.010 C 
ATOM     25  C   UNL     1      20.927 -16.873  27.601  1.00  0.00     0.012 C 
ATOM     26  C   UNL     1      21.075 -16.338  30.925  1.00  0.00     0.038 C 
ATOM     27  C   UNL     1      20.306 -18.807  30.862  1.00  0.00     0.032 C 
ATOM     28  C   UNL     1      20.482 -17.527  31.717  1.00  0.00     0.114 C 
ATOM     29  H   UNL     1      22.302 -23.961  24.654  1.00  0.00     0.348 HD
ENDROOT
BRANCH   6  30
ATOM     30  O   UNL     1      24.418 -24.259  28.526  1.00  0.00    -0.384 OA
ATOM     31  H   UNL     1      25.178 -23.973  29.094  1.00  0.00     0.211 HD
ENDBRANCH   6  30
BRANCH  22  32
ATOM     32  O   UNL     1      23.956 -16.446  31.430  1.00  0.00    -0.393 OA
ATOM     33  H   UNL     1      23.271 -16.247  32.121  1.00  0.00     0.210 HD
ENDBRANCH  22  32
BRANCH  28  34
ATOM     34  O   UNL     1      19.266 -17.151  32.314  1.00  0.00    -0.393 OA
ATOM     35  H   UNL     1      19.056 -17.822  33.016  1.00  0.00     0.210 HD
ENDBRANCH  28  34
TORSDOF 3
ENDMDL
MODEL 2
REMARK VINA RESULT:    -8.781      3.889      8.215
REMARK INTER + INTRA:          -9.551
REMARK INTER:                  -9.551
REMARK INTRA:                   0.000
REMARK UNBOUND:                 0.000
REMARK SMILES C[C@@H]1CC[C@@H]2[N@H+](C1)C[C@H]1[C@H]3C[C@H]4[C@@H](C[C@@H](O)[C@@H]5C[C@@H](O)CC[C@]45C)[C@H]3CC[C@@H]1[C@@]2(C)O
REMARK SMILES IDX 5 1 6 2 8 3 7 4 4 5 29 6 3 7 28 8 30 9 2 10 27 11 9 12 1 13
REMARK SMILES IDX 26 14 10 15 25 16 11 17 13 18 12 19 14 20 23 21 15 22 17 23
REMARK SMILES IDX 22 24 24 25 18 26 21 27 19 28 31 30 16 32 20 34
REMARK H PARENT 6 29 31 31 16 33 20 35
REMARK Flexibility Score: inf
ROOT
ATOM      1  C   UNL     1      27.612 -19.913  30.802  1.00  0.00     0.216 C 
ATOM      2  N   UNL     1      26.528 -18.901  30.592  1.00  0.00    -0.330 N 
ATOM      3  C   UNL     1      25.427 -19.394  29.730  1.00  0.00     0.266 C 
ATOM      4  C   UNL     1      26.021 -18.225  31.816  1.00  0.00     0.265 C 
ATOM      5  C   UNL     1      28.804 -19.333  31.630  1.00  0.00     0.069 C 
ATOM      6  C   UNL     1      27.117 -21.345  31.259  1.00  0.00     0.117 C 
ATOM      7  C   UNL     1      28.516 -17.956  32.236  1.00  0.00     0.015 C 
ATOM      8  C   UNL     1      25.982 -21.803  30.289  1.00  0.00     0.036 C 
ATOM      9  C   UNL     1      26.657 -21.401  32.748  1.00  0.00     0.049 C 
ATOM     10  C   UNL     1      27.121 -17.934  32.869  1.00  0.00     0.041 C 
ATOM     11  C   UNL     1      25.446 -23.244  30.561  1.00  0.00     0.007 C 
ATOM     12  C   UNL     1      24.857 -20.746  30.205  1.00  0.00     0.054 C 
ATOM     13  C   UNL     1      26.871 -16.599  33.579  1.00  0.00     0.013 C 
ATOM     14  C   UNL     1      23.961 -23.262  30.946  1.00  0.00     0.004 C 
ATOM     15  C   UNL     1      23.651 -21.241  29.354  1.00  0.00     0.002 C 
ATOM     16  C   UNL     1      23.064 -22.585  29.874  1.00  0.00    -0.004 C 
ATOM     17  C   UNL     1      23.949 -21.422  27.846  1.00  0.00     0.009 C 
ATOM     18  C   UNL     1      22.749 -23.406  28.598  1.00  0.00    -0.001 C 
ATOM     19  C   UNL     1      23.684 -22.894  27.511  1.00  0.00    -0.001 C 
ATOM     20  C   UNL     1      22.786 -24.949  28.670  1.00  0.00     0.036 C 
ATOM     21  C   UNL     1      23.151 -23.248  26.069  1.00  0.00    -0.024 C 
ATOM     22  C   UNL     1      22.989 -25.605  27.277  1.00  0.00     0.118 C 
ATOM     23  C   UNL     1      22.526 -24.712  26.077  1.00  0.00     0.026 C 
ATOM     24  C   UNL     1      24.327 -23.124  25.040  1.00  0.00     0.010 C 
ATOM     25  C   UNL     1      22.041 -22.258  25.607  1.00  0.00     0.012 C 
ATOM     26  C   UNL     1      22.765 -25.429  24.728  1.00  0.00     0.038 C 
ATOM     27  C   UNL     1      25.139 -24.415  24.896  1.00  0.00     0.032 C 
ATOM     28  C   UNL     1      24.269 -25.597  24.401  1.00  0.00     0.114 C 
ATOM     29  H   UNL     1      26.971 -18.136  30.026  1.00  0.00     0.348 HD
ENDROOT
BRANCH   6  30
ATOM     30  O   UNL     1      28.179 -22.259  31.077  1.00  0.00    -0.384 OA
ATOM     31  H   UNL     1      28.955 -21.786  30.685  1.00  0.00     0.211 HD
ENDBRANCH   6  30
BRANCH  22  32
ATOM     32  O   UNL     1      22.366 -26.865  27.246  1.00  0.00    -0.393 OA
ATOM     33  H   UNL     1      22.420 -27.248  28.160  1.00  0.00     0.210 HD
ENDBRANCH  22  32
BRANCH  28  34
ATOM     34  O   UNL     1      24.443 -25.807  23.022  1.00  0.00    -0.393 OA
ATOM     35  H   UNL     1      23.627 -26.259  22.682  1.00  0.00     0.210 HD
ENDBRANCH  28  34
TORSDOF 3
ENDMDL
MODEL 3
REMARK VINA RESULT:    -8.711      9.427     11.420
REMARK INTER + INTRA:          -9.475
REMARK INTER:                  -9.475
REMARK INTRA:                   0.000
REMARK UNBOUND:                 0.000
REMARK SMILES C[C@@H]1CC[C@@H]2[N@H+](C1)C[C@H]1[C@H]3C[C@H]4[C@@H](C[C@@H](O)[C@@H]5C[C@@H](O)CC[C@]45C)[C@H]3CC[C@@H]1[C@@]2(C)O
REMARK SMILES IDX 5 1 6 2 8 3 7 4 4 5 29 6 3 7 28 8 30 9 2 10 27 11 9 12 1 13
REMARK SMILES IDX 26 14 10 15 25 16 11 17 13 18 12 19 14 20 23 21 15 22 17 23
REMARK SMILES IDX 22 24 24 25 18 26 21 27 19 28 31 30 16 32 20 34
REMARK H PARENT 6 29 31 31 16 33 20 35
REMARK Flexibility Score: inf
ROOT
ATOM      1  C   UNL     1      24.964 -27.343  30.643  1.00  0.00     0.216 C 
ATOM      2  N   UNL     1      24.931 -25.948  31.185  1.00  0.00    -0.330 N 
ATOM      3  C   UNL     1      24.807 -25.897  32.662  1.00  0.00     0.266 C 
ATOM      4  C   UNL     1      25.983 -25.027  30.679  1.00  0.00     0.265 C 
ATOM      5  C   UNL     1      24.994 -27.366  29.080  1.00  0.00     0.069 C 
ATOM      6  C   UNL     1      25.999 -28.313  31.344  1.00  0.00     0.117 C 
ATOM      7  C   UNL     1      25.213 -25.986  28.453  1.00  0.00     0.015 C 
ATOM      8  C   UNL     1      25.787 -28.223  32.889  1.00  0.00     0.036 C 
ATOM      9  C   UNL     1      27.482 -28.033  30.951  1.00  0.00     0.049 C 
ATOM     10  C   UNL     1      26.333 -25.239  29.184  1.00  0.00     0.041 C 
ATOM     11  C   UNL     1      26.685 -29.193  33.719  1.00  0.00     0.007 C 
ATOM     12  C   UNL     1      25.865 -26.759  33.379  1.00  0.00     0.054 C 
ATOM     13  C   UNL     1      26.637 -23.907  28.489  1.00  0.00     0.013 C 
ATOM     14  C   UNL     1      27.643 -28.455  34.662  1.00  0.00     0.004 C 
ATOM     15  C   UNL     1      25.795 -26.658  34.931  1.00  0.00     0.002 C 
ATOM     16  C   UNL     1      26.897 -27.502  35.636  1.00  0.00    -0.004 C 
ATOM     17  C   UNL     1      24.437 -27.066  35.550  1.00  0.00     0.009 C 
ATOM     18  C   UNL     1      26.189 -28.149  36.853  1.00  0.00    -0.001 C 
ATOM     19  C   UNL     1      24.711 -28.238  36.498  1.00  0.00    -0.001 C 
ATOM     20  C   UNL     1      26.706 -29.503  37.388  1.00  0.00     0.036 C 
ATOM     21  C   UNL     1      23.811 -28.385  37.785  1.00  0.00    -0.024 C 
ATOM     22  C   UNL     1      25.630 -30.270  38.205  1.00  0.00     0.118 C 
ATOM     23  C   UNL     1      24.527 -29.351  38.829  1.00  0.00     0.026 C 
ATOM     24  C   UNL     1      22.399 -28.925  37.369  1.00  0.00     0.010 C 
ATOM     25  C   UNL     1      23.580 -27.013  38.485  1.00  0.00     0.012 C 
ATOM     26  C   UNL     1      23.492 -30.185  39.619  1.00  0.00     0.038 C 
ATOM     27  C   UNL     1      22.329 -30.455  37.325  1.00  0.00     0.032 C 
ATOM     28  C   UNL     1      22.633 -31.090  38.704  1.00  0.00     0.114 C 
ATOM     29  H   UNL     1      24.028 -25.539  30.840  1.00  0.00     0.348 HD
ENDROOT
BRANCH   6  30
ATOM     30  O   UNL     1      25.678 -29.641  30.983  1.00  0.00    -0.384 OA
ATOM     31  H   UNL     1      26.250 -30.267  31.494  1.00  0.00     0.211 HD
ENDBRANCH   6  30
BRANCH  22  32
ATOM     32  O   UNL     1      26.250 -31.062  39.188  1.00  0.00    -0.393 OA
ATOM     33  H   UNL     1      27.112 -30.629  39.421  1.00  0.00     0.210 HD
ENDBRANCH  22  32
BRANCH  28  34
ATOM     34  O   UNL     1      21.445 -31.454  39.362  1.00  0.00    -0.393 OA
ATOM     35  H   UNL     1      21.052 -32.221  38.868  1.00  0.00     0.210 HD
ENDBRANCH  28  34
TORSDOF 3
ENDMDL
MODEL 4
REMARK VINA RESULT:    -8.456      2.558      8.189
REMARK INTER + INTRA:          -9.198
REMARK INTER:                  -9.198
REMARK INTRA:                   0.000
REMARK UNBOUND:                 0.000
REMARK SMILES C[C@@H]1CC[C@@H]2[N@H+](C1)C[C@H]1[C@H]3C[C@H]4[C@@H](C[C@@H](O)[C@@H]5C[C@@H](O)CC[C@]45C)[C@H]3CC[C@@H]1[C@@]2(C)O
REMARK SMILES IDX 5 1 6 2 8 3 7 4 4 5 29 6 3 7 28 8 30 9 2 10 27 11 9 12 1 13
REMARK SMILES IDX 26 14 10 15 25 16 11 17 13 18 12 19 14 20 23 21 15 22 17 23
REMARK SMILES IDX 22 24 24 25 18 26 21 27 19 28 31 30 16 32 20 34
REMARK H PARENT 6 29 31 31 16 33 20 35
REMARK Flexibility Score: inf
ROOT
ATOM      1  C   UNL     1      20.956 -17.720  28.102  1.00  0.00     0.216 C 
ATOM      2  N   UNL     1      20.797 -18.292  29.477  1.00  0.00    -0.330 N 
ATOM      3  C   UNL     1      21.388 -19.643  29.621  1.00  0.00     0.266 C 
ATOM      4  C   UNL     1      21.169 -17.394  30.603  1.00  0.00     0.265 C 
ATOM      5  C   UNL     1      20.236 -16.341  27.952  1.00  0.00     0.069 C 
ATOM      6  C   UNL     1      22.425 -17.773  27.517  1.00  0.00     0.117 C 
ATOM      7  C   UNL     1      19.729 -15.768  29.279  1.00  0.00     0.015 C 
ATOM      8  C   UNL     1      22.965 -19.230  27.680  1.00  0.00     0.036 C 
ATOM      9  C   UNL     1      23.390 -16.728  28.156  1.00  0.00     0.049 C 
ATOM     10  C   UNL     1      20.801 -15.908  30.364  1.00  0.00     0.041 C 
ATOM     11  C   UNL     1      24.383 -19.462  27.069  1.00  0.00     0.007 C 
ATOM     12  C   UNL     1      22.855 -19.706  29.147  1.00  0.00     0.054 C 
ATOM     13  C   UNL     1      20.346 -15.232  31.662  1.00  0.00     0.013 C 
ATOM     14  C   UNL     1      25.425 -19.864  28.121  1.00  0.00     0.004 C 
ATOM     15  C   UNL     1      23.514 -21.100  29.360  1.00  0.00     0.002 C 
ATOM     16  C   UNL     1      25.005 -21.132  28.914  1.00  0.00    -0.004 C 
ATOM     17  C   UNL     1      22.798 -22.275  28.652  1.00  0.00     0.009 C 
ATOM     18  C   UNL     1      25.184 -22.498  28.207  1.00  0.00    -0.001 C 
ATOM     19  C   UNL     1      23.810 -22.900  27.687  1.00  0.00    -0.001 C 
ATOM     20  C   UNL     1      26.251 -22.636  27.098  1.00  0.00     0.036 C 
ATOM     21  C   UNL     1      23.721 -24.451  27.412  1.00  0.00    -0.024 C 
ATOM     22  C   UNL     1      25.965 -23.825  26.141  1.00  0.00     0.118 C 
ATOM     23  C   UNL     1      25.089 -24.958  26.774  1.00  0.00     0.026 C 
ATOM     24  C   UNL     1      22.501 -24.740  26.473  1.00  0.00     0.010 C 
ATOM     25  C   UNL     1      23.481 -25.254  28.724  1.00  0.00     0.012 C 
ATOM     26  C   UNL     1      24.844 -26.101  25.761  1.00  0.00     0.038 C 
ATOM     27  C   UNL     1      22.851 -24.646  24.984  1.00  0.00     0.032 C 
ATOM     28  C   UNL     1      23.945 -25.665  24.579  1.00  0.00     0.114 C 
ATOM     29  H   UNL     1      19.766 -18.452  29.591  1.00  0.00     0.348 HD
ENDROOT
BRANCH   6  30
ATOM     30  O   UNL     1      22.357 -17.536  26.125  1.00  0.00    -0.384 OA
ATOM     31  H   UNL     1      22.464 -16.566  25.954  1.00  0.00     0.211 HD
ENDBRANCH   6  30
BRANCH  22  32
ATOM     32  O   UNL     1      27.175 -24.336  25.638  1.00  0.00    -0.393 OA
ATOM     33  H   UNL     1      27.577 -23.636  25.061  1.00  0.00     0.210 HD
ENDBRANCH  22  32
BRANCH  28  34
ATOM     34  O   UNL     1      23.376 -26.794  23.964  1.00  0.00    -0.393 OA
ATOM     35  H   UNL     1      23.223 -27.475  24.670  1.00  0.00     0.210 HD
ENDBRANCH  28  34
TORSDOF 3
ENDMDL
MODEL 5
REMARK VINA RESULT:    -8.378      6.194      9.203
REMARK INTER + INTRA:          -9.112
REMARK INTER:                  -9.112
REMARK INTRA:                   0.000
REMARK UNBOUND:                 0.000
REMARK SMILES C[C@@H]1CC[C@@H]2[N@H+](C1)C[C@H]1[C@H]3C[C@H]4[C@@H](C[C@@H](O)[C@@H]5C[C@@H](O)CC[C@]45C)[C@H]3CC[C@@H]1[C@@]2(C)O
REMARK SMILES IDX 5 1 6 2 8 3 7 4 4 5 29 6 3 7 28 8 30 9 2 10 27 11 9 12 1 13
REMARK SMILES IDX 26 14 10 15 25 16 11 17 13 18 12 19 14 20 23 21 15 22 17 23
REMARK SMILES IDX 22 24 24 25 18 26 21 27 19 28 31 30 16 32 20 34
REMARK H PARENT 6 29 31 31 16 33 20 35
REMARK Flexibility Score: inf
ROOT
ATOM      1  C   UNL     1      27.416 -24.909  27.298  1.00  0.00     0.216 C 
ATOM      2  N   UNL     1      26.311 -25.833  26.889  1.00  0.00    -0.330 N 
ATOM      3  C   UNL     1      25.802 -26.666  28.004  1.00  0.00     0.266 C 
ATOM      4  C   UNL     1      25.209 -25.221  26.098  1.00  0.00     0.265 C 
ATOM      5  C   UNL     1      28.000 -24.118  26.083  1.00  0.00     0.069 C 
ATOM      6  C   UNL     1      27.122 -24.036  28.584  1.00  0.00     0.117 C 
ATOM      7  C   UNL     1      27.181 -24.278  24.798  1.00  0.00     0.015 C 
ATOM      8  C   UNL     1      26.619 -24.986  29.717  1.00  0.00     0.036 C 
ATOM      9  C   UNL     1      26.123 -22.867  28.329  1.00  0.00     0.049 C 
ATOM     10  C   UNL     1      25.686 -24.137  25.098  1.00  0.00     0.041 C 
ATOM     11  C   UNL     1      26.366 -24.278  31.085  1.00  0.00     0.007 C 
ATOM     12  C   UNL     1      25.415 -25.833  29.243  1.00  0.00     0.054 C 
ATOM     13  C   UNL     1      24.869 -24.179  23.802  1.00  0.00     0.013 C 
ATOM     14  C   UNL     1      24.900 -24.358  31.533  1.00  0.00     0.004 C 
ATOM     15  C   UNL     1      24.810 -26.685  30.396  1.00  0.00     0.002 C 
ATOM     16  C   UNL     1      24.388 -25.822  31.621  1.00  0.00    -0.004 C 
ATOM     17  C   UNL     1      25.727 -27.813  30.924  1.00  0.00     0.009 C 
ATOM     18  C   UNL     1      24.817 -26.646  32.860  1.00  0.00    -0.001 C 
ATOM     19  C   UNL     1      25.968 -27.536  32.412  1.00  0.00    -0.001 C 
ATOM     20  C   UNL     1      25.175 -25.904  34.167  1.00  0.00     0.036 C 
ATOM     21  C   UNL     1      26.165 -28.766  33.379  1.00  0.00    -0.024 C 
ATOM     22  C   UNL     1      26.073 -26.755  35.107  1.00  0.00     0.118 C 
ATOM     23  C   UNL     1      25.946 -28.299  34.885  1.00  0.00     0.026 C 
ATOM     24  C   UNL     1      27.595 -29.371  33.161  1.00  0.00     0.010 C 
ATOM     25  C   UNL     1      25.144 -29.903  33.079  1.00  0.00     0.012 C 
ATOM     26  C   UNL     1      26.872 -29.076  35.851  1.00  0.00     0.038 C 
ATOM     27  C   UNL     1      28.669 -28.705  34.028  1.00  0.00     0.032 C 
ATOM     28  C   UNL     1      28.372 -28.860  35.540  1.00  0.00     0.114 C 
ATOM     29  H   UNL     1      26.756 -26.525  26.238  1.00  0.00     0.348 HD
ENDROOT
BRANCH   6  30
ATOM     30  O   UNL     1      28.345 -23.496  29.042  1.00  0.00    -0.384 OA
ATOM     31  H   UNL     1      28.264 -23.272  30.004  1.00  0.00     0.211 HD
ENDBRANCH   6  30
BRANCH  22  32
ATOM     32  O   UNL     1      25.825 -26.409  36.448  1.00  0.00    -0.393 OA
ATOM     33  H   UNL     1      26.614 -26.691  36.980  1.00  0.00     0.210 HD
ENDBRANCH  22  32
BRANCH  28  34
ATOM     34  O   UNL     1      29.136 -29.900  36.097  1.00  0.00    -0.393 OA
ATOM     35  H   UNL     1      29.727 -29.501  36.789  1.00  0.00     0.210 HD
ENDBRANCH  28  34
TORSDOF 3
ENDMDL
MODEL 6
REMARK VINA RESULT:    -8.363      8.271     11.359
REMARK INTER + INTRA:          -9.097
REMARK INTER:                  -9.097
REMARK INTRA:                   0.000
REMARK UNBOUND:                 0.000
REMARK SMILES C[C@@H]1CC[C@@H]2[N@H+](C1)C[C@H]1[C@H]3C[C@H]4[C@@H](C[C@@H](O)[C@@H]5C[C@@H](O)CC[C@]45C)[C@H]3CC[C@@H]1[C@@]2(C)O
REMARK SMILES IDX 5 1 6 2 8 3 7 4 4 5 29 6 3 7 28 8 30 9 2 10 27 11 9 12 1 13
REMARK SMILES IDX 26 14 10 15 25 16 11 17 13 18 12 19 14 20 23 21 15 22 17 23
REMARK SMILES IDX 22 24 24 25 18 26 21 27 19 28 31 30 16 32 20 34
REMARK H PARENT 6 29 31 31 16 33 20 35
REMARK Flexibility Score: inf
ROOT
ATOM      1  C   UNL     1      26.847 -27.692  36.765  1.00  0.00     0.216 C 
ATOM      2  N   UNL     1      25.487 -28.273  36.531  1.00  0.00    -0.330 N 
ATOM      3  C   UNL     1      25.039 -28.164  35.122  1.00  0.00     0.266 C 
ATOM      4  C   UNL     1      25.254 -29.631  37.089  1.00  0.00     0.265 C 
ATOM      5  C   UNL     1      27.251 -27.730  38.274  1.00  0.00     0.069 C 
ATOM      6  C   UNL     1      27.970 -28.180  35.762  1.00  0.00     0.117 C 
ATOM      7  C   UNL     1      26.290 -28.547  39.144  1.00  0.00     0.015 C 
ATOM      8  C   UNL     1      27.433 -28.008  34.305  1.00  0.00     0.036 C 
ATOM      9  C   UNL     1      28.452 -29.639  36.027  1.00  0.00     0.049 C 
ATOM     10  C   UNL     1      25.944 -29.871  38.456  1.00  0.00     0.041 C 
ATOM     11  C   UNL     1      28.466 -28.371  33.192  1.00  0.00     0.007 C 
ATOM     12  C   UNL     1      26.073 -28.720  34.122  1.00  0.00     0.054 C 
ATOM     13  C   UNL     1      25.077 -30.744  39.371  1.00  0.00     0.013 C 
ATOM     14  C   UNL     1      28.008 -29.544  32.316  1.00  0.00     0.004 C 
ATOM     15  C   UNL     1      25.586 -28.680  32.644  1.00  0.00     0.002 C 
ATOM     16  C   UNL     1      26.626 -29.284  31.655  1.00  0.00    -0.004 C 
ATOM     17  C   UNL     1      25.214 -27.274  32.118  1.00  0.00     0.009 C 
ATOM     18  C   UNL     1      26.599 -28.346  30.423  1.00  0.00    -0.001 C 
ATOM     19  C   UNL     1      26.129 -26.987  30.922  1.00  0.00    -0.001 C 
ATOM     20  C   UNL     1      27.874 -28.202  29.561  1.00  0.00     0.036 C 
ATOM     21  C   UNL     1      25.567 -26.097  29.748  1.00  0.00    -0.024 C 
ATOM     22  C   UNL     1      27.889 -26.886  28.736  1.00  0.00     0.118 C 
ATOM     23  C   UNL     1      26.467 -26.296  28.450  1.00  0.00     0.026 C 
ATOM     24  C   UNL     1      25.533 -24.598  30.206  1.00  0.00     0.010 C 
ATOM     25  C   UNL     1      24.105 -26.488  29.378  1.00  0.00     0.012 C 
ATOM     26  C   UNL     1      26.565 -24.988  27.631  1.00  0.00     0.038 C 
ATOM     27  C   UNL     1      26.848 -23.858  29.940  1.00  0.00     0.032 C 
ATOM     28  C   UNL     1      27.204 -23.830  28.433  1.00  0.00     0.114 C 
ATOM     29  H   UNL     1      24.827 -27.649  37.056  1.00  0.00     0.348 HD
ENDROOT
BRANCH   6  30
ATOM     30  O   UNL     1      29.076 -27.308  35.876  1.00  0.00    -0.384 OA
ATOM     31  H   UNL     1      29.208 -27.071  36.828  1.00  0.00     0.211 HD
ENDBRANCH   6  30
BRANCH  22  32
ATOM     32  O   UNL     1      28.611 -27.077  27.544  1.00  0.00    -0.393 OA
ATOM     33  H   UNL     1      27.987 -26.924  26.788  1.00  0.00     0.210 HD
ENDBRANCH  22  32
BRANCH  28  34
ATOM     34  O   UNL     1      26.857 -22.594  27.859  1.00  0.00    -0.393 OA
ATOM     35  H   UNL     1      26.022 -22.730  27.338  1.00  0.00     0.210 HD
ENDBRANCH  28  34
TORSDOF 3
ENDMDL
MODEL 7
REMARK VINA RESULT:    -8.175      4.973      7.993
REMARK INTER + INTRA:          -8.892
REMARK INTER:                  -8.892
REMARK INTRA:                   0.000
REMARK UNBOUND:                 0.000
REMARK SMILES C[C@@H]1CC[C@@H]2[N@H+](C1)C[C@H]1[C@H]3C[C@H]4[C@@H](C[C@@H](O)[C@@H]5C[C@@H](O)CC[C@]45C)[C@H]3CC[C@@H]1[C@@]2(C)O
REMARK SMILES IDX 5 1 6 2 8 3 7 4 4 5 29 6 3 7 28 8 30 9 2 10 27 11 9 12 1 13
REMARK SMILES IDX 26 14 10 15 25 16 11 17 13 18 12 19 14 20 23 21 15 22 17 23
REMARK SMILES IDX 22 24 24 25 18 26 21 27 19 28 31 30 16 32 20 34
REMARK H PARENT 6 29 31 31 16 33 20 35
REMARK Flexibility Score: inf
ROOT
ATOM      1  C   UNL     1      24.726 -27.624  31.942  1.00  0.00     0.216 C 
ATOM      2  N   UNL     1      26.209 -27.822  31.881  1.00  0.00    -0.330 N 
ATOM      3  C   UNL     1      26.869 -26.989  30.847  1.00  0.00     0.266 C 
ATOM      4  C   UNL     1      26.927 -27.771  33.183  1.00  0.00     0.265 C 
ATOM      5  C   UNL     1      24.046 -28.586  32.969  1.00  0.00     0.069 C 
ATOM      6  C   UNL     1      24.250 -26.117  32.024  1.00  0.00     0.117 C 
ATOM      7  C   UNL     1      25.044 -29.348  33.846  1.00  0.00     0.015 C 
ATOM      8  C   UNL     1      24.966 -25.315  30.890  1.00  0.00     0.036 C 
ATOM      9  C   UNL     1      24.481 -25.464  33.421  1.00  0.00     0.049 C 
ATOM     10  C   UNL     1      26.136 -28.403  34.357  1.00  0.00     0.041 C 
ATOM     11  C   UNL     1      24.532 -23.819  30.788  1.00  0.00     0.007 C 
ATOM     12  C   UNL     1      26.500 -25.495  30.959  1.00  0.00     0.054 C 
ATOM     13  C   UNL     1      27.071 -29.132  35.329  1.00  0.00     0.013 C 
ATOM     14  C   UNL     1      25.690 -22.846  31.042  1.00  0.00     0.004 C 
ATOM     15  C   UNL     1      27.241 -24.597  29.927  1.00  0.00     0.002 C 
ATOM     16  C   UNL     1      26.888 -23.089  30.083  1.00  0.00    -0.004 C 
ATOM     17  C   UNL     1      27.004 -24.974  28.446  1.00  0.00     0.009 C 
ATOM     18  C   UNL     1      26.751 -22.557  28.635  1.00  0.00    -0.001 C 
ATOM     19  C   UNL     1      26.377 -23.751  27.768  1.00  0.00    -0.001 C 
ATOM     20  C   UNL     1      25.810 -21.363  28.359  1.00  0.00     0.036 C 
ATOM     21  C   UNL     1      26.702 -23.492  26.246  1.00  0.00    -0.024 C 
ATOM     22  C   UNL     1      25.360 -21.290  26.874  1.00  0.00     0.118 C 
ATOM     23  C   UNL     1      26.345 -21.985  25.874  1.00  0.00     0.026 C 
ATOM     24  C   UNL     1      25.901 -24.512  25.366  1.00  0.00     0.010 C 
ATOM     25  C   UNL     1      28.211 -23.714  25.934  1.00  0.00     0.012 C 
ATOM     26  C   UNL     1      25.827 -21.875  24.421  1.00  0.00     0.038 C 
ATOM     27  C   UNL     1      24.498 -24.018  24.998  1.00  0.00     0.032 C 
ATOM     28  C   UNL     1      24.540 -22.701  24.183  1.00  0.00     0.114 C 
ATOM     29  H   UNL     1      26.342 -28.804  31.539  1.00  0.00     0.348 HD
ENDROOT
BRANCH   6  30
ATOM     30  O   UNL     1      22.870 -26.070  31.724  1.00  0.00    -0.384 OA
ATOM     31  H   UNL     1      22.734 -25.552  30.891  1.00  0.00     0.211 HD
ENDBRANCH   6  30
BRANCH  22  32
ATOM     32  O   UNL     1      25.124 -19.952  26.511  1.00  0.00    -0.393 OA
ATOM     33  H   UNL     1      25.989 -19.566  26.216  1.00  0.00     0.210 HD
ENDBRANCH  22  32
BRANCH  28  34
ATOM     34  O   UNL     1      24.376 -22.955  22.811  1.00  0.00    -0.393 OA
ATOM     35  H   UNL     1      24.406 -22.081  22.338  1.00  0.00     0.210 HD
ENDBRANCH  28  34
TORSDOF 3
ENDMDL
MODEL 8
REMARK VINA RESULT:    -8.105      5.271      8.833
REMARK INTER + INTRA:          -8.815
REMARK INTER:                  -8.815
REMARK INTRA:                   0.000
REMARK UNBOUND:                 0.000
REMARK SMILES C[C@@H]1CC[C@@H]2[N@H+](C1)C[C@H]1[C@H]3C[C@H]4[C@@H](C[C@@H](O)[C@@H]5C[C@@H](O)CC[C@]45C)[C@H]3CC[C@@H]1[C@@]2(C)O
REMARK SMILES IDX 5 1 6 2 8 3 7 4 4 5 29 6 3 7 28 8 30 9 2 10 27 11 9 12 1 13
REMARK SMILES IDX 26 14 10 15 25 16 11 17 13 18 12 19 14 20 23 21 15 22 17 23
REMARK SMILES IDX 22 24 24 25 18 26 21 27 19 28 31 30 16 32 20 34
REMARK H PARENT 6 29 31 31 16 33 20 35
REMARK Flexibility Score: inf
ROOT
ATOM      1  C   UNL     1      27.141 -27.815  32.130  1.00  0.00     0.216 C 
ATOM      2  N   UNL     1      26.553 -26.642  32.852  1.00  0.00    -0.330 N 
ATOM      3  C   UNL     1      26.125 -25.551  31.945  1.00  0.00     0.266 C 
ATOM      4  C   UNL     1      25.520 -26.958  33.875  1.00  0.00     0.265 C 
ATOM      5  C   UNL     1      27.674 -28.905  33.115  1.00  0.00     0.069 C 
ATOM      6  C   UNL     1      26.274 -28.369  30.928  1.00  0.00     0.117 C 
ATOM      7  C   UNL     1      27.281 -28.655  34.574  1.00  0.00     0.015 C 
ATOM      8  C   UNL     1      25.888 -27.168  30.007  1.00  0.00     0.036 C 
ATOM      9  C   UNL     1      25.016 -29.171  31.383  1.00  0.00     0.049 C 
ATOM     10  C   UNL     1      25.804 -28.259  34.668  1.00  0.00     0.041 C 
ATOM     11  C   UNL     1      25.096 -27.570  28.723  1.00  0.00     0.007 C 
ATOM     12  C   UNL     1      25.198 -26.044  30.814  1.00  0.00     0.054 C 
ATOM     13  C   UNL     1      25.374 -28.122  36.134  1.00  0.00     0.013 C 
ATOM     14  C   UNL     1      23.690 -26.958  28.676  1.00  0.00     0.004 C 
ATOM     15  C   UNL     1      24.681 -24.898  29.896  1.00  0.00     0.002 C 
ATOM     16  C   UNL     1      23.715 -25.409  28.788  1.00  0.00    -0.004 C 
ATOM     17  C   UNL     1      25.787 -24.073  29.197  1.00  0.00     0.009 C 
ATOM     18  C   UNL     1      24.108 -24.616  27.516  1.00  0.00    -0.001 C 
ATOM     19  C   UNL     1      25.567 -24.218  27.688  1.00  0.00    -0.001 C 
ATOM     20  C   UNL     1      23.874 -25.258  26.130  1.00  0.00     0.036 C 
ATOM     21  C   UNL     1      25.954 -23.004  26.757  1.00  0.00    -0.024 C 
ATOM     22  C   UNL     1      24.771 -24.632  25.027  1.00  0.00     0.118 C 
ATOM     23  C   UNL     1      25.246 -23.174  25.340  1.00  0.00     0.026 C 
ATOM     24  C   UNL     1      27.513 -22.934  26.621  1.00  0.00     0.010 C 
ATOM     25  C   UNL     1      25.491 -21.646  27.361  1.00  0.00     0.012 C 
ATOM     26  C   UNL     1      26.136 -22.624  24.201  1.00  0.00     0.038 C 
ATOM     27  C   UNL     1      28.058 -23.795  25.476  1.00  0.00     0.032 C 
ATOM     28  C   UNL     1      27.495 -23.356  24.101  1.00  0.00     0.114 C 
ATOM     29  H   UNL     1      27.348 -26.225  33.394  1.00  0.00     0.348 HD
ENDROOT
BRANCH   6  30
ATOM     30  O   UNL     1      27.091 -29.214  30.144  1.00  0.00    -0.384 OA
ATOM     31  H   UNL     1      28.023 -29.168  30.477  1.00  0.00     0.211 HD
ENDBRANCH   6  30
BRANCH  22  32
ATOM     32  O   UNL     1      24.117 -24.700  23.783  1.00  0.00    -0.393 OA
ATOM     33  H   UNL     1      23.729 -25.610  23.699  1.00  0.00     0.210 HD
ENDBRANCH  22  32
BRANCH  28  34
ATOM     34  O   UNL     1      28.424 -22.559  23.410  1.00  0.00    -0.393 OA
ATOM     35  H   UNL     1      28.750 -23.085  22.633  1.00  0.00     0.210 HD
ENDBRANCH  28  34
TORSDOF 3
ENDMDL
MODEL 9
REMARK VINA RESULT:    -8.027     12.272     14.989
REMARK INTER + INTRA:          -8.731
REMARK INTER:                  -8.731
REMARK INTRA:                   0.000
REMARK UNBOUND:                 0.000
REMARK SMILES C[C@@H]1CC[C@@H]2[N@H+](C1)C[C@H]1[C@H]3C[C@H]4[C@@H](C[C@@H](O)[C@@H]5C[C@@H](O)CC[C@]45C)[C@H]3CC[C@@H]1[C@@]2(C)O
REMARK SMILES IDX 5 1 6 2 8 3 7 4 4 5 29 6 3 7 28 8 30 9 2 10 27 11 9 12 1 13
REMARK SMILES IDX 26 14 10 15 25 16 11 17 13 18 12 19 14 20 23 21 15 22 17 23
REMARK SMILES IDX 22 24 24 25 18 26 21 27 19 28 31 30 16 32 20 34
REMARK H PARENT 6 29 31 31 16 33 20 35
REMARK Flexibility Score: inf
ROOT
ATOM      1  C   UNL     1      26.116 -27.953  37.161  1.00  0.00     0.216 C 
ATOM      2  N   UNL     1      25.102 -26.852  37.119  1.00  0.00    -0.330 N 
ATOM      3  C   UNL     1      23.731 -27.331  36.817  1.00  0.00     0.266 C 
ATOM      4  C   UNL     1      25.124 -25.901  38.262  1.00  0.00     0.265 C 
ATOM      5  C   UNL     1      27.565 -27.408  37.381  1.00  0.00     0.069 C 
ATOM      6  C   UNL     1      25.726 -29.194  38.062  1.00  0.00     0.117 C 
ATOM      7  C   UNL     1      27.611 -25.918  37.732  1.00  0.00     0.015 C 
ATOM      8  C   UNL     1      24.287 -29.654  37.666  1.00  0.00     0.036 C 
ATOM      9  C   UNL     1      25.838 -28.914  39.592  1.00  0.00     0.049 C 
ATOM     10  C   UNL     1      26.549 -25.584  38.783  1.00  0.00     0.041 C 
ATOM     11  C   UNL     1      23.791 -30.930  38.415  1.00  0.00     0.007 C 
ATOM     12  C   UNL     1      23.283 -28.480  37.743  1.00  0.00     0.054 C 
ATOM     13  C   UNL     1      26.666 -24.121  39.225  1.00  0.00     0.013 C 
ATOM     14  C   UNL     1      22.551 -30.668  39.280  1.00  0.00     0.004 C 
ATOM     15  C   UNL     1      21.820 -28.944  37.488  1.00  0.00     0.002 C 
ATOM     16  C   UNL     1      21.372 -30.075  38.459  1.00  0.00    -0.004 C 
ATOM     17  C   UNL     1      21.533 -29.435  36.049  1.00  0.00     0.009 C 
ATOM     18  C   UNL     1      20.559 -31.059  37.582  1.00  0.00    -0.001 C 
ATOM     19  C   UNL     1      21.065 -30.890  36.157  1.00  0.00    -0.001 C 
ATOM     20  C   UNL     1      20.515 -32.553  37.974  1.00  0.00     0.036 C 
ATOM     21  C   UNL     1      20.021 -31.419  35.100  1.00  0.00    -0.024 C 
ATOM     22  C   UNL     1      20.151 -33.472  36.776  1.00  0.00     0.118 C 
ATOM     23  C   UNL     1      19.344 -32.754  35.643  1.00  0.00     0.026 C 
ATOM     24  C   UNL     1      20.745 -31.652  33.729  1.00  0.00     0.010 C 
ATOM     25  C   UNL     1      18.889 -30.382  34.841  1.00  0.00     0.012 C 
ATOM     26  C   UNL     1      19.025 -33.730  34.486  1.00  0.00     0.038 C 
ATOM     27  C   UNL     1      21.360 -33.050  33.603  1.00  0.00     0.032 C 
ATOM     28  C   UNL     1      20.290 -34.166  33.709  1.00  0.00     0.114 C 
ATOM     29  H   UNL     1      25.358 -26.273  36.282  1.00  0.00     0.348 HD
ENDROOT
BRANCH   6  30
ATOM     30  O   UNL     1      26.583 -30.267  37.734  1.00  0.00    -0.384 OA
ATOM     31  H   UNL     1      27.444 -29.908  37.401  1.00  0.00     0.211 HD
ENDBRANCH   6  30
BRANCH  22  32
ATOM     32  O   UNL     1      19.475 -34.616  37.238  1.00  0.00    -0.393 OA
ATOM     33  H   UNL     1      19.727 -35.372  36.646  1.00  0.00     0.210 HD
ENDBRANCH  22  32
BRANCH  28  34
ATOM     34  O   UNL     1      19.935 -34.643  32.436  1.00  0.00    -0.393 OA
ATOM     35  H   UNL     1      20.061 -35.629  32.439  1.00  0.00     0.210 HD
ENDBRANCH  28  34
TORSDOF 3
ENDMDL
