MODEL 1
REMARK VINA RESULT:    -6.170      0.000      0.000
REMARK INTER + INTRA:         -10.389
REMARK INTER:                  -8.514
REMARK INTRA:                  -1.875
REMARK UNBOUND:                -1.875
REMARK SMILES CC[C@H](CC[C@@H](C)[C@H]1CC[C@H]2[C@@H]3CC=C4C[C@@H](O)CC[C@]4(C)[C@@H]3CC[C@@]12C)C(C)C
REMARK SMILES IDX 5 1 4 2 3 3 2 4 1 5 28 6 29 7 30 8 6 9 7 10 8 11 9 12 26 13
REMARK SMILES IDX 10 14 11 15 25 16 27 17 12 18 24 19 23 20 13 21 21 22 14 23
REMARK SMILES IDX 15 24 20 25 22 26 16 27 19 28 17 29 18 30
REMARK H PARENT 18 31
REMARK Flexibility Score: inf
ROOT
ATOM      1  C   UNL     1      19.618   0.203 -26.759  1.00  0.00     0.004 C 
ENDROOT
BRANCH   1   2
ATOM      2  C   UNL     1      18.712  -0.989 -26.411  1.00  0.00     0.004 C 
BRANCH   2   3
ATOM      3  C   UNL     1      18.864  -1.643 -25.005  1.00  0.00    -0.009 C 
BRANCH   3   4
ATOM      4  C   UNL     1      17.477  -1.670 -24.284  1.00  0.00     0.000 C 
ATOM      5  C   UNL     1      16.663  -0.364 -24.462  1.00  0.00     0.004 C 
ENDBRANCH   3   4
BRANCH   3   6
ATOM      6  C   UNL     1      19.506  -3.077 -25.087  1.00  0.00    -0.014 C 
ATOM      7  C   UNL     1      18.624  -4.139 -24.408  1.00  0.00     0.007 C 
ATOM      8  C   UNL     1      19.802  -3.496 -26.542  1.00  0.00     0.007 C 
ENDBRANCH   3   6
ENDBRANCH   2   3
ENDBRANCH   1   2
BRANCH   1   9
ATOM      9  C   UNL     1      20.922   0.490 -25.966  1.00  0.00    -0.011 C 
ATOM     10  C   UNL     1      22.041   0.796 -26.959  1.00  0.00     0.008 C 
BRANCH   9  11
ATOM     11  C   UNL     1      20.834   1.485 -24.769  1.00  0.00    -0.002 C 
ATOM     12  C   UNL     1      19.532   2.255 -24.680  1.00  0.00     0.005 C 
ATOM     13  C   UNL     1      21.096   1.088 -23.255  1.00  0.00    -0.026 C 
ATOM     14  C   UNL     1      19.657   3.095 -23.394  1.00  0.00     0.005 C 
ATOM     15  C   UNL     1      20.883   2.517 -22.661  1.00  0.00    -0.001 C 
ATOM     16  C   UNL     1      20.094   0.048 -22.592  1.00  0.00     0.007 C 
ATOM     17  C   UNL     1      22.550   0.557 -23.064  1.00  0.00     0.012 C 
ATOM     18  C   UNL     1      20.826   2.611 -21.136  1.00  0.00     0.000 C 
ATOM     19  C   UNL     1      19.215   0.568 -21.430  1.00  0.00     0.005 C 
ATOM     20  C   UNL     1      19.889   1.576 -20.451  1.00  0.00     0.003 C 
ATOM     21  C   UNL     1      22.250   2.621 -20.520  1.00  0.00     0.031 C 
ATOM     22  C   UNL     1      20.378   0.995 -19.057  1.00  0.00    -0.008 C 
ATOM     23  C   UNL     1      22.148   2.784 -19.056  1.00  0.00    -0.027 C 
ATOM     24  C   UNL     1      21.336   1.959 -18.351  1.00  0.00    -0.065 C 
ATOM     25  C   UNL     1      21.148  -0.378 -19.105  1.00  0.00     0.014 C 
ATOM     26  C   UNL     1      19.101   0.814 -18.190  1.00  0.00     0.016 C 
ATOM     27  C   UNL     1      21.615   1.696 -16.921  1.00  0.00     0.063 C 
ATOM     28  C   UNL     1      21.617  -0.851 -17.704  1.00  0.00     0.033 C 
ATOM     29  C   UNL     1      22.211   0.278 -16.780  1.00  0.00     0.118 C 
BRANCH  29  30
ATOM     30  O   UNL     1      22.196  -0.079 -15.414  1.00  0.00    -0.393 OA
ATOM     31  H   UNL     1      21.666   0.622 -14.946  1.00  0.00     0.210 HD
ENDBRANCH  29  30
ENDBRANCH   9  11
ENDBRANCH   1   9
TORSDOF 7
ENDMDL
MODEL 2
REMARK VINA RESULT:    -5.869      3.017      7.783
REMARK INTER + INTRA:          -9.975
REMARK INTER:                  -8.910
REMARK INTRA:                  -1.065
REMARK UNBOUND:                -1.875
REMARK SMILES CC[C@H](CC[C@@H](C)[C@H]1CC[C@H]2[C@@H]3CC=C4C[C@@H](O)CC[C@]4(C)[C@@H]3CC[C@@]12C)C(C)C
REMARK SMILES IDX 5 1 4 2 3 3 2 4 1 5 28 6 29 7 30 8 6 9 7 10 8 11 9 12 26 13
REMARK SMILES IDX 10 14 11 15 25 16 27 17 12 18 24 19 23 20 13 21 21 22 14 23
REMARK SMILES IDX 15 24 20 25 22 26 16 27 19 28 17 29 18 30
REMARK H PARENT 18 31
REMARK Flexibility Score: inf
ROOT
ATOM      1  C   UNL     1      20.985   1.757 -17.494  1.00  0.00     0.004 C 
ENDROOT
BRANCH   1   2
ATOM      2  C   UNL     1      21.365   1.323 -16.070  1.00  0.00     0.004 C 
BRANCH   2   3
ATOM      3  C   UNL     1      20.340   0.475 -15.260  1.00  0.00    -0.009 C 
BRANCH   3   4
ATOM      4  C   UNL     1      18.958   0.478 -15.992  1.00  0.00     0.000 C 
ATOM      5  C   UNL     1      17.885   1.340 -15.282  1.00  0.00     0.004 C 
ENDBRANCH   3   4
BRANCH   3   6
ATOM      6  C   UNL     1      20.858  -0.988 -15.000  1.00  0.00    -0.014 C 
ATOM      7  C   UNL     1      20.173  -2.011 -15.922  1.00  0.00     0.007 C 
ATOM      8  C   UNL     1      22.390  -1.094 -15.149  1.00  0.00     0.007 C 
ENDBRANCH   3   6
ENDBRANCH   2   3
ENDBRANCH   1   2
BRANCH   1   9
ATOM      9  C   UNL     1      21.659   1.124 -18.742  1.00  0.00    -0.011 C 
ATOM     10  C   UNL     1      21.377  -0.377 -18.742  1.00  0.00     0.008 C 
BRANCH   9  11
ATOM     11  C   UNL     1      21.431   1.821 -20.118  1.00  0.00    -0.002 C 
ATOM     12  C   UNL     1      22.655   1.875 -21.010  1.00  0.00     0.005 C 
ATOM     13  C   UNL     1      20.284   1.427 -21.141  1.00  0.00    -0.026 C 
ATOM     14  C   UNL     1      22.162   2.526 -22.317  1.00  0.00     0.005 C 
ATOM     15  C   UNL     1      20.625   2.513 -22.211  1.00  0.00    -0.001 C 
ATOM     16  C   UNL     1      20.344  -0.028 -21.776  1.00  0.00     0.007 C 
ATOM     17  C   UNL     1      18.876   1.623 -20.498  1.00  0.00     0.012 C 
ATOM     18  C   UNL     1      19.887   2.398 -23.545  1.00  0.00     0.000 C 
ATOM     19  C   UNL     1      20.581  -0.115 -23.303  1.00  0.00     0.005 C 
ATOM     20  C   UNL     1      19.887   0.976 -24.173  1.00  0.00     0.003 C 
ATOM     21  C   UNL     1      18.463   3.006 -23.454  1.00  0.00     0.031 C 
ATOM     22  C   UNL     1      18.564   0.540 -24.936  1.00  0.00    -0.008 C 
ATOM     23  C   UNL     1      17.816   2.938 -24.780  1.00  0.00    -0.027 C 
ATOM     24  C   UNL     1      17.781   1.756 -25.441  1.00  0.00    -0.065 C 
ATOM     25  C   UNL     1      17.522  -0.296 -24.103  1.00  0.00     0.014 C 
ATOM     26  C   UNL     1      19.024  -0.313 -26.150  1.00  0.00     0.016 C 
ATOM     27  C   UNL     1      16.712   1.497 -26.431  1.00  0.00     0.063 C 
ATOM     28  C   UNL     1      16.248  -0.645 -24.917  1.00  0.00     0.033 C 
ATOM     29  C   UNL     1      15.686   0.519 -25.816  1.00  0.00     0.118 C 
BRANCH  29  30
ATOM     30  O   UNL     1      14.846   0.047 -26.847  1.00  0.00    -0.393 OA
ATOM     31  H   UNL     1      15.163  -0.869 -27.073  1.00  0.00     0.210 HD
ENDBRANCH  29  30
ENDBRANCH   9  11
ENDBRANCH   1   9
TORSDOF 7
ENDMDL
MODEL 3
REMARK VINA RESULT:    -5.704     13.272     15.972
REMARK INTER + INTRA:          -9.746
REMARK INTER:                  -8.606
REMARK INTRA:                  -1.140
REMARK UNBOUND:                -1.875
REMARK SMILES CC[C@H](CC[C@@H](C)[C@H]1CC[C@H]2[C@@H]3CC=C4C[C@@H](O)CC[C@]4(C)[C@@H]3CC[C@@]12C)C(C)C
REMARK SMILES IDX 5 1 4 2 3 3 2 4 1 5 28 6 29 7 30 8 6 9 7 10 8 11 9 12 26 13
REMARK SMILES IDX 10 14 11 15 25 16 27 17 12 18 24 19 23 20 13 21 21 22 14 23
REMARK SMILES IDX 15 24 20 25 22 26 16 27 19 28 17 29 18 30
REMARK H PARENT 18 31
REMARK Flexibility Score: inf
ROOT
ATOM      1  C   UNL     1      24.853 -14.270 -27.450  1.00  0.00     0.004 C 
ENDROOT
BRANCH   1   2
ATOM      2  C   UNL     1      26.253 -14.045 -26.860  1.00  0.00     0.004 C 
BRANCH   2   3
ATOM      3  C   UNL     1      26.758 -12.580 -26.698  1.00  0.00    -0.009 C 
BRANCH   3   4
ATOM      4  C   UNL     1      26.545 -11.800 -28.037  1.00  0.00     0.000 C 
ATOM      5  C   UNL     1      27.746 -11.902 -29.010  1.00  0.00     0.004 C 
ENDBRANCH   3   4
BRANCH   3   6
ATOM      6  C   UNL     1      26.075 -11.850 -25.484  1.00  0.00    -0.014 C 
ATOM      7  C   UNL     1      26.336 -12.581 -24.155  1.00  0.00     0.007 C 
ATOM      8  C   UNL     1      26.524 -10.378 -25.367  1.00  0.00     0.007 C 
ENDBRANCH   3   6
ENDBRANCH   2   3
ENDBRANCH   1   2
BRANCH   1   9
ATOM      9  C   UNL     1      23.841 -15.246 -26.789  1.00  0.00    -0.011 C 
ATOM     10  C   UNL     1      24.605 -16.457 -26.259  1.00  0.00     0.008 C 
BRANCH   9  11
ATOM     11  C   UNL     1      22.810 -14.646 -25.785  1.00  0.00    -0.002 C 
ATOM     12  C   UNL     1      23.106 -13.226 -25.347  1.00  0.00     0.005 C 
ATOM     13  C   UNL     1      21.243 -14.605 -26.030  1.00  0.00    -0.026 C 
ATOM     14  C   UNL     1      21.923 -12.839 -24.438  1.00  0.00     0.005 C 
ATOM     15  C   UNL     1      20.871 -13.942 -24.666  1.00  0.00    -0.001 C 
ATOM     16  C   UNL     1      20.719 -13.726 -27.245  1.00  0.00     0.007 C 
ATOM     17  C   UNL     1      20.668 -16.047 -26.185  1.00  0.00     0.012 C 
ATOM     18  C   UNL     1      19.418 -13.489 -24.511  1.00  0.00     0.000 C 
ATOM     19  C   UNL     1      19.852 -12.494 -26.894  1.00  0.00     0.005 C 
ATOM     20  C   UNL     1      18.860 -12.664 -25.705  1.00  0.00     0.003 C 
ATOM     21  C   UNL     1      18.497 -14.676 -24.128  1.00  0.00     0.031 C 
ATOM     22  C   UNL     1      17.336 -12.907 -26.080  1.00  0.00    -0.008 C 
ATOM     23  C   UNL     1      17.121 -14.181 -23.920  1.00  0.00    -0.027 C 
ATOM     24  C   UNL     1      16.537 -13.423 -24.879  1.00  0.00    -0.065 C 
ATOM     25  C   UNL     1      17.058 -13.949 -27.228  1.00  0.00     0.014 C 
ATOM     26  C   UNL     1      16.770 -11.528 -26.518  1.00  0.00     0.016 C 
ATOM     27  C   UNL     1      15.062 -13.389 -24.994  1.00  0.00     0.063 C 
ATOM     28  C   UNL     1      15.544 -14.149 -27.502  1.00  0.00     0.033 C 
ATOM     29  C   UNL     1      14.636 -14.231 -26.218  1.00  0.00     0.118 C 
BRANCH  29  30
ATOM     30  O   UNL     1      13.280 -13.956 -26.498  1.00  0.00    -0.393 OA
ATOM     31  H   UNL     1      13.184 -12.965 -26.484  1.00  0.00     0.210 HD
ENDBRANCH  29  30
ENDBRANCH   9  11
ENDBRANCH   1   9
TORSDOF 7
ENDMDL
MODEL 4
REMARK VINA RESULT:    -5.619      2.903      7.816
REMARK INTER + INTRA:          -9.630
REMARK INTER:                  -8.178
REMARK INTRA:                  -1.452
REMARK UNBOUND:                -1.875
REMARK SMILES CC[C@H](CC[C@@H](C)[C@H]1CC[C@H]2[C@@H]3CC=C4C[C@@H](O)CC[C@]4(C)[C@@H]3CC[C@@]12C)C(C)C
REMARK SMILES IDX 5 1 4 2 3 3 2 4 1 5 28 6 29 7 30 8 6 9 7 10 8 11 9 12 26 13
REMARK SMILES IDX 10 14 11 15 25 16 27 17 12 18 24 19 23 20 13 21 21 22 14 23
REMARK SMILES IDX 15 24 20 25 22 26 16 27 19 28 17 29 18 30
REMARK H PARENT 18 31
REMARK Flexibility Score: inf
ROOT
ATOM      1  C   UNL     1      21.269   0.010 -18.055  1.00  0.00     0.004 C 
ENDROOT
BRANCH   1   2
ATOM      2  C   UNL     1      20.069  -0.685 -17.393  1.00  0.00     0.004 C 
BRANCH   2   3
ATOM      3  C   UNL     1      19.968  -0.657 -15.838  1.00  0.00    -0.009 C 
BRANCH   3   4
ATOM      4  C   UNL     1      21.396  -0.503 -15.221  1.00  0.00     0.000 C 
ATOM      5  C   UNL     1      22.021  -1.845 -14.765  1.00  0.00     0.004 C 
ENDBRANCH   3   4
BRANCH   3   6
ATOM      6  C   UNL     1      18.989   0.464 -15.330  1.00  0.00    -0.014 C 
ATOM      7  C   UNL     1      19.728   1.552 -14.532  1.00  0.00     0.007 C 
ATOM      8  C   UNL     1      18.198   1.109 -16.486  1.00  0.00     0.007 C 
ENDBRANCH   3   6
ENDBRANCH   2   3
ENDBRANCH   1   2
BRANCH   1   9
ATOM      9  C   UNL     1      21.356   1.557 -18.157  1.00  0.00    -0.011 C 
ATOM     10  C   UNL     1      22.614   2.025 -17.427  1.00  0.00     0.008 C 
BRANCH   9  11
ATOM     11  C   UNL     1      21.150   2.203 -19.561  1.00  0.00    -0.002 C 
ATOM     12  C   UNL     1      22.425   2.418 -20.351  1.00  0.00     0.005 C 
ATOM     13  C   UNL     1      20.158   1.642 -20.665  1.00  0.00    -0.026 C 
ATOM     14  C   UNL     1      21.958   2.980 -21.707  1.00  0.00     0.005 C 
ATOM     15  C   UNL     1      20.434   2.755 -21.726  1.00  0.00    -0.001 C 
ATOM     16  C   UNL     1      20.471   0.204 -21.262  1.00  0.00     0.007 C 
ATOM     17  C   UNL     1      18.688   1.647 -20.143  1.00  0.00     0.012 C 
ATOM     18  C   UNL     1      19.833   2.525 -23.114  1.00  0.00     0.000 C 
ATOM     19  C   UNL     1      20.844   0.136 -22.762  1.00  0.00     0.005 C 
ATOM     20  C   UNL     1      20.082   1.111 -23.709  1.00  0.00     0.003 C 
ATOM     21  C   UNL     1      18.336   2.930 -23.152  1.00  0.00     0.031 C 
ATOM     22  C   UNL     1      18.901   0.488 -24.568  1.00  0.00    -0.008 C 
ATOM     23  C   UNL     1      17.818   2.759 -24.524  1.00  0.00    -0.027 C 
ATOM     24  C   UNL     1      18.002   1.577 -25.161  1.00  0.00    -0.065 C 
ATOM     25  C   UNL     1      17.917  -0.477 -23.805  1.00  0.00     0.014 C 
ATOM     26  C   UNL     1      19.574  -0.305 -25.722  1.00  0.00     0.016 C 
ATOM     27  C   UNL     1      17.065   1.163 -26.229  1.00  0.00     0.063 C 
ATOM     28  C   UNL     1      16.776  -1.009 -24.713  1.00  0.00     0.033 C 
ATOM     29  C   UNL     1      16.137   0.057 -25.679  1.00  0.00     0.118 C 
BRANCH  29  30
ATOM     30  O   UNL     1      15.458  -0.537 -26.765  1.00  0.00    -0.393 OA
ATOM     31  H   UNL     1      14.873   0.169 -27.153  1.00  0.00     0.210 HD
ENDBRANCH  29  30
ENDBRANCH   9  11
ENDBRANCH   1   9
TORSDOF 7
ENDMDL
MODEL 5
REMARK VINA RESULT:    -5.598      3.289      7.854
REMARK INTER + INTRA:          -9.601
REMARK INTER:                  -7.952
REMARK INTRA:                  -1.648
REMARK UNBOUND:                -1.875
REMARK SMILES CC[C@H](CC[C@@H](C)[C@H]1CC[C@H]2[C@@H]3CC=C4C[C@@H](O)CC[C@]4(C)[C@@H]3CC[C@@]12C)C(C)C
REMARK SMILES IDX 5 1 4 2 3 3 2 4 1 5 28 6 29 7 30 8 6 9 7 10 8 11 9 12 26 13
REMARK SMILES IDX 10 14 11 15 25 16 27 17 12 18 24 19 23 20 13 21 21 22 14 23
REMARK SMILES IDX 15 24 20 25 22 26 16 27 19 28 17 29 18 30
REMARK H PARENT 18 31
REMARK Flexibility Score: inf
ROOT
ATOM      1  C   UNL     1      20.459   3.011 -17.239  1.00  0.00     0.004 C 
ENDROOT
BRANCH   1   2
ATOM      2  C   UNL     1      20.909   2.425 -15.892  1.00  0.00     0.004 C 
BRANCH   2   3
ATOM      3  C   UNL     1      20.688   0.904 -15.640  1.00  0.00    -0.009 C 
BRANCH   3   4
ATOM      4  C   UNL     1      19.232   0.508 -16.051  1.00  0.00     0.000 C 
ATOM      5  C   UNL     1      18.138   1.237 -15.230  1.00  0.00     0.004 C 
ENDBRANCH   3   4
BRANCH   3   6
ATOM      6  C   UNL     1      21.761   0.020 -16.376  1.00  0.00    -0.014 C 
ATOM      7  C   UNL     1      22.803  -0.549 -15.398  1.00  0.00     0.007 C 
ATOM      8  C   UNL     1      21.113  -1.129 -17.177  1.00  0.00     0.007 C 
ENDBRANCH   3   6
ENDBRANCH   2   3
ENDBRANCH   1   2
BRANCH   1   9
ATOM      9  C   UNL     1      21.383   2.981 -18.487  1.00  0.00    -0.011 C 
ATOM     10  C   UNL     1      22.832   3.121 -18.025  1.00  0.00     0.008 C 
BRANCH   9  11
ATOM     11  C   UNL     1      21.148   1.850 -19.533  1.00  0.00    -0.002 C 
ATOM     12  C   UNL     1      19.763   1.235 -19.500  1.00  0.00     0.005 C 
ATOM     13  C   UNL     1      21.413   2.003 -21.090  1.00  0.00    -0.026 C 
ATOM     14  C   UNL     1      19.754   0.220 -20.658  1.00  0.00     0.005 C 
ATOM     15  C   UNL     1      21.019   0.542 -21.477  1.00  0.00    -0.001 C 
ATOM     16  C   UNL     1      20.522   3.054 -21.880  1.00  0.00     0.007 C 
ATOM     17  C   UNL     1      22.914   2.325 -21.368  1.00  0.00     0.012 C 
ATOM     18  C   UNL     1      20.910   0.248 -22.975  1.00  0.00     0.000 C 
ATOM     19  C   UNL     1      19.557   2.490 -22.950  1.00  0.00     0.005 C 
ATOM     20  C   UNL     1      20.083   1.284 -23.786  1.00  0.00     0.003 C 
ATOM     21  C   UNL     1      22.306  -0.016 -23.599  1.00  0.00     0.031 C 
ATOM     22  C   UNL     1      20.598   1.607 -25.253  1.00  0.00    -0.008 C 
ATOM     23  C   UNL     1      22.146  -0.364 -25.025  1.00  0.00    -0.027 C 
ATOM     24  C   UNL     1      21.417   0.448 -25.828  1.00  0.00    -0.065 C 
ATOM     25  C   UNL     1      21.523   2.872 -25.404  1.00  0.00     0.014 C 
ATOM     26  C   UNL     1      19.328   1.818 -26.123  1.00  0.00     0.016 C 
ATOM     27  C   UNL     1      21.686   0.478 -27.283  1.00  0.00     0.063 C 
ATOM     28  C   UNL     1      22.007   3.089 -26.862  1.00  0.00     0.033 C 
ATOM     29  C   UNL     1      22.440   1.782 -27.626  1.00  0.00     0.118 C 
BRANCH  29  30
ATOM     30  O   UNL     1      22.430   1.949 -29.028  1.00  0.00    -0.393 OA
ATOM     31  H   UNL     1      22.254   2.914 -29.196  1.00  0.00     0.210 HD
ENDBRANCH  29  30
ENDBRANCH   9  11
ENDBRANCH   1   9
TORSDOF 7
ENDMDL
MODEL 6
REMARK VINA RESULT:    -5.565      1.418      3.046
REMARK INTER + INTRA:          -9.554
REMARK INTER:                  -8.177
REMARK INTRA:                  -1.378
REMARK UNBOUND:                -1.875
REMARK SMILES CC[C@H](CC[C@@H](C)[C@H]1CC[C@H]2[C@@H]3CC=C4C[C@@H](O)CC[C@]4(C)[C@@H]3CC[C@@]12C)C(C)C
REMARK SMILES IDX 5 1 4 2 3 3 2 4 1 5 28 6 29 7 30 8 6 9 7 10 8 11 9 12 26 13
REMARK SMILES IDX 10 14 11 15 25 16 27 17 12 18 24 19 23 20 13 21 21 22 14 23
REMARK SMILES IDX 15 24 20 25 22 26 16 27 19 28 17 29 18 30
REMARK H PARENT 18 31
REMARK Flexibility Score: inf
ROOT
ATOM      1  C   UNL     1      18.043   1.288 -26.250  1.00  0.00     0.004 C 
ENDROOT
BRANCH   1   2
ATOM      2  C   UNL     1      17.641  -0.181 -26.456  1.00  0.00     0.004 C 
BRANCH   2   3
ATOM      3  C   UNL     1      18.768  -1.221 -26.734  1.00  0.00    -0.009 C 
BRANCH   3   4
ATOM      4  C   UNL     1      19.899  -0.556 -27.585  1.00  0.00     0.000 C 
ATOM      5  C   UNL     1      19.917  -1.025 -29.062  1.00  0.00     0.004 C 
ENDBRANCH   3   4
BRANCH   3   6
ATOM      6  C   UNL     1      19.332  -1.850 -25.407  1.00  0.00    -0.014 C 
ATOM      7  C   UNL     1      18.220  -2.099 -24.372  1.00  0.00     0.007 C 
ATOM      8  C   UNL     1      20.103  -3.161 -25.670  1.00  0.00     0.007 C 
ENDBRANCH   3   6
ENDBRANCH   2   3
ENDBRANCH   1   2
BRANCH   1   9
ATOM      9  C   UNL     1      18.255   1.879 -24.830  1.00  0.00    -0.011 C 
ATOM     10  C   UNL     1      16.888   2.125 -24.193  1.00  0.00     0.008 C 
BRANCH   9  11
ATOM     11  C   UNL     1      19.280   1.167 -23.896  1.00  0.00    -0.002 C 
ATOM     12  C   UNL     1      20.724   1.279 -24.341  1.00  0.00     0.005 C 
ATOM     13  C   UNL     1      19.388   1.415 -22.332  1.00  0.00    -0.026 C 
ATOM     14  C   UNL     1      21.534   0.578 -23.233  1.00  0.00     0.005 C 
ATOM     15  C   UNL     1      20.537   0.389 -22.073  1.00  0.00    -0.001 C 
ATOM     16  C   UNL     1      19.812   2.869 -21.853  1.00  0.00     0.007 C 
ATOM     17  C   UNL     1      18.055   1.032 -21.618  1.00  0.00     0.012 C 
ATOM     18  C   UNL     1      21.160   0.415 -20.676  1.00  0.00     0.000 C 
ATOM     19  C   UNL     1      21.168   2.995 -21.120  1.00  0.00     0.005 C 
ATOM     20  C   UNL     1      21.545   1.829 -20.158  1.00  0.00     0.003 C 
ATOM     21  C   UNL     1      20.294  -0.374 -19.660  1.00  0.00     0.031 C 
ATOM     22  C   UNL     1      21.338   2.093 -18.606  1.00  0.00    -0.008 C 
ATOM     23  C   UNL     1      20.968  -0.383 -18.346  1.00  0.00    -0.027 C 
ATOM     24  C   UNL     1      21.380   0.789 -17.804  1.00  0.00    -0.065 C 
ATOM     25  C   UNL     1      19.983   2.781 -18.191  1.00  0.00     0.014 C 
ATOM     26  C   UNL     1      22.512   3.007 -18.160  1.00  0.00     0.016 C 
ATOM     27  C   UNL     1      21.518   0.912 -16.335  1.00  0.00     0.063 C 
ATOM     28  C   UNL     1      19.852   2.966 -16.656  1.00  0.00     0.033 C 
ATOM     29  C   UNL     1      20.337   1.744 -15.789  1.00  0.00     0.118 C 
BRANCH  29  30
ATOM     30  O   UNL     1      20.626   2.109 -14.457  1.00  0.00    -0.393 OA
ATOM     31  H   UNL     1      21.040   3.014 -14.495  1.00  0.00     0.210 HD
ENDBRANCH  29  30
ENDBRANCH   9  11
ENDBRANCH   1   9
TORSDOF 7
ENDMDL
MODEL 7
REMARK VINA RESULT:    -5.295      1.497      3.757
REMARK INTER + INTRA:          -9.182
REMARK INTER:                  -7.720
REMARK INTRA:                  -1.462
REMARK UNBOUND:                -1.875
REMARK SMILES CC[C@H](CC[C@@H](C)[C@H]1CC[C@H]2[C@@H]3CC=C4C[C@@H](O)CC[C@]4(C)[C@@H]3CC[C@@]12C)C(C)C
REMARK SMILES IDX 5 1 4 2 3 3 2 4 1 5 28 6 29 7 30 8 6 9 7 10 8 11 9 12 26 13
REMARK SMILES IDX 10 14 11 15 25 16 27 17 12 18 24 19 23 20 13 21 21 22 14 23
REMARK SMILES IDX 15 24 20 25 22 26 16 27 19 28 17 29 18 30
REMARK H PARENT 18 31
REMARK Flexibility Score: inf
ROOT
ATOM      1  C   UNL     1      20.988   0.375 -27.518  1.00  0.00     0.004 C 
ENDROOT
BRANCH   1   2
ATOM      2  C   UNL     1      22.103   1.433 -27.520  1.00  0.00     0.004 C 
BRANCH   2   3
ATOM      3  C   UNL     1      23.572   0.955 -27.322  1.00  0.00    -0.009 C 
BRANCH   3   4
ATOM      4  C   UNL     1      24.330   1.001 -28.689  1.00  0.00     0.000 C 
ATOM      5  C   UNL     1      25.743   1.628 -28.592  1.00  0.00     0.004 C 
ENDBRANCH   3   4
BRANCH   3   6
ATOM      6  C   UNL     1      24.320   1.785 -26.214  1.00  0.00    -0.014 C 
ATOM      7  C   UNL     1      23.408   2.854 -25.586  1.00  0.00     0.007 C 
ATOM      8  C   UNL     1      24.902   0.880 -25.108  1.00  0.00     0.007 C 
ENDBRANCH   3   6
ENDBRANCH   2   3
ENDBRANCH   1   2
BRANCH   1   9
ATOM      9  C   UNL     1      19.908   0.337 -26.402  1.00  0.00    -0.011 C 
ATOM     10  C   UNL     1      19.677  -1.117 -25.995  1.00  0.00     0.008 C 
BRANCH   9  11
ATOM     11  C   UNL     1      20.072   1.322 -25.204  1.00  0.00    -0.002 C 
ATOM     12  C   UNL     1      18.921   2.290 -25.021  1.00  0.00     0.005 C 
ATOM     13  C   UNL     1      20.377   0.872 -23.713  1.00  0.00    -0.026 C 
ATOM     14  C   UNL     1      19.275   3.086 -23.750  1.00  0.00     0.005 C 
ATOM     15  C   UNL     1      20.443   2.311 -23.109  1.00  0.00    -0.001 C 
ATOM     16  C   UNL     1      19.273   0.002 -22.975  1.00  0.00     0.007 C 
ATOM     17  C   UNL     1      21.737   0.112 -23.631  1.00  0.00     0.012 C 
ATOM     18  C   UNL     1      20.515   2.398 -21.584  1.00  0.00     0.000 C 
ATOM     19  C   UNL     1      18.579   0.644 -21.751  1.00  0.00     0.005 C 
ATOM     20  C   UNL     1      19.477   1.522 -20.829  1.00  0.00     0.003 C 
ATOM     21  C   UNL     1      21.963   2.173 -21.076  1.00  0.00     0.031 C 
ATOM     22  C   UNL     1      19.968   0.856 -19.473  1.00  0.00    -0.008 C 
ATOM     23  C   UNL     1      21.998   2.336 -19.609  1.00  0.00    -0.027 C 
ATOM     24  C   UNL     1      21.118   1.646 -18.844  1.00  0.00    -0.065 C 
ATOM     25  C   UNL     1      20.500  -0.623 -19.575  1.00  0.00     0.014 C 
ATOM     26  C   UNL     1      18.747   0.875 -18.512  1.00  0.00     0.016 C 
ATOM     27  C   UNL     1      21.457   1.328 -17.438  1.00  0.00     0.063 C 
ATOM     28  C   UNL     1      20.990  -1.178 -18.212  1.00  0.00     0.033 C 
ATOM     29  C   UNL     1      21.826  -0.169 -17.338  1.00  0.00     0.118 C 
BRANCH  29  30
ATOM     30  O   UNL     1      21.855  -0.532 -15.975  1.00  0.00    -0.393 OA
ATOM     31  H   UNL     1      21.365  -1.396 -15.902  1.00  0.00     0.210 HD
ENDBRANCH  29  30
ENDBRANCH   9  11
ENDBRANCH   1   9
TORSDOF 7
ENDMDL
MODEL 8
REMARK VINA RESULT:    -5.291      3.062      7.938
REMARK INTER + INTRA:          -9.176
REMARK INTER:                  -7.687
REMARK INTRA:                  -1.489
REMARK UNBOUND:                -1.875
REMARK SMILES CC[C@H](CC[C@@H](C)[C@H]1CC[C@H]2[C@@H]3CC=C4C[C@@H](O)CC[C@]4(C)[C@@H]3CC[C@@]12C)C(C)C
REMARK SMILES IDX 5 1 4 2 3 3 2 4 1 5 28 6 29 7 30 8 6 9 7 10 8 11 9 12 26 13
REMARK SMILES IDX 10 14 11 15 25 16 27 17 12 18 24 19 23 20 13 21 21 22 14 23
REMARK SMILES IDX 15 24 20 25 22 26 16 27 19 28 17 29 18 30
REMARK H PARENT 18 31
REMARK Flexibility Score: inf
ROOT
ATOM      1  C   UNL     1      20.181   2.496 -17.234  1.00  0.00     0.004 C 
ENDROOT
BRANCH   1   2
ATOM      2  C   UNL     1      20.913   1.997 -15.978  1.00  0.00     0.004 C 
BRANCH   2   3
ATOM      3  C   UNL     1      20.355   0.737 -15.252  1.00  0.00    -0.009 C 
BRANCH   3   4
ATOM      4  C   UNL     1      18.914   0.424 -15.773  1.00  0.00     0.000 C 
ATOM      5  C   UNL     1      17.831   1.370 -15.197  1.00  0.00     0.004 C 
ENDBRANCH   3   4
BRANCH   3   6
ATOM      6  C   UNL     1      21.311  -0.503 -15.403  1.00  0.00    -0.014 C 
ATOM      7  C   UNL     1      20.560  -1.748 -15.909  1.00  0.00     0.007 C 
ATOM      8  C   UNL     1      22.508  -0.202 -16.329  1.00  0.00     0.007 C 
ENDBRANCH   3   6
ENDBRANCH   2   3
ENDBRANCH   1   2
BRANCH   1   9
ATOM      9  C   UNL     1      20.889   2.560 -18.615  1.00  0.00    -0.011 C 
ATOM     10  C   UNL     1      22.329   3.022 -18.404  1.00  0.00     0.008 C 
BRANCH   9  11
ATOM     11  C   UNL     1      20.739   1.330 -19.561  1.00  0.00    -0.002 C 
ATOM     12  C   UNL     1      19.929   0.186 -18.987  1.00  0.00     0.005 C 
ATOM     13  C   UNL     1      20.204   1.410 -21.052  1.00  0.00    -0.026 C 
ATOM     14  C   UNL     1      19.859  -0.855 -20.121  1.00  0.00     0.005 C 
ATOM     15  C   UNL     1      20.360  -0.111 -21.373  1.00  0.00    -0.001 C 
ATOM     16  C   UNL     1      18.701   1.878 -21.262  1.00  0.00     0.007 C 
ATOM     17  C   UNL     1      21.127   2.316 -21.925  1.00  0.00     0.012 C 
ATOM     18  C   UNL     1      19.750  -0.587 -22.693  1.00  0.00     0.000 C 
ATOM     19  C   UNL     1      17.720   0.838 -21.853  1.00  0.00     0.005 C 
ATOM     20  C   UNL     1      18.295  -0.107 -22.951  1.00  0.00     0.003 C 
ATOM     21  C   UNL     1      20.694  -0.289 -23.888  1.00  0.00     0.031 C 
ATOM     22  C   UNL     1      17.922   0.242 -24.455  1.00  0.00    -0.008 C 
ATOM     23  C   UNL     1      20.098  -0.827 -25.127  1.00  0.00    -0.027 C 
ATOM     24  C   UNL     1      18.821  -0.504 -25.444  1.00  0.00    -0.065 C 
ATOM     25  C   UNL     1      18.037   1.758 -24.867  1.00  0.00     0.014 C 
ATOM     26  C   UNL     1      16.450  -0.213 -24.656  1.00  0.00     0.016 C 
ATOM     27  C   UNL     1      18.388  -0.522 -26.860  1.00  0.00     0.063 C 
ATOM     28  C   UNL     1      17.690   2.000 -26.360  1.00  0.00     0.033 C 
ATOM     29  C   UNL     1      18.266   0.933 -27.364  1.00  0.00     0.118 C 
BRANCH  29  30
ATOM     30  O   UNL     1      17.576   0.922 -28.595  1.00  0.00    -0.393 OA
ATOM     31  H   UNL     1      16.869   1.621 -28.529  1.00  0.00     0.210 HD
ENDBRANCH  29  30
ENDBRANCH   9  11
ENDBRANCH   1   9
TORSDOF 7
ENDMDL
MODEL 9
REMARK VINA RESULT:    -5.228     13.088     15.710
REMARK INTER + INTRA:          -9.089
REMARK INTER:                  -7.812
REMARK INTRA:                  -1.277
REMARK UNBOUND:                -1.875
REMARK SMILES CC[C@H](CC[C@@H](C)[C@H]1CC[C@H]2[C@@H]3CC=C4C[C@@H](O)CC[C@]4(C)[C@@H]3CC[C@@]12C)C(C)C
REMARK SMILES IDX 5 1 4 2 3 3 2 4 1 5 28 6 29 7 30 8 6 9 7 10 8 11 9 12 26 13
REMARK SMILES IDX 10 14 11 15 25 16 27 17 12 18 24 19 23 20 13 21 21 22 14 23
REMARK SMILES IDX 15 24 20 25 22 26 16 27 19 28 17 29 18 30
REMARK H PARENT 18 31
REMARK Flexibility Score: inf
ROOT
ATOM      1  C   UNL     1      25.233 -14.117 -25.648  1.00  0.00     0.004 C 
ENDROOT
BRANCH   1   2
ATOM      2  C   UNL     1      26.661 -13.715 -26.046  1.00  0.00     0.004 C 
BRANCH   2   3
ATOM      3  C   UNL     1      26.862 -12.381 -26.825  1.00  0.00    -0.009 C 
BRANCH   3   4
ATOM      4  C   UNL     1      26.733 -12.645 -28.361  1.00  0.00     0.000 C 
ATOM      5  C   UNL     1      28.074 -12.512 -29.125  1.00  0.00     0.004 C 
ENDBRANCH   3   4
BRANCH   3   6
ATOM      6  C   UNL     1      25.870 -11.260 -26.342  1.00  0.00    -0.014 C 
ATOM      7  C   UNL     1      26.493 -10.376 -25.247  1.00  0.00     0.007 C 
ATOM      8  C   UNL     1      25.381 -10.378 -27.510  1.00  0.00     0.007 C 
ENDBRANCH   3   6
ENDBRANCH   2   3
ENDBRANCH   1   2
BRANCH   1   9
ATOM      9  C   UNL     1      24.173 -14.509 -26.714  1.00  0.00    -0.011 C 
ATOM     10  C   UNL     1      23.807 -15.979 -26.522  1.00  0.00     0.008 C 
BRANCH   9  11
ATOM     11  C   UNL     1      22.949 -13.561 -26.899  1.00  0.00    -0.002 C 
ATOM     12  C   UNL     1      22.615 -13.234 -28.340  1.00  0.00     0.005 C 
ATOM     13  C   UNL     1      21.516 -13.818 -26.268  1.00  0.00    -0.026 C 
ATOM     14  C   UNL     1      21.345 -12.365 -28.262  1.00  0.00     0.005 C 
ATOM     15  C   UNL     1      20.852 -12.511 -26.810  1.00  0.00    -0.001 C 
ATOM     16  C   UNL     1      20.722 -15.100 -26.764  1.00  0.00     0.007 C 
ATOM     17  C   UNL     1      21.596 -13.862 -24.710  1.00  0.00     0.012 C 
ATOM     18  C   UNL     1      19.337 -12.401 -26.628  1.00  0.00     0.000 C 
ATOM     19  C   UNL     1      19.410 -14.852 -27.545  1.00  0.00     0.005 C 
ATOM     20  C   UNL     1      18.533 -13.658 -27.061  1.00  0.00     0.003 C 
ATOM     21  C   UNL     1      18.976 -11.931 -25.194  1.00  0.00     0.031 C 
ATOM     22  C   UNL     1      17.262 -14.022 -26.182  1.00  0.00    -0.008 C 
ATOM     23  C   UNL     1      17.512 -11.770 -25.087  1.00  0.00    -0.027 C 
ATOM     24  C   UNL     1      16.704 -12.789 -25.465  1.00  0.00    -0.065 C 
ATOM     25  C   UNL     1      17.484 -15.087 -25.042  1.00  0.00     0.014 C 
ATOM     26  C   UNL     1      16.193 -14.570 -27.167  1.00  0.00     0.016 C 
ATOM     27  C   UNL     1      15.352 -12.914 -24.875  1.00  0.00     0.063 C 
ATOM     28  C   UNL     1      16.200 -15.352 -24.213  1.00  0.00     0.033 C 
ATOM     29  C   UNL     1      15.359 -14.071 -23.850  1.00  0.00     0.118 C 
BRANCH  29  30
ATOM     30  O   UNL     1      14.023 -14.379 -23.517  1.00  0.00    -0.393 OA
ATOM     31  H   UNL     1      13.956 -14.310 -22.525  1.00  0.00     0.210 HD
ENDBRANCH  29  30
ENDBRANCH   9  11
ENDBRANCH   1   9
TORSDOF 7
ENDMDL
