MODEL 1
REMARK VINA RESULT:    38.289      0.000      0.000
REMARK INTER + INTRA:          82.901
REMARK INTER:                  80.818
REMARK INTRA:                   2.084
REMARK UNBOUND:                 2.084
REMARK SMILES CCC(=O)CCCCC[C@@H]1NC(=O)[C@H]2CCCCN2C(=O)[C@@H]([C@@H](C)CC)NC(=O)[C@@H](Cc2cn(OC)c3ccccc23)NC1=O
REMARK SMILES IDX 9 1 10 2 44 3 43 4 45 6 30 7 28 8 27 9 29 11 22 12 23 14
REMARK SMILES IDX 24 15 25 16 26 17 31 18 32 19 33 20 42 21 34 22 37 23 41 24
REMARK SMILES IDX 38 25 40 26 39 27 35 28 36 29 11 30 12 31 13 33 14 34 19 35
REMARK SMILES IDX 15 36 18 37 16 38 17 39 20 40 21 41 8 43 7 44 6 45 5 46 3 47
REMARK SMILES IDX 4 48 2 49 1 50
REMARK H PARENT 43 5 27 10 11 32
REMARK Flexibility Score: 80.00
ROOT
ATOM      1  C   UNL     1       0.516 -35.933  43.773  1.00  0.00     0.035 C 
ENDROOT
BRANCH   1   2
ATOM      2  C   UNL     1      -0.676 -35.046  44.178  1.00  0.00     0.171 C 
BRANCH   2   3
ATOM      3  C   UNL     1      -1.994 -35.552  43.648  1.00  0.00     0.243 C 
ATOM      4  N   UNL     1      -3.185 -34.791  43.897  1.00  0.00    -0.342 N 
ATOM      5  H   UNL     1      -3.078 -33.861  44.365  1.00  0.00     0.164 HD
ATOM      6  O   UNL     1      -2.067 -36.671  43.076  1.00  0.00    -0.273 OA
BRANCH   4   7
ATOM      7  C   UNL     1      -4.520 -35.389  43.821  1.00  0.00     0.175 C 
BRANCH   7   8
ATOM      8  C   UNL     1      -5.067 -35.573  45.212  1.00  0.00     0.243 C 
ATOM      9  N   UNL     1      -4.776 -34.613  46.242  1.00  0.00    -0.342 N 
ATOM     10  H   UNL     1      -4.214 -33.770  45.991  1.00  0.00     0.164 HD
ATOM     11  O   UNL     1      -5.799 -36.571  45.458  1.00  0.00    -0.273 OA
BRANCH   9  12
ATOM     12  C   UNL     1      -5.280 -34.730  47.616  1.00  0.00     0.174 CG0
ATOM     13  G   UNL     1      -4.132 -35.019  48.570  1.00  0.00     0.000 G0
BRANCH  12  14
ATOM     14  C   UNL     1      -6.133 -33.478  47.984  1.00  0.00     0.018 C 
ATOM     15  C   UNL     1      -5.211 -32.251  48.144  1.00  0.00     0.010 C 
BRANCH  14  16
ATOM     16  C   UNL     1      -7.242 -33.203  46.933  1.00  0.00     0.002 C 
ATOM     17  C   UNL     1      -8.223 -34.364  46.759  1.00  0.00     0.004 C 
ENDBRANCH  14  16
ENDBRANCH  12  14
ENDBRANCH   9  12
ENDBRANCH   7   8
BRANCH   7  18
ATOM     18  C   UNL     1      -5.468 -34.511  42.983  1.00  0.00     0.073 C 
BRANCH  18  19
ATOM     19  C   UNL     1      -4.983 -34.413  41.564  1.00  0.00    -0.016 A 
ATOM     20  C   UNL     1      -3.669 -34.564  41.135  1.00  0.00     0.134 A 
ATOM     21  C   UNL     1      -5.698 -33.997  40.453  1.00  0.00     0.006 A 
ATOM     22  N   UNL     1      -3.579 -34.269  39.815  1.00  0.00    -0.191 N 
ATOM     23  C   UNL     1      -4.810 -33.924  39.408  1.00  0.00     0.087 A 
ATOM     24  C   UNL     1      -7.042 -33.655  40.292  1.00  0.00     0.011 A 
ATOM     25  C   UNL     1      -5.202 -33.501  38.137  1.00  0.00     0.030 A 
ATOM     26  C   UNL     1      -7.467 -33.232  39.020  1.00  0.00     0.001 A 
ATOM     27  C   UNL     1      -6.553 -33.159  37.945  1.00  0.00     0.002 A 
BRANCH  22  28
ATOM     28  O   UNL     1      -2.442 -34.271  39.026  1.00  0.00    -0.417 OA
ATOM     29  C   UNL     1      -2.124 -33.196  38.150  1.00  0.00     0.313 C 
ENDBRANCH  22  28
ENDBRANCH  18  19
ENDBRANCH   7  18
ENDBRANCH   4   7
ENDBRANCH   2   3
BRANCH   2  30
ATOM     30  N   UNL     1      -0.761 -34.884  45.635  1.00  0.00    -0.343 N 
ATOM     31  C   UNL     1      -1.435 -35.809  46.508  1.00  0.00     0.243 C 
ATOM     32  H   UNL     1      -0.383 -33.994  46.026  1.00  0.00     0.164 HD
ATOM     33  O   UNL     1      -1.896 -36.885  46.043  1.00  0.00    -0.273 OA
BRANCH  31  34
ATOM     34  C   UNL     1      -1.672 -35.503  47.969  1.00  0.00     0.174 C 
ATOM     35  N   UNL     1      -2.838 -34.613  48.138  1.00  0.00    -0.329 N 
ATOM     36  C   UNL     1      -0.413 -34.992  48.717  1.00  0.00     0.035 C 
ATOM     37  C   UNL     1      -2.661 -33.156  48.131  1.00  0.00     0.120 C 
ATOM     38  C   UNL     1      -0.238 -33.468  48.732  1.00  0.00     0.004 C 
ATOM     39  C   UNL     1      -1.541 -32.753  49.084  1.00  0.00     0.022 C 
BRANCH  35  40
ATOM     40  C   UNL     1      -4.144 -35.204  48.313  1.00  0.00     0.246 CG0
ATOM     41  O   UNL     1      -4.251 -36.241  49.021  1.00  0.00    -0.272 OA
ATOM     42  G   UNL     1      -5.395 -34.668  47.635  1.00  0.00     0.000 G0
ENDBRANCH  35  40
ENDBRANCH  31  34
ENDBRANCH   2  30
ENDBRANCH   1   2
BRANCH   1  43
ATOM     43  C   UNL     1       1.002 -36.811  44.940  1.00  0.00     0.003 C 
BRANCH  43  44
ATOM     44  C   UNL     1       2.369 -36.369  45.493  1.00  0.00     0.001 C 
BRANCH  44  45
ATOM     45  C   UNL     1       2.717 -34.887  45.258  1.00  0.00     0.008 C 
BRANCH  45  46
ATOM     46  C   UNL     1       2.270 -33.942  46.383  1.00  0.00     0.075 C 
BRANCH  46  47
ATOM     47  C   UNL     1       3.116 -34.084  47.624  1.00  0.00     0.132 C 
ATOM     48  O   UNL     1       2.908 -35.011  48.387  1.00  0.00    -0.300 OA
BRANCH  47  49
ATOM     49  C   UNL     1       4.146 -33.041  47.993  1.00  0.00     0.072 C 
ATOM     50  C   UNL     1       5.048 -33.519  49.125  1.00  0.00     0.012 C 
ENDBRANCH  47  49
ENDBRANCH  46  47
ENDBRANCH  45  46
ENDBRANCH  44  45
ENDBRANCH  43  44
ENDBRANCH   1  43
TORSDOF 12
ENDMDL
