MODEL 1
REMARK VINA RESULT:    -7.300      0.000      0.000
REMARK INTER + INTRA:         -12.191
REMARK INTER:                 -10.074
REMARK INTRA:                  -2.117
REMARK UNBOUND:                -2.117
REMARK SMILES CC[C@@H](CC[C@H](C)[C@H]1CC[C@@H]2[C@H]3CC=C4C[C@H](O)CC[C@@]4(C)[C@H]3CC[C@]21C)C(C)C
REMARK SMILES IDX 5 1 4 2 3 3 2 4 1 5 28 6 29 7 30 8 6 9 7 10 8 11 9 12 26 13
REMARK SMILES IDX 10 14 11 15 25 16 27 17 12 18 24 19 23 20 13 21 21 22 14 23
REMARK SMILES IDX 15 24 20 25 22 26 16 27 19 28 17 29 18 30
REMARK H PARENT 18 31
REMARK Flexibility Score: inf
ROOT
ATOM      1  C   UNL     1     117.396 119.935 129.592  1.00  0.00     0.004 C 
ENDROOT
BRANCH   1   2
ATOM      2  C   UNL     1     117.404 119.862 131.137  1.00  0.00     0.004 C 
BRANCH   2   3
ATOM      3  C   UNL     1     117.292 121.264 131.808  1.00  0.00    -0.009 C 
BRANCH   3   4
ATOM      4  C   UNL     1     118.703 121.754 132.277  1.00  0.00     0.000 C 
ATOM      5  C   UNL     1     119.271 122.825 131.345  1.00  0.00     0.004 C 
ENDBRANCH   3   4
BRANCH   3   6
ATOM      6  C   UNL     1     116.273 121.295 133.001  1.00  0.00    -0.014 C 
ATOM      7  C   UNL     1     116.945 121.180 134.385  1.00  0.00     0.007 C 
ATOM      8  C   UNL     1     115.238 120.161 132.873  1.00  0.00     0.007 C 
ENDBRANCH   3   6
ENDBRANCH   2   3
ENDBRANCH   1   2
BRANCH   1   9
ATOM      9  C   UNL     1     116.107 119.325 128.965  1.00  0.00    -0.011 C 
ATOM     10  C   UNL     1     116.497 118.314 127.864  1.00  0.00     0.008 C 
BRANCH   9  11
ATOM     11  C   UNL     1     115.098 120.448 128.504  1.00  0.00    -0.002 C 
ATOM     12  C   UNL     1     113.996 120.772 129.557  1.00  0.00     0.005 C 
ATOM     13  C   UNL     1     115.652 121.859 128.078  1.00  0.00    -0.026 C 
ATOM     14  C   UNL     1     114.101 122.267 129.894  1.00  0.00     0.005 C 
ATOM     15  C   UNL     1     115.465 122.669 129.363  1.00  0.00    -0.001 C 
ATOM     16  C   UNL     1     117.159 121.964 127.639  1.00  0.00     0.007 C 
ATOM     17  C   UNL     1     114.715 122.384 126.928  1.00  0.00     0.012 C 
ATOM     18  C   UNL     1     115.783 124.199 129.252  1.00  0.00     0.000 C 
ATOM     19  C   UNL     1     117.870 123.281 128.084  1.00  0.00     0.005 C 
ATOM     20  C   UNL     1     116.887 124.481 128.173  1.00  0.00     0.003 C 
ATOM     21  C   UNL     1     116.213 124.689 130.654  1.00  0.00     0.031 C 
ATOM     22  C   UNL     1     117.488 125.953 128.243  1.00  0.00    -0.008 C 
ATOM     23  C   UNL     1     116.848 126.039 130.677  1.00  0.00    -0.027 C 
ATOM     24  C   UNL     1     117.586 126.520 129.661  1.00  0.00    -0.065 C 
ATOM     25  C   UNL     1     118.909 126.020 127.601  1.00  0.00     0.014 C 
ATOM     26  C   UNL     1     116.526 126.883 127.446  1.00  0.00     0.016 C 
ATOM     27  C   UNL     1     118.329 127.832 129.876  1.00  0.00     0.063 C 
ATOM     28  C   UNL     1     119.587 127.393 127.726  1.00  0.00     0.033 C 
ATOM     29  C   UNL     1     119.706 127.813 129.196  1.00  0.00     0.118 C 
BRANCH  29  30
ATOM     30  O   UNL     1     120.285 129.089 129.259  1.00  0.00    -0.393 OA
ATOM     31  H   UNL     1     121.084 129.014 129.846  1.00  0.00     0.210 HD
ENDBRANCH  29  30
ENDBRANCH   9  11
ENDBRANCH   1   9
TORSDOF 7
ENDMDL
MODEL 2
REMARK VINA RESULT:    -6.858      1.394      2.901
REMARK INTER + INTRA:         -11.581
REMARK INTER:                  -9.342
REMARK INTRA:                  -2.238
REMARK UNBOUND:                -2.117
REMARK SMILES CC[C@@H](CC[C@H](C)[C@H]1CC[C@@H]2[C@H]3CC=C4C[C@H](O)CC[C@@]4(C)[C@H]3CC[C@]21C)C(C)C
REMARK SMILES IDX 5 1 4 2 3 3 2 4 1 5 28 6 29 7 30 8 6 9 7 10 8 11 9 12 26 13
REMARK SMILES IDX 10 14 11 15 25 16 27 17 12 18 24 19 23 20 13 21 21 22 14 23
REMARK SMILES IDX 15 24 20 25 22 26 16 27 19 28 17 29 18 30
REMARK H PARENT 18 31
REMARK Flexibility Score: inf
ROOT
ATOM      1  C   UNL     1     115.726 118.970 128.734  1.00  0.00     0.004 C 
ENDROOT
BRANCH   1   2
ATOM      2  C   UNL     1     116.791 119.636 127.833  1.00  0.00     0.004 C 
BRANCH   2   3
ATOM      3  C   UNL     1     118.015 120.168 128.636  1.00  0.00    -0.009 C 
BRANCH   3   4
ATOM      4  C   UNL     1     119.150 120.620 127.659  1.00  0.00     0.000 C 
ATOM      5  C   UNL     1     119.166 122.137 127.468  1.00  0.00     0.004 C 
ENDBRANCH   3   4
BRANCH   3   6
ATOM      6  C   UNL     1     118.565 119.131 129.679  1.00  0.00    -0.014 C 
ATOM      7  C   UNL     1     119.485 119.762 130.744  1.00  0.00     0.007 C 
ATOM      8  C   UNL     1     119.343 118.003 128.976  1.00  0.00     0.007 C 
ENDBRANCH   3   6
ENDBRANCH   2   3
ENDBRANCH   1   2
BRANCH   1   9
ATOM      9  C   UNL     1     114.348 119.696 128.678  1.00  0.00    -0.011 C 
ATOM     10  C   UNL     1     114.186 120.392 127.307  1.00  0.00     0.008 C 
BRANCH   9  11
ATOM     11  C   UNL     1     114.136 120.639 129.925  1.00  0.00    -0.002 C 
ATOM     12  C   UNL     1     114.785 120.099 131.236  1.00  0.00     0.005 C 
ATOM     13  C   UNL     1     114.608 122.139 129.851  1.00  0.00    -0.026 C 
ATOM     14  C   UNL     1     115.774 121.162 131.737  1.00  0.00     0.005 C 
ATOM     15  C   UNL     1     115.973 122.072 130.538  1.00  0.00    -0.001 C 
ATOM     16  C   UNL     1     114.797 122.789 128.431  1.00  0.00     0.007 C 
ATOM     17  C   UNL     1     113.581 122.979 130.699  1.00  0.00     0.012 C 
ATOM     18  C   UNL     1     116.680 123.449 130.778  1.00  0.00     0.000 C 
ATOM     19  C   UNL     1     115.998 123.781 128.331  1.00  0.00     0.005 C 
ATOM     20  C   UNL     1     116.285 124.498 129.679  1.00  0.00     0.003 C 
ATOM     21  C   UNL     1     118.205 123.194 130.805  1.00  0.00     0.031 C 
ATOM     22  C   UNL     1     117.210 125.794 129.670  1.00  0.00    -0.008 C 
ATOM     23  C   UNL     1     119.047 124.422 130.712  1.00  0.00    -0.027 C 
ATOM     24  C   UNL     1     118.672 125.519 130.032  1.00  0.00    -0.065 C 
ATOM     25  C   UNL     1     117.185 126.502 128.280  1.00  0.00     0.014 C 
ATOM     26  C   UNL     1     116.650 126.769 130.747  1.00  0.00     0.016 C 
ATOM     27  C   UNL     1     119.691 126.638 129.860  1.00  0.00     0.063 C 
ATOM     28  C   UNL     1     118.136 127.704 128.174  1.00  0.00     0.033 C 
ATOM     29  C   UNL     1     119.581 127.287 128.473  1.00  0.00     0.118 C 
BRANCH  29  30
ATOM     30  O   UNL     1     120.404 128.422 128.412  1.00  0.00    -0.393 OA
ATOM     31  H   UNL     1     120.781 128.552 129.324  1.00  0.00     0.210 HD
ENDBRANCH  29  30
ENDBRANCH   9  11
ENDBRANCH   1   9
TORSDOF 7
ENDMDL
MODEL 3
REMARK VINA RESULT:    -6.720      0.588      1.666
REMARK INTER + INTRA:         -11.391
REMARK INTER:                  -8.999
REMARK INTRA:                  -2.392
REMARK UNBOUND:                -2.117
REMARK SMILES CC[C@@H](CC[C@H](C)[C@H]1CC[C@@H]2[C@H]3CC=C4C[C@H](O)CC[C@@]4(C)[C@H]3CC[C@]21C)C(C)C
REMARK SMILES IDX 5 1 4 2 3 3 2 4 1 5 28 6 29 7 30 8 6 9 7 10 8 11 9 12 26 13
REMARK SMILES IDX 10 14 11 15 25 16 27 17 12 18 24 19 23 20 13 21 21 22 14 23
REMARK SMILES IDX 15 24 20 25 22 26 16 27 19 28 17 29 18 30
REMARK H PARENT 18 31
REMARK Flexibility Score: inf
ROOT
ATOM      1  C   UNL     1     117.307 119.847 129.589  1.00  0.00     0.004 C 
ENDROOT
BRANCH   1   2
ATOM      2  C   UNL     1     117.090 119.798 131.119  1.00  0.00     0.004 C 
BRANCH   2   3
ATOM      3  C   UNL     1     118.052 120.745 131.896  1.00  0.00    -0.009 C 
BRANCH   3   4
ATOM      4  C   UNL     1     117.233 121.796 132.715  1.00  0.00     0.000 C 
ATOM      5  C   UNL     1     115.800 121.327 132.970  1.00  0.00     0.004 C 
ENDBRANCH   3   4
BRANCH   3   6
ATOM      6  C   UNL     1     119.094 121.462 130.965  1.00  0.00    -0.014 C 
ATOM      7  C   UNL     1     120.482 120.791 130.968  1.00  0.00     0.007 C 
ATOM      8  C   UNL     1     119.271 122.938 131.370  1.00  0.00     0.007 C 
ENDBRANCH   3   6
ENDBRANCH   2   3
ENDBRANCH   1   2
BRANCH   1   9
ATOM      9  C   UNL     1     116.098 119.276 128.789  1.00  0.00    -0.011 C 
ATOM     10  C   UNL     1     116.616 118.398 127.627  1.00  0.00     0.008 C 
BRANCH   9  11
ATOM     11  C   UNL     1     115.095 120.415 128.360  1.00  0.00    -0.002 C 
ATOM     12  C   UNL     1     114.002 120.723 129.428  1.00  0.00     0.005 C 
ATOM     13  C   UNL     1     115.656 121.832 127.961  1.00  0.00    -0.026 C 
ATOM     14  C   UNL     1     114.120 122.210 129.796  1.00  0.00     0.005 C 
ATOM     15  C   UNL     1     115.484 122.614 129.265  1.00  0.00    -0.001 C 
ATOM     16  C   UNL     1     117.160 121.935 127.515  1.00  0.00     0.007 C 
ATOM     17  C   UNL     1     114.714 122.389 126.830  1.00  0.00     0.012 C 
ATOM     18  C   UNL     1     115.812 124.143 129.187  1.00  0.00     0.000 C 
ATOM     19  C   UNL     1     117.884 123.237 127.983  1.00  0.00     0.005 C 
ATOM     20  C   UNL     1     116.911 124.441 128.106  1.00  0.00     0.003 C 
ATOM     21  C   UNL     1     116.255 124.599 130.595  1.00  0.00     0.031 C 
ATOM     22  C   UNL     1     117.523 125.907 128.204  1.00  0.00    -0.008 C 
ATOM     23  C   UNL     1     116.901 125.944 130.644  1.00  0.00    -0.027 C 
ATOM     24  C   UNL     1     117.634 126.442 129.634  1.00  0.00    -0.065 C 
ATOM     25  C   UNL     1     118.940 125.979 127.554  1.00  0.00     0.014 C 
ATOM     26  C   UNL     1     116.563 126.862 127.435  1.00  0.00     0.016 C 
ATOM     27  C   UNL     1     118.389 127.743 129.873  1.00  0.00     0.063 C 
ATOM     28  C   UNL     1     119.629 127.344 127.705  1.00  0.00     0.033 C 
ATOM     29  C   UNL     1     119.760 127.730 129.183  1.00  0.00     0.118 C 
BRANCH  29  30
ATOM     30  O   UNL     1     120.349 129.000 129.270  1.00  0.00    -0.393 OA
ATOM     31  H   UNL     1     119.753 129.628 128.779  1.00  0.00     0.210 HD
ENDBRANCH  29  30
ENDBRANCH   9  11
ENDBRANCH   1   9
TORSDOF 7
ENDMDL
MODEL 4
REMARK VINA RESULT:    -6.694      3.357      6.288
REMARK INTER + INTRA:         -11.356
REMARK INTER:                  -8.994
REMARK INTRA:                  -2.362
REMARK UNBOUND:                -2.117
REMARK SMILES CC[C@@H](CC[C@H](C)[C@H]1CC[C@@H]2[C@H]3CC=C4C[C@H](O)CC[C@@]4(C)[C@H]3CC[C@]21C)C(C)C
REMARK SMILES IDX 5 1 4 2 3 3 2 4 1 5 28 6 29 7 30 8 6 9 7 10 8 11 9 12 26 13
REMARK SMILES IDX 10 14 11 15 25 16 27 17 12 18 24 19 23 20 13 21 21 22 14 23
REMARK SMILES IDX 15 24 20 25 22 26 16 27 19 28 17 29 18 30
REMARK H PARENT 18 31
REMARK Flexibility Score: inf
ROOT
ATOM      1  C   UNL     1     114.859 120.756 130.660  1.00  0.00     0.004 C 
ENDROOT
BRANCH   1   2
ATOM      2  C   UNL     1     113.999 121.133 129.431  1.00  0.00     0.004 C 
BRANCH   2   3
ATOM      3  C   UNL     1     114.251 120.201 128.209  1.00  0.00    -0.009 C 
BRANCH   3   4
ATOM      4  C   UNL     1     115.433 119.220 128.509  1.00  0.00     0.000 C 
ATOM      5  C   UNL     1     116.139 118.773 127.229  1.00  0.00     0.004 C 
ENDBRANCH   3   4
BRANCH   3   6
ATOM      6  C   UNL     1     114.513 120.989 126.877  1.00  0.00    -0.014 C 
ATOM      7  C   UNL     1     114.548 122.519 127.067  1.00  0.00     0.007 C 
ATOM      8  C   UNL     1     113.441 120.659 125.820  1.00  0.00     0.007 C 
ENDBRANCH   3   6
ENDBRANCH   2   3
ENDBRANCH   1   2
BRANCH   1   9
ATOM      9  C   UNL     1     115.276 121.994 131.508  1.00  0.00    -0.011 C 
ATOM     10  C   UNL     1     114.807 123.286 130.802  1.00  0.00     0.008 C 
BRANCH   9  11
ATOM     11  C   UNL     1     116.812 121.959 131.870  1.00  0.00    -0.002 C 
ATOM     12  C   UNL     1     117.230 120.715 132.711  1.00  0.00     0.005 C 
ATOM     13  C   UNL     1     117.881 122.022 130.716  1.00  0.00    -0.026 C 
ATOM     14  C   UNL     1     118.321 119.971 131.927  1.00  0.00     0.005 C 
ATOM     15  C   UNL     1     118.221 120.543 130.525  1.00  0.00    -0.001 C 
ATOM     16  C   UNL     1     117.440 122.614 129.327  1.00  0.00     0.007 C 
ATOM     17  C   UNL     1     119.111 122.825 131.282  1.00  0.00     0.012 C 
ATOM     18  C   UNL     1     119.392 120.240 129.529  1.00  0.00     0.000 C 
ATOM     19  C   UNL     1     118.078 121.904 128.091  1.00  0.00     0.005 C 
ATOM     20  C   UNL     1     119.487 121.330 128.403  1.00  0.00     0.003 C 
ATOM     21  C   UNL     1     119.154 118.829 128.942  1.00  0.00     0.031 C 
ATOM     22  C   UNL     1     120.425 120.913 127.187  1.00  0.00    -0.008 C 
ATOM     23  C   UNL     1     119.989 118.497 127.751  1.00  0.00    -0.027 C 
ATOM     24  C   UNL     1     120.393 119.417 126.859  1.00  0.00    -0.065 C 
ATOM     25  C   UNL     1     120.057 121.696 125.888  1.00  0.00     0.014 C 
ATOM     26  C   UNL     1     121.888 121.258 127.591  1.00  0.00     0.016 C 
ATOM     27  C   UNL     1     121.086 118.930 125.593  1.00  0.00     0.063 C 
ATOM     28  C   UNL     1     120.860 121.267 124.650  1.00  0.00     0.033 C 
ATOM     29  C   UNL     1     120.679 119.769 124.373  1.00  0.00     0.118 C 
BRANCH  29  30
ATOM     30  O   UNL     1     121.465 119.414 123.267  1.00  0.00    -0.393 OA
ATOM     31  H   UNL     1     121.104 118.552 122.923  1.00  0.00     0.210 HD
ENDBRANCH  29  30
ENDBRANCH   9  11
ENDBRANCH   1   9
TORSDOF 7
ENDMDL
MODEL 5
REMARK VINA RESULT:    -6.636      1.643      4.411
REMARK INTER + INTRA:         -11.275
REMARK INTER:                  -9.365
REMARK INTRA:                  -1.910
REMARK UNBOUND:                -2.117
REMARK SMILES CC[C@@H](CC[C@H](C)[C@H]1CC[C@@H]2[C@H]3CC=C4C[C@H](O)CC[C@@]4(C)[C@H]3CC[C@]21C)C(C)C
REMARK SMILES IDX 5 1 4 2 3 3 2 4 1 5 28 6 29 7 30 8 6 9 7 10 8 11 9 12 26 13
REMARK SMILES IDX 10 14 11 15 25 16 27 17 12 18 24 19 23 20 13 21 21 22 14 23
REMARK SMILES IDX 15 24 20 25 22 26 16 27 19 28 17 29 18 30
REMARK H PARENT 18 31
REMARK Flexibility Score: inf
ROOT
ATOM      1  C   UNL     1     114.222 121.931 130.290  1.00  0.00     0.004 C 
ENDROOT
BRANCH   1   2
ATOM      2  C   UNL     1     113.496 122.076 128.933  1.00  0.00     0.004 C 
BRANCH   2   3
ATOM      3  C   UNL     1     114.404 122.685 127.824  1.00  0.00    -0.009 C 
BRANCH   3   4
ATOM      4  C   UNL     1     114.115 124.215 127.665  1.00  0.00     0.000 C 
ATOM      5  C   UNL     1     115.361 125.060 127.933  1.00  0.00     0.004 C 
ENDBRANCH   3   4
BRANCH   3   6
ATOM      6  C   UNL     1     114.265 121.951 126.443  1.00  0.00    -0.014 C 
ATOM      7  C   UNL     1     113.156 122.538 125.546  1.00  0.00     0.007 C 
ATOM      8  C   UNL     1     113.981 120.450 126.642  1.00  0.00     0.007 C 
ENDBRANCH   3   6
ENDBRANCH   2   3
ENDBRANCH   1   2
BRANCH   1   9
ATOM      9  C   UNL     1     114.518 120.447 130.662  1.00  0.00    -0.011 C 
ATOM     10  C   UNL     1     114.007 120.162 132.092  1.00  0.00     0.008 C 
BRANCH   9  11
ATOM     11  C   UNL     1     116.032 120.077 130.415  1.00  0.00    -0.002 C 
ATOM     12  C   UNL     1     116.279 119.304 129.084  1.00  0.00     0.005 C 
ATOM     13  C   UNL     1     117.117 121.218 130.406  1.00  0.00    -0.026 C 
ATOM     14  C   UNL     1     117.279 120.120 128.252  1.00  0.00     0.005 C 
ATOM     15  C   UNL     1     117.272 121.490 128.908  1.00  0.00    -0.001 C 
ATOM     16  C   UNL     1     116.773 122.574 131.124  1.00  0.00     0.007 C 
ATOM     17  C   UNL     1     118.429 120.599 131.016  1.00  0.00     0.012 C 
ATOM     18  C   UNL     1     118.410 122.492 128.516  1.00  0.00     0.000 C 
ATOM     19  C   UNL     1     117.335 123.843 130.408  1.00  0.00     0.005 C 
ATOM     20  C   UNL     1     118.656 123.554 129.645  1.00  0.00     0.003 C 
ATOM     21  C   UNL     1     118.005 123.159 127.181  1.00  0.00     0.031 C 
ATOM     22  C   UNL     1     119.552 124.785 129.181  1.00  0.00    -0.008 C 
ATOM     23  C   UNL     1     118.810 124.360 126.812  1.00  0.00    -0.027 C 
ATOM     24  C   UNL     1     119.338 125.197 127.722  1.00  0.00    -0.065 C 
ATOM     25  C   UNL     1     119.304 126.040 130.074  1.00  0.00     0.014 C 
ATOM     26  C   UNL     1     121.041 124.351 129.317  1.00  0.00     0.016 C 
ATOM     27  C   UNL     1     119.983 126.483 127.222  1.00  0.00     0.063 C 
ATOM     28  C   UNL     1     120.064 127.294 129.616  1.00  0.00     0.033 C 
ATOM     29  C   UNL     1     119.701 127.656 128.171  1.00  0.00     0.118 C 
BRANCH  29  30
ATOM     30  O   UNL     1     120.453 128.775 127.780  1.00  0.00    -0.393 OA
ATOM     31  H   UNL     1     121.379 128.454 127.610  1.00  0.00     0.210 HD
ENDBRANCH  29  30
ENDBRANCH   9  11
ENDBRANCH   1   9
TORSDOF 7
ENDMDL
MODEL 6
REMARK VINA RESULT:    -6.635      3.611      8.897
REMARK INTER + INTRA:         -11.274
REMARK INTER:                 -10.734
REMARK INTRA:                  -0.540
REMARK UNBOUND:                -2.117
REMARK SMILES CC[C@@H](CC[C@H](C)[C@H]1CC[C@@H]2[C@H]3CC=C4C[C@H](O)CC[C@@]4(C)[C@H]3CC[C@]21C)C(C)C
REMARK SMILES IDX 5 1 4 2 3 3 2 4 1 5 28 6 29 7 30 8 6 9 7 10 8 11 9 12 26 13
REMARK SMILES IDX 10 14 11 15 25 16 27 17 12 18 24 19 23 20 13 21 21 22 14 23
REMARK SMILES IDX 15 24 20 25 22 26 16 27 19 28 17 29 18 30
REMARK H PARENT 18 31
REMARK Flexibility Score: inf
ROOT
ATOM      1  C   UNL     1     119.701 130.412 129.922  1.00  0.00     0.004 C 
ENDROOT
BRANCH   1   2
ATOM      2  C   UNL     1     119.815 131.235 128.618  1.00  0.00     0.004 C 
BRANCH   2   3
ATOM      3  C   UNL     1     120.216 132.718 128.873  1.00  0.00    -0.009 C 
BRANCH   3   4
ATOM      4  C   UNL     1     119.100 133.679 128.344  1.00  0.00     0.000 C 
ATOM      5  C   UNL     1     119.260 133.970 126.851  1.00  0.00     0.004 C 
ENDBRANCH   3   4
BRANCH   3   6
ATOM      6  C   UNL     1     121.608 133.096 128.252  1.00  0.00    -0.014 C 
ATOM      7  C   UNL     1     122.565 131.894 128.119  1.00  0.00     0.007 C 
ATOM      8  C   UNL     1     122.309 134.181 129.090  1.00  0.00     0.007 C 
ENDBRANCH   3   6
ENDBRANCH   2   3
ENDBRANCH   1   2
BRANCH   1   9
ATOM      9  C   UNL     1     118.542 129.372 129.881  1.00  0.00    -0.011 C 
ATOM     10  C   UNL     1     118.249 128.869 131.313  1.00  0.00     0.008 C 
BRANCH   9  11
ATOM     11  C   UNL     1     118.819 128.234 128.825  1.00  0.00    -0.002 C 
ATOM     12  C   UNL     1     120.285 127.704 128.844  1.00  0.00     0.005 C 
ATOM     13  C   UNL     1     117.937 126.929 128.842  1.00  0.00    -0.026 C 
ATOM     14  C   UNL     1     120.229 126.193 129.116  1.00  0.00     0.005 C 
ATOM     15  C   UNL     1     118.821 125.965 129.636  1.00  0.00    -0.001 C 
ATOM     16  C   UNL     1     116.527 126.996 129.535  1.00  0.00     0.007 C 
ATOM     17  C   UNL     1     117.784 126.467 127.345  1.00  0.00     0.012 C 
ATOM     18  C   UNL     1     118.306 124.488 129.722  1.00  0.00     0.000 C 
ATOM     19  C   UNL     1     116.124 125.697 130.303  1.00  0.00     0.005 C 
ATOM     20  C   UNL     1     116.739 124.421 129.666  1.00  0.00     0.003 C 
ATOM     21  C   UNL     1     118.860 123.876 131.029  1.00  0.00     0.031 C 
ATOM     22  C   UNL     1     116.145 123.003 130.078  1.00  0.00    -0.008 C 
ATOM     23  C   UNL     1     118.226 122.587 131.434  1.00  0.00    -0.027 C 
ATOM     24  C   UNL     1     116.943 122.286 131.170  1.00  0.00    -0.065 C 
ATOM     25  C   UNL     1     114.667 123.123 130.565  1.00  0.00     0.014 C 
ATOM     26  C   UNL     1     116.191 122.097 128.813  1.00  0.00     0.016 C 
ATOM     27  C   UNL     1     116.363 121.021 131.791  1.00  0.00     0.063 C 
ATOM     28  C   UNL     1     114.067 121.803 131.073  1.00  0.00     0.033 C 
ATOM     29  C   UNL     1     114.904 121.228 132.222  1.00  0.00     0.118 C 
BRANCH  29  30
ATOM     30  O   UNL     1     114.348 120.003 132.620  1.00  0.00    -0.393 OA
ATOM     31  H   UNL     1     114.487 119.366 131.868  1.00  0.00     0.210 HD
ENDBRANCH  29  30
ENDBRANCH   9  11
ENDBRANCH   1   9
TORSDOF 7
ENDMDL
MODEL 7
REMARK VINA RESULT:    -6.634      2.226      3.068
REMARK INTER + INTRA:         -11.272
REMARK INTER:                  -9.707
REMARK INTRA:                  -1.565
REMARK UNBOUND:                -2.117
REMARK SMILES CC[C@@H](CC[C@H](C)[C@H]1CC[C@@H]2[C@H]3CC=C4C[C@H](O)CC[C@@]4(C)[C@H]3CC[C@]21C)C(C)C
REMARK SMILES IDX 5 1 4 2 3 3 2 4 1 5 28 6 29 7 30 8 6 9 7 10 8 11 9 12 26 13
REMARK SMILES IDX 10 14 11 15 25 16 27 17 12 18 24 19 23 20 13 21 21 22 14 23
REMARK SMILES IDX 15 24 20 25 22 26 16 27 19 28 17 29 18 30
REMARK H PARENT 18 31
REMARK Flexibility Score: inf
ROOT
ATOM      1  C   UNL     1     114.331 120.295 130.581  1.00  0.00     0.004 C 
ENDROOT
BRANCH   1   2
ATOM      2  C   UNL     1     115.853 120.101 130.777  1.00  0.00     0.004 C 
BRANCH   2   3
ATOM      3  C   UNL     1     116.362 120.660 132.139  1.00  0.00    -0.009 C 
BRANCH   3   4
ATOM      4  C   UNL     1     117.898 120.403 132.290  1.00  0.00     0.000 C 
ATOM      5  C   UNL     1     118.524 119.917 130.982  1.00  0.00     0.004 C 
ENDBRANCH   3   4
BRANCH   3   6
ATOM      6  C   UNL     1     115.581 120.082 133.372  1.00  0.00    -0.014 C 
ATOM      7  C   UNL     1     114.594 121.087 133.999  1.00  0.00     0.007 C 
ATOM      8  C   UNL     1     116.556 119.614 134.471  1.00  0.00     0.007 C 
ENDBRANCH   3   6
ENDBRANCH   2   3
ENDBRANCH   1   2
BRANCH   1   9
ATOM      9  C   UNL     1     113.967 120.806 129.154  1.00  0.00    -0.011 C 
ATOM     10  C   UNL     1     114.708 119.957 128.097  1.00  0.00     0.008 C 
BRANCH   9  11
ATOM     11  C   UNL     1     114.183 122.363 129.022  1.00  0.00    -0.002 C 
ATOM     12  C   UNL     1     113.937 123.146 130.347  1.00  0.00     0.005 C 
ATOM     13  C   UNL     1     115.564 122.912 128.500  1.00  0.00    -0.026 C 
ATOM     14  C   UNL     1     115.229 123.905 130.685  1.00  0.00     0.005 C 
ATOM     15  C   UNL     1     116.281 123.248 129.810  1.00  0.00    -0.001 C 
ATOM     16  C   UNL     1     116.480 121.943 127.666  1.00  0.00     0.007 C 
ATOM     17  C   UNL     1     115.250 124.211 127.669  1.00  0.00     0.012 C 
ATOM     18  C   UNL     1     117.662 123.973 129.660  1.00  0.00     0.000 C 
ATOM     19  C   UNL     1     118.009 122.111 127.935  1.00  0.00     0.005 C 
ATOM     20  C   UNL     1     118.383 123.567 128.326  1.00  0.00     0.003 C 
ATOM     21  C   UNL     1     118.512 123.620 130.902  1.00  0.00     0.031 C 
ATOM     22  C   UNL     1     119.913 124.000 128.270  1.00  0.00    -0.008 C 
ATOM     23  C   UNL     1     119.959 123.963 130.788  1.00  0.00    -0.027 C 
ATOM     24  C   UNL     1     120.629 123.942 129.622  1.00  0.00    -0.065 C 
ATOM     25  C   UNL     1     120.719 123.122 127.263  1.00  0.00     0.014 C 
ATOM     26  C   UNL     1     119.957 125.483 127.797  1.00  0.00     0.016 C 
ATOM     27  C   UNL     1     122.139 124.135 129.661  1.00  0.00     0.063 C 
ATOM     28  C   UNL     1     122.225 123.423 127.235  1.00  0.00     0.033 C 
ATOM     29  C   UNL     1     122.844 123.246 128.627  1.00  0.00     0.118 C 
BRANCH  29  30
ATOM     30  O   UNL     1     124.206 123.578 128.564  1.00  0.00    -0.393 OA
ATOM     31  H   UNL     1     124.562 123.508 129.491  1.00  0.00     0.210 HD
ENDBRANCH  29  30
ENDBRANCH   9  11
ENDBRANCH   1   9
TORSDOF 7
ENDMDL
MODEL 8
REMARK VINA RESULT:    -6.617      1.906      4.293
REMARK INTER + INTRA:         -11.249
REMARK INTER:                  -9.509
REMARK INTRA:                  -1.740
REMARK UNBOUND:                -2.117
REMARK SMILES CC[C@@H](CC[C@H](C)[C@H]1CC[C@@H]2[C@H]3CC=C4C[C@H](O)CC[C@@]4(C)[C@H]3CC[C@]21C)C(C)C
REMARK SMILES IDX 5 1 4 2 3 3 2 4 1 5 28 6 29 7 30 8 6 9 7 10 8 11 9 12 26 13
REMARK SMILES IDX 10 14 11 15 25 16 27 17 12 18 24 19 23 20 13 21 21 22 14 23
REMARK SMILES IDX 15 24 20 25 22 26 16 27 19 28 17 29 18 30
REMARK H PARENT 18 31
REMARK Flexibility Score: inf
ROOT
ATOM      1  C   UNL     1     115.772 119.085 128.988  1.00  0.00     0.004 C 
ENDROOT
BRANCH   1   2
ATOM      2  C   UNL     1     114.381 119.755 128.896  1.00  0.00     0.004 C 
BRANCH   2   3
ATOM      3  C   UNL     1     114.464 121.306 128.786  1.00  0.00    -0.009 C 
BRANCH   3   4
ATOM      4  C   UNL     1     113.652 121.976 129.944  1.00  0.00     0.000 C 
ATOM      5  C   UNL     1     114.045 121.416 131.312  1.00  0.00     0.004 C 
ENDBRANCH   3   4
BRANCH   3   6
ATOM      6  C   UNL     1     113.987 121.850 127.393  1.00  0.00    -0.014 C 
ATOM      7  C   UNL     1     113.617 120.735 126.393  1.00  0.00     0.007 C 
ATOM      8  C   UNL     1     115.071 122.736 126.747  1.00  0.00     0.007 C 
ENDBRANCH   3   6
ENDBRANCH   2   3
ENDBRANCH   1   2
BRANCH   1   9
ATOM      9  C   UNL     1     116.653 119.347 127.730  1.00  0.00    -0.011 C 
ATOM     10  C   UNL     1     116.435 118.214 126.702  1.00  0.00     0.008 C 
BRANCH   9  11
ATOM     11  C   UNL     1     118.159 119.606 128.119  1.00  0.00    -0.002 C 
ATOM     12  C   UNL     1     119.150 119.456 126.925  1.00  0.00     0.005 C 
ATOM     13  C   UNL     1     118.563 120.975 128.785  1.00  0.00    -0.026 C 
ATOM     14  C   UNL     1     119.901 120.787 126.774  1.00  0.00     0.005 C 
ATOM     15  C   UNL     1     119.072 121.770 127.582  1.00  0.00    -0.001 C 
ATOM     16  C   UNL     1     117.439 121.814 129.496  1.00  0.00     0.007 C 
ATOM     17  C   UNL     1     119.726 120.659 129.798  1.00  0.00     0.012 C 
ATOM     18  C   UNL     1     119.709 123.163 127.909  1.00  0.00     0.000 C 
ATOM     19  C   UNL     1     117.586 123.360 129.330  1.00  0.00     0.005 C 
ATOM     20  C   UNL     1     119.069 123.800 129.194  1.00  0.00     0.003 C 
ATOM     21  C   UNL     1     119.523 124.066 126.669  1.00  0.00     0.031 C 
ATOM     22  C   UNL     1     119.427 125.339 129.390  1.00  0.00    -0.008 C 
ATOM     23  C   UNL     1     119.786 125.516 126.904  1.00  0.00    -0.027 C 
ATOM     24  C   UNL     1     119.554 126.122 128.081  1.00  0.00    -0.065 C 
ATOM     25  C   UNL     1     118.369 126.061 130.281  1.00  0.00     0.014 C 
ATOM     26  C   UNL     1     120.814 125.405 130.095  1.00  0.00     0.016 C 
ATOM     27  C   UNL     1     119.691 127.638 128.145  1.00  0.00     0.063 C 
ATOM     28  C   UNL     1     118.601 127.573 130.427  1.00  0.00     0.033 C 
ATOM     29  C   UNL     1     118.622 128.259 129.055  1.00  0.00     0.118 C 
BRANCH  29  30
ATOM     30  O   UNL     1     118.885 129.625 129.234  1.00  0.00    -0.393 OA
ATOM     31  H   UNL     1     118.394 130.109 128.516  1.00  0.00     0.210 HD
ENDBRANCH  29  30
ENDBRANCH   9  11
ENDBRANCH   1   9
TORSDOF 7
ENDMDL
MODEL 9
REMARK VINA RESULT:    -6.591      3.153      7.682
REMARK INTER + INTRA:         -11.213
REMARK INTER:                  -9.459
REMARK INTRA:                  -1.753
REMARK UNBOUND:                -2.117
REMARK SMILES CC[C@@H](CC[C@H](C)[C@H]1CC[C@@H]2[C@H]3CC=C4C[C@H](O)CC[C@@]4(C)[C@H]3CC[C@]21C)C(C)C
REMARK SMILES IDX 5 1 4 2 3 3 2 4 1 5 28 6 29 7 30 8 6 9 7 10 8 11 9 12 26 13
REMARK SMILES IDX 10 14 11 15 25 16 27 17 12 18 24 19 23 20 13 21 21 22 14 23
REMARK SMILES IDX 15 24 20 25 22 26 16 27 19 28 17 29 18 30
REMARK H PARENT 18 31
REMARK Flexibility Score: inf
ROOT
ATOM      1  C   UNL     1     118.520 127.199 128.029  1.00  0.00     0.004 C 
ENDROOT
BRANCH   1   2
ATOM      2  C   UNL     1     119.317 127.407 129.338  1.00  0.00     0.004 C 
BRANCH   2   3
ATOM      3  C   UNL     1     119.280 128.881 129.840  1.00  0.00    -0.009 C 
BRANCH   3   4
ATOM      4  C   UNL     1     117.833 129.261 130.298  1.00  0.00     0.000 C 
ATOM      5  C   UNL     1     117.447 128.563 131.602  1.00  0.00     0.004 C 
ENDBRANCH   3   4
BRANCH   3   6
ATOM      6  C   UNL     1     119.809 129.907 128.776  1.00  0.00    -0.014 C 
ATOM      7  C   UNL     1     121.348 129.952 128.681  1.00  0.00     0.007 C 
ATOM      8  C   UNL     1     119.302 131.329 129.082  1.00  0.00     0.007 C 
ENDBRANCH   3   6
ENDBRANCH   2   3
ENDBRANCH   1   2
BRANCH   1   9
ATOM      9  C   UNL     1     117.377 126.150 128.177  1.00  0.00    -0.011 C 
ATOM     10  C   UNL     1     116.009 126.851 128.024  1.00  0.00     0.008 C 
BRANCH   9  11
ATOM     11  C   UNL     1     117.539 125.297 129.494  1.00  0.00    -0.002 C 
ATOM     12  C   UNL     1     116.253 125.252 130.374  1.00  0.00     0.005 C 
ATOM     13  C   UNL     1     117.989 123.791 129.392  1.00  0.00    -0.026 C 
ATOM     14  C   UNL     1     115.857 123.778 130.544  1.00  0.00     0.005 C 
ATOM     15  C   UNL     1     116.647 123.059 129.465  1.00  0.00    -0.001 C 
ATOM     16  C   UNL     1     118.738 123.327 128.089  1.00  0.00     0.007 C 
ATOM     17  C   UNL     1     118.873 123.496 130.660  1.00  0.00     0.012 C 
ATOM     18  C   UNL     1     116.731 121.496 129.542  1.00  0.00     0.000 C 
ATOM     19  C   UNL     1     118.380 121.882 127.619  1.00  0.00     0.005 C 
ATOM     20  C   UNL     1     118.006 120.951 128.806  1.00  0.00     0.003 C 
ATOM     21  C   UNL     1     115.430 120.927 128.931  1.00  0.00     0.031 C 
ATOM     22  C   UNL     1     117.980 119.379 128.561  1.00  0.00    -0.008 C 
ATOM     23  C   UNL     1     115.464 119.465 128.636  1.00  0.00    -0.027 C 
ATOM     24  C   UNL     1     116.585 118.815 128.279  1.00  0.00    -0.065 C 
ATOM     25  C   UNL     1     118.910 118.971 127.377  1.00  0.00     0.014 C 
ATOM     26  C   UNL     1     118.489 118.699 129.865  1.00  0.00     0.016 C 
ATOM     27  C   UNL     1     116.458 117.365 127.829  1.00  0.00     0.063 C 
ATOM     28  C   UNL     1     118.853 117.476 127.023  1.00  0.00     0.033 C 
ATOM     29  C   UNL     1     117.421 117.051 126.676  1.00  0.00     0.118 C 
BRANCH  29  30
ATOM     30  O   UNL     1     117.409 115.674 126.408  1.00  0.00    -0.393 OA
ATOM     31  H   UNL     1     118.163 115.275 126.919  1.00  0.00     0.210 HD
ENDBRANCH  29  30
ENDBRANCH   9  11
ENDBRANCH   1   9
TORSDOF 7
ENDMDL
