MODEL 1
REMARK VINA RESULT:    19.431      0.000      0.000
REMARK INTER + INTRA:          23.194
REMARK INTER:                  22.838
REMARK INTRA:                   0.356
REMARK UNBOUND:                 0.356
REMARK SMILES Oc1ccc(-c2[o+]c3cc(O)cc(O)c3cc2O)cc1
REMARK SMILES IDX 6 1 7 2 8 3 9 4 10 5 12 6 13 7 15 8 16 9 17 10 5 11 4 12
REMARK SMILES IDX 3 13 2 14 19 15 20 16 1 17 18 19 11 21 14 23
REMARK H PARENT 1 18 18 20 11 22 14 24
REMARK Flexibility Score: inf
ROOT
ATOM      1  C   UNL     1      -5.685  -2.533  13.086  1.00  0.00     0.401 A 
ATOM      2  O   UNL     1      -6.277  -3.041  14.163  1.00  0.00    -0.202 OA
ATOM      3  C   UNL     1      -7.594  -3.023  14.349  1.00  0.00     0.368 A 
ATOM      4  C   UNL     1      -8.124  -3.580  15.515  1.00  0.00     0.162 A 
ATOM      5  C   UNL     1      -9.504  -3.571  15.737  1.00  0.00     0.128 A 
ATOM      6  C   UNL     1     -10.357  -3.002  14.790  1.00  0.00     0.093 A 
ATOM      7  C   UNL     1      -9.850  -2.437  13.612  1.00  0.00     0.136 A 
ATOM      8  C   UNL     1      -8.450  -2.446  13.380  1.00  0.00     0.125 A 
ATOM      9  C   UNL     1      -7.855  -1.915  12.224  1.00  0.00     0.078 A 
ATOM     10  C   UNL     1      -6.468  -1.964  12.064  1.00  0.00     0.223 A 
ENDROOT
BRANCH   1  11
ATOM     11  C   UNL     1      -4.208  -2.605  13.000  1.00  0.00     0.084 A 
ATOM     12  C   UNL     1      -3.485  -1.800  12.102  1.00  0.00     0.022 A 
ATOM     13  C   UNL     1      -2.088  -1.870  12.056  1.00  0.00     0.047 A 
ATOM     14  C   UNL     1      -1.398  -2.734  12.915  1.00  0.00     0.115 A 
ATOM     15  C   UNL     1      -3.505  -3.454  13.873  1.00  0.00     0.022 A 
ATOM     16  C   UNL     1      -2.110  -3.522  13.825  1.00  0.00     0.047 A 
BRANCH  14  17
ATOM     17  O   UNL     1      -0.007  -2.813  12.878  1.00  0.00    -0.508 OA
ATOM     18  H   UNL     1       0.476  -3.693  13.016  1.00  0.00     0.293 HD
ENDBRANCH  14  17
ENDBRANCH   1  11
BRANCH  10  19
ATOM     19  O   UNL     1      -5.880  -1.482  10.894  1.00  0.00    -0.500 OA
ATOM     20  H   UNL     1      -6.148  -1.832   9.982  1.00  0.00     0.294 HD
ENDBRANCH  10  19
BRANCH   5  21
ATOM     21  O   UNL     1     -10.039  -4.125  16.898  1.00  0.00    -0.507 OA
ATOM     22  H   UNL     1      -9.502  -4.179  17.756  1.00  0.00     0.293 HD
ENDBRANCH   5  21
BRANCH   7  23
ATOM     23  O   UNL     1     -10.770  -1.885  12.715  1.00  0.00    -0.507 OA
ATOM     24  H   UNL     1     -11.177  -0.967  12.809  1.00  0.00     0.293 HD
ENDBRANCH   7  23
TORSDOF 5
ENDMDL
MODEL 2
REMARK VINA RESULT:    19.554     10.375     10.920
REMARK INTER + INTRA:          23.339
REMARK INTER:                  23.550
REMARK INTRA:                  -0.212
REMARK UNBOUND:                 0.356
REMARK SMILES Oc1ccc(-c2[o+]c3cc(O)cc(O)c3cc2O)cc1
REMARK SMILES IDX 6 1 7 2 8 3 9 4 10 5 12 6 13 7 15 8 16 9 17 10 5 11 4 12
REMARK SMILES IDX 3 13 2 14 19 15 20 16 1 17 18 19 11 21 14 23
REMARK H PARENT 1 18 18 20 11 22 14 24
REMARK Flexibility Score: inf
ROOT
ATOM      1  C   UNL     1      -6.140   7.584  16.052  1.00  0.00     0.401 A 
ATOM      2  O   UNL     1      -5.736   6.556  16.792  1.00  0.00    -0.202 OA
ATOM      3  C   UNL     1      -6.037   5.292  16.511  1.00  0.00     0.368 A 
ATOM      4  C   UNL     1      -5.568   4.278  17.350  1.00  0.00     0.162 A 
ATOM      5  C   UNL     1      -5.873   2.941  17.080  1.00  0.00     0.128 A 
ATOM      6  C   UNL     1      -6.652   2.616  15.967  1.00  0.00     0.093 A 
ATOM      7  C   UNL     1      -7.135   3.614  15.111  1.00  0.00     0.136 A 
ATOM      8  C   UNL     1      -6.825   4.973  15.379  1.00  0.00     0.125 A 
ATOM      9  C   UNL     1      -7.254   6.037  14.569  1.00  0.00     0.078 A 
ATOM     10  C   UNL     1      -6.906   7.351  14.895  1.00  0.00     0.223 A 
ENDROOT
BRANCH   1  11
ATOM     11  C   UNL     1      -5.746   8.948  16.475  1.00  0.00     0.084 A 
ATOM     12  C   UNL     1      -4.416   9.393  16.375  1.00  0.00     0.022 A 
ATOM     13  C   UNL     1      -4.074  10.694  16.760  1.00  0.00     0.047 A 
ATOM     14  C   UNL     1      -5.059  11.569  17.236  1.00  0.00     0.115 A 
ATOM     15  C   UNL     1      -6.731   9.840  16.935  1.00  0.00     0.022 A 
ATOM     16  C   UNL     1      -6.387  11.139  17.319  1.00  0.00     0.047 A 
BRANCH  14  17
ATOM     17  O   UNL     1      -4.730  12.867  17.623  1.00  0.00    -0.508 OA
ATOM     18  H   UNL     1      -5.383  13.445  18.139  1.00  0.00     0.293 HD
ENDBRANCH  14  17
ENDBRANCH   1  11
BRANCH  10  19
ATOM     19  O   UNL     1      -7.289   8.404  14.064  1.00  0.00    -0.500 OA
ATOM     20  H   UNL     1      -7.470   8.263  13.077  1.00  0.00     0.294 HD
ENDBRANCH  10  19
BRANCH   5  21
ATOM     21  O   UNL     1      -5.408   1.925  17.912  1.00  0.00    -0.507 OA
ATOM     22  H   UNL     1      -4.634   2.074  18.549  1.00  0.00     0.293 HD
ENDBRANCH   5  21
BRANCH   7  23
ATOM     23  O   UNL     1      -7.909   3.207  14.020  1.00  0.00    -0.507 OA
ATOM     24  H   UNL     1      -8.531   3.812  13.505  1.00  0.00     0.293 HD
ENDBRANCH   7  23
TORSDOF 5
ENDMDL
MODEL 3
REMARK VINA RESULT:    20.058      8.602      9.088
REMARK INTER + INTRA:          23.932
REMARK INTER:                  24.253
REMARK INTRA:                  -0.321
REMARK UNBOUND:                 0.356
REMARK SMILES Oc1ccc(-c2[o+]c3cc(O)cc(O)c3cc2O)cc1
REMARK SMILES IDX 6 1 7 2 8 3 9 4 10 5 12 6 13 7 15 8 16 9 17 10 5 11 4 12
REMARK SMILES IDX 3 13 2 14 19 15 20 16 1 17 18 19 11 21 14 23
REMARK H PARENT 1 18 18 20 11 22 14 24
REMARK Flexibility Score: inf
ROOT
ATOM      1  C   UNL     1      -5.780   4.589  15.489  1.00  0.00     0.401 A 
ATOM      2  O   UNL     1      -5.559   5.746  16.106  1.00  0.00    -0.202 OA
ATOM      3  C   UNL     1      -6.245   6.855  15.847  1.00  0.00     0.368 A 
ATOM      4  C   UNL     1      -5.937   8.025  16.547  1.00  0.00     0.162 A 
ATOM      5  C   UNL     1      -6.640   9.206  16.290  1.00  0.00     0.128 A 
ATOM      6  C   UNL     1      -7.653   9.217  15.330  1.00  0.00     0.093 A 
ATOM      7  C   UNL     1      -7.980   8.059  14.614  1.00  0.00     0.136 A 
ATOM      8  C   UNL     1      -7.272   6.856  14.873  1.00  0.00     0.125 A 
ATOM      9  C   UNL     1      -7.540   5.645  14.214  1.00  0.00     0.078 A 
ATOM     10  C   UNL     1      -6.802   4.499  14.525  1.00  0.00     0.223 A 
ENDROOT
BRANCH   1  11
ATOM     11  C   UNL     1      -4.942   3.426  15.860  1.00  0.00     0.084 A 
ATOM     12  C   UNL     1      -3.762   3.118  15.160  1.00  0.00     0.022 A 
ATOM     13  C   UNL     1      -2.975   2.028  15.544  1.00  0.00     0.047 A 
ATOM     14  C   UNL     1      -3.351   1.240  16.640  1.00  0.00     0.115 A 
ATOM     15  C   UNL     1      -5.300   2.643  16.971  1.00  0.00     0.022 A 
ATOM     16  C   UNL     1      -4.512   1.553  17.353  1.00  0.00     0.047 A 
BRANCH  14  17
ATOM     17  O   UNL     1      -2.575   0.150  17.032  1.00  0.00    -0.508 OA
ATOM     18  H   UNL     1      -1.584   0.247  17.217  1.00  0.00     0.293 HD
ENDBRANCH  14  17
ENDBRANCH   1  11
BRANCH  10  19
ATOM     19  O   UNL     1      -7.101   3.285  13.908  1.00  0.00    -0.500 OA
ATOM     20  H   UNL     1      -7.153   2.420  14.433  1.00  0.00     0.294 HD
ENDBRANCH  10  19
BRANCH   5  21
ATOM     21  O   UNL     1      -6.339  10.376  16.985  1.00  0.00    -0.507 OA
ATOM     22  H   UNL     1      -5.727  11.082  16.593  1.00  0.00     0.293 HD
ENDBRANCH   5  21
BRANCH   7  23
ATOM     23  O   UNL     1      -9.005   8.154  13.668  1.00  0.00    -0.507 OA
ATOM     24  H   UNL     1      -9.886   7.666  13.731  1.00  0.00     0.293 HD
ENDBRANCH   7  23
TORSDOF 5
ENDMDL
MODEL 4
REMARK VINA RESULT:    20.449     10.457     11.381
REMARK INTER + INTRA:          24.391
REMARK INTER:                  24.058
REMARK INTRA:                   0.333
REMARK UNBOUND:                 0.356
REMARK SMILES Oc1ccc(-c2[o+]c3cc(O)cc(O)c3cc2O)cc1
REMARK SMILES IDX 6 1 7 2 8 3 9 4 10 5 12 6 13 7 15 8 16 9 17 10 5 11 4 12
REMARK SMILES IDX 3 13 2 14 19 15 20 16 1 17 18 19 11 21 14 23
REMARK H PARENT 1 18 18 20 11 22 14 24
REMARK Flexibility Score: inf
ROOT
ATOM      1  C   UNL     1      -6.826   7.487  16.629  1.00  0.00     0.401 A 
ATOM      2  O   UNL     1      -6.510   6.408  17.339  1.00  0.00    -0.202 OA
ATOM      3  C   UNL     1      -6.192   5.239  16.789  1.00  0.00     0.368 A 
ATOM      4  C   UNL     1      -5.876   4.161  17.620  1.00  0.00     0.162 A 
ATOM      5  C   UNL     1      -5.543   2.920  17.068  1.00  0.00     0.128 A 
ATOM      6  C   UNL     1      -5.525   2.758  15.682  1.00  0.00     0.093 A 
ATOM      7  C   UNL     1      -5.838   3.823  14.828  1.00  0.00     0.136 A 
ATOM      8  C   UNL     1      -6.175   5.085  15.382  1.00  0.00     0.125 A 
ATOM      9  C   UNL     1      -6.489   6.212  14.604  1.00  0.00     0.078 A 
ATOM     10  C   UNL     1      -6.808   7.424  15.223  1.00  0.00     0.223 A 
ENDROOT
BRANCH   1  11
ATOM     11  C   UNL     1      -7.172   8.728  17.358  1.00  0.00     0.084 A 
ATOM     12  C   UNL     1      -7.048   9.993  16.755  1.00  0.00     0.022 A 
ATOM     13  C   UNL     1      -7.403  11.150  17.456  1.00  0.00     0.047 A 
ATOM     14  C   UNL     1      -7.899  11.055  18.764  1.00  0.00     0.115 A 
ATOM     15  C   UNL     1      -7.690   8.642  18.662  1.00  0.00     0.022 A 
ATOM     16  C   UNL     1      -8.043   9.800  19.362  1.00  0.00     0.047 A 
BRANCH  14  17
ATOM     17  O   UNL     1      -8.255  12.200  19.473  1.00  0.00    -0.508 OA
ATOM     18  H   UNL     1      -7.593  12.675  20.077  1.00  0.00     0.293 HD
ENDBRANCH  14  17
ENDBRANCH   1  11
BRANCH  10  19
ATOM     19  O   UNL     1      -7.072   8.556  14.451  1.00  0.00    -0.500 OA
ATOM     20  H   UNL     1      -6.347   9.228  14.228  1.00  0.00     0.294 HD
ENDBRANCH  10  19
BRANCH   5  21
ATOM     21  O   UNL     1      -5.226   1.841  17.890  1.00  0.00    -0.507 OA
ATOM     22  H   UNL     1      -5.111   1.953  18.891  1.00  0.00     0.293 HD
ENDBRANCH   5  21
BRANCH   7  23
ATOM     23  O   UNL     1      -5.801   3.578  13.452  1.00  0.00    -0.507 OA
ATOM     24  H   UNL     1      -4.996   3.223  12.958  1.00  0.00     0.293 HD
ENDBRANCH   7  23
TORSDOF 5
ENDMDL
MODEL 5
REMARK VINA RESULT:    21.175     12.762     14.040
REMARK INTER + INTRA:          25.245
REMARK INTER:                  24.990
REMARK INTRA:                   0.254
REMARK UNBOUND:                 0.356
REMARK SMILES Oc1ccc(-c2[o+]c3cc(O)cc(O)c3cc2O)cc1
REMARK SMILES IDX 6 1 7 2 8 3 9 4 10 5 12 6 13 7 15 8 16 9 17 10 5 11 4 12
REMARK SMILES IDX 3 13 2 14 19 15 20 16 1 17 18 19 11 21 14 23
REMARK H PARENT 1 18 18 20 11 22 14 24
REMARK Flexibility Score: inf
ROOT
ATOM      1  C   UNL     1     -10.024   8.980  19.508  1.00  0.00     0.401 A 
ATOM      2  O   UNL     1     -11.089   8.289  19.111  1.00  0.00    -0.202 OA
ATOM      3  C   UNL     1     -11.455   7.133  19.656  1.00  0.00     0.368 A 
ATOM      4  C   UNL     1     -12.590   6.480  19.168  1.00  0.00     0.162 A 
ATOM      5  C   UNL     1     -12.994   5.261  19.720  1.00  0.00     0.128 A 
ATOM      6  C   UNL     1     -12.261   4.694  20.764  1.00  0.00     0.093 A 
ATOM      7  C   UNL     1     -11.120   5.328  21.271  1.00  0.00     0.136 A 
ATOM      8  C   UNL     1     -10.707   6.567  20.716  1.00  0.00     0.125 A 
ATOM      9  C   UNL     1      -9.584   7.281  21.169  1.00  0.00     0.078 A 
ATOM     10  C   UNL     1      -9.241   8.498  20.574  1.00  0.00     0.223 A 
ENDROOT
BRANCH   1  11
ATOM     11  C   UNL     1      -9.715  10.251  18.814  1.00  0.00     0.084 A 
ATOM     12  C   UNL     1      -8.400  10.745  18.739  1.00  0.00     0.022 A 
ATOM     13  C   UNL     1      -8.130  11.937  18.058  1.00  0.00     0.047 A 
ATOM     14  C   UNL     1      -9.167  12.641  17.432  1.00  0.00     0.115 A 
ATOM     15  C   UNL     1     -10.746  10.953  18.166  1.00  0.00     0.022 A 
ATOM     16  C   UNL     1     -10.473  12.144  17.486  1.00  0.00     0.047 A 
BRANCH  14  17
ATOM     17  O   UNL     1      -8.911  13.829  16.752  1.00  0.00    -0.508 OA
ATOM     18  H   UNL     1      -8.962  13.880  15.741  1.00  0.00     0.293 HD
ENDBRANCH  14  17
ENDBRANCH   1  11
BRANCH  10  19
ATOM     19  O   UNL     1      -8.157   9.231  21.056  1.00  0.00    -0.500 OA
ATOM     20  H   UNL     1      -7.564   9.772  20.438  1.00  0.00     0.294 HD
ENDBRANCH  10  19
BRANCH   5  21
ATOM     21  O   UNL     1     -14.125   4.604  19.239  1.00  0.00    -0.507 OA
ATOM     22  H   UNL     1     -14.050   3.807  18.618  1.00  0.00     0.293 HD
ENDBRANCH   5  21
BRANCH   7  23
ATOM     23  O   UNL     1     -10.440   4.694  22.315  1.00  0.00    -0.507 OA
ATOM     24  H   UNL     1      -9.679   5.106  22.833  1.00  0.00     0.293 HD
ENDBRANCH   7  23
TORSDOF 5
ENDMDL
MODEL 6
REMARK VINA RESULT:    21.795     10.643     11.392
REMARK INTER + INTRA:          25.973
REMARK INTER:                  26.218
REMARK INTRA:                  -0.245
REMARK UNBOUND:                 0.356
REMARK SMILES Oc1ccc(-c2[o+]c3cc(O)cc(O)c3cc2O)cc1
REMARK SMILES IDX 6 1 7 2 8 3 9 4 10 5 12 6 13 7 15 8 16 9 17 10 5 11 4 12
REMARK SMILES IDX 3 13 2 14 19 15 20 16 1 17 18 19 11 21 14 23
REMARK H PARENT 1 18 18 20 11 22 14 24
REMARK Flexibility Score: inf
ROOT
ATOM      1  C   UNL     1      -5.787   7.698  16.685  1.00  0.00     0.401 A 
ATOM      2  O   UNL     1      -6.491   7.248  15.650  1.00  0.00    -0.202 OA
ATOM      3  C   UNL     1      -6.794   5.965  15.476  1.00  0.00     0.368 A 
ATOM      4  C   UNL     1      -7.537   5.588  14.354  1.00  0.00     0.162 A 
ATOM      5  C   UNL     1      -7.866   4.246  14.145  1.00  0.00     0.128 A 
ATOM      6  C   UNL     1      -7.450   3.277  15.060  1.00  0.00     0.093 A 
ATOM      7  C   UNL     1      -6.704   3.629  16.192  1.00  0.00     0.136 A 
ATOM      8  C   UNL     1      -6.370   4.991  16.411  1.00  0.00     0.125 A 
ATOM      9  C   UNL     1      -5.637   5.437  17.524  1.00  0.00     0.078 A 
ATOM     10  C   UNL     1      -5.349   6.797  17.674  1.00  0.00     0.223 A 
ENDROOT
BRANCH   1  11
ATOM     11  C   UNL     1      -5.505   9.150  16.762  1.00  0.00     0.084 A 
ATOM     12  C   UNL     1      -6.504  10.074  17.120  1.00  0.00     0.022 A 
ATOM     13  C   UNL     1      -6.207  11.438  17.208  1.00  0.00     0.047 A 
ATOM     14  C   UNL     1      -4.907  11.893  16.953  1.00  0.00     0.115 A 
ATOM     15  C   UNL     1      -4.199   9.614  16.528  1.00  0.00     0.022 A 
ATOM     16  C   UNL     1      -3.905  10.978  16.616  1.00  0.00     0.047 A 
BRANCH  14  17
ATOM     17  O   UNL     1      -4.599  13.250  17.036  1.00  0.00    -0.508 OA
ATOM     18  H   UNL     1      -3.643  13.569  17.141  1.00  0.00     0.293 HD
ENDBRANCH  14  17
ENDBRANCH   1  11
BRANCH  10  19
ATOM     19  O   UNL     1      -4.665   7.247  18.803  1.00  0.00    -0.500 OA
ATOM     20  H   UNL     1      -3.980   7.991  18.748  1.00  0.00     0.294 HD
ENDBRANCH  10  19
BRANCH   5  21
ATOM     21  O   UNL     1      -8.607   3.863  13.029  1.00  0.00    -0.507 OA
ATOM     22  H   UNL     1      -8.796   4.509  12.271  1.00  0.00     0.293 HD
ENDBRANCH   5  21
BRANCH   7  23
ATOM     23  O   UNL     1      -6.323   2.600  17.059  1.00  0.00    -0.507 OA
ATOM     24  H   UNL     1      -5.468   2.072  16.975  1.00  0.00     0.293 HD
ENDBRANCH   7  23
TORSDOF 5
ENDMDL
MODEL 7
REMARK VINA RESULT:    22.111     10.794     11.913
REMARK INTER + INTRA:          26.345
REMARK INTER:                  26.615
REMARK INTRA:                  -0.270
REMARK UNBOUND:                 0.356
REMARK SMILES Oc1ccc(-c2[o+]c3cc(O)cc(O)c3cc2O)cc1
REMARK SMILES IDX 6 1 7 2 8 3 9 4 10 5 12 6 13 7 15 8 16 9 17 10 5 11 4 12
REMARK SMILES IDX 3 13 2 14 19 15 20 16 1 17 18 19 11 21 14 23
REMARK H PARENT 1 18 18 20 11 22 14 24
REMARK Flexibility Score: inf
ROOT
ATOM      1  C   UNL     1      -6.674   7.748  17.077  1.00  0.00     0.401 A 
ATOM      2  O   UNL     1      -7.332   7.120  16.107  1.00  0.00    -0.202 OA
ATOM      3  C   UNL     1      -6.983   5.924  15.642  1.00  0.00     0.368 A 
ATOM      4  C   UNL     1      -7.737   5.345  14.618  1.00  0.00     0.162 A 
ATOM      5  C   UNL     1      -7.388   4.091  14.108  1.00  0.00     0.128 A 
ATOM      6  C   UNL     1      -6.282   3.414  14.624  1.00  0.00     0.093 A 
ATOM      7  C   UNL     1      -5.510   3.972  15.651  1.00  0.00     0.136 A 
ATOM      8  C   UNL     1      -5.861   5.244  16.174  1.00  0.00     0.125 A 
ATOM      9  C   UNL     1      -5.154   5.875  17.211  1.00  0.00     0.078 A 
ATOM     10  C   UNL     1      -5.562   7.128  17.677  1.00  0.00     0.223 A 
ENDROOT
BRANCH   1  11
ATOM     11  C   UNL     1      -7.156   9.082  17.501  1.00  0.00     0.084 A 
ATOM     12  C   UNL     1      -6.914  10.231  16.726  1.00  0.00     0.022 A 
ATOM     13  C   UNL     1      -7.400  11.477  17.136  1.00  0.00     0.047 A 
ATOM     14  C   UNL     1      -8.144  11.587  18.318  1.00  0.00     0.115 A 
ATOM     15  C   UNL     1      -7.921   9.200  18.674  1.00  0.00     0.022 A 
ATOM     16  C   UNL     1      -8.405  10.446  19.083  1.00  0.00     0.047 A 
BRANCH  14  17
ATOM     17  O   UNL     1      -8.633  12.823  18.738  1.00  0.00    -0.508 OA
ATOM     18  H   UNL     1      -8.364  13.222  19.630  1.00  0.00     0.293 HD
ENDBRANCH  14  17
ENDBRANCH   1  11
BRANCH  10  19
ATOM     19  O   UNL     1      -4.890   7.732  18.740  1.00  0.00    -0.500 OA
ATOM     20  H   UNL     1      -4.890   8.737  18.865  1.00  0.00     0.294 HD
ENDBRANCH  10  19
BRANCH   5  21
ATOM     21  O   UNL     1      -8.136   3.508  13.087  1.00  0.00    -0.507 OA
ATOM     22  H   UNL     1      -7.796   3.478  12.132  1.00  0.00     0.293 HD
ENDBRANCH   5  21
BRANCH   7  23
ATOM     23  O   UNL     1      -4.417   3.231  16.111  1.00  0.00    -0.507 OA
ATOM     24  H   UNL     1      -4.463   2.265  16.395  1.00  0.00     0.293 HD
ENDBRANCH   7  23
TORSDOF 5
ENDMDL
