MODEL 1
REMARK VINA RESULT:    26.172      0.000      0.000
REMARK INTER + INTRA:          35.446
REMARK INTER:                  36.117
REMARK INTRA:                  -0.671
REMARK UNBOUND:                -0.671
REMARK SMILES CC[C@H](CC[C@H](C)[C@@H]1CC[C@H]2[C@@H]3CC=C4C[C@@H](O)CC[C@]4(C)[C@@H]3CC[C@@]21C)C(C)C
REMARK SMILES IDX 5 1 4 2 3 3 2 4 1 5 28 6 29 7 30 8 6 9 7 10 8 11 9 12 26 13
REMARK SMILES IDX 10 14 11 15 25 16 27 17 12 18 24 19 23 20 13 21 21 22 14 23
REMARK SMILES IDX 15 24 20 25 22 26 16 27 19 28 17 29 18 30
REMARK H PARENT 18 31
REMARK Flexibility Score: inf
ROOT
ATOM      1  C   UNL     1       3.884  12.958  12.574  1.00  0.00     0.004 C 
ENDROOT
BRANCH   1   2
ATOM      2  C   UNL     1       3.359  12.029  11.453  1.00  0.00     0.004 C 
BRANCH   2   3
ATOM      3  C   UNL     1       4.002  12.299  10.061  1.00  0.00    -0.009 C 
BRANCH   3   4
ATOM      4  C   UNL     1       2.935  12.024   8.960  1.00  0.00     0.000 C 
ATOM      5  C   UNL     1       1.494  11.987   9.467  1.00  0.00     0.004 C 
ENDBRANCH   3   4
BRANCH   3   6
ATOM      6  C   UNL     1       4.668  13.721   9.998  1.00  0.00    -0.014 C 
ATOM      7  C   UNL     1       3.883  14.748   9.168  1.00  0.00     0.007 C 
ATOM      8  C   UNL     1       6.140  13.668   9.556  1.00  0.00     0.007 C 
ENDBRANCH   3   6
ENDBRANCH   2   3
ENDBRANCH   1   2
BRANCH   1   9
ATOM      9  C   UNL     1       2.790  13.947  13.087  1.00  0.00    -0.011 C 
ATOM     10  C   UNL     1       3.407  15.371  13.186  1.00  0.00     0.008 C 
BRANCH   9  11
ATOM     11  C   UNL     1       2.190  13.492  14.465  1.00  0.00    -0.002 C 
ATOM     12  C   UNL     1       1.000  14.382  14.938  1.00  0.00     0.005 C 
ATOM     13  C   UNL     1       3.165  13.433  15.721  1.00  0.00    -0.026 C 
ATOM     14  C   UNL     1       1.223  14.697  16.413  1.00  0.00     0.005 C 
ATOM     15  C   UNL     1       2.729  14.666  16.525  1.00  0.00    -0.001 C 
ATOM     16  C   UNL     1       4.705  13.624  15.487  1.00  0.00     0.007 C 
ATOM     17  C   UNL     1       2.890  12.085  16.492  1.00  0.00     0.012 C 
ATOM     18  C   UNL     1       3.341  14.801  17.957  1.00  0.00     0.000 C 
ATOM     19  C   UNL     1       5.498  14.160  16.727  1.00  0.00     0.005 C 
ATOM     20  C   UNL     1       4.717  14.063  18.069  1.00  0.00     0.003 C 
ATOM     21  C   UNL     1       3.472  16.305  18.285  1.00  0.00     0.031 C 
ATOM     22  C   UNL     1       5.500  14.399  19.412  1.00  0.00    -0.008 C 
ATOM     23  C   UNL     1       4.325  16.618  19.469  1.00  0.00    -0.027 C 
ATOM     24  C   UNL     1       5.367  15.859  19.847  1.00  0.00    -0.065 C 
ATOM     25  C   UNL     1       7.016  14.052  19.289  1.00  0.00     0.014 C 
ATOM     26  C   UNL     1       4.876  13.531  20.545  1.00  0.00     0.016 C 
ATOM     27  C   UNL     1       6.249  16.367  20.976  1.00  0.00     0.063 C 
ATOM     28  C   UNL     1       7.850  14.467  20.510  1.00  0.00     0.033 C 
ATOM     29  C   UNL     1       7.716  15.974  20.768  1.00  0.00     0.118 C 
BRANCH  29  30
ATOM     30  O   UNL     1       8.452  16.330  21.910  1.00  0.00    -0.393 OA
ATOM     31  H   UNL     1       8.580  17.313  21.874  1.00  0.00     0.210 HD
ENDBRANCH  29  30
ENDBRANCH   9  11
ENDBRANCH   1   9
TORSDOF 7
ENDMDL
MODEL 2
REMARK VINA RESULT:    27.423      2.897      8.720
REMARK INTER + INTRA:          37.173
REMARK INTER:                  36.340
REMARK INTRA:                   0.832
REMARK UNBOUND:                -0.671
REMARK SMILES CC[C@H](CC[C@H](C)[C@@H]1CC[C@H]2[C@@H]3CC=C4C[C@@H](O)CC[C@]4(C)[C@@H]3CC[C@@]21C)C(C)C
REMARK SMILES IDX 5 1 4 2 3 3 2 4 1 5 28 6 29 7 30 8 6 9 7 10 8 11 9 12 26 13
REMARK SMILES IDX 10 14 11 15 25 16 27 17 12 18 24 19 23 20 13 21 21 22 14 23
REMARK SMILES IDX 15 24 20 25 22 26 16 27 19 28 17 29 18 30
REMARK H PARENT 18 31
REMARK Flexibility Score: inf
ROOT
ATOM      1  C   UNL     1       5.653  13.628  20.812  1.00  0.00     0.004 C 
ENDROOT
BRANCH   1   2
ATOM      2  C   UNL     1       5.746  15.146  20.524  1.00  0.00     0.004 C 
BRANCH   2   3
ATOM      3  C   UNL     1       6.678  15.916  21.506  1.00  0.00    -0.009 C 
BRANCH   3   4
ATOM      4  C   UNL     1       8.136  15.846  20.963  1.00  0.00     0.000 C 
ATOM      5  C   UNL     1       8.734  17.197  20.571  1.00  0.00     0.004 C 
ENDBRANCH   3   4
BRANCH   3   6
ATOM      6  C   UNL     1       6.145  17.367  21.790  1.00  0.00    -0.014 C 
ATOM      7  C   UNL     1       4.934  17.421  22.734  1.00  0.00     0.007 C 
ATOM      8  C   UNL     1       5.873  18.162  20.503  1.00  0.00     0.007 C 
ENDBRANCH   3   6
ENDBRANCH   2   3
ENDBRANCH   1   2
BRANCH   1   9
ATOM      9  C   UNL     1       5.029  12.834  19.621  1.00  0.00    -0.011 C 
ATOM     10  C   UNL     1       6.152  12.497  18.600  1.00  0.00     0.008 C 
BRANCH   9  11
ATOM     11  C   UNL     1       3.860  13.628  18.936  1.00  0.00    -0.002 C 
ATOM     12  C   UNL     1       2.487  12.895  19.024  1.00  0.00     0.005 C 
ATOM     13  C   UNL     1       4.013  14.002  17.398  1.00  0.00    -0.026 C 
ATOM     14  C   UNL     1       1.842  12.966  17.644  1.00  0.00     0.005 C 
ATOM     15  C   UNL     1       3.042  13.018  16.730  1.00  0.00    -0.001 C 
ATOM     16  C   UNL     1       5.394  13.750  16.695  1.00  0.00     0.007 C 
ATOM     17  C   UNL     1       3.569  15.503  17.211  1.00  0.00     0.012 C 
ATOM     18  C   UNL     1       2.770  13.250  15.208  1.00  0.00     0.000 C 
ATOM     19  C   UNL     1       5.317  13.546  15.145  1.00  0.00     0.005 C 
ATOM     20  C   UNL     1       3.965  13.985  14.513  1.00  0.00     0.003 C 
ATOM     21  C   UNL     1       2.487  11.879  14.554  1.00  0.00     0.031 C 
ATOM     22  C   UNL     1       3.853  14.001  12.927  1.00  0.00    -0.008 C 
ATOM     23  C   UNL     1       2.522  11.875  13.063  1.00  0.00    -0.027 C 
ATOM     24  C   UNL     1       3.300  12.701  12.342  1.00  0.00    -0.065 C 
ATOM     25  C   UNL     1       5.233  14.298  12.262  1.00  0.00     0.014 C 
ATOM     26  C   UNL     1       2.855  15.133  12.540  1.00  0.00     0.016 C 
ATOM     27  C   UNL     1       3.359  12.494  10.837  1.00  0.00     0.063 C 
ATOM     28  C   UNL     1       5.218  14.204  10.729  1.00  0.00     0.033 C 
ATOM     29  C   UNL     1       4.750  12.814  10.277  1.00  0.00     0.118 C 
BRANCH  29  30
ATOM     30  O   UNL     1       4.705  12.759   8.875  1.00  0.00    -0.393 OA
ATOM     31  H   UNL     1       3.786  13.022   8.608  1.00  0.00     0.210 HD
ENDBRANCH  29  30
ENDBRANCH   9  11
ENDBRANCH   1   9
TORSDOF 7
ENDMDL
MODEL 3
REMARK VINA RESULT:    28.482      0.679      1.628
REMARK INTER + INTRA:          38.634
REMARK INTER:                  39.082
REMARK INTRA:                  -0.448
REMARK UNBOUND:                -0.671
REMARK SMILES CC[C@H](CC[C@H](C)[C@@H]1CC[C@H]2[C@@H]3CC=C4C[C@@H](O)CC[C@]4(C)[C@@H]3CC[C@@]21C)C(C)C
REMARK SMILES IDX 5 1 4 2 3 3 2 4 1 5 28 6 29 7 30 8 6 9 7 10 8 11 9 12 26 13
REMARK SMILES IDX 10 14 11 15 25 16 27 17 12 18 24 19 23 20 13 21 21 22 14 23
REMARK SMILES IDX 15 24 20 25 22 26 16 27 19 28 17 29 18 30
REMARK H PARENT 18 31
REMARK Flexibility Score: inf
ROOT
ATOM      1  C   UNL     1       4.563  13.962  12.745  1.00  0.00     0.004 C 
ENDROOT
BRANCH   1   2
ATOM      2  C   UNL     1       4.628  13.062  11.487  1.00  0.00     0.004 C 
BRANCH   2   3
ATOM      3  C   UNL     1       3.797  13.602  10.285  1.00  0.00    -0.009 C 
BRANCH   3   4
ATOM      4  C   UNL     1       4.780  14.031   9.156  1.00  0.00     0.000 C 
ATOM      5  C   UNL     1       6.163  14.460   9.645  1.00  0.00     0.004 C 
ENDBRANCH   3   4
BRANCH   3   6
ATOM      6  C   UNL     1       2.687  12.580   9.845  1.00  0.00    -0.014 C 
ATOM      7  C   UNL     1       1.630  13.167   8.898  1.00  0.00     0.007 C 
ATOM      8  C   UNL     1       2.023  11.875  11.039  1.00  0.00     0.007 C 
ENDBRANCH   3   6
ENDBRANCH   2   3
ENDBRANCH   1   2
BRANCH   1   9
ATOM      9  C   UNL     1       3.110  14.445  13.054  1.00  0.00    -0.011 C 
ATOM     10  C   UNL     1       3.114  15.996  13.178  1.00  0.00     0.008 C 
BRANCH   9  11
ATOM     11  C   UNL     1       2.533  13.775  14.351  1.00  0.00    -0.002 C 
ATOM     12  C   UNL     1       1.255  14.486  14.891  1.00  0.00     0.005 C 
ATOM     13  C   UNL     1       3.487  13.657  15.618  1.00  0.00    -0.026 C 
ATOM     14  C   UNL     1       1.421  14.641  16.399  1.00  0.00     0.005 C 
ATOM     15  C   UNL     1       2.921  14.738  16.549  1.00  0.00    -0.001 C 
ATOM     16  C   UNL     1       5.006  14.018  15.453  1.00  0.00     0.007 C 
ATOM     17  C   UNL     1       3.331  12.207  16.217  1.00  0.00     0.012 C 
ATOM     18  C   UNL     1       3.492  14.757  18.004  1.00  0.00     0.000 C 
ATOM     19  C   UNL     1       5.722  14.473  16.770  1.00  0.00     0.005 C 
ATOM     20  C   UNL     1       4.931  14.144  18.068  1.00  0.00     0.003 C 
ATOM     21  C   UNL     1       3.472  16.217  18.511  1.00  0.00     0.031 C 
ATOM     22  C   UNL     1       5.654  14.388  19.463  1.00  0.00    -0.008 C 
ATOM     23  C   UNL     1       4.270  16.464  19.747  1.00  0.00    -0.027 C 
ATOM     24  C   UNL     1       5.374  15.767  20.063  1.00  0.00    -0.065 C 
ATOM     25  C   UNL     1       7.199  14.202  19.344  1.00  0.00     0.014 C 
ATOM     26  C   UNL     1       5.097  13.336  20.468  1.00  0.00     0.016 C 
ATOM     27  C   UNL     1       6.183  16.216  21.269  1.00  0.00     0.063 C 
ATOM     28  C   UNL     1       7.967  14.544  20.629  1.00  0.00     0.033 C 
ATOM     29  C   UNL     1       7.684  15.990  21.059  1.00  0.00     0.118 C 
BRANCH  29  30
ATOM     30  O   UNL     1       8.363  16.273  22.255  1.00  0.00    -0.393 OA
ATOM     31  H   UNL     1       9.003  15.529  22.404  1.00  0.00     0.210 HD
ENDBRANCH  29  30
ENDBRANCH   9  11
ENDBRANCH   1   9
TORSDOF 7
ENDMDL
MODEL 4
REMARK VINA RESULT:    28.812      1.449      2.929
REMARK INTER + INTRA:          39.090
REMARK INTER:                  38.717
REMARK INTRA:                   0.372
REMARK UNBOUND:                -0.671
REMARK SMILES CC[C@H](CC[C@H](C)[C@@H]1CC[C@H]2[C@@H]3CC=C4C[C@@H](O)CC[C@]4(C)[C@@H]3CC[C@@]21C)C(C)C
REMARK SMILES IDX 5 1 4 2 3 3 2 4 1 5 28 6 29 7 30 8 6 9 7 10 8 11 9 12 26 13
REMARK SMILES IDX 10 14 11 15 25 16 27 17 12 18 24 19 23 20 13 21 21 22 14 23
REMARK SMILES IDX 15 24 20 25 22 26 16 27 19 28 17 29 18 30
REMARK H PARENT 18 31
REMARK Flexibility Score: inf
ROOT
ATOM      1  C   UNL     1       2.279  12.051  13.007  1.00  0.00     0.004 C 
ENDROOT
BRANCH   1   2
ATOM      2  C   UNL     1       3.524  11.955  12.092  1.00  0.00     0.004 C 
BRANCH   2   3
ATOM      3  C   UNL     1       3.183  11.877  10.574  1.00  0.00    -0.009 C 
BRANCH   3   4
ATOM      4  C   UNL     1       1.634  11.875  10.413  1.00  0.00     0.000 C 
ATOM      5  C   UNL     1       1.145  11.902   8.965  1.00  0.00     0.004 C 
ENDBRANCH   3   4
BRANCH   3   6
ATOM      6  C   UNL     1       3.933  12.990   9.755  1.00  0.00    -0.014 C 
ATOM      7  C   UNL     1       5.341  12.589   9.290  1.00  0.00     0.007 C 
ATOM      8  C   UNL     1       3.960  14.344  10.482  1.00  0.00     0.007 C 
ENDBRANCH   3   6
ENDBRANCH   2   3
ENDBRANCH   1   2
BRANCH   1   9
ATOM      9  C   UNL     1       2.637  12.532  14.448  1.00  0.00    -0.011 C 
ATOM     10  C   UNL     1       1.366  13.145  15.103  1.00  0.00     0.008 C 
BRANCH   9  11
ATOM     11  C   UNL     1       3.824  13.560  14.444  1.00  0.00    -0.002 C 
ATOM     12  C   UNL     1       5.221  12.882  14.304  1.00  0.00     0.005 C 
ATOM     13  C   UNL     1       3.978  14.529  15.697  1.00  0.00    -0.026 C 
ATOM     14  C   UNL     1       6.147  13.524  15.331  1.00  0.00     0.005 C 
ATOM     15  C   UNL     1       5.186  13.923  16.426  1.00  0.00    -0.001 C 
ATOM     16  C   UNL     1       2.831  14.560  16.769  1.00  0.00     0.007 C 
ATOM     17  C   UNL     1       4.266  15.982  15.161  1.00  0.00     0.012 C 
ATOM     18  C   UNL     1       5.763  14.764  17.610  1.00  0.00     0.000 C 
ATOM     19  C   UNL     1       3.279  15.010  18.200  1.00  0.00     0.005 C 
ATOM     20  C   UNL     1       4.675  15.696  18.241  1.00  0.00     0.003 C 
ATOM     21  C   UNL     1       6.351  13.787  18.654  1.00  0.00     0.031 C 
ATOM     22  C   UNL     1       5.138  16.363  19.609  1.00  0.00    -0.008 C 
ATOM     23  C   UNL     1       6.653  14.394  19.982  1.00  0.00    -0.027 C 
ATOM     24  C   UNL     1       5.963  15.427  20.495  1.00  0.00    -0.065 C 
ATOM     25  C   UNL     1       3.917  16.879  20.432  1.00  0.00     0.014 C 
ATOM     26  C   UNL     1       6.052  17.572  19.253  1.00  0.00     0.016 C 
ATOM     27  C   UNL     1       6.269  15.854  21.921  1.00  0.00     0.063 C 
ATOM     28  C   UNL     1       4.289  17.422  21.820  1.00  0.00     0.033 C 
ATOM     29  C   UNL     1       5.011  16.348  22.645  1.00  0.00     0.118 C 
BRANCH  29  30
ATOM     30  O   UNL     1       5.378  16.874  23.894  1.00  0.00    -0.393 OA
ATOM     31  H   UNL     1       4.730  16.517  24.557  1.00  0.00     0.210 HD
ENDBRANCH  29  30
ENDBRANCH   9  11
ENDBRANCH   1   9
TORSDOF 7
ENDMDL
