MODEL 1
REMARK VINA RESULT:   110.562      0.000      0.000
REMARK INTER + INTRA:         117.025
REMARK INTER:                 117.025
REMARK INTRA:                   0.000
REMARK UNBOUND:                 0.000
REMARK SMILES C[C@H]1CC[C@@H]2[N@@H+](C1)C[C@@H]1[C@H]3C[C@@H]4[C@@H](CC(=O)[C@@H]5C[C@H](O)CC[C@@]45C)[C@H]3CC[C@@H]1[C@@]2(C)O
REMARK SMILES IDX 5 1 6 2 8 3 7 4 4 5 29 6 3 7 28 8 30 9 2 10 27 11 9 12 1 13
REMARK SMILES IDX 26 14 10 15 25 16 11 17 13 18 12 19 14 20 23 21 15 22 17 23
REMARK SMILES IDX 22 24 24 25 16 26 18 27 21 28 19 29 31 31 20 33
REMARK H PARENT 6 30 31 32 20 34
REMARK Flexibility Score: inf
ROOT
ATOM      1  C   UNL     1       8.870  68.684   5.821  1.00  0.00     0.216 C 
ATOM      2  N   UNL     1       8.535  67.242   5.647  1.00  0.00    -0.330 N 
ATOM      3  C   UNL     1       7.460  67.079   4.640  1.00  0.00     0.266 C 
ATOM      4  C   UNL     1       8.039  66.637   6.914  1.00  0.00     0.265 C 
ATOM      5  C   UNL     1       9.865  68.900   6.995  1.00  0.00     0.069 C 
ATOM      6  C   UNL     1       9.381  69.349   4.483  1.00  0.00     0.117 C 
ATOM      7  C   UNL     1       9.339  68.294   8.292  1.00  0.00     0.015 C 
ATOM      8  C   UNL     1       8.359  69.050   3.319  1.00  0.00     0.036 C 
ATOM      9  C   UNL     1      10.823  68.915   4.130  1.00  0.00     0.049 C 
ATOM     10  C   UNL     1       9.000  66.811   8.105  1.00  0.00     0.041 C 
ATOM     11  C   UNL     1       8.746  69.610   1.928  1.00  0.00     0.007 C 
ATOM     12  C   UNL     1       7.835  67.595   3.233  1.00  0.00     0.054 C 
ATOM     13  C   UNL     1      10.249  65.923   7.980  1.00  0.00     0.013 C 
ATOM     14  C   UNL     1       9.609  68.679   1.060  1.00  0.00     0.004 C 
ATOM     15  C   UNL     1       8.733  66.616   2.420  1.00  0.00     0.002 C 
ATOM     16  C   UNL     1       9.207  67.190   1.076  1.00  0.00    -0.004 C 
ATOM     17  C   UNL     1       7.999  65.311   2.028  1.00  0.00     0.009 C 
ATOM     18  C   UNL     1       8.215  66.725  -0.006  1.00  0.00     0.003 C 
ATOM     19  C   UNL     1       7.697  65.358   0.510  1.00  0.00    -0.000 C 
ATOM     20  C   UNL     1       7.096  67.725  -0.386  1.00  0.00     0.080 C 
ATOM     21  C   UNL     1       6.234  64.955   0.044  1.00  0.00    -0.020 C 
ATOM     22  C   UNL     1       6.074  67.081  -1.286  1.00  0.00     0.136 C 
ATOM     23  C   UNL     1       6.008  65.570  -1.378  1.00  0.00     0.065 C 
ATOM     24  C   UNL     1       6.148  63.404  -0.065  1.00  0.00     0.010 C 
ATOM     25  C   UNL     1       5.137  65.449   1.042  1.00  0.00     0.012 C 
ATOM     26  O   UNL     1       5.314  67.785  -1.933  1.00  0.00    -0.299 OA
ATOM     27  C   UNL     1       4.722  65.063  -2.075  1.00  0.00     0.043 C 
ATOM     28  C   UNL     1       4.845  62.925  -0.726  1.00  0.00     0.032 C 
ATOM     29  C   UNL     1       4.685  63.530  -2.129  1.00  0.00     0.115 C 
ATOM     30  H   UNL     1       9.379  66.712   5.333  1.00  0.00     0.348 HD
ENDROOT
BRANCH   6  31
ATOM     31  O   UNL     1       9.445  70.748   4.673  1.00  0.00    -0.384 OA
ATOM     32  H   UNL     1       8.818  71.004   5.398  1.00  0.00     0.211 HD
ENDBRANCH   6  31
BRANCH  29  33
ATOM     33  O   UNL     1       3.463  63.121  -2.686  1.00  0.00    -0.393 OA
ATOM     34  H   UNL     1       3.056  63.924  -3.105  1.00  0.00     0.210 HD
ENDBRANCH  29  33
TORSDOF 2
ENDMDL
MODEL 2
REMARK VINA RESULT:   113.208      7.036     10.392
REMARK INTER + INTRA:         119.826
REMARK INTER:                 119.826
REMARK INTRA:                   0.000
REMARK UNBOUND:                 0.000
REMARK SMILES C[C@H]1CC[C@@H]2[N@@H+](C1)C[C@@H]1[C@H]3C[C@@H]4[C@@H](CC(=O)[C@@H]5C[C@H](O)CC[C@@]45C)[C@H]3CC[C@@H]1[C@@]2(C)O
REMARK SMILES IDX 5 1 6 2 8 3 7 4 4 5 29 6 3 7 28 8 30 9 2 10 27 11 9 12 1 13
REMARK SMILES IDX 26 14 10 15 25 16 11 17 13 18 12 19 14 20 23 21 15 22 17 23
REMARK SMILES IDX 22 24 24 25 16 26 18 27 21 28 19 29 31 31 20 33
REMARK H PARENT 6 30 31 32 20 34
REMARK Flexibility Score: inf
ROOT
ATOM      1  C   UNL     1      12.859  78.340   3.296  1.00  0.00     0.216 C 
ATOM      2  N   UNL     1      12.019  77.559   2.343  1.00  0.00    -0.330 N 
ATOM      3  C   UNL     1      12.078  76.115   2.666  1.00  0.00     0.266 C 
ATOM      4  C   UNL     1      12.494  77.713   0.940  1.00  0.00     0.265 C 
ATOM      5  C   UNL     1      12.958  79.833   2.877  1.00  0.00     0.069 C 
ATOM      6  C   UNL     1      12.381  78.177   4.792  1.00  0.00     0.117 C 
ATOM      7  C   UNL     1      13.465  79.979   1.445  1.00  0.00     0.015 C 
ATOM      8  C   UNL     1      12.246  76.644   5.141  1.00  0.00     0.036 C 
ATOM      9  C   UNL     1      11.082  78.964   5.079  1.00  0.00     0.049 C 
ATOM     10  C   UNL     1      12.594  79.176   0.473  1.00  0.00     0.041 C 
ATOM     11  C   UNL     1      11.749  76.324   6.572  1.00  0.00     0.007 C 
ATOM     12  C   UNL     1      11.550  75.764   4.075  1.00  0.00     0.054 C 
ATOM     13  C   UNL     1      11.212  79.810   0.244  1.00  0.00     0.013 C 
ATOM     14  C   UNL     1      10.222  76.229   6.732  1.00  0.00     0.004 C 
ATOM     15  C   UNL     1       9.996  75.712   4.172  1.00  0.00     0.002 C 
ATOM     16  C   UNL     1       9.478  75.490   5.601  1.00  0.00    -0.004 C 
ATOM     17  C   UNL     1       9.382  74.541   3.368  1.00  0.00     0.009 C 
ATOM     18  C   UNL     1       9.253  73.978   5.786  1.00  0.00     0.003 C 
ATOM     19  C   UNL     1       8.890  73.467   4.368  1.00  0.00    -0.000 C 
ATOM     20  C   UNL     1      10.400  73.194   6.468  1.00  0.00     0.080 C 
ATOM     21  C   UNL     1       9.269  71.956   4.063  1.00  0.00    -0.020 C 
ATOM     22  C   UNL     1      10.159  71.708   6.399  1.00  0.00     0.136 C 
ATOM     23  C   UNL     1       9.154  71.161   5.407  1.00  0.00     0.065 C 
ATOM     24  C   UNL     1       8.240  71.372   3.050  1.00  0.00     0.010 C 
ATOM     25  C   UNL     1      10.703  71.815   3.457  1.00  0.00     0.012 C 
ATOM     26  O   UNL     1      10.775  70.963   7.147  1.00  0.00    -0.299 OA
ATOM     27  C   UNL     1       9.252  69.627   5.230  1.00  0.00     0.043 C 
ATOM     28  C   UNL     1       8.384  69.853   2.863  1.00  0.00     0.032 C 
ATOM     29  C   UNL     1       8.232  69.117   4.202  1.00  0.00     0.115 C 
ATOM     30  H   UNL     1      11.025  77.879   2.395  1.00  0.00     0.348 HD
ENDROOT
BRANCH   6  31
ATOM     31  O   UNL     1      13.359  78.744   5.640  1.00  0.00    -0.384 OA
ATOM     32  H   UNL     1      13.584  78.092   6.354  1.00  0.00     0.211 HD
ENDBRANCH   6  31
BRANCH  29  33
ATOM     33  O   UNL     1       8.422  67.740   4.012  1.00  0.00    -0.393 OA
ATOM     34  H   UNL     1       7.579  67.385   3.624  1.00  0.00     0.210 HD
ENDBRANCH  29  33
TORSDOF 2
ENDMDL
