MODEL 1
REMARK VINA RESULT:    -6.211      0.000      0.000
REMARK INTER + INTRA:          -9.529
REMARK INTER:                  -8.570
REMARK INTRA:                  -0.959
REMARK UNBOUND:                -0.959
REMARK SMILES CC[C@H](CC[C@H](C)[C@@H]1CC[C@H]2[C@@H]3CC=C4C[C@@H](O)CC[C@]4(C)[C@@H]3CC[C@@]21C)C(C)C
REMARK SMILES IDX 5 1 4 2 3 3 2 4 1 5 28 6 29 7 30 8 6 9 7 10 8 11 9 12 26 13
REMARK SMILES IDX 10 14 11 15 25 16 27 17 12 18 24 19 23 20 13 21 21 22 14 23
REMARK SMILES IDX 15 24 20 25 22 26 16 27 19 28 17 29 18 30
REMARK H PARENT 18 31
REMARK Flexibility Score: inf
ROOT
ATOM      1  C   UNL     1      21.561  29.967  20.366  1.00  0.00     0.004 C 
ENDROOT
BRANCH   1   2
ATOM      2  C   UNL     1      21.518  30.858  19.097  1.00  0.00     0.004 C 
BRANCH   2   3
ATOM      3  C   UNL     1      22.121  30.153  17.847  1.00  0.00    -0.009 C 
BRANCH   3   4
ATOM      4  C   UNL     1      21.498  28.741  17.640  1.00  0.00     0.000 C 
ATOM      5  C   UNL     1      22.457  27.601  18.004  1.00  0.00     0.004 C 
ENDBRANCH   3   4
BRANCH   3   6
ATOM      6  C   UNL     1      22.000  31.046  16.561  1.00  0.00    -0.014 C 
ATOM      7  C   UNL     1      20.550  31.466  16.229  1.00  0.00     0.007 C 
ATOM      8  C   UNL     1      22.652  30.362  15.338  1.00  0.00     0.007 C 
ENDBRANCH   3   6
ENDBRANCH   2   3
ENDBRANCH   1   2
BRANCH   1   9
ATOM      9  C   UNL     1      22.716  30.227  21.378  1.00  0.00    -0.011 C 
ATOM     10  C   UNL     1      24.016  30.647  20.666  1.00  0.00     0.008 C 
BRANCH   9  11
ATOM     11  C   UNL     1      23.006  29.155  22.488  1.00  0.00    -0.002 C 
ATOM     12  C   UNL     1      22.096  27.895  22.439  1.00  0.00     0.005 C 
ATOM     13  C   UNL     1      22.997  29.586  24.000  1.00  0.00    -0.026 C 
ATOM     14  C   UNL     1      21.356  27.801  23.780  1.00  0.00     0.005 C 
ATOM     15  C   UNL     1      21.592  29.150  24.436  1.00  0.00    -0.001 C 
ATOM     16  C   UNL     1      23.181  31.112  24.359  1.00  0.00     0.007 C 
ATOM     17  C   UNL     1      24.125  28.737  24.688  1.00  0.00     0.012 C 
ATOM     18  C   UNL     1      21.300  29.271  25.969  1.00  0.00     0.000 C 
ATOM     19  C   UNL     1      22.274  31.608  25.531  1.00  0.00     0.005 C 
ATOM     20  C   UNL     1      22.064  30.491  26.598  1.00  0.00     0.003 C 
ATOM     21  C   UNL     1      19.767  29.397  26.147  1.00  0.00     0.031 C 
ATOM     22  C   UNL     1      21.547  30.885  28.051  1.00  0.00    -0.008 C 
ATOM     23  C   UNL     1      19.330  29.844  27.500  1.00  0.00    -0.027 C 
ATOM     24  C   UNL     1      20.041  30.687  28.256  1.00  0.00    -0.065 C 
ATOM     25  C   UNL     1      21.886  32.364  28.390  1.00  0.00     0.014 C 
ATOM     26  C   UNL     1      22.271  29.949  29.071  1.00  0.00     0.016 C 
ATOM     27  C   UNL     1      19.399  31.219  29.530  1.00  0.00     0.063 C 
ATOM     28  C   UNL     1      21.366  32.806  29.763  1.00  0.00     0.033 C 
ATOM     29  C   UNL     1      19.840  32.662  29.834  1.00  0.00     0.118 C 
BRANCH  29  30
ATOM     30  O   UNL     1      19.410  33.032  31.115  1.00  0.00    -0.393 OA
ATOM     31  H   UNL     1      19.829  33.911  31.318  1.00  0.00     0.210 HD
ENDBRANCH  29  30
ENDBRANCH   9  11
ENDBRANCH   1   9
TORSDOF 7
ENDMDL
MODEL 2
REMARK VINA RESULT:    -5.530      2.231      3.614
REMARK INTER + INTRA:          -8.591
REMARK INTER:                  -8.499
REMARK INTRA:                  -0.091
REMARK UNBOUND:                -0.959
REMARK SMILES CC[C@H](CC[C@H](C)[C@@H]1CC[C@H]2[C@@H]3CC=C4C[C@@H](O)CC[C@]4(C)[C@@H]3CC[C@@]21C)C(C)C
REMARK SMILES IDX 5 1 4 2 3 3 2 4 1 5 28 6 29 7 30 8 6 9 7 10 8 11 9 12 26 13
REMARK SMILES IDX 10 14 11 15 25 16 27 17 12 18 24 19 23 20 13 21 21 22 14 23
REMARK SMILES IDX 15 24 20 25 22 26 16 27 19 28 17 29 18 30
REMARK H PARENT 18 31
REMARK Flexibility Score: inf
ROOT
ATOM      1  C   UNL     1      24.044  28.297  19.016  1.00  0.00     0.004 C 
ENDROOT
BRANCH   1   2
ATOM      2  C   UNL     1      23.967  29.599  18.178  1.00  0.00     0.004 C 
BRANCH   2   3
ATOM      3  C   UNL     1      22.687  29.671  17.295  1.00  0.00    -0.009 C 
BRANCH   3   4
ATOM      4  C   UNL     1      22.000  28.278  17.182  1.00  0.00     0.000 C 
ATOM      5  C   UNL     1      22.075  27.682  15.771  1.00  0.00     0.004 C 
ENDBRANCH   3   4
BRANCH   3   6
ATOM      6  C   UNL     1      21.695  30.780  17.797  1.00  0.00    -0.014 C 
ATOM      7  C   UNL     1      20.720  30.292  18.893  1.00  0.00     0.007 C 
ATOM      8  C   UNL     1      20.910  31.405  16.622  1.00  0.00     0.007 C 
ENDBRANCH   3   6
ENDBRANCH   2   3
ENDBRANCH   1   2
BRANCH   1   9
ATOM      9  C   UNL     1      24.035  28.448  20.567  1.00  0.00    -0.011 C 
ATOM     10  C   UNL     1      24.032  27.080  21.275  1.00  0.00     0.008 C 
BRANCH   9  11
ATOM     11  C   UNL     1      22.994  29.423  21.226  1.00  0.00    -0.002 C 
ATOM     12  C   UNL     1      23.454  30.904  21.330  1.00  0.00     0.005 C 
ATOM     13  C   UNL     1      22.421  29.090  22.652  1.00  0.00    -0.026 C 
ATOM     14  C   UNL     1      23.440  31.294  22.814  1.00  0.00     0.005 C 
ATOM     15  C   UNL     1      23.295  29.974  23.550  1.00  0.00    -0.001 C 
ATOM     16  C   UNL     1      22.503  27.604  23.180  1.00  0.00     0.007 C 
ATOM     17  C   UNL     1      20.923  29.564  22.625  1.00  0.00     0.012 C 
ATOM     18  C   UNL     1      22.870  30.027  25.055  1.00  0.00     0.000 C 
ATOM     19  C   UNL     1      22.864  27.483  24.696  1.00  0.00     0.005 C 
ATOM     20  C   UNL     1      22.256  28.658  25.520  1.00  0.00     0.003 C 
ATOM     21  C   UNL     1      24.120  30.410  25.885  1.00  0.00     0.031 C 
ATOM     22  C   UNL     1      22.129  28.521  27.101  1.00  0.00    -0.008 C 
ATOM     23  C   UNL     1      23.985  30.192  27.353  1.00  0.00    -0.027 C 
ATOM     24  C   UNL     1      23.259  29.201  27.881  1.00  0.00    -0.065 C 
ATOM     25  C   UNL     1      22.077  27.029  27.536  1.00  0.00     0.014 C 
ATOM     26  C   UNL     1      20.799  29.222  27.523  1.00  0.00     0.016 C 
ATOM     27  C   UNL     1      23.357  28.965  29.383  1.00  0.00     0.063 C 
ATOM     28  C   UNL     1      22.004  26.844  29.056  1.00  0.00     0.033 C 
ATOM     29  C   UNL     1      23.226  27.474  29.737  1.00  0.00     0.118 C 
BRANCH  29  30
ATOM     30  O   UNL     1      23.098  27.323  31.125  1.00  0.00    -0.393 OA
ATOM     31  H   UNL     1      23.072  28.238  31.514  1.00  0.00     0.210 HD
ENDBRANCH  29  30
ENDBRANCH   9  11
ENDBRANCH   1   9
TORSDOF 7
ENDMDL
MODEL 3
REMARK VINA RESULT:    -5.207      1.244      1.924
REMARK INTER + INTRA:          -8.145
REMARK INTER:                  -7.351
REMARK INTRA:                  -0.795
REMARK UNBOUND:                -0.959
REMARK SMILES CC[C@H](CC[C@H](C)[C@@H]1CC[C@H]2[C@@H]3CC=C4C[C@@H](O)CC[C@]4(C)[C@@H]3CC[C@@]21C)C(C)C
REMARK SMILES IDX 5 1 4 2 3 3 2 4 1 5 28 6 29 7 30 8 6 9 7 10 8 11 9 12 26 13
REMARK SMILES IDX 10 14 11 15 25 16 27 17 12 18 24 19 23 20 13 21 21 22 14 23
REMARK SMILES IDX 15 24 20 25 22 26 16 27 19 28 17 29 18 30
REMARK H PARENT 18 31
REMARK Flexibility Score: inf
ROOT
ATOM      1  C   UNL     1      22.140  29.649  21.467  1.00  0.00     0.004 C 
ENDROOT
BRANCH   1   2
ATOM      2  C   UNL     1      22.288  30.335  20.084  1.00  0.00     0.004 C 
BRANCH   2   3
ATOM      3  C   UNL     1      21.599  29.535  18.939  1.00  0.00    -0.009 C 
BRANCH   3   4
ATOM      4  C   UNL     1      20.407  30.332  18.332  1.00  0.00     0.000 C 
ATOM      5  C   UNL     1      20.827  31.263  17.187  1.00  0.00     0.004 C 
ENDBRANCH   3   4
BRANCH   3   6
ATOM      6  C   UNL     1      22.629  29.086  17.843  1.00  0.00    -0.014 C 
ATOM      7  C   UNL     1      22.699  27.554  17.646  1.00  0.00     0.007 C 
ATOM      8  C   UNL     1      24.038  29.653  18.128  1.00  0.00     0.007 C 
ENDBRANCH   3   6
ENDBRANCH   2   3
ENDBRANCH   1   2
BRANCH   1   9
ATOM      9  C   UNL     1      23.377  28.873  22.011  1.00  0.00    -0.011 C 
ATOM     10  C   UNL     1      24.125  28.130  20.887  1.00  0.00     0.008 C 
BRANCH   9  11
ATOM     11  C   UNL     1      23.200  27.951  23.270  1.00  0.00    -0.002 C 
ATOM     12  C   UNL     1      21.861  27.162  23.324  1.00  0.00     0.005 C 
ATOM     13  C   UNL     1      23.348  28.571  24.707  1.00  0.00    -0.026 C 
ATOM     14  C   UNL     1      21.131  27.569  24.610  1.00  0.00     0.005 C 
ATOM     15  C   UNL     1      21.881  28.796  25.097  1.00  0.00    -0.001 C 
ATOM     16  C   UNL     1      24.125  29.934  24.874  1.00  0.00     0.007 C 
ATOM     17  C   UNL     1      24.031  27.457  25.578  1.00  0.00     0.012 C 
ATOM     18  C   UNL     1      21.644  29.249  26.577  1.00  0.00     0.000 C 
ATOM     19  C   UNL     1      23.480  30.917  25.904  1.00  0.00     0.005 C 
ATOM     20  C   UNL     1      22.827  30.146  27.091  1.00  0.00     0.003 C 
ATOM     21  C   UNL     1      20.289  29.996  26.629  1.00  0.00     0.031 C 
ATOM     22  C   UNL     1      22.495  30.924  28.441  1.00  0.00    -0.008 C 
ATOM     23  C   UNL     1      20.054  30.775  27.878  1.00  0.00    -0.027 C 
ATOM     24  C   UNL     1      21.035  31.371  28.564  1.00  0.00    -0.065 C 
ATOM     25  C   UNL     1      23.396  32.180  28.604  1.00  0.00     0.014 C 
ATOM     26  C   UNL     1      22.771  29.941  29.623  1.00  0.00     0.016 C 
ATOM     27  C   UNL     1      20.646  32.297  29.709  1.00  0.00     0.063 C 
ATOM     28  C   UNL     1      23.081  32.991  29.867  1.00  0.00     0.033 C 
ATOM     29  C   UNL     1      21.625  33.474  29.850  1.00  0.00     0.118 C 
BRANCH  29  30
ATOM     30  O   UNL     1      21.366  34.171  31.038  1.00  0.00    -0.393 OA
ATOM     31  H   UNL     1      20.679  33.650  31.535  1.00  0.00     0.210 HD
ENDBRANCH  29  30
ENDBRANCH   9  11
ENDBRANCH   1   9
TORSDOF 7
ENDMDL
MODEL 4
REMARK VINA RESULT:    -4.629      3.146      9.304
REMARK INTER + INTRA:          -7.347
REMARK INTER:                  -6.080
REMARK INTRA:                  -1.267
REMARK UNBOUND:                -0.959
REMARK SMILES CC[C@H](CC[C@H](C)[C@@H]1CC[C@H]2[C@@H]3CC=C4C[C@@H](O)CC[C@]4(C)[C@@H]3CC[C@@]21C)C(C)C
REMARK SMILES IDX 5 1 4 2 3 3 2 4 1 5 28 6 29 7 30 8 6 9 7 10 8 11 9 12 26 13
REMARK SMILES IDX 10 14 11 15 25 16 27 17 12 18 24 19 23 20 13 21 21 22 14 23
REMARK SMILES IDX 15 24 20 25 22 26 16 27 19 28 17 29 18 30
REMARK H PARENT 18 31
REMARK Flexibility Score: inf
ROOT
ATOM      1  C   UNL     1      19.962  31.092  27.846  1.00  0.00     0.004 C 
ENDROOT
BRANCH   1   2
ATOM      2  C   UNL     1      19.810  30.294  29.166  1.00  0.00     0.004 C 
BRANCH   2   3
ATOM      3  C   UNL     1      20.833  30.731  30.255  1.00  0.00    -0.009 C 
BRANCH   3   4
ATOM      4  C   UNL     1      21.853  29.596  30.560  1.00  0.00     0.000 C 
ATOM      5  C   UNL     1      21.734  28.405  29.601  1.00  0.00     0.004 C 
ENDBRANCH   3   4
BRANCH   3   6
ATOM      6  C   UNL     1      21.545  32.079  29.876  1.00  0.00    -0.014 C 
ATOM      7  C   UNL     1      23.076  32.056  30.091  1.00  0.00     0.007 C 
ATOM      8  C   UNL     1      20.917  33.276  30.623  1.00  0.00     0.007 C 
ENDBRANCH   3   6
ENDBRANCH   2   3
ENDBRANCH   1   2
BRANCH   1   9
ATOM      9  C   UNL     1      20.151  30.269  26.536  1.00  0.00    -0.011 C 
ATOM     10  C   UNL     1      18.976  29.301  26.295  1.00  0.00     0.008 C 
BRANCH   9  11
ATOM     11  C   UNL     1      21.526  29.554  26.282  1.00  0.00    -0.002 C 
ATOM     12  C   UNL     1      22.779  30.365  26.719  1.00  0.00     0.005 C 
ATOM     13  C   UNL     1      21.875  29.043  24.837  1.00  0.00    -0.026 C 
ATOM     14  C   UNL     1      23.657  30.573  25.479  1.00  0.00     0.005 C 
ATOM     15  C   UNL     1      22.765  30.180  24.315  1.00  0.00    -0.001 C 
ATOM     16  C   UNL     1      20.703  28.811  23.805  1.00  0.00     0.007 C 
ATOM     17  C   UNL     1      22.676  27.708  25.043  1.00  0.00     0.012 C 
ATOM     18  C   UNL     1      23.451  29.912  22.934  1.00  0.00     0.000 C 
ATOM     19  C   UNL     1      21.035  29.263  22.346  1.00  0.00     0.005 C 
ATOM     20  C   UNL     1      22.539  29.029  22.008  1.00  0.00     0.003 C 
ATOM     21  C   UNL     1      23.768  31.284  22.291  1.00  0.00     0.031 C 
ATOM     22  C   UNL     1      23.005  29.011  20.486  1.00  0.00    -0.008 C 
ATOM     23  C   UNL     1      24.123  31.229  20.845  1.00  0.00    -0.027 C 
ATOM     24  C   UNL     1      23.603  30.334  19.998  1.00  0.00    -0.065 C 
ATOM     25  C   UNL     1      21.828  28.639  19.540  1.00  0.00     0.014 C 
ATOM     26  C   UNL     1      24.125  27.930  20.356  1.00  0.00     0.016 C 
ATOM     27  C   UNL     1      23.895  30.503  18.513  1.00  0.00     0.063 C 
ATOM     28  C   UNL     1      22.216  28.656  18.056  1.00  0.00     0.033 C 
ATOM     29  C   UNL     1      22.711  30.048  17.642  1.00  0.00     0.118 C 
BRANCH  29  30
ATOM     30  O   UNL     1      23.096  30.009  16.296  1.00  0.00    -0.393 OA
ATOM     31  H   UNL     1      23.192  30.952  15.994  1.00  0.00     0.210 HD
ENDBRANCH  29  30
ENDBRANCH   9  11
ENDBRANCH   1   9
TORSDOF 7
ENDMDL
MODEL 5
REMARK VINA RESULT:    -4.580      3.103      9.416
REMARK INTER + INTRA:          -7.280
REMARK INTER:                  -7.107
REMARK INTRA:                  -0.173
REMARK UNBOUND:                -0.959
REMARK SMILES CC[C@H](CC[C@H](C)[C@@H]1CC[C@H]2[C@@H]3CC=C4C[C@@H](O)CC[C@]4(C)[C@@H]3CC[C@@]21C)C(C)C
REMARK SMILES IDX 5 1 4 2 3 3 2 4 1 5 28 6 29 7 30 8 6 9 7 10 8 11 9 12 26 13
REMARK SMILES IDX 10 14 11 15 25 16 27 17 12 18 24 19 23 20 13 21 21 22 14 23
REMARK SMILES IDX 15 24 20 25 22 26 16 27 19 28 17 29 18 30
REMARK H PARENT 18 31
REMARK Flexibility Score: inf
ROOT
ATOM      1  C   UNL     1      19.974  30.304  28.422  1.00  0.00     0.004 C 
ENDROOT
BRANCH   1   2
ATOM      2  C   UNL     1      20.220  31.788  28.800  1.00  0.00     0.004 C 
BRANCH   2   3
ATOM      3  C   UNL     1      20.067  32.053  30.326  1.00  0.00    -0.009 C 
BRANCH   3   4
ATOM      4  C   UNL     1      21.028  33.181  30.803  1.00  0.00     0.000 C 
ATOM      5  C   UNL     1      22.363  33.193  30.048  1.00  0.00     0.004 C 
ENDBRANCH   3   4
BRANCH   3   6
ATOM      6  C   UNL     1      18.575  32.344  30.719  1.00  0.00    -0.014 C 
ATOM      7  C   UNL     1      17.763  31.073  31.062  1.00  0.00     0.007 C 
ATOM      8  C   UNL     1      17.853  33.159  29.623  1.00  0.00     0.007 C 
ENDBRANCH   3   6
ENDBRANCH   2   3
ENDBRANCH   1   2
BRANCH   1   9
ATOM      9  C   UNL     1      20.271  29.887  26.950  1.00  0.00    -0.011 C 
ATOM     10  C   UNL     1      19.099  29.104  26.330  1.00  0.00     0.008 C 
BRANCH   9  11
ATOM     11  C   UNL     1      21.643  29.196  26.622  1.00  0.00    -0.002 C 
ATOM     12  C   UNL     1      22.902  29.980  27.086  1.00  0.00     0.005 C 
ATOM     13  C   UNL     1      21.963  28.782  25.139  1.00  0.00    -0.026 C 
ATOM     14  C   UNL     1      23.754  30.273  25.845  1.00  0.00     0.005 C 
ATOM     15  C   UNL     1      22.839  29.954  24.676  1.00  0.00    -0.001 C 
ATOM     16  C   UNL     1      20.771  28.615  24.119  1.00  0.00     0.007 C 
ATOM     17  C   UNL     1      22.771  27.439  25.241  1.00  0.00     0.012 C 
ATOM     18  C   UNL     1      23.499  29.780  23.267  1.00  0.00     0.000 C 
ATOM     19  C   UNL     1      21.072  29.163  22.686  1.00  0.00     0.005 C 
ATOM     20  C   UNL     1      22.569  28.957  22.303  1.00  0.00     0.003 C 
ATOM     21  C   UNL     1      23.799  31.193  22.709  1.00  0.00     0.031 C 
ATOM     22  C   UNL     1      23.004  29.040  20.774  1.00  0.00    -0.008 C 
ATOM     23  C   UNL     1      24.125  31.234  21.256  1.00  0.00    -0.027 C 
ATOM     24  C   UNL     1      23.590  30.395  20.363  1.00  0.00    -0.065 C 
ATOM     25  C   UNL     1      21.809  28.728  19.829  1.00  0.00     0.014 C 
ATOM     26  C   UNL     1      24.124  27.974  20.551  1.00  0.00     0.016 C 
ATOM     27  C   UNL     1      23.850  30.663  18.886  1.00  0.00     0.063 C 
ATOM     28  C   UNL     1      22.167  28.843  18.343  1.00  0.00     0.033 C 
ATOM     29  C   UNL     1      22.650  30.262  18.012  1.00  0.00     0.118 C 
BRANCH  29  30
ATOM     30  O   UNL     1      23.008  30.312  16.658  1.00  0.00    -0.393 OA
ATOM     31  H   UNL     1      22.226  30.682  16.165  1.00  0.00     0.210 HD
ENDBRANCH  29  30
ENDBRANCH   9  11
ENDBRANCH   1   9
TORSDOF 7
ENDMDL
MODEL 6
REMARK VINA RESULT:    -4.373      3.570      9.476
REMARK INTER + INTRA:          -6.993
REMARK INTER:                  -6.319
REMARK INTRA:                  -0.674
REMARK UNBOUND:                -0.959
REMARK SMILES CC[C@H](CC[C@H](C)[C@@H]1CC[C@H]2[C@@H]3CC=C4C[C@@H](O)CC[C@]4(C)[C@@H]3CC[C@@]21C)C(C)C
REMARK SMILES IDX 5 1 4 2 3 3 2 4 1 5 28 6 29 7 30 8 6 9 7 10 8 11 9 12 26 13
REMARK SMILES IDX 10 14 11 15 25 16 27 17 12 18 24 19 23 20 13 21 21 22 14 23
REMARK SMILES IDX 15 24 20 25 22 26 16 27 19 28 17 29 18 30
REMARK H PARENT 18 31
REMARK Flexibility Score: inf
ROOT
ATOM      1  C   UNL     1      24.090  29.722  26.510  1.00  0.00     0.004 C 
ENDROOT
BRANCH   1   2
ATOM      2  C   UNL     1      23.101  30.217  27.597  1.00  0.00     0.004 C 
BRANCH   2   3
ATOM      3  C   UNL     1      21.893  29.255  27.795  1.00  0.00    -0.009 C 
BRANCH   3   4
ATOM      4  C   UNL     1      22.321  27.957  28.540  1.00  0.00     0.000 C 
ATOM      5  C   UNL     1      21.776  26.681  27.886  1.00  0.00     0.004 C 
ENDBRANCH   3   4
BRANCH   3   6
ATOM      6  C   UNL     1      20.689  29.972  28.503  1.00  0.00    -0.014 C 
ATOM      7  C   UNL     1      20.618  31.492  28.224  1.00  0.00     0.007 C 
ATOM      8  C   UNL     1      20.693  29.708  30.025  1.00  0.00     0.007 C 
ENDBRANCH   3   6
ENDBRANCH   2   3
ENDBRANCH   1   2
BRANCH   1   9
ATOM      9  C   UNL     1      23.695  29.974  25.023  1.00  0.00    -0.011 C 
ATOM     10  C   UNL     1      23.402  31.463  24.755  1.00  0.00     0.008 C 
BRANCH   9  11
ATOM     11  C   UNL     1      22.601  29.060  24.364  1.00  0.00    -0.002 C 
ATOM     12  C   UNL     1      22.855  27.532  24.495  1.00  0.00     0.005 C 
ATOM     13  C   UNL     1      22.232  29.268  22.850  1.00  0.00    -0.026 C 
ATOM     14  C   UNL     1      22.939  26.950  23.078  1.00  0.00     0.005 C 
ATOM     15  C   UNL     1      23.061  28.166  22.177  1.00  0.00    -0.001 C 
ATOM     16  C   UNL     1      22.578  30.646  22.162  1.00  0.00     0.007 C 
ATOM     17  C   UNL     1      20.688  28.996  22.751  1.00  0.00     0.012 C 
ATOM     18  C   UNL     1      22.791  27.965  20.649  1.00  0.00     0.000 C 
ATOM     19  C   UNL     1      23.109  30.514  20.698  1.00  0.00     0.005 C 
ATOM     20  C   UNL     1      22.429  29.326  19.952  1.00  0.00     0.003 C 
ATOM     21  C   UNL     1      24.053  27.318  20.029  1.00  0.00     0.031 C 
ATOM     22  C   UNL     1      22.488  29.263  18.363  1.00  0.00    -0.008 C 
ATOM     23  C   UNL     1      24.104  27.351  18.539  1.00  0.00    -0.027 C 
ATOM     24  C   UNL     1      23.584  28.346  17.812  1.00  0.00    -0.065 C 
ATOM     25  C   UNL     1      22.693  30.677  17.749  1.00  0.00     0.014 C 
ATOM     26  C   UNL     1      21.123  28.687  17.870  1.00  0.00     0.016 C 
ATOM     27  C   UNL     1      23.871  28.362  16.316  1.00  0.00     0.063 C 
ATOM     28  C   UNL     1      22.805  30.663  16.220  1.00  0.00     0.033 C 
ATOM     29  C   UNL     1      23.990  29.796  15.773  1.00  0.00     0.118 C 
BRANCH  29  30
ATOM     30  O   UNL     1      24.030  29.773  14.372  1.00  0.00    -0.393 OA
ATOM     31  H   UNL     1      23.792  30.688  14.061  1.00  0.00     0.210 HD
ENDBRANCH  29  30
ENDBRANCH   9  11
ENDBRANCH   1   9
TORSDOF 7
ENDMDL
MODEL 7
REMARK VINA RESULT:    -4.319      3.524      9.395
REMARK INTER + INTRA:          -6.920
REMARK INTER:                  -6.778
REMARK INTRA:                  -0.141
REMARK UNBOUND:                -0.959
REMARK SMILES CC[C@H](CC[C@H](C)[C@@H]1CC[C@H]2[C@@H]3CC=C4C[C@@H](O)CC[C@]4(C)[C@@H]3CC[C@@]21C)C(C)C
REMARK SMILES IDX 5 1 4 2 3 3 2 4 1 5 28 6 29 7 30 8 6 9 7 10 8 11 9 12 26 13
REMARK SMILES IDX 10 14 11 15 25 16 27 17 12 18 24 19 23 20 13 21 21 22 14 23
REMARK SMILES IDX 15 24 20 25 22 26 16 27 19 28 17 29 18 30
REMARK H PARENT 18 31
REMARK Flexibility Score: inf
ROOT
ATOM      1  C   UNL     1      22.000  26.338  27.393  1.00  0.00     0.004 C 
ENDROOT
BRANCH   1   2
ATOM      2  C   UNL     1      22.794  27.147  28.451  1.00  0.00     0.004 C 
BRANCH   2   3
ATOM      3  C   UNL     1      21.869  27.971  29.395  1.00  0.00    -0.009 C 
BRANCH   3   4
ATOM      4  C   UNL     1      22.161  27.653  30.890  1.00  0.00     0.000 C 
ATOM      5  C   UNL     1      22.855  26.300  31.093  1.00  0.00     0.004 C 
ENDBRANCH   3   4
BRANCH   3   6
ATOM      6  C   UNL     1      21.952  29.510  29.092  1.00  0.00    -0.014 C 
ATOM      7  C   UNL     1      23.398  30.044  28.974  1.00  0.00     0.007 C 
ATOM      8  C   UNL     1      21.161  30.332  30.134  1.00  0.00     0.007 C 
ENDBRANCH   3   6
ENDBRANCH   2   3
ENDBRANCH   1   2
BRANCH   1   9
ATOM      9  C   UNL     1      22.134  26.788  25.907  1.00  0.00    -0.011 C 
ATOM     10  C   UNL     1      23.025  25.826  25.097  1.00  0.00     0.008 C 
BRANCH   9  11
ATOM     11  C   UNL     1      22.500  28.284  25.599  1.00  0.00    -0.002 C 
ATOM     12  C   UNL     1      21.353  29.305  25.844  1.00  0.00     0.005 C 
ATOM     13  C   UNL     1      23.067  28.664  24.182  1.00  0.00    -0.026 C 
ATOM     14  C   UNL     1      21.071  30.018  24.516  1.00  0.00     0.005 C 
ATOM     15  C   UNL     1      21.809  29.190  23.478  1.00  0.00    -0.001 C 
ATOM     16  C   UNL     1      23.705  27.532  23.286  1.00  0.00     0.007 C 
ATOM     17  C   UNL     1      24.123  29.798  24.441  1.00  0.00     0.012 C 
ATOM     18  C   UNL     1      22.049  29.836  22.073  1.00  0.00     0.000 C 
ATOM     19  C   UNL     1      23.353  27.643  21.768  1.00  0.00     0.005 C 
ATOM     20  C   UNL     1      23.234  29.131  21.320  1.00  0.00     0.003 C 
ATOM     21  C   UNL     1      20.724  29.741  21.278  1.00  0.00     0.031 C 
ATOM     22  C   UNL     1      23.307  29.490  19.771  1.00  0.00    -0.008 C 
ATOM     23  C   UNL     1      20.851  30.007  19.818  1.00  0.00    -0.027 C 
ATOM     24  C   UNL     1      21.939  29.689  19.109  1.00  0.00    -0.065 C 
ATOM     25  C   UNL     1      24.070  28.395  18.973  1.00  0.00     0.014 C 
ATOM     26  C   UNL     1      24.075  30.844  19.643  1.00  0.00     0.016 C 
ATOM     27  C   UNL     1      21.872  29.833  17.594  1.00  0.00     0.063 C 
ATOM     28  C   UNL     1      24.125  28.672  17.466  1.00  0.00     0.033 C 
ATOM     29  C   UNL     1      22.709  28.758  16.880  1.00  0.00     0.118 C 
BRANCH  29  30
ATOM     30  O   UNL     1      22.803  29.055  15.514  1.00  0.00    -0.393 OA
ATOM     31  H   UNL     1      23.658  28.664  15.190  1.00  0.00     0.210 HD
ENDBRANCH  29  30
ENDBRANCH   9  11
ENDBRANCH   1   9
TORSDOF 7
ENDMDL
MODEL 8
REMARK VINA RESULT:    -4.269      1.709      2.914
REMARK INTER + INTRA:          -6.851
REMARK INTER:                  -5.809
REMARK INTRA:                  -1.042
REMARK UNBOUND:                -0.959
REMARK SMILES CC[C@H](CC[C@H](C)[C@@H]1CC[C@H]2[C@@H]3CC=C4C[C@@H](O)CC[C@]4(C)[C@@H]3CC[C@@]21C)C(C)C
REMARK SMILES IDX 5 1 4 2 3 3 2 4 1 5 28 6 29 7 30 8 6 9 7 10 8 11 9 12 26 13
REMARK SMILES IDX 10 14 11 15 25 16 27 17 12 18 24 19 23 20 13 21 21 22 14 23
REMARK SMILES IDX 15 24 20 25 22 26 16 27 19 28 17 29 18 30
REMARK H PARENT 18 31
REMARK Flexibility Score: inf
ROOT
ATOM      1  C   UNL     1      23.252  29.543  23.345  1.00  0.00     0.004 C 
ENDROOT
BRANCH   1   2
ATOM      2  C   UNL     1      22.470  29.548  22.006  1.00  0.00     0.004 C 
BRANCH   2   3
ATOM      3  C   UNL     1      22.520  30.928  21.287  1.00  0.00    -0.009 C 
BRANCH   3   4
ATOM      4  C   UNL     1      23.753  31.760  21.746  1.00  0.00     0.000 C 
ATOM      5  C   UNL     1      23.372  33.112  22.362  1.00  0.00     0.004 C 
ENDBRANCH   3   4
BRANCH   3   6
ATOM      6  C   UNL     1      22.461  30.773  19.725  1.00  0.00    -0.014 C 
ATOM      7  C   UNL     1      21.051  30.440  19.186  1.00  0.00     0.007 C 
ATOM      8  C   UNL     1      23.485  29.729  19.225  1.00  0.00     0.007 C 
ENDBRANCH   3   6
ENDBRANCH   2   3
ENDBRANCH   1   2
BRANCH   1   9
ATOM      9  C   UNL     1      24.014  28.236  23.717  1.00  0.00    -0.011 C 
ATOM     10  C   UNL     1      24.125  27.277  22.516  1.00  0.00     0.008 C 
BRANCH   9  11
ATOM     11  C   UNL     1      23.597  27.459  25.017  1.00  0.00    -0.002 C 
ATOM     12  C   UNL     1      22.356  26.536  24.861  1.00  0.00     0.005 C 
ATOM     13  C   UNL     1      23.325  28.261  26.341  1.00  0.00    -0.026 C 
ATOM     14  C   UNL     1      21.293  27.010  25.860  1.00  0.00     0.005 C 
ATOM     15  C   UNL     1      21.794  28.364  26.330  1.00  0.00    -0.001 C 
ATOM     16  C   UNL     1      23.923  29.714  26.491  1.00  0.00     0.007 C 
ATOM     17  C   UNL     1      23.852  27.345  27.504  1.00  0.00     0.012 C 
ATOM     18  C   UNL     1      21.154  28.963  27.627  1.00  0.00     0.000 C 
ATOM     19  C   UNL     1      22.962  30.735  27.180  1.00  0.00     0.005 C 
ATOM     20  C   UNL     1      22.092  30.044  28.275  1.00  0.00     0.003 C 
ATOM     21  C   UNL     1      19.775  29.553  27.242  1.00  0.00     0.031 C 
ATOM     22  C   UNL     1      21.368  30.937  29.377  1.00  0.00    -0.008 C 
ATOM     23  C   UNL     1      19.169  30.445  28.271  1.00  0.00    -0.027 C 
ATOM     24  C   UNL     1      19.894  31.227  29.078  1.00  0.00    -0.065 C 
ATOM     25  C   UNL     1      22.095  32.298  29.568  1.00  0.00     0.014 C 
ATOM     26  C   UNL     1      21.412  30.142  30.720  1.00  0.00     0.016 C 
ATOM     27  C   UNL     1      19.154  32.235  29.949  1.00  0.00     0.063 C 
ATOM     28  C   UNL     1      21.406  33.215  30.586  1.00  0.00     0.033 C 
ATOM     29  C   UNL     1      19.969  33.524  30.148  1.00  0.00     0.118 C 
BRANCH  29  30
ATOM     30  O   UNL     1      19.362  34.326  31.125  1.00  0.00    -0.393 OA
ATOM     31  H   UNL     1      19.996  35.065  31.328  1.00  0.00     0.210 HD
ENDBRANCH  29  30
ENDBRANCH   9  11
ENDBRANCH   1   9
TORSDOF 7
ENDMDL
