MODEL 1
REMARK VINA RESULT:    -5.414      0.000      0.000
REMARK INTER + INTRA:         -14.138
REMARK INTER:                 -11.427
REMARK INTRA:                  -2.711
REMARK UNBOUND:                -2.711
REMARK SMILES CCC(=O)CCCCC[C@@H]1NC(=O)[C@@H]2CCCCN2C(=O)[C@@H]([C@H](C)CC)NC(=O)[C@H](Cc2cn(OC)c3ccccc23)NC1=O
REMARK SMILES IDX 9 1 10 2 44 3 43 4 45 6 30 7 28 8 27 9 29 11 22 12 23 14
REMARK SMILES IDX 24 15 25 16 26 17 31 18 32 19 33 20 42 21 34 22 37 23 41 24
REMARK SMILES IDX 38 25 40 26 39 27 35 28 36 29 11 30 12 31 13 33 14 34 19 35
REMARK SMILES IDX 15 36 18 37 16 38 17 39 20 40 21 41 8 43 7 44 6 45 5 46 3 47
REMARK SMILES IDX 4 48 2 49 1 50
REMARK H PARENT 43 5 27 10 11 32
REMARK Flexibility Score: 80.00
ROOT
ATOM      1  C   UNL     1       5.111 -59.653 -27.285  1.00  0.00     0.035 C 
ENDROOT
BRANCH   1   2
ATOM      2  C   UNL     1       4.716 -60.161 -25.879  1.00  0.00     0.171 C 
BRANCH   2   3
ATOM      3  C   UNL     1       5.347 -59.371 -24.763  1.00  0.00     0.243 C 
ATOM      4  N   UNL     1       5.193 -59.833 -23.410  1.00  0.00    -0.342 N 
ATOM      5  H   UNL     1       5.049 -60.857 -23.262  1.00  0.00     0.164 HD
ATOM      6  O   UNL     1       5.913 -58.269 -25.000  1.00  0.00    -0.273 OA
BRANCH   4   7
ATOM      7  C   UNL     1       4.905 -58.951 -22.275  1.00  0.00     0.175 C 
BRANCH   7   8
ATOM      8  C   UNL     1       3.418 -58.911 -21.998  1.00  0.00     0.243 C 
ATOM      9  N   UNL     1       2.606 -60.099 -22.070  1.00  0.00    -0.342 N 
ATOM     10  H   UNL     1       3.074 -61.008 -22.286  1.00  0.00     0.164 HD
ATOM     11  O   UNL     1       2.900 -57.810 -21.673  1.00  0.00    -0.273 OA
BRANCH   9  12
ATOM     12  C   UNL     1       1.138 -60.122 -22.004  1.00  0.00     0.174 CG0
ATOM     13  G   UNL     1       0.530 -59.954 -23.386  1.00  0.00     0.000 G0
BRANCH  12  14
ATOM     14  C   UNL     1       0.597 -61.353 -21.215  1.00  0.00     0.018 C 
ATOM     15  C   UNL     1      -0.771 -61.032 -20.580  1.00  0.00     0.010 C 
BRANCH  14  16
ATOM     16  C   UNL     1       1.585 -61.816 -20.097  1.00  0.00     0.002 C 
ATOM     17  C   UNL     1       1.336 -61.107 -18.763  1.00  0.00     0.004 C 
ENDBRANCH  14  16
ENDBRANCH  12  14
ENDBRANCH   9  12
ENDBRANCH   7   8
BRANCH   7  18
ATOM     18  C   UNL     1       5.536 -57.556 -22.457  1.00  0.00     0.073 C 
BRANCH  18  19
ATOM     19  C   UNL     1       6.189 -57.105 -21.181  1.00  0.00    -0.016 A 
ATOM     20  C   UNL     1       6.552 -57.926 -20.117  1.00  0.00     0.134 A 
ATOM     21  C   UNL     1       6.719 -55.857 -20.897  1.00  0.00     0.006 A 
ATOM     22  N   UNL     1       7.259 -57.213 -19.209  1.00  0.00    -0.191 N 
ATOM     23  C   UNL     1       7.359 -55.963 -19.686  1.00  0.00     0.087 A 
ATOM     24  C   UNL     1       6.718 -54.665 -21.623  1.00  0.00     0.011 A 
ATOM     25  C   UNL     1       8.042 -54.885 -19.122  1.00  0.00     0.030 A 
ATOM     26  C   UNL     1       7.395 -53.560 -21.074  1.00  0.00     0.001 A 
ATOM     27  C   UNL     1       8.053 -53.670 -19.829  1.00  0.00     0.002 A 
BRANCH  22  28
ATOM     28  O   UNL     1       7.839 -57.670 -18.039  1.00  0.00    -0.417 OA
ATOM     29  C   UNL     1       8.991 -58.502 -18.037  1.00  0.00     0.313 C 
ENDBRANCH  22  28
ENDBRANCH  18  19
ENDBRANCH   7  18
ENDBRANCH   4   7
ENDBRANCH   2   3
BRANCH   2  30
ATOM     30  N   UNL     1       3.262 -60.189 -25.692  1.00  0.00    -0.343 N 
ATOM     31  C   UNL     1       2.551 -61.291 -25.096  1.00  0.00     0.243 C 
ATOM     32  H   UNL     1       2.710 -59.432 -26.154  1.00  0.00     0.164 HD
ATOM     33  O   UNL     1       3.144 -62.079 -24.312  1.00  0.00    -0.273 OA
BRANCH  31  34
ATOM     34  C   UNL     1       1.076 -61.464 -25.374  1.00  0.00     0.174 C 
ATOM     35  N   UNL     1       0.204 -61.097 -24.238  1.00  0.00    -0.329 N 
ATOM     36  C   UNL     1       0.641 -60.689 -26.628  1.00  0.00     0.035 C 
ATOM     37  C   UNL     1      -1.210 -61.424 -24.452  1.00  0.00     0.120 C 
ATOM     38  C   UNL     1      -0.847 -60.953 -26.919  1.00  0.00     0.004 C 
ATOM     39  C   UNL     1      -1.728 -60.674 -25.690  1.00  0.00     0.022 C 
BRANCH  35  40
ATOM     40  C   UNL     1       0.506 -59.965 -23.396  1.00  0.00     0.246 CG0
ATOM     41  O   UNL     1       0.225 -58.805 -23.803  1.00  0.00    -0.272 OA
ATOM     42  G   UNL     1       1.132 -60.120 -22.020  1.00  0.00     0.000 G0
ENDBRANCH  35  40
ENDBRANCH  31  34
ENDBRANCH   2  30
ENDBRANCH   1   2
BRANCH   1  43
ATOM     43  C   UNL     1       5.548 -60.772 -28.250  1.00  0.00     0.003 C 
BRANCH  43  44
ATOM     44  C   UNL     1       4.915 -60.710 -29.655  1.00  0.00     0.001 C 
BRANCH  44  45
ATOM     45  C   UNL     1       3.391 -60.937 -29.695  1.00  0.00     0.008 C 
BRANCH  45  46
ATOM     46  C   UNL     1       2.612 -59.886 -30.503  1.00  0.00     0.075 C 
BRANCH  46  47
ATOM     47  C   UNL     1       2.607 -58.540 -29.826  1.00  0.00     0.132 C 
ATOM     48  O   UNL     1       2.036 -58.404 -28.753  1.00  0.00    -0.300 OA
BRANCH  47  49
ATOM     49  C   UNL     1       3.261 -57.348 -30.477  1.00  0.00     0.072 C 
ATOM     50  C   UNL     1       4.551 -56.982 -29.753  1.00  0.00     0.012 C 
ENDBRANCH  47  49
ENDBRANCH  46  47
ENDBRANCH  45  46
ENDBRANCH  44  45
ENDBRANCH  43  44
ENDBRANCH   1  43
TORSDOF 12
ENDMDL
MODEL 2
REMARK VINA RESULT:    -4.576      2.746      9.459
REMARK INTER + INTRA:         -12.369
REMARK INTER:                  -9.516
REMARK INTRA:                  -2.853
REMARK UNBOUND:                -2.711
REMARK SMILES CCC(=O)CCCCC[C@@H]1NC(=O)[C@@H]2CCCCN2C(=O)[C@@H]([C@H](C)CC)NC(=O)[C@H](Cc2cn(OC)c3ccccc23)NC1=O
REMARK SMILES IDX 9 1 10 2 44 3 43 4 45 6 30 7 28 8 27 9 29 11 22 12 23 14
REMARK SMILES IDX 24 15 25 16 26 17 31 18 32 19 33 20 42 21 34 22 37 23 41 24
REMARK SMILES IDX 38 25 40 26 39 27 35 28 36 29 11 30 12 31 13 33 14 34 19 35
REMARK SMILES IDX 15 36 18 37 16 38 17 39 20 40 21 41 8 43 7 44 6 45 5 46 3 47
REMARK SMILES IDX 4 48 2 49 1 50
REMARK H PARENT 43 5 27 10 11 32
REMARK Flexibility Score: 80.00
ROOT
ATOM      1  C   UNL     1      -0.219 -61.619 -19.120  1.00  0.00     0.035 C 
ENDROOT
BRANCH   1   2
ATOM      2  C   UNL     1       0.915 -61.720 -20.166  1.00  0.00     0.171 C 
BRANCH   2   3
ATOM      3  C   UNL     1       0.463 -61.397 -21.565  1.00  0.00     0.243 C 
ATOM      4  N   UNL     1       1.380 -61.590 -22.656  1.00  0.00    -0.342 N 
ATOM      5  H   UNL     1       2.125 -62.313 -22.539  1.00  0.00     0.164 HD
ATOM      6  O   UNL     1      -0.665 -60.870 -21.767  1.00  0.00    -0.273 OA
BRANCH   4   7
ATOM      7  C   UNL     1       1.543 -60.643 -23.762  1.00  0.00     0.175 C 
BRANCH   7   8
ATOM      8  C   UNL     1       2.257 -59.394 -23.292  1.00  0.00     0.243 C 
ATOM      9  N   UNL     1       3.604 -59.442 -22.785  1.00  0.00    -0.342 N 
ATOM     10  H   UNL     1       4.100 -60.362 -22.780  1.00  0.00     0.164 HD
ATOM     11  O   UNL     1       1.652 -58.292 -23.377  1.00  0.00    -0.273 OA
BRANCH   9  12
ATOM     12  C   UNL     1       4.301 -58.323 -22.136  1.00  0.00     0.174 CG0
ATOM     13  G   UNL     1       4.290 -58.480 -20.625  1.00  0.00     0.000 G0
BRANCH  12  14
ATOM     14  C   UNL     1       5.716 -58.073 -22.740  1.00  0.00     0.018 C 
ATOM     15  C   UNL     1       5.835 -56.628 -23.263  1.00  0.00     0.010 C 
BRANCH  14  16
ATOM     16  C   UNL     1       6.045 -59.066 -23.901  1.00  0.00     0.002 C 
ATOM     17  C   UNL     1       5.778 -58.464 -25.283  1.00  0.00     0.004 C 
ENDBRANCH  14  16
ENDBRANCH  12  14
ENDBRANCH   9  12
ENDBRANCH   7   8
BRANCH   7  18
ATOM     18  C   UNL     1       0.205 -60.358 -24.475  1.00  0.00     0.073 C 
BRANCH  18  19
ATOM     19  C   UNL     1       0.449 -59.903 -25.886  1.00  0.00    -0.016 A 
ATOM     20  C   UNL     1       0.118 -58.655 -26.409  1.00  0.00     0.134 A 
ATOM     21  C   UNL     1       1.200 -60.537 -26.862  1.00  0.00     0.006 A 
ATOM     22  N   UNL     1       0.626 -58.533 -27.658  1.00  0.00    -0.191 N 
ATOM     23  C   UNL     1       1.282 -59.673 -27.927  1.00  0.00     0.087 A 
ATOM     24  C   UNL     1       1.839 -61.778 -26.875  1.00  0.00     0.011 A 
ATOM     25  C   UNL     1       2.009 -59.990 -29.073  1.00  0.00     0.030 A 
ATOM     26  C   UNL     1       2.577 -62.125 -28.023  1.00  0.00     0.001 A 
ATOM     27  C   UNL     1       2.661 -61.235 -29.116  1.00  0.00     0.002 A 
BRANCH  22  28
ATOM     28  O   UNL     1       0.560 -57.434 -28.495  1.00  0.00    -0.417 OA
ATOM     29  C   UNL     1      -0.203 -56.279 -28.172  1.00  0.00     0.313 C 
ENDBRANCH  22  28
ENDBRANCH  18  19
ENDBRANCH   7  18
ENDBRANCH   4   7
ENDBRANCH   2   3
BRANCH   2  30
ATOM     30  N   UNL     1       2.061 -60.874 -19.819  1.00  0.00    -0.343 N 
ATOM     31  C   UNL     1       3.435 -61.261 -20.018  1.00  0.00     0.243 C 
ATOM     32  H   UNL     1       1.862 -60.012 -19.262  1.00  0.00     0.164 HD
ATOM     33  O   UNL     1       3.730 -62.125 -20.886  1.00  0.00    -0.273 OA
BRANCH  31  34
ATOM     34  C   UNL     1       4.522 -60.585 -19.217  1.00  0.00     0.174 C 
ATOM     35  N   UNL     1       5.090 -59.386 -19.870  1.00  0.00    -0.329 N 
ATOM     36  C   UNL     1       4.044 -60.223 -17.803  1.00  0.00     0.035 C 
ATOM     37  C   UNL     1       6.257 -58.833 -19.171  1.00  0.00     0.120 C 
ATOM     38  C   UNL     1       5.203 -59.608 -16.997  1.00  0.00     0.004 C 
ATOM     39  C   UNL     1       5.856 -58.432 -17.743  1.00  0.00     0.022 C 
BRANCH  35  40
ATOM     40  C   UNL     1       4.257 -58.467 -20.606  1.00  0.00     0.246 CG0
ATOM     41  O   UNL     1       3.437 -57.745 -19.977  1.00  0.00    -0.272 OA
ATOM     42  G   UNL     1       4.346 -58.320 -22.116  1.00  0.00     0.000 G0
ENDBRANCH  35  40
ENDBRANCH  31  34
ENDBRANCH   2  30
ENDBRANCH   1   2
BRANCH   1  43
ATOM     43  C   UNL     1       0.214 -62.016 -17.695  1.00  0.00     0.003 C 
BRANCH  43  44
ATOM     44  C   UNL     1       0.159 -60.881 -16.652  1.00  0.00     0.001 C 
BRANCH  44  45
ATOM     45  C   UNL     1      -0.747 -59.693 -17.029  1.00  0.00     0.008 C 
BRANCH  45  46
ATOM     46  C   UNL     1      -2.045 -59.597 -16.209  1.00  0.00     0.075 C 
BRANCH  46  47
ATOM     47  C   UNL     1      -3.224 -60.177 -16.946  1.00  0.00     0.132 C 
ATOM     48  O   UNL     1      -3.983 -60.943 -16.367  1.00  0.00    -0.300 OA
BRANCH  47  49
ATOM     49  C   UNL     1      -3.456 -59.859 -18.400  1.00  0.00     0.072 C 
ATOM     50  C   UNL     1      -3.849 -61.115 -19.169  1.00  0.00     0.012 C 
ENDBRANCH  47  49
ENDBRANCH  46  47
ENDBRANCH  45  46
ENDBRANCH  44  45
ENDBRANCH  43  44
ENDBRANCH   1  43
TORSDOF 12
ENDMDL
MODEL 3
REMARK VINA RESULT:    -4.266      2.285      8.446
REMARK INTER + INTRA:         -11.715
REMARK INTER:                 -10.011
REMARK INTRA:                  -1.704
REMARK UNBOUND:                -2.711
REMARK SMILES CCC(=O)CCCCC[C@@H]1NC(=O)[C@@H]2CCCCN2C(=O)[C@@H]([C@H](C)CC)NC(=O)[C@H](Cc2cn(OC)c3ccccc23)NC1=O
REMARK SMILES IDX 9 1 10 2 44 3 43 4 45 6 30 7 28 8 27 9 29 11 22 12 23 14
REMARK SMILES IDX 24 15 25 16 26 17 31 18 32 19 33 20 42 21 34 22 37 23 41 24
REMARK SMILES IDX 38 25 40 26 39 27 35 28 36 29 11 30 12 31 13 33 14 34 19 35
REMARK SMILES IDX 15 36 18 37 16 38 17 39 20 40 21 41 8 43 7 44 6 45 5 46 3 47
REMARK SMILES IDX 4 48 2 49 1 50
REMARK H PARENT 43 5 27 10 11 32
REMARK Flexibility Score: 80.00
ROOT
ATOM      1  C   UNL     1       6.620 -56.587 -21.940  1.00  0.00     0.035 C 
ENDROOT
BRANCH   1   2
ATOM      2  C   UNL     1       5.227 -57.253 -21.864  1.00  0.00     0.171 C 
BRANCH   2   3
ATOM      3  C   UNL     1       4.862 -58.012 -23.112  1.00  0.00     0.243 C 
ATOM      4  N   UNL     1       3.541 -58.565 -23.229  1.00  0.00    -0.342 N 
ATOM      5  H   UNL     1       2.771 -58.096 -22.701  1.00  0.00     0.164 HD
ATOM      6  O   UNL     1       5.732 -58.245 -23.995  1.00  0.00    -0.273 OA
BRANCH   4   7
ATOM      7  C   UNL     1       3.261 -59.902 -23.761  1.00  0.00     0.175 C 
BRANCH   7   8
ATOM      8  C   UNL     1       3.136 -60.906 -22.637  1.00  0.00     0.243 C 
ATOM      9  N   UNL     1       2.313 -60.648 -21.484  1.00  0.00    -0.342 N 
ATOM     10  H   UNL     1       1.768 -59.757 -21.453  1.00  0.00     0.164 HD
ATOM     11  O   UNL     1       3.753 -61.999 -22.741  1.00  0.00    -0.273 OA
BRANCH   9  12
ATOM     12  C   UNL     1       2.280 -61.473 -20.268  1.00  0.00     0.174 CG0
ATOM     13  G   UNL     1       3.427 -61.113 -19.338  1.00  0.00     0.000 G0
BRANCH  12  14
ATOM     14  C   UNL     1       0.880 -61.471 -19.584  1.00  0.00     0.018 C 
ATOM     15  C   UNL     1      -0.173 -62.125 -20.500  1.00  0.00     0.010 C 
BRANCH  14  16
ATOM     16  C   UNL     1       0.410 -60.028 -19.212  1.00  0.00     0.002 C 
ATOM     17  C   UNL     1      -1.115 -59.897 -19.178  1.00  0.00     0.004 C 
ENDBRANCH  14  16
ENDBRANCH  12  14
ENDBRANCH   9  12
ENDBRANCH   7   8
BRANCH   7  18
ATOM     18  C   UNL     1       4.278 -60.313 -24.846  1.00  0.00     0.073 C 
BRANCH  18  19
ATOM     19  C   UNL     1       3.581 -60.563 -26.152  1.00  0.00    -0.016 A 
ATOM     20  C   UNL     1       2.245 -60.927 -26.307  1.00  0.00     0.134 A 
ATOM     21  C   UNL     1       4.053 -60.300 -27.427  1.00  0.00     0.006 A 
ATOM     22  N   UNL     1       1.915 -60.909 -27.619  1.00  0.00    -0.191 N 
ATOM     23  C   UNL     1       3.010 -60.526 -28.293  1.00  0.00     0.087 A 
ATOM     24  C   UNL     1       5.294 -59.849 -27.878  1.00  0.00     0.011 A 
ATOM     25  C   UNL     1       3.139 -60.314 -29.665  1.00  0.00     0.030 A 
ATOM     26  C   UNL     1       5.452 -59.632 -29.260  1.00  0.00     0.001 A 
ATOM     27  C   UNL     1       4.380 -59.864 -30.149  1.00  0.00     0.002 A 
BRANCH  22  28
ATOM     28  O   UNL     1       0.678 -61.162 -28.184  1.00  0.00    -0.417 OA
ATOM     29  C   UNL     1      -0.496 -61.328 -27.400  1.00  0.00     0.313 C 
ENDBRANCH  22  28
ENDBRANCH  18  19
ENDBRANCH   7  18
ENDBRANCH   4   7
ENDBRANCH   2   3
BRANCH   2  30
ATOM     30  N   UNL     1       5.103 -58.140 -20.703  1.00  0.00    -0.343 N 
ATOM     31  C   UNL     1       3.904 -58.268 -19.915  1.00  0.00     0.243 C 
ATOM     32  H   UNL     1       5.981 -58.583 -20.349  1.00  0.00     0.164 HD
ATOM     33  O   UNL     1       2.783 -57.986 -20.417  1.00  0.00    -0.273 OA
BRANCH  31  34
ATOM     34  C   UNL     1       3.994 -58.797 -18.503  1.00  0.00     0.174 C 
ATOM     35  N   UNL     1       3.357 -60.117 -18.315  1.00  0.00    -0.329 N 
ATOM     36  C   UNL     1       5.448 -58.851 -18.009  1.00  0.00     0.035 C 
ATOM     37  C   UNL     1       3.298 -60.548 -16.913  1.00  0.00     0.120 C 
ATOM     38  C   UNL     1       5.488 -59.320 -16.543  1.00  0.00     0.004 C 
ATOM     39  C   UNL     1       4.724 -60.640 -16.345  1.00  0.00     0.022 C 
BRANCH  35  40
ATOM     40  C   UNL     1       3.448 -61.144 -19.324  1.00  0.00     0.246 CG0
ATOM     41  O   UNL     1       4.514 -61.810 -19.427  1.00  0.00    -0.272 OA
ATOM     42  G   UNL     1       2.295 -61.471 -20.257  1.00  0.00     0.000 G0
ENDBRANCH  35  40
ENDBRANCH  31  34
ENDBRANCH   2  30
ENDBRANCH   1   2
BRANCH   1  43
ATOM     43  C   UNL     1       7.544 -56.943 -20.758  1.00  0.00     0.003 C 
BRANCH  43  44
ATOM     44  C   UNL     1       7.422 -56.019 -19.529  1.00  0.00     0.001 C 
BRANCH  44  45
ATOM     45  C   UNL     1       8.734 -55.340 -19.090  1.00  0.00     0.008 C 
BRANCH  45  46
ATOM     46  C   UNL     1       8.611 -53.829 -18.829  1.00  0.00     0.075 C 
BRANCH  46  47
ATOM     47  C   UNL     1       9.286 -53.012 -19.900  1.00  0.00     0.132 C 
ATOM     48  O   UNL     1       9.735 -51.908 -19.627  1.00  0.00    -0.300 OA
BRANCH  47  49
ATOM     49  C   UNL     1       9.376 -53.523 -21.315  1.00  0.00     0.072 C 
ATOM     50  C   UNL     1       9.005 -52.425 -22.306  1.00  0.00     0.012 C 
ENDBRANCH  47  49
ENDBRANCH  46  47
ENDBRANCH  45  46
ENDBRANCH  44  45
ENDBRANCH  43  44
ENDBRANCH   1  43
TORSDOF 12
ENDMDL
MODEL 4
REMARK VINA RESULT:    -4.205      2.849      9.327
REMARK INTER + INTRA:         -11.587
REMARK INTER:                  -9.897
REMARK INTRA:                  -1.690
REMARK UNBOUND:                -2.711
REMARK SMILES CCC(=O)CCCCC[C@@H]1NC(=O)[C@@H]2CCCCN2C(=O)[C@@H]([C@H](C)CC)NC(=O)[C@H](Cc2cn(OC)c3ccccc23)NC1=O
REMARK SMILES IDX 9 1 10 2 44 3 43 4 45 6 30 7 28 8 27 9 29 11 22 12 23 14
REMARK SMILES IDX 24 15 25 16 26 17 31 18 32 19 33 20 42 21 34 22 37 23 41 24
REMARK SMILES IDX 38 25 40 26 39 27 35 28 36 29 11 30 12 31 13 33 14 34 19 35
REMARK SMILES IDX 15 36 18 37 16 38 17 39 20 40 21 41 8 43 7 44 6 45 5 46 3 47
REMARK SMILES IDX 4 48 2 49 1 50
REMARK H PARENT 43 5 27 10 11 32
REMARK Flexibility Score: 80.00
ROOT
ATOM      1  C   UNL     1       0.301 -61.917 -18.766  1.00  0.00     0.035 C 
ENDROOT
BRANCH   1   2
ATOM      2  C   UNL     1       1.408 -61.970 -19.844  1.00  0.00     0.171 C 
BRANCH   2   3
ATOM      3  C   UNL     1       0.920 -61.583 -21.215  1.00  0.00     0.243 C 
ATOM      4  N   UNL     1       1.827 -61.673 -22.327  1.00  0.00    -0.342 N 
ATOM      5  H   UNL     1       2.603 -62.369 -22.264  1.00  0.00     0.164 HD
ATOM      6  O   UNL     1      -0.232 -61.094 -21.370  1.00  0.00    -0.273 OA
BRANCH   4   7
ATOM      7  C   UNL     1       1.933 -60.656 -23.377  1.00  0.00     0.175 C 
BRANCH   7   8
ATOM      8  C   UNL     1       2.517 -59.376 -22.820  1.00  0.00     0.243 C 
ATOM      9  N   UNL     1       3.844 -59.334 -22.262  1.00  0.00    -0.342 N 
ATOM     10  H   UNL     1       4.418 -60.207 -22.279  1.00  0.00     0.164 HD
ATOM     11  O   UNL     1       1.822 -58.327 -22.878  1.00  0.00    -0.273 OA
BRANCH   9  12
ATOM     12  C   UNL     1       4.417 -58.194 -21.533  1.00  0.00     0.174 CG0
ATOM     13  G   UNL     1       4.586 -58.522 -20.059  1.00  0.00     0.000 G0
BRANCH  12  14
ATOM     14  C   UNL     1       5.704 -57.638 -22.214  1.00  0.00     0.018 C 
ATOM     15  C   UNL     1       6.140 -56.315 -21.553  1.00  0.00     0.010 C 
BRANCH  14  16
ATOM     16  C   UNL     1       5.504 -57.403 -23.746  1.00  0.00     0.002 C 
ATOM     17  C   UNL     1       6.146 -56.100 -24.230  1.00  0.00     0.004 C 
ENDBRANCH  14  16
ENDBRANCH  12  14
ENDBRANCH   9  12
ENDBRANCH   7   8
BRANCH   7  18
ATOM     18  C   UNL     1       0.595 -60.452 -24.116  1.00  0.00     0.073 C 
BRANCH  18  19
ATOM     19  C   UNL     1       0.832 -59.882 -25.485  1.00  0.00    -0.016 A 
ATOM     20  C   UNL     1       1.476 -60.529 -26.537  1.00  0.00     0.134 A 
ATOM     21  C   UNL     1       0.307 -58.717 -26.020  1.00  0.00     0.006 A 
ATOM     22  N   UNL     1       1.369 -59.787 -27.665  1.00  0.00    -0.191 N 
ATOM     23  C   UNL     1       0.659 -58.694 -27.348  1.00  0.00     0.087 A 
ATOM     24  C   UNL     1      -0.475 -57.710 -25.452  1.00  0.00     0.011 A 
ATOM     25  C   UNL     1       0.250 -57.665 -28.196  1.00  0.00     0.030 A 
ATOM     26  C   UNL     1      -0.896 -56.657 -26.285  1.00  0.00     0.001 A 
ATOM     27  C   UNL     1      -0.535 -56.634 -27.650  1.00  0.00     0.002 A 
BRANCH  22  28
ATOM     28  O   UNL     1       1.829 -60.101 -28.931  1.00  0.00    -0.417 OA
ATOM     29  C   UNL     1       2.921 -59.418 -29.533  1.00  0.00     0.313 C 
ENDBRANCH  22  28
ENDBRANCH  18  19
ENDBRANCH   7  18
ENDBRANCH   4   7
ENDBRANCH   2   3
BRANCH   2  30
ATOM     30  N   UNL     1       2.563 -61.140 -19.488  1.00  0.00    -0.343 N 
ATOM     31  C   UNL     1       3.914 -61.427 -19.897  1.00  0.00     0.243 C 
ATOM     32  H   UNL     1       2.406 -60.390 -18.778  1.00  0.00     0.164 HD
ATOM     33  O   UNL     1       4.130 -62.125 -20.924  1.00  0.00    -0.273 OA
BRANCH  31  34
ATOM     34  C   UNL     1       5.068 -60.841 -19.119  1.00  0.00     0.174 C 
ATOM     35  N   UNL     1       5.514 -59.520 -19.610  1.00  0.00    -0.329 N 
ATOM     36  C   UNL     1       4.753 -60.753 -17.618  1.00  0.00     0.035 C 
ATOM     37  C   UNL     1       6.737 -59.033 -18.963  1.00  0.00     0.120 C 
ATOM     38  C   UNL     1       5.981 -60.224 -16.853  1.00  0.00     0.004 C 
ATOM     39  C   UNL     1       6.500 -58.905 -17.449  1.00  0.00     0.022 C 
BRANCH  35  40
ATOM     40  C   UNL     1       4.567 -58.534 -20.073  1.00  0.00     0.246 CG0
ATOM     41  O   UNL     1       3.868 -57.911 -19.229  1.00  0.00    -0.272 OA
ATOM     42  G   UNL     1       4.396 -58.201 -21.546  1.00  0.00     0.000 G0
ENDBRANCH  35  40
ENDBRANCH  31  34
ENDBRANCH   2  30
ENDBRANCH   1   2
BRANCH   1  43
ATOM     43  C   UNL     1       0.455 -60.747 -17.774  1.00  0.00     0.003 C 
BRANCH  43  44
ATOM     44  C   UNL     1      -0.279 -59.450 -18.169  1.00  0.00     0.001 C 
BRANCH  44  45
ATOM     45  C   UNL     1      -0.705 -58.556 -16.988  1.00  0.00     0.008 C 
BRANCH  45  46
ATOM     46  C   UNL     1      -2.054 -58.938 -16.355  1.00  0.00     0.075 C 
BRANCH  46  47
ATOM     47  C   UNL     1      -3.060 -59.377 -17.386  1.00  0.00     0.132 C 
ATOM     48  O   UNL     1      -3.090 -58.823 -18.476  1.00  0.00    -0.300 OA
BRANCH  47  49
ATOM     49  C   UNL     1      -4.058 -60.462 -17.075  1.00  0.00     0.072 C 
ATOM     50  C   UNL     1      -3.595 -61.798 -17.645  1.00  0.00     0.012 C 
ENDBRANCH  47  49
ENDBRANCH  46  47
ENDBRANCH  45  46
ENDBRANCH  44  45
ENDBRANCH  43  44
ENDBRANCH   1  43
TORSDOF 12
ENDMDL
MODEL 5
REMARK VINA RESULT:    -4.183      2.339      6.796
REMARK INTER + INTRA:         -11.540
REMARK INTER:                  -9.835
REMARK INTRA:                  -1.705
REMARK UNBOUND:                -2.711
REMARK SMILES CCC(=O)CCCCC[C@@H]1NC(=O)[C@@H]2CCCCN2C(=O)[C@@H]([C@H](C)CC)NC(=O)[C@H](Cc2cn(OC)c3ccccc23)NC1=O
REMARK SMILES IDX 9 1 10 2 44 3 43 4 45 6 30 7 28 8 27 9 29 11 22 12 23 14
REMARK SMILES IDX 24 15 25 16 26 17 31 18 32 19 33 20 42 21 34 22 37 23 41 24
REMARK SMILES IDX 38 25 40 26 39 27 35 28 36 29 11 30 12 31 13 33 14 34 19 35
REMARK SMILES IDX 15 36 18 37 16 38 17 39 20 40 21 41 8 43 7 44 6 45 5 46 3 47
REMARK SMILES IDX 4 48 2 49 1 50
REMARK H PARENT 43 5 27 10 11 32
REMARK Flexibility Score: 80.00
ROOT
ATOM      1  C   UNL     1      -0.019 -60.028 -20.366  1.00  0.00     0.035 C 
ENDROOT
BRANCH   1   2
ATOM      2  C   UNL     1       0.741 -59.193 -21.423  1.00  0.00     0.171 C 
BRANCH   2   3
ATOM      3  C   UNL     1       2.215 -59.074 -21.138  1.00  0.00     0.243 C 
ATOM      4  N   UNL     1       2.998 -58.140 -21.901  1.00  0.00    -0.342 N 
ATOM      5  H   UNL     1       2.508 -57.306 -22.295  1.00  0.00     0.164 HD
ATOM      6  O   UNL     1       2.772 -59.850 -20.315  1.00  0.00    -0.273 OA
BRANCH   4   7
ATOM      7  C   UNL     1       4.333 -58.436 -22.430  1.00  0.00     0.175 C 
BRANCH   7   8
ATOM      8  C   UNL     1       4.258 -59.516 -23.487  1.00  0.00     0.243 C 
ATOM      9  N   UNL     1       3.261 -59.486 -24.525  1.00  0.00    -0.342 N 
ATOM     10  H   UNL     1       2.601 -58.677 -24.557  1.00  0.00     0.164 HD
ATOM     11  O   UNL     1       5.113 -60.441 -23.458  1.00  0.00    -0.273 OA
BRANCH   9  12
ATOM     12  C   UNL     1       2.995 -60.579 -25.471  1.00  0.00     0.174 CG0
ATOM     13  G   UNL     1       1.550 -61.040 -25.376  1.00  0.00     0.000 G0
BRANCH  12  14
ATOM     14  C   UNL     1       3.462 -60.240 -26.919  1.00  0.00     0.018 C 
ATOM     15  C   UNL     1       3.750 -61.530 -27.713  1.00  0.00     0.010 C 
BRANCH  14  16
ATOM     16  C   UNL     1       4.737 -59.337 -26.930  1.00  0.00     0.002 C 
ATOM     17  C   UNL     1       4.920 -58.593 -28.255  1.00  0.00     0.004 C 
ENDBRANCH  14  16
ENDBRANCH  12  14
ENDBRANCH   9  12
ENDBRANCH   7   8
BRANCH   7  18
ATOM     18  C   UNL     1       5.341 -58.743 -21.304  1.00  0.00     0.073 C 
BRANCH  18  19
ATOM     19  C   UNL     1       6.287 -57.592 -21.118  1.00  0.00    -0.016 A 
ATOM     20  C   UNL     1       6.467 -56.533 -22.005  1.00  0.00     0.134 A 
ATOM     21  C   UNL     1       7.002 -57.260 -19.979  1.00  0.00     0.006 A 
ATOM     22  N   UNL     1       7.272 -55.600 -21.445  1.00  0.00    -0.191 N 
ATOM     23  C   UNL     1       7.591 -56.042 -20.219  1.00  0.00     0.087 A 
ATOM     24  C   UNL     1       7.145 -57.913 -18.754  1.00  0.00     0.011 A 
ATOM     25  C   UNL     1       8.359 -55.396 -19.251  1.00  0.00     0.030 A 
ATOM     26  C   UNL     1       7.919 -57.285 -17.761  1.00  0.00     0.001 A 
ATOM     27  C   UNL     1       8.523 -56.032 -18.008  1.00  0.00     0.002 A 
BRANCH  22  28
ATOM     28  O   UNL     1       7.654 -54.382 -21.980  1.00  0.00    -0.417 OA
ATOM     29  C   UNL     1       8.602 -54.278 -23.033  1.00  0.00     0.313 C 
ENDBRANCH  22  28
ENDBRANCH  18  19
ENDBRANCH   7  18
ENDBRANCH   4   7
ENDBRANCH   2   3
BRANCH   2  30
ATOM     30  N   UNL     1       0.550 -59.716 -22.779  1.00  0.00    -0.343 N 
ATOM     31  C   UNL     1       0.078 -58.923 -23.886  1.00  0.00     0.243 C 
ATOM     32  H   UNL     1       0.619 -60.751 -22.902  1.00  0.00     0.164 HD
ATOM     33  O   UNL     1       0.225 -57.672 -23.877  1.00  0.00    -0.273 OA
BRANCH  31  34
ATOM     34  C   UNL     1      -0.544 -59.608 -25.081  1.00  0.00     0.174 C 
ATOM     35  N   UNL     1       0.428 -60.321 -25.936  1.00  0.00    -0.329 N 
ATOM     36  C   UNL     1      -1.665 -60.570 -24.662  1.00  0.00     0.035 C 
ATOM     37  C   UNL     1      -0.153 -60.840 -27.180  1.00  0.00     0.120 C 
ATOM     38  C   UNL     1      -2.322 -61.186 -25.911  1.00  0.00     0.004 C 
ATOM     39  C   UNL     1      -1.283 -61.827 -26.846  1.00  0.00     0.022 C 
BRANCH  35  40
ATOM     40  C   UNL     1       1.538 -61.046 -25.366  1.00  0.00     0.246 CG0
ATOM     41  O   UNL     1       1.316 -62.125 -24.753  1.00  0.00    -0.272 OA
ATOM     42  G   UNL     1       2.974 -60.567 -25.498  1.00  0.00     0.000 G0
ENDBRANCH  35  40
ENDBRANCH  31  34
ENDBRANCH   2  30
ENDBRANCH   1   2
BRANCH   1  43
ATOM     43  C   UNL     1       0.387 -59.710 -18.914  1.00  0.00     0.003 C 
BRANCH  43  44
ATOM     44  C   UNL     1      -0.488 -58.657 -18.204  1.00  0.00     0.001 C 
BRANCH  44  45
ATOM     45  C   UNL     1      -0.081 -58.344 -16.751  1.00  0.00     0.008 C 
BRANCH  45  46
ATOM     46  C   UNL     1       1.288 -57.658 -16.608  1.00  0.00     0.075 C 
BRANCH  46  47
ATOM     47  C   UNL     1       2.408 -58.654 -16.453  1.00  0.00     0.132 C 
ATOM     48  O   UNL     1       2.200 -59.714 -15.881  1.00  0.00    -0.300 OA
BRANCH  47  49
ATOM     49  C   UNL     1       3.793 -58.339 -16.957  1.00  0.00     0.072 C 
ATOM     50  C   UNL     1       4.836 -58.645 -15.888  1.00  0.00     0.012 C 
ENDBRANCH  47  49
ENDBRANCH  46  47
ENDBRANCH  45  46
ENDBRANCH  44  45
ENDBRANCH  43  44
ENDBRANCH   1  43
TORSDOF 12
ENDMDL
MODEL 6
REMARK VINA RESULT:    -4.152      2.435      7.715
REMARK INTER + INTRA:         -11.474
REMARK INTER:                  -8.692
REMARK INTRA:                  -2.782
REMARK UNBOUND:                -2.711
REMARK SMILES CCC(=O)CCCCC[C@@H]1NC(=O)[C@@H]2CCCCN2C(=O)[C@@H]([C@H](C)CC)NC(=O)[C@H](Cc2cn(OC)c3ccccc23)NC1=O
REMARK SMILES IDX 9 1 10 2 44 3 43 4 45 6 30 7 28 8 27 9 29 11 22 12 23 14
REMARK SMILES IDX 24 15 25 16 26 17 31 18 32 19 33 20 42 21 34 22 37 23 41 24
REMARK SMILES IDX 38 25 40 26 39 27 35 28 36 29 11 30 12 31 13 33 14 34 19 35
REMARK SMILES IDX 15 36 18 37 16 38 17 39 20 40 21 41 8 43 7 44 6 45 5 46 3 47
REMARK SMILES IDX 4 48 2 49 1 50
REMARK H PARENT 43 5 27 10 11 32
REMARK Flexibility Score: 80.00
ROOT
ATOM      1  C   UNL     1       5.908 -58.859 -24.678  1.00  0.00     0.035 C 
ENDROOT
BRANCH   1   2
ATOM      2  C   UNL     1       4.997 -58.601 -23.456  1.00  0.00     0.171 C 
BRANCH   2   3
ATOM      3  C   UNL     1       4.145 -59.787 -23.089  1.00  0.00     0.243 C 
ATOM      4  N   UNL     1       3.088 -59.615 -22.130  1.00  0.00    -0.342 N 
ATOM      5  H   UNL     1       2.663 -58.664 -22.043  1.00  0.00     0.164 HD
ATOM      6  O   UNL     1       4.418 -60.933 -23.538  1.00  0.00    -0.273 OA
BRANCH   4   7
ATOM      7  C   UNL     1       2.791 -60.573 -21.061  1.00  0.00     0.175 C 
BRANCH   7   8
ATOM      8  C   UNL     1       3.974 -60.710 -20.128  1.00  0.00     0.243 C 
ATOM      9  N   UNL     1       4.482 -59.585 -19.385  1.00  0.00    -0.342 N 
ATOM     10  H   UNL     1       3.991 -58.667 -19.477  1.00  0.00     0.164 HD
ATOM     11  O   UNL     1       4.498 -61.847 -19.989  1.00  0.00    -0.273 OA
BRANCH   9  12
ATOM     12  C   UNL     1       5.730 -59.581 -18.609  1.00  0.00     0.174 CG0
ATOM     13  G   UNL     1       6.731 -58.601 -19.198  1.00  0.00     0.000 G0
BRANCH  12  14
ATOM     14  C   UNL     1       5.481 -59.397 -17.082  1.00  0.00     0.018 C 
ATOM     15  C   UNL     1       5.998 -60.619 -16.297  1.00  0.00     0.010 C 
BRANCH  14  16
ATOM     16  C   UNL     1       3.968 -59.181 -16.755  1.00  0.00     0.002 C 
ATOM     17  C   UNL     1       3.674 -57.770 -16.240  1.00  0.00     0.004 C 
ENDBRANCH  14  16
ENDBRANCH  12  14
ENDBRANCH   9  12
ENDBRANCH   7   8
BRANCH   7  18
ATOM     18  C   UNL     1       2.288 -61.919 -21.621  1.00  0.00     0.073 C 
BRANCH  18  19
ATOM     19  C   UNL     1       0.882 -61.782 -22.133  1.00  0.00    -0.016 A 
ATOM     20  C   UNL     1       0.484 -61.907 -23.462  1.00  0.00     0.134 A 
ATOM     21  C   UNL     1      -0.285 -61.703 -21.392  1.00  0.00     0.006 A 
ATOM     22  N   UNL     1      -0.868 -61.885 -23.537  1.00  0.00    -0.191 N 
ATOM     23  C   UNL     1      -1.328 -61.764 -22.283  1.00  0.00     0.087 A 
ATOM     24  C   UNL     1      -0.501 -61.620 -20.015  1.00  0.00     0.011 A 
ATOM     25  C   UNL     1      -2.656 -61.750 -21.857  1.00  0.00     0.030 A 
ATOM     26  C   UNL     1      -1.833 -61.598 -19.559  1.00  0.00     0.001 A 
ATOM     27  C   UNL     1      -2.905 -61.662 -20.476  1.00  0.00     0.002 A 
BRANCH  22  28
ATOM     28  O   UNL     1      -1.655 -62.029 -24.666  1.00  0.00    -0.417 OA
ATOM     29  C   UNL     1      -1.551 -61.153 -25.781  1.00  0.00     0.313 C 
ENDBRANCH  22  28
ENDBRANCH  18  19
ENDBRANCH   7  18
ENDBRANCH   4   7
ENDBRANCH   2   3
BRANCH   2  30
ATOM     30  N   UNL     1       5.761 -58.170 -22.281  1.00  0.00    -0.343 N 
ATOM     31  C   UNL     1       5.285 -57.204 -21.324  1.00  0.00     0.243 C 
ATOM     32  H   UNL     1       6.759 -58.474 -22.228  1.00  0.00     0.164 HD
ATOM     33  O   UNL     1       4.048 -57.009 -21.182  1.00  0.00    -0.273 OA
BRANCH  31  34
ATOM     34  C   UNL     1       6.275 -56.468 -20.453  1.00  0.00     0.174 C 
ATOM     35  N   UNL     1       6.622 -57.179 -19.205  1.00  0.00    -0.329 N 
ATOM     36  C   UNL     1       7.560 -56.124 -21.223  1.00  0.00     0.035 C 
ATOM     37  C   UNL     1       7.450 -56.388 -18.287  1.00  0.00     0.120 C 
ATOM     38  C   UNL     1       8.508 -55.308 -20.325  1.00  0.00     0.004 C 
ATOM     39  C   UNL     1       8.768 -56.011 -18.982  1.00  0.00     0.022 C 
BRANCH  35  40
ATOM     40  C   UNL     1       6.781 -58.613 -19.178  1.00  0.00     0.246 CG0
ATOM     41  O   UNL     1       7.839 -59.121 -19.638  1.00  0.00    -0.272 OA
ATOM     42  G   UNL     1       5.726 -59.537 -18.592  1.00  0.00     0.000 G0
ENDBRANCH  35  40
ENDBRANCH  31  34
ENDBRANCH   2  30
ENDBRANCH   1   2
BRANCH   1  43
ATOM     43  C   UNL     1       5.134 -59.113 -25.987  1.00  0.00     0.003 C 
BRANCH  43  44
ATOM     44  C   UNL     1       5.906 -59.905 -27.062  1.00  0.00     0.001 C 
BRANCH  44  45
ATOM     45  C   UNL     1       5.354 -59.770 -28.494  1.00  0.00     0.008 C 
BRANCH  45  46
ATOM     46  C   UNL     1       4.136 -60.661 -28.792  1.00  0.00     0.075 C 
BRANCH  46  47
ATOM     47  C   UNL     1       2.902 -59.852 -29.095  1.00  0.00     0.132 C 
ATOM     48  O   UNL     1       2.673 -59.503 -30.244  1.00  0.00    -0.300 OA
BRANCH  47  49
ATOM     49  C   UNL     1       1.968 -59.430 -27.989  1.00  0.00     0.072 C 
ATOM     50  C   UNL     1       1.856 -60.525 -26.934  1.00  0.00     0.012 C 
ENDBRANCH  47  49
ENDBRANCH  46  47
ENDBRANCH  45  46
ENDBRANCH  44  45
ENDBRANCH  43  44
ENDBRANCH   1  43
TORSDOF 12
ENDMDL
MODEL 7
REMARK VINA RESULT:    -4.145      3.636     10.635
REMARK INTER + INTRA:         -11.459
REMARK INTER:                  -8.892
REMARK INTRA:                  -2.567
REMARK UNBOUND:                -2.711
REMARK SMILES CCC(=O)CCCCC[C@@H]1NC(=O)[C@@H]2CCCCN2C(=O)[C@@H]([C@H](C)CC)NC(=O)[C@H](Cc2cn(OC)c3ccccc23)NC1=O
REMARK SMILES IDX 9 1 10 2 44 3 43 4 45 6 30 7 28 8 27 9 29 11 22 12 23 14
REMARK SMILES IDX 24 15 25 16 26 17 31 18 32 19 33 20 42 21 34 22 37 23 41 24
REMARK SMILES IDX 38 25 40 26 39 27 35 28 36 29 11 30 12 31 13 33 14 34 19 35
REMARK SMILES IDX 15 36 18 37 16 38 17 39 20 40 21 41 8 43 7 44 6 45 5 46 3 47
REMARK SMILES IDX 4 48 2 49 1 50
REMARK H PARENT 43 5 27 10 11 32
REMARK Flexibility Score: 80.00
ROOT
ATOM      1  C   UNL     1       7.022 -58.356 -16.548  1.00  0.00     0.035 C 
ENDROOT
BRANCH   1   2
ATOM      2  C   UNL     1       7.761 -58.071 -17.876  1.00  0.00     0.171 C 
BRANCH   2   3
ATOM      3  C   UNL     1       6.884 -58.233 -19.090  1.00  0.00     0.243 C 
ATOM      4  N   UNL     1       7.472 -58.104 -20.395  1.00  0.00    -0.342 N 
ATOM      5  H   UNL     1       8.487 -58.330 -20.493  1.00  0.00     0.164 HD
ATOM      6  O   UNL     1       5.638 -58.378 -18.963  1.00  0.00    -0.273 OA
BRANCH   4   7
ATOM      7  C   UNL     1       6.843 -57.382 -21.505  1.00  0.00     0.175 C 
BRANCH   7   8
ATOM      8  C   UNL     1       7.057 -55.891 -21.358  1.00  0.00     0.243 C 
ATOM      9  N   UNL     1       8.378 -55.323 -21.285  1.00  0.00    -0.342 N 
ATOM     10  H   UNL     1       9.199 -55.963 -21.371  1.00  0.00     0.164 HD
ATOM     11  O   UNL     1       6.044 -55.143 -21.326  1.00  0.00    -0.273 OA
BRANCH   9  12
ATOM     12  C   UNL     1       8.676 -53.922 -20.954  1.00  0.00     0.174 CG0
ATOM     13  G   UNL     1       8.917 -53.756 -19.463  1.00  0.00     0.000 G0
BRANCH  12  14
ATOM     14  C   UNL     1       9.802 -53.325 -21.852  1.00  0.00     0.018 C 
ATOM     15  C   UNL     1       9.460 -51.879 -22.261  1.00  0.00     0.010 C 
BRANCH  14  16
ATOM     16  C   UNL     1      10.042 -54.179 -23.139  1.00  0.00     0.002 C 
ATOM     17  C   UNL     1       9.855 -53.369 -24.424  1.00  0.00     0.004 C 
ENDBRANCH  14  16
ENDBRANCH  12  14
ENDBRANCH   9  12
ENDBRANCH   7   8
BRANCH   7  18
ATOM     18  C   UNL     1       5.364 -57.779 -21.683  1.00  0.00     0.073 C 
BRANCH  18  19
ATOM     19  C   UNL     1       5.162 -58.478 -22.998  1.00  0.00    -0.016 A 
ATOM     20  C   UNL     1       5.789 -58.152 -24.198  1.00  0.00     0.134 A 
ATOM     21  C   UNL     1       4.488 -59.665 -23.230  1.00  0.00     0.006 A 
ATOM     22  N   UNL     1       5.498 -59.087 -25.134  1.00  0.00    -0.191 N 
ATOM     23  C   UNL     1       4.713 -60.001 -24.543  1.00  0.00     0.087 A 
ATOM     24  C   UNL     1       3.735 -60.481 -22.385  1.00  0.00     0.011 A 
ATOM     25  C   UNL     1       4.204 -61.175 -25.097  1.00  0.00     0.030 A 
ATOM     26  C   UNL     1       3.204 -61.670 -22.920  1.00  0.00     0.001 A 
ATOM     27  C   UNL     1       3.437 -62.015 -24.269  1.00  0.00     0.002 A 
BRANCH  22  28
ATOM     28  O   UNL     1       5.962 -59.153 -26.436  1.00  0.00    -0.417 OA
ATOM     29  C   UNL     1       5.100 -59.011 -27.557  1.00  0.00     0.313 C 
ENDBRANCH  22  28
ENDBRANCH  18  19
ENDBRANCH   7  18
ENDBRANCH   4   7
ENDBRANCH   2   3
BRANCH   2  30
ATOM     30  N   UNL     1       8.370 -56.738 -17.892  1.00  0.00    -0.343 N 
ATOM     31  C   UNL     1       9.688 -56.463 -18.405  1.00  0.00     0.243 C 
ATOM     32  H   UNL     1       7.874 -55.983 -17.366  1.00  0.00     0.164 HD
ATOM     33  O   UNL     1      10.210 -57.233 -19.256  1.00  0.00    -0.273 OA
BRANCH  31  34
ATOM     34  C   UNL     1      10.418 -55.219 -17.957  1.00  0.00     0.174 C 
ATOM     35  N   UNL     1      10.211 -54.052 -18.840  1.00  0.00    -0.329 N 
ATOM     36  C   UNL     1      10.059 -54.841 -16.512  1.00  0.00     0.035 C 
ATOM     37  C   UNL     1      11.052 -52.898 -18.498  1.00  0.00     0.120 C 
ATOM     38  C   UNL     1      10.880 -53.615 -16.070  1.00  0.00     0.004 C 
ATOM     39  C   UNL     1      10.742 -52.448 -17.061  1.00  0.00     0.022 C 
BRANCH  35  40
ATOM     40  C   UNL     1       8.928 -53.786 -19.443  1.00  0.00     0.246 CG0
ATOM     41  O   UNL     1       7.965 -53.436 -18.707  1.00  0.00    -0.272 OA
ATOM     42  G   UNL     1       8.697 -53.888 -20.941  1.00  0.00     0.000 G0
ENDBRANCH  35  40
ENDBRANCH  31  34
ENDBRANCH   2  30
ENDBRANCH   1   2
BRANCH   1  43
ATOM     43  C   UNL     1       6.357 -57.111 -15.928  1.00  0.00     0.003 C 
BRANCH  43  44
ATOM     44  C   UNL     1       4.816 -57.095 -15.983  1.00  0.00     0.001 C 
BRANCH  44  45
ATOM     45  C   UNL     1       4.145 -58.478 -15.875  1.00  0.00     0.008 C 
BRANCH  45  46
ATOM     46  C   UNL     1       2.913 -58.659 -16.778  1.00  0.00     0.075 C 
BRANCH  46  47
ATOM     47  C   UNL     1       3.035 -59.869 -17.668  1.00  0.00     0.132 C 
ATOM     48  O   UNL     1       3.511 -60.903 -17.221  1.00  0.00    -0.300 OA
BRANCH  47  49
ATOM     49  C   UNL     1       2.618 -59.806 -19.114  1.00  0.00     0.072 C 
ATOM     50  C   UNL     1       1.329 -59.006 -19.267  1.00  0.00     0.012 C 
ENDBRANCH  47  49
ENDBRANCH  46  47
ENDBRANCH  45  46
ENDBRANCH  44  45
ENDBRANCH  43  44
ENDBRANCH   1  43
TORSDOF 12
ENDMDL
MODEL 8
REMARK VINA RESULT:    -4.013      2.385      7.453
REMARK INTER + INTRA:         -11.181
REMARK INTER:                  -9.299
REMARK INTRA:                  -1.882
REMARK UNBOUND:                -2.711
REMARK SMILES CCC(=O)CCCCC[C@@H]1NC(=O)[C@@H]2CCCCN2C(=O)[C@@H]([C@H](C)CC)NC(=O)[C@H](Cc2cn(OC)c3ccccc23)NC1=O
REMARK SMILES IDX 9 1 10 2 44 3 43 4 45 6 30 7 28 8 27 9 29 11 22 12 23 14
REMARK SMILES IDX 24 15 25 16 26 17 31 18 32 19 33 20 42 21 34 22 37 23 41 24
REMARK SMILES IDX 38 25 40 26 39 27 35 28 36 29 11 30 12 31 13 33 14 34 19 35
REMARK SMILES IDX 15 36 18 37 16 38 17 39 20 40 21 41 8 43 7 44 6 45 5 46 3 47
REMARK SMILES IDX 4 48 2 49 1 50
REMARK H PARENT 43 5 27 10 11 32
REMARK Flexibility Score: 80.00
ROOT
ATOM      1  C   UNL     1       5.533 -59.680 -24.766  1.00  0.00     0.035 C 
ENDROOT
BRANCH   1   2
ATOM      2  C   UNL     1       4.646 -59.155 -23.614  1.00  0.00     0.171 C 
BRANCH   2   3
ATOM      3  C   UNL     1       3.851 -60.240 -22.936  1.00  0.00     0.243 C 
ATOM      4  N   UNL     1       2.836 -59.869 -21.988  1.00  0.00    -0.342 N 
ATOM      5  H   UNL     1       2.386 -58.933 -22.101  1.00  0.00     0.164 HD
ATOM      6  O   UNL     1       4.139 -61.454 -23.120  1.00  0.00    -0.273 OA
BRANCH   4   7
ATOM      7  C   UNL     1       2.622 -60.557 -20.711  1.00  0.00     0.175 C 
BRANCH   7   8
ATOM      8  C   UNL     1       3.856 -60.456 -19.840  1.00  0.00     0.243 C 
ATOM      9  N   UNL     1       4.483 -59.189 -19.566  1.00  0.00    -0.342 N 
ATOM     10  H   UNL     1       4.045 -58.324 -19.955  1.00  0.00     0.164 HD
ATOM     11  O   UNL     1       4.315 -61.512 -19.331  1.00  0.00    -0.273 OA
BRANCH   9  12
ATOM     12  C   UNL     1       5.779 -59.017 -18.895  1.00  0.00     0.174 CG0
ATOM     13  G   UNL     1       6.706 -58.144 -19.723  1.00  0.00     0.000 G0
BRANCH  12  14
ATOM     14  C   UNL     1       5.627 -58.559 -17.413  1.00  0.00     0.018 C 
ATOM     15  C   UNL     1       6.860 -58.974 -16.587  1.00  0.00     0.010 C 
BRANCH  14  16
ATOM     16  C   UNL     1       4.342 -59.146 -16.745  1.00  0.00     0.002 C 
ATOM     17  C   UNL     1       4.590 -60.508 -16.091  1.00  0.00     0.004 C 
ENDBRANCH  14  16
ENDBRANCH  12  14
ENDBRANCH   9  12
ENDBRANCH   7   8
BRANCH   7  18
ATOM     18  C   UNL     1       2.126 -62.003 -20.914  1.00  0.00     0.073 C 
BRANCH  18  19
ATOM     19  C   UNL     1       0.655 -62.016 -21.216  1.00  0.00    -0.016 A 
ATOM     20  C   UNL     1      -0.369 -61.828 -20.290  1.00  0.00     0.134 A 
ATOM     21  C   UNL     1       0.046 -62.022 -22.459  1.00  0.00     0.006 A 
ATOM     22  N   UNL     1      -1.557 -61.740 -20.933  1.00  0.00    -0.191 N 
ATOM     23  C   UNL     1      -1.301 -61.856 -22.245  1.00  0.00     0.087 A 
ATOM     24  C   UNL     1       0.576 -62.122 -23.747  1.00  0.00     0.011 A 
ATOM     25  C   UNL     1      -2.206 -61.776 -23.303  1.00  0.00     0.030 A 
ATOM     26  C   UNL     1      -0.318 -62.050 -24.832  1.00  0.00     0.001 A 
ATOM     27  C   UNL     1      -1.702 -61.878 -24.611  1.00  0.00     0.002 A 
BRANCH  22  28
ATOM     28  O   UNL     1      -2.803 -61.507 -20.380  1.00  0.00    -0.417 OA
ATOM     29  C   UNL     1      -2.975 -60.777 -19.173  1.00  0.00     0.313 C 
ENDBRANCH  22  28
ENDBRANCH  18  19
ENDBRANCH   7  18
ENDBRANCH   4   7
ENDBRANCH   2   3
BRANCH   2  30
ATOM     30  N   UNL     1       5.423 -58.424 -22.610  1.00  0.00    -0.343 N 
ATOM     31  C   UNL     1       4.953 -57.240 -21.936  1.00  0.00     0.243 C 
ATOM     32  H   UNL     1       6.426 -58.696 -22.495  1.00  0.00     0.164 HD
ATOM     33  O   UNL     1       3.717 -57.021 -21.829  1.00  0.00    -0.273 OA
BRANCH  31  34
ATOM     34  C   UNL     1       5.950 -56.293 -21.310  1.00  0.00     0.174 C 
ATOM     35  N   UNL     1       6.456 -56.738 -19.995  1.00  0.00    -0.329 N 
ATOM     36  C   UNL     1       7.133 -56.014 -22.250  1.00  0.00     0.035 C 
ATOM     37  C   UNL     1       7.291 -55.740 -19.317  1.00  0.00     0.120 C 
ATOM     38  C   UNL     1       8.083 -54.987 -21.607  1.00  0.00     0.004 C 
ATOM     39  C   UNL     1       8.511 -55.412 -20.192  1.00  0.00     0.022 C 
BRANCH  35  40
ATOM     40  C   UNL     1       6.733 -58.129 -19.730  1.00  0.00     0.246 CG0
ATOM     41  O   UNL     1       7.796 -58.639 -20.178  1.00  0.00    -0.272 OA
ATOM     42  G   UNL     1       5.800 -59.001 -18.907  1.00  0.00     0.000 G0
ENDBRANCH  35  40
ENDBRANCH  31  34
ENDBRANCH   2  30
ENDBRANCH   1   2
BRANCH   1  43
ATOM     43  C   UNL     1       4.749 -60.423 -25.865  1.00  0.00     0.003 C 
BRANCH  43  44
ATOM     44  C   UNL     1       4.800 -59.772 -27.263  1.00  0.00     0.001 C 
BRANCH  44  45
ATOM     45  C   UNL     1       3.808 -60.352 -28.289  1.00  0.00     0.008 C 
BRANCH  45  46
ATOM     46  C   UNL     1       3.829 -59.653 -29.659  1.00  0.00     0.075 C 
BRANCH  46  47
ATOM     47  C   UNL     1       3.371 -58.220 -29.571  1.00  0.00     0.132 C 
ATOM     48  O   UNL     1       2.363 -57.945 -28.937  1.00  0.00    -0.300 OA
BRANCH  47  49
ATOM     49  C   UNL     1       4.118 -57.128 -30.292  1.00  0.00     0.072 C 
ATOM     50  C   UNL     1       4.989 -56.340 -29.320  1.00  0.00     0.012 C 
ENDBRANCH  47  49
ENDBRANCH  46  47
ENDBRANCH  45  46
ENDBRANCH  44  45
ENDBRANCH  43  44
ENDBRANCH   1  43
TORSDOF 12
ENDMDL
MODEL 9
REMARK VINA RESULT:    -3.985      3.575     10.529
REMARK INTER + INTRA:         -11.122
REMARK INTER:                  -8.837
REMARK INTRA:                  -2.285
REMARK UNBOUND:                -2.711
REMARK SMILES CCC(=O)CCCCC[C@@H]1NC(=O)[C@@H]2CCCCN2C(=O)[C@@H]([C@H](C)CC)NC(=O)[C@H](Cc2cn(OC)c3ccccc23)NC1=O
REMARK SMILES IDX 9 1 10 2 44 3 43 4 45 6 30 7 28 8 27 9 29 11 22 12 23 14
REMARK SMILES IDX 24 15 25 16 26 17 31 18 32 19 33 20 42 21 34 22 37 23 41 24
REMARK SMILES IDX 38 25 40 26 39 27 35 28 36 29 11 30 12 31 13 33 14 34 19 35
REMARK SMILES IDX 15 36 18 37 16 38 17 39 20 40 21 41 8 43 7 44 6 45 5 46 3 47
REMARK SMILES IDX 4 48 2 49 1 50
REMARK H PARENT 43 5 27 10 11 32
REMARK Flexibility Score: 80.00
ROOT
ATOM      1  C   UNL     1       6.772 -58.392 -16.850  1.00  0.00     0.035 C 
ENDROOT
BRANCH   1   2
ATOM      2  C   UNL     1       7.511 -58.041 -18.162  1.00  0.00     0.171 C 
BRANCH   2   3
ATOM      3  C   UNL     1       6.641 -58.160 -19.385  1.00  0.00     0.243 C 
ATOM      4  N   UNL     1       7.238 -58.002 -20.683  1.00  0.00    -0.342 N 
ATOM      5  H   UNL     1       8.251 -58.236 -20.781  1.00  0.00     0.164 HD
ATOM      6  O   UNL     1       5.392 -58.295 -19.270  1.00  0.00    -0.273 OA
BRANCH   4   7
ATOM      7  C   UNL     1       6.624 -57.243 -21.776  1.00  0.00     0.175 C 
BRANCH   7   8
ATOM      8  C   UNL     1       6.961 -55.773 -21.657  1.00  0.00     0.243 C 
ATOM      9  N   UNL     1       8.325 -55.315 -21.599  1.00  0.00    -0.342 N 
ATOM     10  H   UNL     1       9.090 -56.022 -21.677  1.00  0.00     0.164 HD
ATOM     11  O   UNL     1       6.013 -54.943 -21.636  1.00  0.00    -0.273 OA
BRANCH   9  12
ATOM     12  C   UNL     1       8.740 -53.938 -21.296  1.00  0.00     0.174 CG0
ATOM     13  G   UNL     1       8.841 -53.720 -19.796  1.00  0.00     0.000 G0
BRANCH  12  14
ATOM     14  C   UNL     1      10.012 -53.511 -22.089  1.00  0.00     0.018 C 
ATOM     15  C   UNL     1      10.014 -51.989 -22.333  1.00  0.00     0.010 C 
BRANCH  14  16
ATOM     16  C   UNL     1      10.125 -54.250 -23.461  1.00  0.00     0.002 C 
ATOM     17  C   UNL     1       9.952 -53.306 -24.654  1.00  0.00     0.004 C 
ENDBRANCH  14  16
ENDBRANCH  12  14
ENDBRANCH   9  12
ENDBRANCH   7   8
BRANCH   7  18
ATOM     18  C   UNL     1       5.111 -57.523 -21.890  1.00  0.00     0.073 C 
BRANCH  18  19
ATOM     19  C   UNL     1       4.864 -58.736 -22.740  1.00  0.00    -0.016 A 
ATOM     20  C   UNL     1       4.130 -59.858 -22.365  1.00  0.00     0.134 A 
ATOM     21  C   UNL     1       5.139 -58.895 -24.088  1.00  0.00     0.006 A 
ATOM     22  N   UNL     1       3.976 -60.681 -23.429  1.00  0.00    -0.191 N 
ATOM     23  C   UNL     1       4.586 -60.093 -24.470  1.00  0.00     0.087 A 
ATOM     24  C   UNL     1       5.794 -58.067 -25.002  1.00  0.00     0.011 A 
ATOM     25  C   UNL     1       4.647 -60.542 -25.788  1.00  0.00     0.030 A 
ATOM     26  C   UNL     1       5.875 -58.499 -26.339  1.00  0.00     0.001 A 
ATOM     27  C   UNL     1       5.305 -59.731 -26.730  1.00  0.00     0.002 A 
BRANCH  22  28
ATOM     28  O   UNL     1       3.272 -61.871 -23.484  1.00  0.00    -0.417 OA
ATOM     29  C   UNL     1       2.063 -62.072 -22.763  1.00  0.00     0.313 C 
ENDBRANCH  22  28
ENDBRANCH  18  19
ENDBRANCH   7  18
ENDBRANCH   4   7
ENDBRANCH   2   3
BRANCH   2  30
ATOM     30  N   UNL     1       8.104 -56.701 -18.117  1.00  0.00    -0.343 N 
ATOM     31  C   UNL     1       9.422 -56.389 -18.608  1.00  0.00     0.243 C 
ATOM     32  H   UNL     1       7.595 -55.975 -17.564  1.00  0.00     0.164 HD
ATOM     33  O   UNL     1       9.959 -57.115 -19.487  1.00  0.00    -0.273 OA
BRANCH  31  34
ATOM     34  C   UNL     1      10.133 -55.156 -18.103  1.00  0.00     0.174 C 
ATOM     35  N   UNL     1      10.061 -54.002 -19.025  1.00  0.00    -0.329 N 
ATOM     36  C   UNL     1       9.626 -54.738 -16.715  1.00  0.00     0.035 C 
ATOM     37  C   UNL     1      10.892 -52.865 -18.610  1.00  0.00     0.120 C 
ATOM     38  C   UNL     1      10.428 -53.526 -16.205  1.00  0.00     0.004 C 
ATOM     39  C   UNL     1      10.436 -52.376 -17.225  1.00  0.00     0.022 C 
BRANCH  35  40
ATOM     40  C   UNL     1       8.862 -53.714 -19.773  1.00  0.00     0.246 CG0
ATOM     41  O   UNL     1       7.860 -53.244 -19.169  1.00  0.00    -0.272 OA
ATOM     42  G   UNL     1       8.768 -53.934 -21.273  1.00  0.00     0.000 G0
ENDBRANCH  35  40
ENDBRANCH  31  34
ENDBRANCH   2  30
ENDBRANCH   1   2
BRANCH   1  43
ATOM     43  C   UNL     1       6.263 -57.162 -16.075  1.00  0.00     0.003 C 
BRANCH  43  44
ATOM     44  C   UNL     1       4.734 -57.098 -15.877  1.00  0.00     0.001 C 
BRANCH  44  45
ATOM     45  C   UNL     1       3.980 -58.404 -16.195  1.00  0.00     0.008 C 
BRANCH  45  46
ATOM     46  C   UNL     1       2.972 -58.290 -17.351  1.00  0.00     0.075 C 
BRANCH  46  47
ATOM     47  C   UNL     1       1.902 -59.348 -17.276  1.00  0.00     0.132 C 
ATOM     48  O   UNL     1       2.131 -60.402 -16.699  1.00  0.00    -0.300 OA
BRANCH  47  49
ATOM     49  C   UNL     1       0.566 -59.139 -17.941  1.00  0.00     0.072 C 
ATOM     50  C   UNL     1      -0.242 -58.078 -17.202  1.00  0.00     0.012 C 
ENDBRANCH  47  49
ENDBRANCH  46  47
ENDBRANCH  45  46
ENDBRANCH  44  45
ENDBRANCH  43  44
ENDBRANCH   1  43
TORSDOF 12
ENDMDL
