MODEL 1
REMARK VINA RESULT:    -4.121      0.000      0.000
REMARK INTER + INTRA:          -7.547
REMARK INTER:                  -5.687
REMARK INTRA:                  -1.861
REMARK UNBOUND:                -1.861
REMARK SMILES CC[C@@H](CC[C@H](C)[C@@H]1CC[C@@H]2[C@H]3CC=C4C[C@@H](O)CC[C@]4(C)[C@H]3CC[C@]21C)C(C)C
REMARK SMILES IDX 5 1 4 2 3 3 2 4 1 5 28 6 29 7 30 8 6 9 7 10 8 11 9 12 26 13
REMARK SMILES IDX 10 14 11 15 25 16 27 17 12 18 24 19 23 20 13 21 21 22 14 23
REMARK SMILES IDX 15 24 20 25 22 26 16 27 19 28 17 29 18 30
REMARK H PARENT 18 31
REMARK Flexibility Score: inf
ROOT
ATOM      1  C   UNL     1      35.067  11.169  19.922  1.00  0.00     0.004 C 
ENDROOT
BRANCH   1   2
ATOM      2  C   UNL     1      35.638  11.743  21.245  1.00  0.00     0.004 C 
BRANCH   2   3
ATOM      3  C   UNL     1      35.760  10.766  22.459  1.00  0.00    -0.009 C 
BRANCH   3   4
ATOM      4  C   UNL     1      34.791  11.260  23.573  1.00  0.00     0.000 C 
ATOM      5  C   UNL     1      33.307  11.035  23.281  1.00  0.00     0.004 C 
ENDBRANCH   3   4
BRANCH   3   6
ATOM      6  C   UNL     1      37.247  10.555  22.920  1.00  0.00    -0.014 C 
ATOM      7  C   UNL     1      38.281  11.071  21.903  1.00  0.00     0.007 C 
ATOM      8  C   UNL     1      37.575   9.120  23.352  1.00  0.00     0.007 C 
ENDBRANCH   3   6
ENDBRANCH   2   3
ENDBRANCH   1   2
BRANCH   1   9
ATOM      9  C   UNL     1      35.558   9.747  19.538  1.00  0.00    -0.011 C 
ATOM     10  C   UNL     1      36.480   9.826  18.298  1.00  0.00     0.008 C 
BRANCH   9  11
ATOM     11  C   UNL     1      34.395   8.682  19.489  1.00  0.00    -0.002 C 
ATOM     12  C   UNL     1      33.169   9.074  20.357  1.00  0.00     0.005 C 
ATOM     13  C   UNL     1      34.651   7.164  19.787  1.00  0.00    -0.026 C 
ATOM     14  C   UNL     1      32.558   7.772  20.888  1.00  0.00     0.005 C 
ATOM     15  C   UNL     1      33.202   6.689  20.037  1.00  0.00    -0.001 C 
ATOM     16  C   UNL     1      35.244   6.334  18.598  1.00  0.00     0.007 C 
ATOM     17  C   UNL     1      35.558   6.975  21.036  1.00  0.00     0.012 C 
ATOM     18  C   UNL     1      33.125   5.235  20.552  1.00  0.00     0.000 C 
ATOM     19  C   UNL     1      34.547   4.965  18.366  1.00  0.00     0.005 C 
ATOM     20  C   UNL     1      34.025   4.273  19.671  1.00  0.00     0.003 C 
ATOM     21  C   UNL     1      31.667   4.762  20.660  1.00  0.00     0.031 C 
ATOM     22  C   UNL     1      33.395   2.832  19.403  1.00  0.00    -0.008 C 
ATOM     23  C   UNL     1      31.642   3.331  21.098  1.00  0.00    -0.027 C 
ATOM     24  C   UNL     1      32.481   2.422  20.563  1.00  0.00    -0.065 C 
ATOM     25  C   UNL     1      34.554   1.800  19.270  1.00  0.00     0.014 C 
ATOM     26  C   UNL     1      32.541   2.806  18.102  1.00  0.00     0.016 C 
ATOM     27  C   UNL     1      32.415   1.007  21.123  1.00  0.00     0.063 C 
ATOM     28  C   UNL     1      34.051   0.360  19.185  1.00  0.00     0.033 C 
ATOM     29  C   UNL     1      33.340  -0.066  20.482  1.00  0.00     0.118 C 
BRANCH  29  30
ATOM     30  O   UNL     1      32.623  -1.264  20.278  1.00  0.00    -0.393 OA
ATOM     31  H   UNL     1      31.658  -1.044  20.384  1.00  0.00     0.210 HD
ENDBRANCH  29  30
ENDBRANCH   9  11
ENDBRANCH   1   9
TORSDOF 7
ENDMDL
MODEL 2
REMARK VINA RESULT:    -4.120      4.907      8.120
REMARK INTER + INTRA:          -7.546
REMARK INTER:                  -5.794
REMARK INTRA:                  -1.752
REMARK UNBOUND:                -1.861
REMARK SMILES CC[C@@H](CC[C@H](C)[C@@H]1CC[C@@H]2[C@H]3CC=C4C[C@@H](O)CC[C@]4(C)[C@H]3CC[C@]21C)C(C)C
REMARK SMILES IDX 5 1 4 2 3 3 2 4 1 5 28 6 29 7 30 8 6 9 7 10 8 11 9 12 26 13
REMARK SMILES IDX 10 14 11 15 25 16 27 17 12 18 24 19 23 20 13 21 21 22 14 23
REMARK SMILES IDX 15 24 20 25 22 26 16 27 19 28 17 29 18 30
REMARK H PARENT 18 31
REMARK Flexibility Score: inf
ROOT
ATOM      1  C   UNL     1      43.589   9.956  21.061  1.00  0.00     0.004 C 
ENDROOT
BRANCH   1   2
ATOM      2  C   UNL     1      44.369   9.882  22.400  1.00  0.00     0.004 C 
BRANCH   2   3
ATOM      3  C   UNL     1      43.612   9.313  23.643  1.00  0.00    -0.009 C 
BRANCH   3   4
ATOM      4  C   UNL     1      43.761  10.335  24.808  1.00  0.00     0.000 C 
ATOM      5  C   UNL     1      43.927  11.790  24.369  1.00  0.00     0.004 C 
ENDBRANCH   3   4
BRANCH   3   6
ATOM      6  C   UNL     1      44.042   7.843  23.993  1.00  0.00    -0.014 C 
ATOM      7  C   UNL     1      45.355   7.412  23.315  1.00  0.00     0.007 C 
ATOM      8  C   UNL     1      42.943   6.795  23.769  1.00  0.00     0.007 C 
ENDBRANCH   3   6
ENDBRANCH   2   3
ENDBRANCH   1   2
BRANCH   1   9
ATOM      9  C   UNL     1      42.228   9.209  21.034  1.00  0.00    -0.011 C 
ATOM     10  C   UNL     1      42.221   8.172  19.884  1.00  0.00     0.008 C 
BRANCH   9  11
ATOM     11  C   UNL     1      40.986  10.178  21.121  1.00  0.00    -0.002 C 
ATOM     12  C   UNL     1      41.218  11.384  22.071  1.00  0.00     0.005 C 
ATOM     13  C   UNL     1      39.548   9.651  21.456  1.00  0.00    -0.026 C 
ATOM     14  C   UNL     1      39.863  11.729  22.700  1.00  0.00     0.005 C 
ATOM     15  C   UNL     1      38.857  10.978  21.842  1.00  0.00    -0.001 C 
ATOM     16  C   UNL     1      38.766   9.018  20.256  1.00  0.00     0.007 C 
ATOM     17  C   UNL     1      39.575   8.635  22.633  1.00  0.00     0.012 C 
ATOM     18  C   UNL     1      37.438  10.773  22.417  1.00  0.00     0.000 C 
ATOM     19  C   UNL     1      37.291   9.492  20.135  1.00  0.00     0.005 C 
ATOM     20  C   UNL     1      36.592   9.793  21.504  1.00  0.00     0.003 C 
ATOM     21  C   UNL     1      36.740  12.119  22.663  1.00  0.00     0.031 C 
ATOM     22  C   UNL     1      35.055  10.192  21.345  1.00  0.00    -0.008 C 
ATOM     23  C   UNL     1      35.349  11.873  23.157  1.00  0.00    -0.027 C 
ATOM     24  C   UNL     1      34.562  10.937  22.590  1.00  0.00    -0.065 C 
ATOM     25  C   UNL     1      34.221   8.890  21.157  1.00  0.00     0.014 C 
ATOM     26  C   UNL     1      34.823  11.124  20.120  1.00  0.00     0.016 C 
ATOM     27  C   UNL     1      33.186  10.724  23.208  1.00  0.00     0.063 C 
ATOM     28  C   UNL     1      32.715   9.152  21.170  1.00  0.00     0.033 C 
ATOM     29  C   UNL     1      32.247   9.683  22.535  1.00  0.00     0.118 C 
BRANCH  29  30
ATOM     30  O   UNL     1      30.940  10.204  22.437  1.00  0.00    -0.393 OA
ATOM     31  H   UNL     1      30.549   9.845  21.595  1.00  0.00     0.210 HD
ENDBRANCH  29  30
ENDBRANCH   9  11
ENDBRANCH   1   9
TORSDOF 7
ENDMDL
MODEL 3
REMARK VINA RESULT:    -4.118      4.965      8.610
REMARK INTER + INTRA:          -7.544
REMARK INTER:                  -6.173
REMARK INTRA:                  -1.371
REMARK UNBOUND:                -1.861
REMARK SMILES CC[C@@H](CC[C@H](C)[C@@H]1CC[C@@H]2[C@H]3CC=C4C[C@@H](O)CC[C@]4(C)[C@H]3CC[C@]21C)C(C)C
REMARK SMILES IDX 5 1 4 2 3 3 2 4 1 5 28 6 29 7 30 8 6 9 7 10 8 11 9 12 26 13
REMARK SMILES IDX 10 14 11 15 25 16 27 17 12 18 24 19 23 20 13 21 21 22 14 23
REMARK SMILES IDX 15 24 20 25 22 26 16 27 19 28 17 29 18 30
REMARK H PARENT 18 31
REMARK Flexibility Score: inf
ROOT
ATOM      1  C   UNL     1      43.145   8.443  23.142  1.00  0.00     0.004 C 
ENDROOT
BRANCH   1   2
ATOM      2  C   UNL     1      44.600   8.319  22.622  1.00  0.00     0.004 C 
BRANCH   2   3
ATOM      3  C   UNL     1      45.400   9.644  22.402  1.00  0.00    -0.009 C 
BRANCH   3   4
ATOM      4  C   UNL     1      46.908   9.343  22.650  1.00  0.00     0.000 C 
ATOM      5  C   UNL     1      47.236   7.872  22.904  1.00  0.00     0.004 C 
ENDBRANCH   3   4
BRANCH   3   6
ATOM      6  C   UNL     1      44.820  10.846  23.230  1.00  0.00    -0.014 C 
ATOM      7  C   UNL     1      44.623  12.124  22.396  1.00  0.00     0.007 C 
ATOM      8  C   UNL     1      45.590  11.150  24.522  1.00  0.00     0.007 C 
ENDBRANCH   3   6
ENDBRANCH   2   3
ENDBRANCH   1   2
BRANCH   1   9
ATOM      9  C   UNL     1      42.033   8.050  22.130  1.00  0.00    -0.011 C 
ATOM     10  C   UNL     1      42.674   7.498  20.834  1.00  0.00     0.008 C 
BRANCH   9  11
ATOM     11  C   UNL     1      40.932   9.166  21.955  1.00  0.00    -0.002 C 
ATOM     12  C   UNL     1      41.269  10.482  22.707  1.00  0.00     0.005 C 
ATOM     13  C   UNL     1      39.418   8.889  22.257  1.00  0.00    -0.026 C 
ATOM     14  C   UNL     1      39.940  11.097  23.160  1.00  0.00     0.005 C 
ATOM     15  C   UNL     1      38.893  10.338  22.361  1.00  0.00    -0.001 C 
ATOM     16  C   UNL     1      38.628   8.157  21.120  1.00  0.00     0.007 C 
ATOM     17  C   UNL     1      39.239   8.098  23.585  1.00  0.00     0.012 C 
ATOM     18  C   UNL     1      37.428  10.414  22.847  1.00  0.00     0.000 C 
ATOM     19  C   UNL     1      37.240   8.781  20.805  1.00  0.00     0.005 C 
ATOM     20  C   UNL     1      36.511   9.401  22.044  1.00  0.00     0.003 C 
ATOM     21  C   UNL     1      36.906  11.858  22.809  1.00  0.00     0.031 C 
ATOM     22  C   UNL     1      35.054   9.953  21.699  1.00  0.00    -0.008 C 
ATOM     23  C   UNL     1      35.469  11.876  23.224  1.00  0.00    -0.027 C 
ATOM     24  C   UNL     1      34.596  10.960  22.760  1.00  0.00    -0.065 C 
ATOM     25  C   UNL     1      34.063   8.752  21.664  1.00  0.00     0.014 C 
ATOM     26  C   UNL     1      35.022  10.678  20.321  1.00  0.00     0.016 C 
ATOM     27  C   UNL     1      33.171  11.030  23.292  1.00  0.00     0.063 C 
ATOM     28  C   UNL     1      32.609   9.196  21.512  1.00  0.00     0.033 C 
ATOM     29  C   UNL     1      32.139  10.013  22.729  1.00  0.00     0.118 C 
BRANCH  29  30
ATOM     30  O   UNL     1      30.922  10.666  22.442  1.00  0.00    -0.393 OA
ATOM     31  H   UNL     1      30.405  10.061  21.844  1.00  0.00     0.210 HD
ENDBRANCH  29  30
ENDBRANCH   9  11
ENDBRANCH   1   9
TORSDOF 7
ENDMDL
MODEL 4
REMARK VINA RESULT:    -4.111      4.913      8.323
REMARK INTER + INTRA:          -7.533
REMARK INTER:                  -6.067
REMARK INTRA:                  -1.467
REMARK UNBOUND:                -1.861
REMARK SMILES CC[C@@H](CC[C@H](C)[C@@H]1CC[C@@H]2[C@H]3CC=C4C[C@@H](O)CC[C@]4(C)[C@H]3CC[C@]21C)C(C)C
REMARK SMILES IDX 5 1 4 2 3 3 2 4 1 5 28 6 29 7 30 8 6 9 7 10 8 11 9 12 26 13
REMARK SMILES IDX 10 14 11 15 25 16 27 17 12 18 24 19 23 20 13 21 21 22 14 23
REMARK SMILES IDX 15 24 20 25 22 26 16 27 19 28 17 29 18 30
REMARK H PARENT 18 31
REMARK Flexibility Score: inf
ROOT
ATOM      1  C   UNL     1      43.447   8.790  21.690  1.00  0.00     0.004 C 
ENDROOT
BRANCH   1   2
ATOM      2  C   UNL     1      44.072   9.292  20.363  1.00  0.00     0.004 C 
BRANCH   2   3
ATOM      3  C   UNL     1      44.303  10.831  20.214  1.00  0.00    -0.009 C 
BRANCH   3   4
ATOM      4  C   UNL     1      43.553  11.310  18.937  1.00  0.00     0.000 C 
ATOM      5  C   UNL     1      42.729  10.231  18.233  1.00  0.00     0.004 C 
ENDBRANCH   3   4
BRANCH   3   6
ATOM      6  C   UNL     1      45.824  11.223  20.275  1.00  0.00    -0.014 C 
ATOM      7  C   UNL     1      46.770  10.050  19.965  1.00  0.00     0.007 C 
ATOM      8  C   UNL     1      46.239  11.934  21.570  1.00  0.00     0.007 C 
ENDBRANCH   3   6
ENDBRANCH   2   3
ENDBRANCH   1   2
BRANCH   1   9
ATOM      9  C   UNL     1      42.016   8.197  21.579  1.00  0.00    -0.011 C 
ATOM     10  C   UNL     1      41.972   7.142  20.447  1.00  0.00     0.008 C 
BRANCH   9  11
ATOM     11  C   UNL     1      40.887   9.298  21.564  1.00  0.00    -0.002 C 
ATOM     12  C   UNL     1      41.226  10.533  22.443  1.00  0.00     0.005 C 
ATOM     13  C   UNL     1      39.392   8.954  21.886  1.00  0.00    -0.026 C 
ATOM     14  C   UNL     1      39.903  11.063  23.005  1.00  0.00     0.005 C 
ATOM     15  C   UNL     1      38.842  10.371  22.164  1.00  0.00    -0.001 C 
ATOM     16  C   UNL     1      38.574   8.331  20.704  1.00  0.00     0.007 C 
ATOM     17  C   UNL     1      39.277   8.021  23.125  1.00  0.00     0.012 C 
ATOM     18  C   UNL     1      37.395  10.359  22.706  1.00  0.00     0.000 C 
ATOM     19  C   UNL     1      37.164   8.953  20.506  1.00  0.00     0.005 C 
ATOM     20  C   UNL     1      36.469   9.418  21.830  1.00  0.00     0.003 C 
ATOM     21  C   UNL     1      36.844  11.787  22.844  1.00  0.00     0.031 C 
ATOM     22  C   UNL     1      34.990   9.970  21.597  1.00  0.00    -0.008 C 
ATOM     23  C   UNL     1      35.422  11.726  23.307  1.00  0.00    -0.027 C 
ATOM     24  C   UNL     1      34.551  10.845  22.777  1.00  0.00    -0.065 C 
ATOM     25  C   UNL     1      34.022   8.757  21.466  1.00  0.00     0.014 C 
ATOM     26  C   UNL     1      34.893  10.838  20.309  1.00  0.00     0.016 C 
ATOM     27  C   UNL     1      33.146  10.824  23.362  1.00  0.00     0.063 C 
ATOM     28  C   UNL     1      32.555   9.180  21.414  1.00  0.00     0.033 C 
ATOM     29  C   UNL     1      32.114   9.849  22.727  1.00  0.00     0.118 C 
BRANCH  29  30
ATOM     30  O   UNL     1      30.875  10.500  22.555  1.00  0.00    -0.393 OA
ATOM     31  H   UNL     1      30.975  11.108  21.773  1.00  0.00     0.210 HD
ENDBRANCH  29  30
ENDBRANCH   9  11
ENDBRANCH   1   9
TORSDOF 7
ENDMDL
MODEL 5
REMARK VINA RESULT:    -3.969      4.407      8.105
REMARK INTER + INTRA:          -7.338
REMARK INTER:                  -5.988
REMARK INTRA:                  -1.349
REMARK UNBOUND:                -1.861
REMARK SMILES CC[C@@H](CC[C@H](C)[C@@H]1CC[C@@H]2[C@H]3CC=C4C[C@@H](O)CC[C@]4(C)[C@H]3CC[C@]21C)C(C)C
REMARK SMILES IDX 5 1 4 2 3 3 2 4 1 5 28 6 29 7 30 8 6 9 7 10 8 11 9 12 26 13
REMARK SMILES IDX 10 14 11 15 25 16 27 17 12 18 24 19 23 20 13 21 21 22 14 23
REMARK SMILES IDX 15 24 20 25 22 26 16 27 19 28 17 29 18 30
REMARK H PARENT 18 31
REMARK Flexibility Score: inf
ROOT
ATOM      1  C   UNL     1      41.729   6.801  21.175  1.00  0.00     0.004 C 
ENDROOT
BRANCH   1   2
ATOM      2  C   UNL     1      41.709   5.469  21.969  1.00  0.00     0.004 C 
BRANCH   2   3
ATOM      3  C   UNL     1      40.320   4.947  22.461  1.00  0.00    -0.009 C 
BRANCH   3   4
ATOM      4  C   UNL     1      40.480   4.464  23.933  1.00  0.00     0.000 C 
ATOM      5  C   UNL     1      41.914   4.136  24.349  1.00  0.00     0.004 C 
ENDBRANCH   3   4
BRANCH   3   6
ATOM      6  C   UNL     1      39.690   3.890  21.483  1.00  0.00    -0.014 C 
ATOM      7  C   UNL     1      38.364   4.354  20.855  1.00  0.00     0.007 C 
ATOM      8  C   UNL     1      39.550   2.484  22.081  1.00  0.00     0.007 C 
ENDBRANCH   3   6
ENDBRANCH   2   3
ENDBRANCH   1   2
BRANCH   1   9
ATOM      9  C   UNL     1      42.006   8.080  22.011  1.00  0.00    -0.011 C 
ATOM     10  C   UNL     1      42.386   7.688  23.460  1.00  0.00     0.008 C 
BRANCH   9  11
ATOM     11  C   UNL     1      40.890   9.182  21.846  1.00  0.00    -0.002 C 
ATOM     12  C   UNL     1      41.227  10.509  22.581  1.00  0.00     0.005 C 
ATOM     13  C   UNL     1      39.385   8.892  22.177  1.00  0.00    -0.026 C 
ATOM     14  C   UNL     1      39.899  11.113  23.052  1.00  0.00     0.005 C 
ATOM     15  C   UNL     1      38.846  10.336  22.277  1.00  0.00    -0.001 C 
ATOM     16  C   UNL     1      38.582   8.143  21.060  1.00  0.00     0.007 C 
ATOM     17  C   UNL     1      39.237   8.111  23.514  1.00  0.00     0.012 C 
ATOM     18  C   UNL     1      37.389  10.401  22.789  1.00  0.00     0.000 C 
ATOM     19  C   UNL     1      37.183   8.750  20.763  1.00  0.00     0.005 C 
ATOM     20  C   UNL     1      36.469   9.372  22.010  1.00  0.00     0.003 C 
ATOM     21  C   UNL     1      36.852  11.840  22.747  1.00  0.00     0.031 C 
ATOM     22  C   UNL     1      35.001   9.906  21.685  1.00  0.00    -0.008 C 
ATOM     23  C   UNL     1      35.421  11.847  23.187  1.00  0.00    -0.027 C 
ATOM     24  C   UNL     1      34.550  10.918  22.746  1.00  0.00    -0.065 C 
ATOM     25  C   UNL     1      34.022   8.695  21.678  1.00  0.00     0.014 C 
ATOM     26  C   UNL     1      34.937  10.619  20.303  1.00  0.00     0.016 C 
ATOM     27  C   UNL     1      33.134  10.978  23.302  1.00  0.00     0.063 C 
ATOM     28  C   UNL     1      32.561   9.123  21.548  1.00  0.00     0.033 C 
ATOM     29  C   UNL     1      32.104   9.945  22.766  1.00  0.00     0.118 C 
BRANCH  29  30
ATOM     30  O   UNL     1      30.875  10.582  22.494  1.00  0.00    -0.393 OA
ATOM     31  H   UNL     1      30.496  10.145  21.685  1.00  0.00     0.210 HD
ENDBRANCH  29  30
ENDBRANCH   9  11
ENDBRANCH   1   9
TORSDOF 7
ENDMDL
MODEL 6
REMARK VINA RESULT:    -3.889      1.680      3.498
REMARK INTER + INTRA:          -7.228
REMARK INTER:                  -5.960
REMARK INTRA:                  -1.268
REMARK UNBOUND:                -1.861
REMARK SMILES CC[C@@H](CC[C@H](C)[C@@H]1CC[C@@H]2[C@H]3CC=C4C[C@@H](O)CC[C@]4(C)[C@H]3CC[C@]21C)C(C)C
REMARK SMILES IDX 5 1 4 2 3 3 2 4 1 5 28 6 29 7 30 8 6 9 7 10 8 11 9 12 26 13
REMARK SMILES IDX 10 14 11 15 25 16 27 17 12 18 24 19 23 20 13 21 21 22 14 23
REMARK SMILES IDX 15 24 20 25 22 26 16 27 19 28 17 29 18 30
REMARK H PARENT 18 31
REMARK Flexibility Score: inf
ROOT
ATOM      1  C   UNL     1      32.893   8.262  20.896  1.00  0.00     0.004 C 
ENDROOT
BRANCH   1   2
ATOM      2  C   UNL     1      33.380   9.551  20.187  1.00  0.00     0.004 C 
BRANCH   2   3
ATOM      3  C   UNL     1      33.483  10.851  21.049  1.00  0.00    -0.009 C 
BRANCH   3   4
ATOM      4  C   UNL     1      34.749  11.634  20.590  1.00  0.00     0.000 C 
ATOM      5  C   UNL     1      35.373  11.139  19.286  1.00  0.00     0.004 C 
ENDBRANCH   3   4
BRANCH   3   6
ATOM      6  C   UNL     1      33.406  10.562  22.591  1.00  0.00    -0.014 C 
ATOM      7  C   UNL     1      32.082  11.014  23.232  1.00  0.00     0.007 C 
ATOM      8  C   UNL     1      34.607  11.087  23.391  1.00  0.00     0.007 C 
ENDBRANCH   3   6
ENDBRANCH   2   3
ENDBRANCH   1   2
BRANCH   1   9
ATOM      9  C   UNL     1      33.860   7.048  20.826  1.00  0.00    -0.011 C 
ATOM     10  C   UNL     1      35.264   7.521  20.379  1.00  0.00     0.008 C 
BRANCH   9  11
ATOM     11  C   UNL     1      33.251   5.813  20.057  1.00  0.00    -0.002 C 
ATOM     12  C   UNL     1      31.748   5.990  19.709  1.00  0.00     0.005 C 
ATOM     13  C   UNL     1      33.383   4.350  20.606  1.00  0.00    -0.026 C 
ATOM     14  C   UNL     1      31.106   4.599  19.760  1.00  0.00     0.005 C 
ATOM     15  C   UNL     1      32.292   3.647  19.768  1.00  0.00    -0.001 C 
ATOM     16  C   UNL     1      34.753   3.646  20.323  1.00  0.00     0.007 C 
ATOM     17  C   UNL     1      33.089   4.287  22.132  1.00  0.00     0.012 C 
ATOM     18  C   UNL     1      32.036   2.190  20.214  1.00  0.00     0.000 C 
ATOM     19  C   UNL     1      34.625   2.187  19.803  1.00  0.00     0.005 C 
ATOM     20  C   UNL     1      33.400   1.399  20.377  1.00  0.00     0.003 C 
ATOM     21  C   UNL     1      31.043   1.490  19.275  1.00  0.00     0.031 C 
ATOM     22  C   UNL     1      33.351  -0.119  19.890  1.00  0.00    -0.008 C 
ATOM     23  C   UNL     1      30.875   0.066  19.704  1.00  0.00    -0.027 C 
ATOM     24  C   UNL     1      31.936  -0.690  20.050  1.00  0.00    -0.065 C 
ATOM     25  C   UNL     1      34.344  -0.951  20.754  1.00  0.00     0.014 C 
ATOM     26  C   UNL     1      33.744  -0.258  18.390  1.00  0.00     0.016 C 
ATOM     27  C   UNL     1      31.651  -2.106  20.530  1.00  0.00     0.063 C 
ATOM     28  C   UNL     1      34.244  -2.451  20.481  1.00  0.00     0.033 C 
ATOM     29  C   UNL     1      32.867  -3.007  20.884  1.00  0.00     0.118 C 
BRANCH  29  30
ATOM     30  O   UNL     1      32.684  -4.300  20.350  1.00  0.00    -0.393 OA
ATOM     31  H   UNL     1      32.959  -4.259  19.395  1.00  0.00     0.210 HD
ENDBRANCH  29  30
ENDBRANCH   9  11
ENDBRANCH   1   9
TORSDOF 7
ENDMDL
MODEL 7
REMARK VINA RESULT:    -3.810      1.647      3.761
REMARK INTER + INTRA:          -7.118
REMARK INTER:                  -5.922
REMARK INTRA:                  -1.196
REMARK UNBOUND:                -1.861
REMARK SMILES CC[C@@H](CC[C@H](C)[C@@H]1CC[C@@H]2[C@H]3CC=C4C[C@@H](O)CC[C@]4(C)[C@H]3CC[C@]21C)C(C)C
REMARK SMILES IDX 5 1 4 2 3 3 2 4 1 5 28 6 29 7 30 8 6 9 7 10 8 11 9 12 26 13
REMARK SMILES IDX 10 14 11 15 25 16 27 17 12 18 24 19 23 20 13 21 21 22 14 23
REMARK SMILES IDX 15 24 20 25 22 26 16 27 19 28 17 29 18 30
REMARK H PARENT 18 31
REMARK Flexibility Score: inf
ROOT
ATOM      1  C   UNL     1      33.214   8.377  20.274  1.00  0.00     0.004 C 
ENDROOT
BRANCH   1   2
ATOM      2  C   UNL     1      33.124   9.728  21.031  1.00  0.00     0.004 C 
BRANCH   2   3
ATOM      3  C   UNL     1      34.113   9.953  22.220  1.00  0.00    -0.009 C 
BRANCH   3   4
ATOM      4  C   UNL     1      33.411  10.873  23.263  1.00  0.00     0.000 C 
ATOM      5  C   UNL     1      32.006  11.331  22.872  1.00  0.00     0.004 C 
ENDBRANCH   3   4
BRANCH   3   6
ATOM      6  C   UNL     1      35.527  10.448  21.747  1.00  0.00    -0.014 C 
ATOM      7  C   UNL     1      36.554  10.546  22.889  1.00  0.00     0.007 C 
ATOM      8  C   UNL     1      35.498  11.745  20.925  1.00  0.00     0.007 C 
ENDBRANCH   3   6
ENDBRANCH   2   3
ENDBRANCH   1   2
BRANCH   1   9
ATOM      9  C   UNL     1      32.145   7.319  20.658  1.00  0.00    -0.011 C 
ATOM     10  C   UNL     1      31.171   7.911  21.705  1.00  0.00     0.008 C 
BRANCH   9  11
ATOM     11  C   UNL     1      32.762   5.904  20.986  1.00  0.00    -0.002 C 
ATOM     12  C   UNL     1      34.314   5.913  21.046  1.00  0.00     0.005 C 
ATOM     13  C   UNL     1      32.382   4.625  20.163  1.00  0.00    -0.026 C 
ATOM     14  C   UNL     1      34.791   4.543  20.552  1.00  0.00     0.005 C 
ATOM     15  C   UNL     1      33.536   3.685  20.576  1.00  0.00    -0.001 C 
ATOM     16  C   UNL     1      31.027   3.947  20.559  1.00  0.00     0.007 C 
ATOM     17  C   UNL     1      32.374   4.915  18.635  1.00  0.00     0.012 C 
ATOM     18  C   UNL     1      33.556   2.366  19.771  1.00  0.00     0.000 C 
ATOM     19  C   UNL     1      31.105   2.401  20.700  1.00  0.00     0.005 C 
ATOM     20  C   UNL     1      32.114   1.711  19.722  1.00  0.00     0.003 C 
ATOM     21  C   UNL     1      34.634   1.409  20.302  1.00  0.00     0.031 C 
ATOM     22  C   UNL     1      32.102   0.119  19.835  1.00  0.00    -0.008 C 
ATOM     23  C   UNL     1      34.574   0.123  19.539  1.00  0.00    -0.027 C 
ATOM     24  C   UNL     1      33.396  -0.470  19.261  1.00  0.00    -0.065 C 
ATOM     25  C   UNL     1      30.885  -0.427  19.032  1.00  0.00     0.014 C 
ATOM     26  C   UNL     1      31.988  -0.355  21.313  1.00  0.00     0.016 C 
ATOM     27  C   UNL     1      33.442  -1.743  18.426  1.00  0.00     0.063 C 
ATOM     28  C   UNL     1      30.884  -1.952  18.933  1.00  0.00     0.033 C 
ATOM     29  C   UNL     1      32.097  -2.466  18.139  1.00  0.00     0.118 C 
BRANCH  29  30
ATOM     30  O   UNL     1      32.247  -3.858  18.319  1.00  0.00    -0.393 OA
ATOM     31  H   UNL     1      32.210  -4.271  17.415  1.00  0.00     0.210 HD
ENDBRANCH  29  30
ENDBRANCH   9  11
ENDBRANCH   1   9
TORSDOF 7
ENDMDL
MODEL 8
REMARK VINA RESULT:    -3.769      4.523      6.428
REMARK INTER + INTRA:          -7.062
REMARK INTER:                  -5.351
REMARK INTRA:                  -1.711
REMARK UNBOUND:                -1.861
REMARK SMILES CC[C@@H](CC[C@H](C)[C@@H]1CC[C@@H]2[C@H]3CC=C4C[C@@H](O)CC[C@]4(C)[C@H]3CC[C@]21C)C(C)C
REMARK SMILES IDX 5 1 4 2 3 3 2 4 1 5 28 6 29 7 30 8 6 9 7 10 8 11 9 12 26 13
REMARK SMILES IDX 10 14 11 15 25 16 27 17 12 18 24 19 23 20 13 21 21 22 14 23
REMARK SMILES IDX 15 24 20 25 22 26 16 27 19 28 17 29 18 30
REMARK H PARENT 18 31
REMARK Flexibility Score: inf
ROOT
ATOM      1  C   UNL     1      35.797  10.638  23.284  1.00  0.00     0.004 C 
ENDROOT
BRANCH   1   2
ATOM      2  C   UNL     1      35.126  11.766  22.459  1.00  0.00     0.004 C 
BRANCH   2   3
ATOM      3  C   UNL     1      33.795  11.420  21.716  1.00  0.00    -0.009 C 
BRANCH   3   4
ATOM      4  C   UNL     1      33.097  10.264  22.491  1.00  0.00     0.000 C 
ATOM      5  C   UNL     1      31.986  10.707  23.443  1.00  0.00     0.004 C 
ENDBRANCH   3   4
BRANCH   3   6
ATOM      6  C   UNL     1      34.009  11.154  20.182  1.00  0.00    -0.014 C 
ATOM      7  C   UNL     1      33.611   9.733  19.747  1.00  0.00     0.007 C 
ATOM      8  C   UNL     1      35.413  11.509  19.672  1.00  0.00     0.007 C 
ENDBRANCH   3   6
ENDBRANCH   2   3
ENDBRANCH   1   2
BRANCH   1   9
ATOM      9  C   UNL     1      37.314  10.425  23.024  1.00  0.00    -0.011 C 
ATOM     10  C   UNL     1      37.931  11.715  22.434  1.00  0.00     0.008 C 
BRANCH   9  11
ATOM     11  C   UNL     1      37.630   9.078  22.267  1.00  0.00    -0.002 C 
ATOM     12  C   UNL     1      36.362   8.380  21.704  1.00  0.00     0.005 C 
ATOM     13  C   UNL     1      38.478   7.936  22.928  1.00  0.00    -0.026 C 
ATOM     14  C   UNL     1      36.615   6.869  21.763  1.00  0.00     0.005 C 
ATOM     15  C   UNL     1      38.113   6.756  22.000  1.00  0.00    -0.001 C 
ATOM     16  C   UNL     1      40.030   8.137  22.885  1.00  0.00     0.007 C 
ATOM     17  C   UNL     1      38.042   7.686  24.400  1.00  0.00     0.012 C 
ATOM     18  C   UNL     1      38.657   5.402  22.506  1.00  0.00     0.000 C 
ATOM     19  C   UNL     1      40.825   6.874  22.454  1.00  0.00     0.005 C 
ATOM     20  C   UNL     1      40.185   5.519  22.909  1.00  0.00     0.003 C 
ATOM     21  C   UNL     1      38.387   4.282  21.490  1.00  0.00     0.031 C 
ATOM     22  C   UNL     1      41.074   4.250  22.525  1.00  0.00    -0.008 C 
ATOM     23  C   UNL     1      38.986   3.005  21.990  1.00  0.00    -0.027 C 
ATOM     24  C   UNL     1      40.221   2.976  22.530  1.00  0.00    -0.065 C 
ATOM     25  C   UNL     1      42.217   4.110  23.573  1.00  0.00     0.014 C 
ATOM     26  C   UNL     1      41.700   4.390  21.107  1.00  0.00     0.016 C 
ATOM     27  C   UNL     1      40.712   1.638  23.063  1.00  0.00     0.063 C 
ATOM     28  C   UNL     1      43.022   2.822  23.394  1.00  0.00     0.033 C 
ATOM     29  C   UNL     1      42.154   1.577  23.642  1.00  0.00     0.118 C 
BRANCH  29  30
ATOM     30  O   UNL     1      42.813   0.419  23.179  1.00  0.00    -0.393 OA
ATOM     31  H   UNL     1      43.781   0.642  23.121  1.00  0.00     0.210 HD
ENDBRANCH  29  30
ENDBRANCH   9  11
ENDBRANCH   1   9
TORSDOF 7
ENDMDL
MODEL 9
REMARK VINA RESULT:    -3.695      1.431      2.550
REMARK INTER + INTRA:          -6.960
REMARK INTER:                  -5.899
REMARK INTRA:                  -1.060
REMARK UNBOUND:                -1.861
REMARK SMILES CC[C@@H](CC[C@H](C)[C@@H]1CC[C@@H]2[C@H]3CC=C4C[C@@H](O)CC[C@]4(C)[C@H]3CC[C@]21C)C(C)C
REMARK SMILES IDX 5 1 4 2 3 3 2 4 1 5 28 6 29 7 30 8 6 9 7 10 8 11 9 12 26 13
REMARK SMILES IDX 10 14 11 15 25 16 27 17 12 18 24 19 23 20 13 21 21 22 14 23
REMARK SMILES IDX 15 24 20 25 22 26 16 27 19 28 17 29 18 30
REMARK H PARENT 18 31
REMARK Flexibility Score: inf
ROOT
ATOM      1  C   UNL     1      34.315   8.313  20.993  1.00  0.00     0.004 C 
ENDROOT
BRANCH   1   2
ATOM      2  C   UNL     1      33.796   9.758  21.210  1.00  0.00     0.004 C 
BRANCH   2   3
ATOM      3  C   UNL     1      34.150  10.453  22.564  1.00  0.00    -0.009 C 
BRANCH   3   4
ATOM      4  C   UNL     1      32.832  11.001  23.184  1.00  0.00     0.000 C 
ATOM      5  C   UNL     1      31.623  10.075  23.045  1.00  0.00     0.004 C 
ENDBRANCH   3   4
BRANCH   3   6
ATOM      6  C   UNL     1      35.303  11.511  22.418  1.00  0.00    -0.014 C 
ATOM      7  C   UNL     1      35.395  12.125  21.010  1.00  0.00     0.007 C 
ATOM      8  C   UNL     1      36.677  11.014  22.888  1.00  0.00     0.007 C 
ENDBRANCH   3   6
ENDBRANCH   2   3
ENDBRANCH   1   2
BRANCH   1   9
ATOM      9  C   UNL     1      33.972   7.674  19.619  1.00  0.00    -0.011 C 
ATOM     10  C   UNL     1      33.669   8.784  18.584  1.00  0.00     0.008 C 
BRANCH   9  11
ATOM     11  C   UNL     1      32.924   6.500  19.725  1.00  0.00    -0.002 C 
ATOM     12  C   UNL     1      31.974   6.637  20.946  1.00  0.00     0.005 C 
ATOM     13  C   UNL     1      33.363   4.994  19.704  1.00  0.00    -0.026 C 
ATOM     14  C   UNL     1      31.636   5.218  21.416  1.00  0.00     0.005 C 
ATOM     15  C   UNL     1      32.085   4.332  20.264  1.00  0.00    -0.001 C 
ATOM     16  C   UNL     1      33.648   4.396  18.285  1.00  0.00     0.007 C 
ATOM     17  C   UNL     1      34.602   4.751  20.612  1.00  0.00     0.012 C 
ATOM     18  C   UNL     1      32.264   2.824  20.549  1.00  0.00     0.000 C 
ATOM     19  C   UNL     1      33.014   2.998  18.044  1.00  0.00     0.005 C 
ATOM     20  C   UNL     1      32.940   2.091  19.318  1.00  0.00     0.003 C 
ATOM     21  C   UNL     1      30.936   2.180  20.978  1.00  0.00     0.031 C 
ATOM     22  C   UNL     1      32.365   0.634  19.013  1.00  0.00    -0.008 C 
ATOM     23  C   UNL     1      31.141   0.712  21.179  1.00  0.00    -0.027 C 
ATOM     24  C   UNL     1      31.853  -0.022  20.301  1.00  0.00    -0.065 C 
ATOM     25  C   UNL     1      33.508  -0.235  18.410  1.00  0.00     0.014 C 
ATOM     26  C   UNL     1      31.177   0.679  18.008  1.00  0.00     0.016 C 
ATOM     27  C   UNL     1      32.053  -1.495  20.632  1.00  0.00     0.063 C 
ATOM     28  C   UNL     1      33.106  -1.700  18.245  1.00  0.00     0.033 C 
ATOM     29  C   UNL     1      32.829  -2.366  19.604  1.00  0.00     0.118 C 
BRANCH  29  30
ATOM     30  O   UNL     1      32.172  -3.601  19.421  1.00  0.00    -0.393 OA
ATOM     31  H   UNL     1      32.475  -3.961  18.545  1.00  0.00     0.210 HD
ENDBRANCH  29  30
ENDBRANCH   9  11
ENDBRANCH   1   9
TORSDOF 7
ENDMDL
