MODEL 1
REMARK VINA RESULT:    -5.107      0.000      0.000
REMARK INTER + INTRA:          -7.003
REMARK INTER:                  -7.048
REMARK INTRA:                   0.045
REMARK UNBOUND:                 0.045
REMARK SMILES CC[C@H](CC[C@H](C)[C@@H]1CC[C@@H]2[C@H]3CC=C4C[C@@H](O)CC[C@]4(C)[C@H]3CC[C@]21C)C(C)C
REMARK SMILES IDX 5 1 4 2 3 3 2 4 1 5 28 6 29 7 30 8 6 9 7 10 8 11 9 12 26 13
REMARK SMILES IDX 10 14 11 15 25 16 27 17 12 18 24 19 23 20 13 21 21 22 14 23
REMARK SMILES IDX 15 24 20 25 22 26 16 27 19 28 17 29 18 30
REMARK H PARENT 18 31
REMARK Flexibility Score: inf
ROOT
ATOM      1  C   UNL     1      41.000   1.666  -7.940  1.00  0.00     0.004 C 
ENDROOT
BRANCH   1   2
ATOM      2  C   UNL     1      41.543   2.622  -6.853  1.00  0.00     0.004 C 
BRANCH   2   3
ATOM      3  C   UNL     1      42.894   2.224  -6.193  1.00  0.00    -0.009 C 
BRANCH   3   4
ATOM      4  C   UNL     1      42.643   1.171  -5.066  1.00  0.00     0.000 C 
ATOM      5  C   UNL     1      41.273   1.334  -4.405  1.00  0.00     0.004 C 
ENDBRANCH   3   4
BRANCH   3   6
ATOM      6  C   UNL     1      43.984   1.781  -7.226  1.00  0.00    -0.014 C 
ATOM      7  C   UNL     1      44.114   0.253  -7.309  1.00  0.00     0.007 C 
ATOM      8  C   UNL     1      43.794   2.376  -8.634  1.00  0.00     0.007 C 
ENDBRANCH   3   6
ENDBRANCH   2   3
ENDBRANCH   1   2
BRANCH   1   9
ATOM      9  C   UNL     1      39.512   1.874  -8.318  1.00  0.00    -0.011 C 
ATOM     10  C   UNL     1      39.003   0.724  -9.219  1.00  0.00     0.008 C 
BRANCH   9  11
ATOM     11  C   UNL     1      39.238   3.340  -8.816  1.00  0.00    -0.002 C 
ATOM     12  C   UNL     1      37.818   3.546  -9.408  1.00  0.00     0.005 C 
ATOM     13  C   UNL     1      40.202   4.070  -9.804  1.00  0.00    -0.026 C 
ATOM     14  C   UNL     1      37.945   4.625 -10.489  1.00  0.00     0.005 C 
ATOM     15  C   UNL     1      39.313   5.245 -10.237  1.00  0.00    -0.001 C 
ATOM     16  C   UNL     1      41.448   4.706  -9.152  1.00  0.00     0.007 C 
ATOM     17  C   UNL     1      40.616   3.148 -10.986  1.00  0.00     0.012 C 
ATOM     18  C   UNL     1      39.914   6.133 -11.351  1.00  0.00     0.000 C 
ATOM     19  C   UNL     1      42.219   5.598 -10.147  1.00  0.00     0.005 C 
ATOM     20  C   UNL     1      41.368   6.628 -10.984  1.00  0.00     0.003 C 
ATOM     21  C   UNL     1      38.929   7.280 -11.695  1.00  0.00     0.031 C 
ATOM     22  C   UNL     1      41.463   8.133 -10.503  1.00  0.00    -0.008 C 
ATOM     23  C   UNL     1      39.590   8.555 -12.114  1.00  0.00    -0.027 C 
ATOM     24  C   UNL     1      40.708   9.008 -11.519  1.00  0.00    -0.065 C 
ATOM     25  C   UNL     1      42.972   8.564 -10.443  1.00  0.00     0.014 C 
ATOM     26  C   UNL     1      40.833   8.325  -9.105  1.00  0.00     0.016 C 
ATOM     27  C   UNL     1      41.068  10.469 -11.717  1.00  0.00     0.063 C 
ATOM     28  C   UNL     1      43.207  10.078 -10.472  1.00  0.00     0.033 C 
ATOM     29  C   UNL     1      42.581  10.687 -11.726  1.00  0.00     0.118 C 
BRANCH  29  30
ATOM     30  O   UNL     1      42.883  12.056 -11.819  1.00  0.00    -0.393 OA
ATOM     31  H   UNL     1      43.868  12.144 -11.915  1.00  0.00     0.210 HD
ENDBRANCH  29  30
ENDBRANCH   9  11
ENDBRANCH   1   9
TORSDOF 7
ENDMDL
MODEL 2
REMARK VINA RESULT:    -4.760     12.301     15.804
REMARK INTER + INTRA:          -6.524
REMARK INTER:                  -6.133
REMARK INTRA:                  -0.391
REMARK UNBOUND:                 0.045
REMARK SMILES CC[C@H](CC[C@H](C)[C@@H]1CC[C@@H]2[C@H]3CC=C4C[C@@H](O)CC[C@]4(C)[C@H]3CC[C@]21C)C(C)C
REMARK SMILES IDX 5 1 4 2 3 3 2 4 1 5 28 6 29 7 30 8 6 9 7 10 8 11 9 12 26 13
REMARK SMILES IDX 10 14 11 15 25 16 27 17 12 18 24 19 23 20 13 21 21 22 14 23
REMARK SMILES IDX 15 24 20 25 22 26 16 27 19 28 17 29 18 30
REMARK H PARENT 18 31
REMARK Flexibility Score: inf
ROOT
ATOM      1  C   UNL     1      41.276  10.051   1.322  1.00  0.00     0.004 C 
ENDROOT
BRANCH   1   2
ATOM      2  C   UNL     1      41.739  10.283  -0.135  1.00  0.00     0.004 C 
BRANCH   2   3
ATOM      3  C   UNL     1      41.818   9.024  -1.044  1.00  0.00    -0.009 C 
BRANCH   3   4
ATOM      4  C   UNL     1      40.756   7.973  -0.587  1.00  0.00     0.000 C 
ATOM      5  C   UNL     1      41.328   6.947   0.392  1.00  0.00     0.004 C 
ENDBRANCH   3   4
BRANCH   3   6
ATOM      6  C   UNL     1      41.745   9.356  -2.573  1.00  0.00    -0.014 C 
ATOM      7  C   UNL     1      42.979   8.847  -3.334  1.00  0.00     0.007 C 
ATOM      8  C   UNL     1      40.456   8.869  -3.262  1.00  0.00     0.007 C 
ENDBRANCH   3   6
ENDBRANCH   2   3
ENDBRANCH   1   2
BRANCH   1   9
ATOM      9  C   UNL     1      40.947  11.337   2.122  1.00  0.00    -0.011 C 
ATOM     10  C   UNL     1      42.236  12.120   2.466  1.00  0.00     0.008 C 
BRANCH   9  11
ATOM     11  C   UNL     1      39.955  11.048   3.306  1.00  0.00    -0.002 C 
ATOM     12  C   UNL     1      40.061  12.063   4.476  1.00  0.00     0.005 C 
ATOM     13  C   UNL     1      39.870   9.646   3.989  1.00  0.00    -0.026 C 
ATOM     14  C   UNL     1      39.713  11.296   5.756  1.00  0.00     0.005 C 
ATOM     15  C   UNL     1      39.080  10.005   5.255  1.00  0.00    -0.001 C 
ATOM     16  C   UNL     1      39.012   8.604   3.240  1.00  0.00     0.007 C 
ATOM     17  C   UNL     1      41.283   9.071   4.292  1.00  0.00     0.012 C 
ATOM     18  C   UNL     1      38.920   8.846   6.267  1.00  0.00     0.000 C 
ATOM     19  C   UNL     1      38.790   7.335   4.088  1.00  0.00     0.005 C 
ATOM     20  C   UNL     1      38.335   7.549   5.582  1.00  0.00     0.003 C 
ATOM     21  C   UNL     1      38.104   9.330   7.494  1.00  0.00     0.031 C 
ATOM     22  C   UNL     1      36.803   7.271   5.870  1.00  0.00    -0.008 C 
ATOM     23  C   UNL     1      37.252   8.274   8.123  1.00  0.00    -0.027 C 
ATOM     24  C   UNL     1      36.576   7.371   7.389  1.00  0.00    -0.065 C 
ATOM     25  C   UNL     1      36.435   5.829   5.369  1.00  0.00     0.014 C 
ATOM     26  C   UNL     1      35.895   8.296   5.155  1.00  0.00     0.016 C 
ATOM     27  C   UNL     1      35.444   6.621   8.064  1.00  0.00     0.063 C 
ATOM     28  C   UNL     1      35.166   5.238   5.993  1.00  0.00     0.033 C 
ATOM     29  C   UNL     1      35.293   5.202   7.516  1.00  0.00     0.118 C 
BRANCH  29  30
ATOM     30  O   UNL     1      34.182   4.563   8.093  1.00  0.00    -0.393 OA
ATOM     31  H   UNL     1      34.511   3.760   8.576  1.00  0.00     0.210 HD
ENDBRANCH  29  30
ENDBRANCH   9  11
ENDBRANCH   1   9
TORSDOF 7
ENDMDL
MODEL 3
REMARK VINA RESULT:    -4.555      1.637      3.885
REMARK INTER + INTRA:          -6.241
REMARK INTER:                  -4.781
REMARK INTRA:                  -1.460
REMARK UNBOUND:                 0.045
REMARK SMILES CC[C@H](CC[C@H](C)[C@@H]1CC[C@@H]2[C@H]3CC=C4C[C@@H](O)CC[C@]4(C)[C@H]3CC[C@]21C)C(C)C
REMARK SMILES IDX 5 1 4 2 3 3 2 4 1 5 28 6 29 7 30 8 6 9 7 10 8 11 9 12 26 13
REMARK SMILES IDX 10 14 11 15 25 16 27 17 12 18 24 19 23 20 13 21 21 22 14 23
REMARK SMILES IDX 15 24 20 25 22 26 16 27 19 28 17 29 18 30
REMARK H PARENT 18 31
REMARK Flexibility Score: inf
ROOT
ATOM      1  C   UNL     1      41.356   1.323  -7.300  1.00  0.00     0.004 C 
ENDROOT
BRANCH   1   2
ATOM      2  C   UNL     1      40.013   1.928  -7.771  1.00  0.00     0.004 C 
BRANCH   2   3
ATOM      3  C   UNL     1      39.441   1.383  -9.111  1.00  0.00    -0.009 C 
BRANCH   3   4
ATOM      4  C   UNL     1      38.441   0.217  -8.825  1.00  0.00     0.000 C 
ATOM      5  C   UNL     1      39.088  -1.161  -8.974  1.00  0.00     0.004 C 
ENDBRANCH   3   4
BRANCH   3   6
ATOM      6  C   UNL     1      38.844   2.500 -10.032  1.00  0.00    -0.014 C 
ATOM      7  C   UNL     1      38.541   3.789  -9.254  1.00  0.00     0.007 C 
ATOM      8  C   UNL     1      39.702   2.816 -11.272  1.00  0.00     0.007 C 
ENDBRANCH   3   6
ENDBRANCH   2   3
ENDBRANCH   1   2
BRANCH   1   9
ATOM      9  C   UNL     1      42.604   2.202  -7.566  1.00  0.00    -0.011 C 
ATOM     10  C   UNL     1      43.160   2.788  -6.246  1.00  0.00     0.008 C 
BRANCH   9  11
ATOM     11  C   UNL     1      42.364   3.213  -8.746  1.00  0.00    -0.002 C 
ATOM     12  C   UNL     1      43.212   2.912 -10.011  1.00  0.00     0.005 C 
ATOM     13  C   UNL     1      42.466   4.758  -8.544  1.00  0.00    -0.026 C 
ATOM     14  C   UNL     1      43.496   4.261 -10.680  1.00  0.00     0.005 C 
ATOM     15  C   UNL     1      42.526   5.223 -10.006  1.00  0.00    -0.001 C 
ATOM     16  C   UNL     1      41.209   5.423  -7.944  1.00  0.00     0.007 C 
ATOM     17  C   UNL     1      43.731   5.145  -7.726  1.00  0.00     0.012 C 
ATOM     18  C   UNL     1      42.772   6.738 -10.192  1.00  0.00     0.000 C 
ATOM     19  C   UNL     1      41.302   6.962  -7.994  1.00  0.00     0.005 C 
ATOM     20  C   UNL     1      41.744   7.603  -9.364  1.00  0.00     0.003 C 
ATOM     21  C   UNL     1      42.807   7.081 -11.704  1.00  0.00     0.031 C 
ATOM     22  C   UNL     1      40.577   8.254 -10.214  1.00  0.00    -0.008 C 
ATOM     23  C   UNL     1      42.285   8.442 -12.039  1.00  0.00    -0.027 C 
ATOM     24  C   UNL     1      41.208   8.965 -11.426  1.00  0.00    -0.065 C 
ATOM     25  C   UNL     1      39.808   9.296  -9.326  1.00  0.00     0.014 C 
ATOM     26  C   UNL     1      39.577   7.190 -10.717  1.00  0.00     0.016 C 
ATOM     27  C   UNL     1      40.518  10.138 -12.094  1.00  0.00     0.063 C 
ATOM     28  C   UNL     1      38.998  10.334 -10.111  1.00  0.00     0.033 C 
ATOM     29  C   UNL     1      39.908  11.098 -11.072  1.00  0.00     0.118 C 
BRANCH  29  30
ATOM     30  O   UNL     1      39.198  12.125 -11.718  1.00  0.00    -0.393 OA
ATOM     31  H   UNL     1      38.865  12.749 -11.021  1.00  0.00     0.210 HD
ENDBRANCH  29  30
ENDBRANCH   9  11
ENDBRANCH   1   9
TORSDOF 7
ENDMDL
MODEL 4
REMARK VINA RESULT:    -4.022     13.371     16.732
REMARK INTER + INTRA:          -5.505
REMARK INTER:                  -5.235
REMARK INTRA:                  -0.270
REMARK UNBOUND:                 0.045
REMARK SMILES CC[C@H](CC[C@H](C)[C@@H]1CC[C@@H]2[C@H]3CC=C4C[C@@H](O)CC[C@]4(C)[C@H]3CC[C@]21C)C(C)C
REMARK SMILES IDX 5 1 4 2 3 3 2 4 1 5 28 6 29 7 30 8 6 9 7 10 8 11 9 12 26 13
REMARK SMILES IDX 10 14 11 15 25 16 27 17 12 18 24 19 23 20 13 21 21 22 14 23
REMARK SMILES IDX 15 24 20 25 22 26 16 27 19 28 17 29 18 30
REMARK H PARENT 18 31
REMARK Flexibility Score: inf
ROOT
ATOM      1  C   UNL     1      42.169  10.888   4.181  1.00  0.00     0.004 C 
ENDROOT
BRANCH   1   2
ATOM      2  C   UNL     1      41.554  11.516   2.909  1.00  0.00     0.004 C 
BRANCH   2   3
ATOM      3  C   UNL     1      41.572  10.638   1.625  1.00  0.00    -0.009 C 
BRANCH   3   4
ATOM      4  C   UNL     1      40.706   9.357   1.846  1.00  0.00     0.000 C 
ATOM      5  C   UNL     1      41.333   8.109   1.223  1.00  0.00     0.004 C 
ENDBRANCH   3   4
BRANCH   3   6
ATOM      6  C   UNL     1      41.193  11.428   0.327  1.00  0.00    -0.014 C 
ATOM      7  C   UNL     1      41.289  10.552  -0.931  1.00  0.00     0.007 C 
ATOM      8  C   UNL     1      39.818  12.119   0.391  1.00  0.00     0.007 C 
ENDBRANCH   3   6
ENDBRANCH   2   3
ENDBRANCH   1   2
BRANCH   1   9
ATOM      9  C   UNL     1      41.865  11.639   5.501  1.00  0.00    -0.011 C 
ATOM     10  C   UNL     1      43.090  11.618   6.445  1.00  0.00     0.008 C 
BRANCH   9  11
ATOM     11  C   UNL     1      40.487  11.200   6.116  1.00  0.00    -0.002 C 
ATOM     12  C   UNL     1      40.443  11.262   7.666  1.00  0.00     0.005 C 
ATOM     13  C   UNL     1      39.811   9.842   5.743  1.00  0.00    -0.026 C 
ATOM     14  C   UNL     1      39.489  10.154   8.124  1.00  0.00     0.005 C 
ATOM     15  C   UNL     1      38.755   9.747   6.853  1.00  0.00    -0.001 C 
ATOM     16  C   UNL     1      39.024   9.846   4.415  1.00  0.00     0.007 C 
ATOM     17  C   UNL     1      40.833   8.670   5.767  1.00  0.00     0.012 C 
ATOM     18  C   UNL     1      37.961   8.420   6.877  1.00  0.00     0.000 C 
ATOM     19  C   UNL     1      38.202   8.553   4.237  1.00  0.00     0.005 C 
ATOM     20  C   UNL     1      37.333   8.089   5.467  1.00  0.00     0.003 C 
ATOM     21  C   UNL     1      36.929   8.448   8.033  1.00  0.00     0.031 C 
ATOM     22  C   UNL     1      35.780   8.369   5.342  1.00  0.00    -0.008 C 
ATOM     23  C   UNL     1      35.669   7.692   7.753  1.00  0.00    -0.027 C 
ATOM     24  C   UNL     1      35.077   7.713   6.545  1.00  0.00    -0.065 C 
ATOM     25  C   UNL     1      35.246   7.742   4.005  1.00  0.00     0.014 C 
ATOM     26  C   UNL     1      35.473   9.883   5.342  1.00  0.00     0.016 C 
ATOM     27  C   UNL     1      33.629   7.272   6.462  1.00  0.00     0.063 C 
ATOM     28  C   UNL     1      33.732   7.502   3.969  1.00  0.00     0.033 C 
ATOM     29  C   UNL     1      33.313   6.597   5.127  1.00  0.00     0.118 C 
BRANCH  29  30
ATOM     30  O   UNL     1      31.946   6.282   5.042  1.00  0.00    -0.393 OA
ATOM     31  H   UNL     1      31.433   7.050   5.408  1.00  0.00     0.210 HD
ENDBRANCH  29  30
ENDBRANCH   9  11
ENDBRANCH   1   9
TORSDOF 7
ENDMDL
MODEL 5
REMARK VINA RESULT:    -3.965      5.126      7.614
REMARK INTER + INTRA:          -5.427
REMARK INTER:                  -5.189
REMARK INTRA:                  -0.238
REMARK UNBOUND:                 0.045
REMARK SMILES CC[C@H](CC[C@H](C)[C@@H]1CC[C@@H]2[C@H]3CC=C4C[C@@H](O)CC[C@]4(C)[C@H]3CC[C@]21C)C(C)C
REMARK SMILES IDX 5 1 4 2 3 3 2 4 1 5 28 6 29 7 30 8 6 9 7 10 8 11 9 12 26 13
REMARK SMILES IDX 10 14 11 15 25 16 27 17 12 18 24 19 23 20 13 21 21 22 14 23
REMARK SMILES IDX 15 24 20 25 22 26 16 27 19 28 17 29 18 30
REMARK H PARENT 18 31
REMARK Flexibility Score: inf
ROOT
ATOM      1  C   UNL     1      42.112   9.046  -3.504  1.00  0.00     0.004 C 
ENDROOT
BRANCH   1   2
ATOM      2  C   UNL     1      41.644   8.268  -2.253  1.00  0.00     0.004 C 
BRANCH   2   3
ATOM      3  C   UNL     1      41.817   8.988  -0.885  1.00  0.00    -0.009 C 
BRANCH   3   4
ATOM      4  C   UNL     1      40.902  10.254  -0.833  1.00  0.00     0.000 C 
ATOM      5  C   UNL     1      41.534  11.404  -0.047  1.00  0.00     0.004 C 
ENDBRANCH   3   4
BRANCH   3   6
ATOM      6  C   UNL     1      41.632   8.037   0.345  1.00  0.00    -0.014 C 
ATOM      7  C   UNL     1      41.147   8.793   1.592  1.00  0.00     0.007 C 
ATOM      8  C   UNL     1      40.725   6.824   0.071  1.00  0.00     0.007 C 
ENDBRANCH   3   6
ENDBRANCH   2   3
ENDBRANCH   1   2
BRANCH   1   9
ATOM      9  C   UNL     1      41.068   9.153  -4.644  1.00  0.00    -0.011 C 
ATOM     10  C   UNL     1      39.628   9.085  -4.083  1.00  0.00     0.008 C 
BRANCH   9  11
ATOM     11  C   UNL     1      41.411   8.193  -5.840  1.00  0.00    -0.002 C 
ATOM     12  C   UNL     1      42.633   8.651  -6.680  1.00  0.00     0.005 C 
ATOM     13  C   UNL     1      40.335   7.760  -6.886  1.00  0.00    -0.026 C 
ATOM     14  C   UNL     1      42.379   8.179  -8.116  1.00  0.00     0.005 C 
ATOM     15  C   UNL     1      41.237   7.180  -7.984  1.00  0.00    -0.001 C 
ATOM     16  C   UNL     1      39.419   6.601  -6.440  1.00  0.00     0.007 C 
ATOM     17  C   UNL     1      39.486   8.971  -7.367  1.00  0.00     0.012 C 
ATOM     18  C   UNL     1      40.497   6.763  -9.276  1.00  0.00     0.000 C 
ATOM     19  C   UNL     1      38.549   6.084  -7.604  1.00  0.00     0.005 C 
ATOM     20  C   UNL     1      39.285   5.798  -8.969  1.00  0.00     0.003 C 
ATOM     21  C   UNL     1      41.510   6.192 -10.300  1.00  0.00     0.031 C 
ATOM     22  C   UNL     1      39.547   4.270  -9.290  1.00  0.00    -0.008 C 
ATOM     23  C   UNL     1      40.957   5.117 -11.181  1.00  0.00    -0.027 C 
ATOM     24  C   UNL     1      40.120   4.172 -10.715  1.00  0.00    -0.065 C 
ATOM     25  C   UNL     1      38.191   3.482  -9.204  1.00  0.00     0.014 C 
ATOM     26  C   UNL     1      40.552   3.644  -8.297  1.00  0.00     0.016 C 
ATOM     27  C   UNL     1      39.940   2.918 -11.549  1.00  0.00     0.063 C 
ATOM     28  C   UNL     1      38.182   2.139  -9.942  1.00  0.00     0.033 C 
ATOM     29  C   UNL     1      38.531   2.342 -11.416  1.00  0.00     0.118 C 
BRANCH  29  30
ATOM     30  O   UNL     1      38.420   1.134 -12.125  1.00  0.00    -0.393 OA
ATOM     31  H   UNL     1      37.539   1.131 -12.585  1.00  0.00     0.210 HD
ENDBRANCH  29  30
ENDBRANCH   9  11
ENDBRANCH   1   9
TORSDOF 7
ENDMDL
MODEL 6
REMARK VINA RESULT:    -3.579      3.196      8.280
REMARK INTER + INTRA:          -4.894
REMARK INTER:                  -5.511
REMARK INTRA:                   0.617
REMARK UNBOUND:                 0.045
REMARK SMILES CC[C@H](CC[C@H](C)[C@@H]1CC[C@@H]2[C@H]3CC=C4C[C@@H](O)CC[C@]4(C)[C@H]3CC[C@]21C)C(C)C
REMARK SMILES IDX 5 1 4 2 3 3 2 4 1 5 28 6 29 7 30 8 6 9 7 10 8 11 9 12 26 13
REMARK SMILES IDX 10 14 11 15 25 16 27 17 12 18 24 19 23 20 13 21 21 22 14 23
REMARK SMILES IDX 15 24 20 25 22 26 16 27 19 28 17 29 18 30
REMARK H PARENT 18 31
REMARK Flexibility Score: inf
ROOT
ATOM      1  C   UNL     1      40.765   8.242 -12.067  1.00  0.00     0.004 C 
ENDROOT
BRANCH   1   2
ATOM      2  C   UNL     1      39.589   9.240 -11.950  1.00  0.00     0.004 C 
BRANCH   2   3
ATOM      3  C   UNL     1      39.185   9.668 -10.511  1.00  0.00    -0.009 C 
BRANCH   3   4
ATOM      4  C   UNL     1      40.006   8.849  -9.464  1.00  0.00     0.000 C 
ATOM      5  C   UNL     1      39.482   9.026  -8.038  1.00  0.00     0.004 C 
ENDBRANCH   3   4
BRANCH   3   6
ATOM      6  C   UNL     1      39.253  11.216 -10.281  1.00  0.00    -0.014 C 
ATOM      7  C   UNL     1      40.477  11.847 -10.960  1.00  0.00     0.007 C 
ATOM      8  C   UNL     1      37.971  11.968 -10.686  1.00  0.00     0.007 C 
ENDBRANCH   3   6
ENDBRANCH   2   3
ENDBRANCH   1   2
BRANCH   1   9
ATOM      9  C   UNL     1      42.053   8.649 -11.309  1.00  0.00    -0.011 C 
ATOM     10  C   UNL     1      42.875   9.674 -12.125  1.00  0.00     0.008 C 
BRANCH   9  11
ATOM     11  C   UNL     1      42.825   7.395 -10.759  1.00  0.00    -0.002 C 
ATOM     12  C   UNL     1      43.961   6.899 -11.693  1.00  0.00     0.005 C 
ATOM     13  C   UNL     1      42.079   6.102 -10.299  1.00  0.00    -0.026 C 
ATOM     14  C   UNL     1      44.058   5.382 -11.498  1.00  0.00     0.005 C 
ATOM     15  C   UNL     1      43.255   5.117 -10.231  1.00  0.00    -0.001 C 
ATOM     16  C   UNL     1      41.495   6.156  -8.872  1.00  0.00     0.007 C 
ATOM     17  C   UNL     1      40.985   5.680 -11.321  1.00  0.00     0.012 C 
ATOM     18  C   UNL     1      42.855   3.654  -9.929  1.00  0.00     0.000 C 
ATOM     19  C   UNL     1      40.986   4.774  -8.414  1.00  0.00     0.005 C 
ATOM     20  C   UNL     1      41.953   3.550  -8.638  1.00  0.00     0.003 C 
ATOM     21  C   UNL     1      44.123   2.763  -9.883  1.00  0.00     0.031 C 
ATOM     22  C   UNL     1      42.696   3.029  -7.341  1.00  0.00    -0.008 C 
ATOM     23  C   UNL     1      44.039   1.621  -8.921  1.00  0.00    -0.027 C 
ATOM     24  C   UNL     1      43.463   1.746  -7.711  1.00  0.00    -0.065 C 
ATOM     25  C   UNL     1      41.635   2.713  -6.226  1.00  0.00     0.014 C 
ATOM     26  C   UNL     1      43.695   4.075  -6.797  1.00  0.00     0.016 C 
ATOM     27  C   UNL     1      43.778   0.691  -6.669  1.00  0.00     0.063 C 
ATOM     28  C   UNL     1      42.125   1.769  -5.123  1.00  0.00     0.033 C 
ATOM     29  C   UNL     1      42.597   0.447  -5.729  1.00  0.00     0.118 C 
BRANCH  29  30
ATOM     30  O   UNL     1      42.947  -0.466  -4.720  1.00  0.00    -0.393 OA
ATOM     31  H   UNL     1      43.835  -0.200  -4.364  1.00  0.00     0.210 HD
ENDBRANCH  29  30
ENDBRANCH   9  11
ENDBRANCH   1   9
TORSDOF 7
ENDMDL
MODEL 7
REMARK VINA RESULT:    -3.414     14.309     17.734
REMARK INTER + INTRA:          -4.667
REMARK INTER:                  -3.576
REMARK INTRA:                  -1.091
REMARK UNBOUND:                 0.045
REMARK SMILES CC[C@H](CC[C@H](C)[C@@H]1CC[C@@H]2[C@H]3CC=C4C[C@@H](O)CC[C@]4(C)[C@H]3CC[C@]21C)C(C)C
REMARK SMILES IDX 5 1 4 2 3 3 2 4 1 5 28 6 29 7 30 8 6 9 7 10 8 11 9 12 26 13
REMARK SMILES IDX 10 14 11 15 25 16 27 17 12 18 24 19 23 20 13 21 21 22 14 23
REMARK SMILES IDX 15 24 20 25 22 26 16 27 19 28 17 29 18 30
REMARK H PARENT 18 31
REMARK Flexibility Score: inf
ROOT
ATOM      1  C   UNL     1      40.940  12.081   5.346  1.00  0.00     0.004 C 
ENDROOT
BRANCH   1   2
ATOM      2  C   UNL     1      42.052  11.115   5.818  1.00  0.00     0.004 C 
BRANCH   2   3
ATOM      3  C   UNL     1      42.061   9.701   5.170  1.00  0.00    -0.009 C 
BRANCH   3   4
ATOM      4  C   UNL     1      42.397   8.625   6.252  1.00  0.00     0.000 C 
ATOM      5  C   UNL     1      42.225   9.152   7.677  1.00  0.00     0.004 C 
ENDBRANCH   3   4
BRANCH   3   6
ATOM      6  C   UNL     1      40.761   9.381   4.358  1.00  0.00    -0.014 C 
ATOM      7  C   UNL     1      40.760  10.059   2.979  1.00  0.00     0.007 C 
ATOM      8  C   UNL     1      40.466   7.876   4.211  1.00  0.00     0.007 C 
ENDBRANCH   3   6
ENDBRANCH   2   3
ENDBRANCH   1   2
BRANCH   1   9
ATOM      9  C   UNL     1      39.680  12.125   6.246  1.00  0.00    -0.011 C 
ATOM     10  C   UNL     1      40.065  12.058   7.743  1.00  0.00     0.008 C 
BRANCH   9  11
ATOM     11  C   UNL     1      38.576  11.121   5.752  1.00  0.00    -0.002 C 
ATOM     12  C   UNL     1      37.472  11.781   4.883  1.00  0.00     0.005 C 
ATOM     13  C   UNL     1      37.812  10.182   6.739  1.00  0.00    -0.026 C 
ATOM     14  C   UNL     1      36.181  10.997   5.143  1.00  0.00     0.005 C 
ATOM     15  C   UNL     1      36.651   9.728   5.842  1.00  0.00    -0.001 C 
ATOM     16  C   UNL     1      38.566   8.894   7.132  1.00  0.00     0.007 C 
ATOM     17  C   UNL     1      37.342  10.948   8.008  1.00  0.00     0.012 C 
ATOM     18  C   UNL     1      35.584   8.866   6.555  1.00  0.00     0.000 C 
ATOM     19  C   UNL     1      37.660   7.921   7.913  1.00  0.00     0.005 C 
ATOM     20  C   UNL     1      36.232   7.639   7.308  1.00  0.00     0.003 C 
ATOM     21  C   UNL     1      34.473   8.469   5.549  1.00  0.00     0.031 C 
ATOM     22  C   UNL     1      36.070   6.243   6.579  1.00  0.00    -0.008 C 
ATOM     23  C   UNL     1      33.856   7.131   5.807  1.00  0.00    -0.027 C 
ATOM     24  C   UNL     1      34.588   6.071   6.198  1.00  0.00    -0.065 C 
ATOM     25  C   UNL     1      36.505   5.093   7.557  1.00  0.00     0.014 C 
ATOM     26  C   UNL     1      36.932   6.165   5.300  1.00  0.00     0.016 C 
ATOM     27  C   UNL     1      33.972   4.694   6.041  1.00  0.00     0.063 C 
ATOM     28  C   UNL     1      35.963   3.706   7.197  1.00  0.00     0.033 C 
ATOM     29  C   UNL     1      34.436   3.734   7.135  1.00  0.00     0.118 C 
BRANCH  29  30
ATOM     30  O   UNL     1      33.924   2.444   6.913  1.00  0.00    -0.393 OA
ATOM     31  H   UNL     1      33.185   2.520   6.253  1.00  0.00     0.210 HD
ENDBRANCH  29  30
ENDBRANCH   9  11
ENDBRANCH   1   9
TORSDOF 7
ENDMDL
MODEL 8
REMARK VINA RESULT:    -2.887     15.004     16.707
REMARK INTER + INTRA:          -3.939
REMARK INTER:                  -4.136
REMARK INTRA:                   0.196
REMARK UNBOUND:                 0.045
REMARK SMILES CC[C@H](CC[C@H](C)[C@@H]1CC[C@@H]2[C@H]3CC=C4C[C@@H](O)CC[C@]4(C)[C@H]3CC[C@]21C)C(C)C
REMARK SMILES IDX 5 1 4 2 3 3 2 4 1 5 28 6 29 7 30 8 6 9 7 10 8 11 9 12 26 13
REMARK SMILES IDX 10 14 11 15 25 16 27 17 12 18 24 19 23 20 13 21 21 22 14 23
REMARK SMILES IDX 15 24 20 25 22 26 16 27 19 28 17 29 18 30
REMARK H PARENT 18 31
REMARK Flexibility Score: inf
ROOT
ATOM      1  C   UNL     1      41.369   8.920   7.288  1.00  0.00     0.004 C 
ENDROOT
BRANCH   1   2
ATOM      2  C   UNL     1      41.893  10.119   8.112  1.00  0.00     0.004 C 
BRANCH   2   3
ATOM      3  C   UNL     1      42.779  11.147   7.351  1.00  0.00    -0.009 C 
BRANCH   3   4
ATOM      4  C   UNL     1      43.921  10.402   6.589  1.00  0.00     0.000 C 
ATOM      5  C   UNL     1      44.108   8.963   7.074  1.00  0.00     0.004 C 
ENDBRANCH   3   4
BRANCH   3   6
ATOM      6  C   UNL     1      41.957  12.121   6.440  1.00  0.00    -0.014 C 
ATOM      7  C   UNL     1      42.260  11.912   4.949  1.00  0.00     0.007 C 
ATOM      8  C   UNL     1      40.437  12.079   6.686  1.00  0.00     0.007 C 
ENDBRANCH   3   6
ENDBRANCH   2   3
ENDBRANCH   1   2
BRANCH   1   9
ATOM      9  C   UNL     1      40.544   7.881   8.088  1.00  0.00    -0.011 C 
ATOM     10  C   UNL     1      41.265   6.512   8.125  1.00  0.00     0.008 C 
BRANCH   9  11
ATOM     11  C   UNL     1      39.034   7.877   7.652  1.00  0.00    -0.002 C 
ATOM     12  C   UNL     1      38.257   6.608   8.094  1.00  0.00     0.005 C 
ATOM     13  C   UNL     1      38.601   8.126   6.172  1.00  0.00    -0.026 C 
ATOM     14  C   UNL     1      37.186   6.355   7.027  1.00  0.00     0.005 C 
ATOM     15  C   UNL     1      37.142   7.652   6.230  1.00  0.00    -0.001 C 
ATOM     16  C   UNL     1      38.543   9.610   5.749  1.00  0.00     0.007 C 
ATOM     17  C   UNL     1      39.472   7.309   5.176  1.00  0.00     0.012 C 
ATOM     18  C   UNL     1      36.416   7.629   4.865  1.00  0.00     0.000 C 
ATOM     19  C   UNL     1      37.889   9.780   4.363  1.00  0.00     0.005 C 
ATOM     20  C   UNL     1      36.532   9.016   4.119  1.00  0.00     0.003 C 
ATOM     21  C   UNL     1      34.957   7.139   5.055  1.00  0.00     0.031 C 
ATOM     22  C   UNL     1      35.230   9.915   4.168  1.00  0.00    -0.008 C 
ATOM     23  C   UNL     1      33.974   7.747   4.106  1.00  0.00    -0.027 C 
ATOM     24  C   UNL     1      34.031   9.044   3.752  1.00  0.00    -0.065 C 
ATOM     25  C   UNL     1      35.390  11.115   3.167  1.00  0.00     0.014 C 
ATOM     26  C   UNL     1      34.980  10.477   5.585  1.00  0.00     0.016 C 
ATOM     27  C   UNL     1      32.791   9.660   3.132  1.00  0.00     0.063 C 
ATOM     28  C   UNL     1      34.075  11.777   2.743  1.00  0.00     0.033 C 
ATOM     29  C   UNL     1      33.141  10.743   2.112  1.00  0.00     0.118 C 
BRANCH  29  30
ATOM     30  O   UNL     1      31.977  11.358   1.622  1.00  0.00    -0.393 OA
ATOM     31  H   UNL     1      31.488  10.689   1.074  1.00  0.00     0.210 HD
ENDBRANCH  29  30
ENDBRANCH   9  11
ENDBRANCH   1   9
TORSDOF 7
ENDMDL
