MODEL 1
REMARK VINA RESULT:    -6.892      0.000      0.000
REMARK INTER + INTRA:          -8.398
REMARK INTER:                  -8.101
REMARK INTRA:                  -0.297
REMARK UNBOUND:                -0.297
REMARK SMILES Oc1ccc(-c2[o+]c3cc(O)cc(O)c3cc2O)cc1
REMARK SMILES IDX 6 1 7 2 8 3 9 4 10 5 12 6 13 7 15 8 16 9 17 10 5 11 4 12
REMARK SMILES IDX 3 13 2 14 19 15 20 16 1 17 18 19 11 21 14 23
REMARK H PARENT 1 18 18 20 11 22 14 24
REMARK Flexibility Score: inf
ROOT
ATOM      1  C   UNL     1     -21.795  14.571 -39.653  1.00  0.00     0.401 A 
ATOM      2  O   UNL     1     -22.860  14.719 -38.868  1.00  0.00    -0.202 OA
ATOM      3  C   UNL     1     -23.756  15.688 -39.028  1.00  0.00     0.368 A 
ATOM      4  C   UNL     1     -24.844  15.760 -38.154  1.00  0.00     0.162 A 
ATOM      5  C   UNL     1     -25.801  16.763 -38.301  1.00  0.00     0.128 A 
ATOM      6  C   UNL     1     -25.673  17.703 -39.329  1.00  0.00     0.093 A 
ATOM      7  C   UNL     1     -24.592  17.653 -40.219  1.00  0.00     0.136 A 
ATOM      8  C   UNL     1     -23.615  16.635 -40.071  1.00  0.00     0.125 A 
ATOM      9  C   UNL     1     -22.492  16.516 -40.907  1.00  0.00     0.078 A 
ATOM     10  C   UNL     1     -21.568  15.487 -40.697  1.00  0.00     0.223 A 
ENDROOT
BRANCH   1  11
ATOM     11  C   UNL     1     -20.874  13.446 -39.377  1.00  0.00     0.084 A 
ATOM     12  C   UNL     1     -19.998  13.521 -38.280  1.00  0.00     0.022 A 
ATOM     13  C   UNL     1     -19.135  12.460 -37.989  1.00  0.00     0.047 A 
ATOM     14  C   UNL     1     -19.146  11.306 -38.778  1.00  0.00     0.115 A 
ATOM     15  C   UNL     1     -20.894  12.274 -40.155  1.00  0.00     0.022 A 
ATOM     16  C   UNL     1     -20.030  11.214 -39.861  1.00  0.00     0.047 A 
BRANCH  14  17
ATOM     17  O   UNL     1     -18.281  10.258 -38.477  1.00  0.00    -0.508 OA
ATOM     18  H   UNL     1     -18.608   9.416 -38.016  1.00  0.00     0.293 HD
ENDBRANCH  14  17
ENDBRANCH   1  11
BRANCH  10  19
ATOM     19  O   UNL     1     -20.427  15.398 -41.494  1.00  0.00    -0.500 OA
ATOM     20  H   UNL     1     -20.467  15.044 -42.442  1.00  0.00     0.294 HD
ENDBRANCH  10  19
BRANCH   5  21
ATOM     21  O   UNL     1     -26.878  16.818 -37.419  1.00  0.00    -0.507 OA
ATOM     22  H   UNL     1     -26.796  16.497 -36.462  1.00  0.00     0.293 HD
ENDBRANCH   5  21
BRANCH   7  23
ATOM     23  O   UNL     1     -24.537  18.626 -41.221  1.00  0.00    -0.507 OA
ATOM     24  H   UNL     1     -25.211  18.716 -41.967  1.00  0.00     0.293 HD
ENDBRANCH   7  23
TORSDOF 5
ENDMDL
MODEL 2
REMARK VINA RESULT:    -6.560      4.719      6.578
REMARK INTER + INTRA:          -8.008
REMARK INTER:                  -7.748
REMARK INTRA:                  -0.260
REMARK UNBOUND:                -0.297
REMARK SMILES Oc1ccc(-c2[o+]c3cc(O)cc(O)c3cc2O)cc1
REMARK SMILES IDX 6 1 7 2 8 3 9 4 10 5 12 6 13 7 15 8 16 9 17 10 5 11 4 12
REMARK SMILES IDX 3 13 2 14 19 15 20 16 1 17 18 19 11 21 14 23
REMARK H PARENT 1 18 18 20 11 22 14 24
REMARK Flexibility Score: inf
ROOT
ATOM      1  C   UNL     1     -23.775  17.948 -38.144  1.00  0.00     0.401 A 
ATOM      2  O   UNL     1     -24.806  17.112 -38.049  1.00  0.00    -0.202 OA
ATOM      3  C   UNL     1     -25.030  16.348 -36.984  1.00  0.00     0.368 A 
ATOM      4  C   UNL     1     -26.142  15.503 -36.975  1.00  0.00     0.162 A 
ATOM      5  C   UNL     1     -26.404  14.693 -35.870  1.00  0.00     0.128 A 
ATOM      6  C   UNL     1     -25.549  14.728 -34.763  1.00  0.00     0.093 A 
ATOM      7  C   UNL     1     -24.428  15.567 -34.747  1.00  0.00     0.136 A 
ATOM      8  C   UNL     1     -24.157  16.390 -35.870  1.00  0.00     0.125 A 
ATOM      9  C   UNL     1     -23.050  17.251 -35.947  1.00  0.00     0.078 A 
ATOM     10  C   UNL     1     -22.845  18.030 -37.091  1.00  0.00     0.223 A 
ENDROOT
BRANCH   1  11
ATOM     11  C   UNL     1     -23.639  18.753 -39.380  1.00  0.00     0.084 A 
ATOM     12  C   UNL     1     -23.932  20.127 -39.348  1.00  0.00     0.022 A 
ATOM     13  C   UNL     1     -23.789  20.909 -40.497  1.00  0.00     0.047 A 
ATOM     14  C   UNL     1     -23.338  20.333 -41.689  1.00  0.00     0.115 A 
ATOM     15  C   UNL     1     -23.165  18.183 -40.577  1.00  0.00     0.022 A 
ATOM     16  C   UNL     1     -23.023  18.969 -41.725  1.00  0.00     0.047 A 
BRANCH  14  17
ATOM     17  O   UNL     1     -23.201  21.125 -42.826  1.00  0.00    -0.508 OA
ATOM     18  H   UNL     1     -24.008  21.443 -43.351  1.00  0.00     0.293 HD
ENDBRANCH  14  17
ENDBRANCH   1  11
BRANCH  10  19
ATOM     19  O   UNL     1     -21.719  18.848 -37.189  1.00  0.00    -0.500 OA
ATOM     20  H   UNL     1     -21.199  19.137 -36.369  1.00  0.00     0.294 HD
ENDBRANCH  10  19
BRANCH   5  21
ATOM     21  O   UNL     1     -27.518  13.856 -35.881  1.00  0.00    -0.507 OA
ATOM     22  H   UNL     1     -28.369  14.112 -36.368  1.00  0.00     0.293 HD
ENDBRANCH   5  21
BRANCH   7  23
ATOM     23  O   UNL     1     -23.625  15.547 -33.602  1.00  0.00    -0.507 OA
ATOM     24  H   UNL     1     -23.753  14.916 -32.826  1.00  0.00     0.293 HD
ENDBRANCH   7  23
TORSDOF 5
ENDMDL
MODEL 3
REMARK VINA RESULT:    -6.547      1.225      2.816
REMARK INTER + INTRA:          -7.992
REMARK INTER:                  -7.674
REMARK INTRA:                  -0.318
REMARK UNBOUND:                -0.297
REMARK SMILES Oc1ccc(-c2[o+]c3cc(O)cc(O)c3cc2O)cc1
REMARK SMILES IDX 6 1 7 2 8 3 9 4 10 5 12 6 13 7 15 8 16 9 17 10 5 11 4 12
REMARK SMILES IDX 3 13 2 14 19 15 20 16 1 17 18 19 11 21 14 23
REMARK H PARENT 1 18 18 20 11 22 14 24
REMARK Flexibility Score: inf
ROOT
ATOM      1  C   UNL     1     -22.120  14.635 -39.491  1.00  0.00     0.401 A 
ATOM      2  O   UNL     1     -21.833  15.630 -40.327  1.00  0.00    -0.202 OA
ATOM      3  C   UNL     1     -22.653  16.650 -40.558  1.00  0.00     0.368 A 
ATOM      4  C   UNL     1     -22.260  17.649 -41.451  1.00  0.00     0.162 A 
ATOM      5  C   UNL     1     -23.099  18.733 -41.709  1.00  0.00     0.128 A 
ATOM      6  C   UNL     1     -24.339  18.822 -41.069  1.00  0.00     0.093 A 
ATOM      7  C   UNL     1     -24.756  17.835 -40.169  1.00  0.00     0.136 A 
ATOM      8  C   UNL     1     -23.907  16.729 -39.906  1.00  0.00     0.125 A 
ATOM      9  C   UNL     1     -24.247  15.685 -39.029  1.00  0.00     0.078 A 
ATOM     10  C   UNL     1     -23.359  14.624 -38.823  1.00  0.00     0.223 A 
ENDROOT
BRANCH   1  11
ATOM     11  C   UNL     1     -21.120  13.559 -39.313  1.00  0.00     0.084 A 
ATOM     12  C   UNL     1     -20.189  13.645 -38.264  1.00  0.00     0.022 A 
ATOM     13  C   UNL     1     -19.249  12.629 -38.064  1.00  0.00     0.047 A 
ATOM     14  C   UNL     1     -19.237  11.508 -38.899  1.00  0.00     0.115 A 
ATOM     15  C   UNL     1     -21.115  12.418 -40.137  1.00  0.00     0.022 A 
ATOM     16  C   UNL     1     -20.174  11.403 -39.935  1.00  0.00     0.047 A 
BRANCH  14  17
ATOM     17  O   UNL     1     -18.295  10.504 -38.689  1.00  0.00    -0.508 OA
ATOM     18  H   UNL     1     -18.554   9.612 -38.284  1.00  0.00     0.293 HD
ENDBRANCH  14  17
ENDBRANCH   1  11
BRANCH  10  19
ATOM     19  O   UNL     1     -23.718  13.563 -37.992  1.00  0.00    -0.500 OA
ATOM     20  H   UNL     1     -23.923  13.702 -37.010  1.00  0.00     0.294 HD
ENDBRANCH  10  19
BRANCH   5  21
ATOM     21  O   UNL     1     -22.690  19.720 -42.605  1.00  0.00    -0.507 OA
ATOM     22  H   UNL     1     -21.788  19.676 -43.066  1.00  0.00     0.293 HD
ENDBRANCH   5  21
BRANCH   7  23
ATOM     23  O   UNL     1     -26.008  17.997 -39.567  1.00  0.00    -0.507 OA
ATOM     24  H   UNL     1     -26.606  18.798 -39.702  1.00  0.00     0.293 HD
ENDBRANCH   7  23
TORSDOF 5
ENDMDL
MODEL 4
REMARK VINA RESULT:    -6.533      4.426      6.985
REMARK INTER + INTRA:          -7.975
REMARK INTER:                  -7.761
REMARK INTRA:                  -0.214
REMARK UNBOUND:                -0.297
REMARK SMILES Oc1ccc(-c2[o+]c3cc(O)cc(O)c3cc2O)cc1
REMARK SMILES IDX 6 1 7 2 8 3 9 4 10 5 12 6 13 7 15 8 16 9 17 10 5 11 4 12
REMARK SMILES IDX 3 13 2 14 19 15 20 16 1 17 18 19 11 21 14 23
REMARK H PARENT 1 18 18 20 11 22 14 24
REMARK Flexibility Score: inf
ROOT
ATOM      1  C   UNL     1     -24.207  18.322 -38.768  1.00  0.00     0.401 A 
ATOM      2  O   UNL     1     -23.388  17.889 -37.813  1.00  0.00    -0.202 OA
ATOM      3  C   UNL     1     -23.735  16.976 -36.911  1.00  0.00     0.368 A 
ATOM      4  C   UNL     1     -22.802  16.583 -35.948  1.00  0.00     0.162 A 
ATOM      5  C   UNL     1     -23.138  15.625 -34.992  1.00  0.00     0.128 A 
ATOM      6  C   UNL     1     -24.415  15.053 -34.996  1.00  0.00     0.093 A 
ATOM      7  C   UNL     1     -25.367  15.430 -35.951  1.00  0.00     0.136 A 
ATOM      8  C   UNL     1     -25.031  16.406 -36.923  1.00  0.00     0.125 A 
ATOM      9  C   UNL     1     -25.925  16.855 -37.909  1.00  0.00     0.078 A 
ATOM     10  C   UNL     1     -25.522  17.825 -38.833  1.00  0.00     0.223 A 
ENDROOT
BRANCH   1  11
ATOM     11  C   UNL     1     -23.700  19.336 -39.720  1.00  0.00     0.084 A 
ATOM     12  C   UNL     1     -23.507  18.986 -41.067  1.00  0.00     0.022 A 
ATOM     13  C   UNL     1     -23.049  19.934 -41.987  1.00  0.00     0.047 A 
ATOM     14  C   UNL     1     -22.793  21.246 -41.577  1.00  0.00     0.115 A 
ATOM     15  C   UNL     1     -23.459  20.663 -39.318  1.00  0.00     0.022 A 
ATOM     16  C   UNL     1     -23.002  21.609 -40.241  1.00  0.00     0.047 A 
BRANCH  14  17
ATOM     17  O   UNL     1     -22.337  22.179 -42.504  1.00  0.00    -0.508 OA
ATOM     18  H   UNL     1     -22.221  23.156 -42.260  1.00  0.00     0.293 HD
ENDBRANCH  14  17
ENDBRANCH   1  11
BRANCH  10  19
ATOM     19  O   UNL     1     -26.426  18.307 -39.781  1.00  0.00    -0.500 OA
ATOM     20  H   UNL     1     -26.253  19.162 -40.294  1.00  0.00     0.294 HD
ENDBRANCH  10  19
BRANCH   5  21
ATOM     21  O   UNL     1     -22.194  15.246 -34.039  1.00  0.00    -0.507 OA
ATOM     22  H   UNL     1     -21.273  15.668 -34.008  1.00  0.00     0.293 HD
ENDBRANCH   5  21
BRANCH   7  23
ATOM     23  O   UNL     1     -26.619  14.811 -35.891  1.00  0.00    -0.507 OA
ATOM     24  H   UNL     1     -27.174  14.725 -35.053  1.00  0.00     0.293 HD
ENDBRANCH   7  23
TORSDOF 5
ENDMDL
MODEL 5
REMARK VINA RESULT:    -6.475      4.609      6.165
REMARK INTER + INTRA:          -7.907
REMARK INTER:                  -7.603
REMARK INTRA:                  -0.304
REMARK UNBOUND:                -0.297
REMARK SMILES Oc1ccc(-c2[o+]c3cc(O)cc(O)c3cc2O)cc1
REMARK SMILES IDX 6 1 7 2 8 3 9 4 10 5 12 6 13 7 15 8 16 9 17 10 5 11 4 12
REMARK SMILES IDX 3 13 2 14 19 15 20 16 1 17 18 19 11 21 14 23
REMARK H PARENT 1 18 18 20 11 22 14 24
REMARK Flexibility Score: inf
ROOT
ATOM      1  C   UNL     1     -24.038  18.083 -38.147  1.00  0.00     0.401 A 
ATOM      2  O   UNL     1     -23.370  19.224 -37.994  1.00  0.00    -0.202 OA
ATOM      3  C   UNL     1     -22.945  19.964 -39.014  1.00  0.00     0.368 A 
ATOM      4  C   UNL     1     -22.254  21.149 -38.752  1.00  0.00     0.162 A 
ATOM      5  C   UNL     1     -21.800  21.946 -39.803  1.00  0.00     0.128 A 
ATOM      6  C   UNL     1     -22.039  21.559 -41.125  1.00  0.00     0.093 A 
ATOM      7  C   UNL     1     -22.730  20.376 -41.414  1.00  0.00     0.136 A 
ATOM      8  C   UNL     1     -23.191  19.560 -40.348  1.00  0.00     0.125 A 
ATOM      9  C   UNL     1     -23.880  18.352 -40.543  1.00  0.00     0.078 A 
ATOM     10  C   UNL     1     -24.300  17.599 -39.442  1.00  0.00     0.223 A 
ENDROOT
BRANCH   1  11
ATOM     11  C   UNL     1     -24.465  17.354 -36.931  1.00  0.00     0.084 A 
ATOM     12  C   UNL     1     -23.519  16.620 -36.196  1.00  0.00     0.022 A 
ATOM     13  C   UNL     1     -23.896  15.942 -35.033  1.00  0.00     0.047 A 
ATOM     14  C   UNL     1     -25.218  16.001 -34.580  1.00  0.00     0.115 A 
ATOM     15  C   UNL     1     -25.789  17.428 -36.459  1.00  0.00     0.022 A 
ATOM     16  C   UNL     1     -26.163  16.749 -35.295  1.00  0.00     0.047 A 
BRANCH  14  17
ATOM     17  O   UNL     1     -25.579  15.321 -33.421  1.00  0.00    -0.508 OA
ATOM     18  H   UNL     1     -25.359  15.687 -32.501  1.00  0.00     0.293 HD
ENDBRANCH  14  17
ENDBRANCH   1  11
BRANCH  10  19
ATOM     19  O   UNL     1     -24.940  16.374 -39.634  1.00  0.00    -0.500 OA
ATOM     20  H   UNL     1     -24.819  15.603 -38.989  1.00  0.00     0.294 HD
ENDBRANCH  10  19
BRANCH   5  21
ATOM     21  O   UNL     1     -21.111  23.125 -39.522  1.00  0.00    -0.507 OA
ATOM     22  H   UNL     1     -20.379  23.470 -40.132  1.00  0.00     0.293 HD
ENDBRANCH   5  21
BRANCH   7  23
ATOM     23  O   UNL     1     -22.932  20.060 -42.761  1.00  0.00    -0.507 OA
ATOM     24  H   UNL     1     -22.268  19.564 -43.337  1.00  0.00     0.293 HD
ENDBRANCH   7  23
TORSDOF 5
ENDMDL
MODEL 6
REMARK VINA RESULT:    -6.468      1.815      2.282
REMARK INTER + INTRA:          -7.899
REMARK INTER:                  -7.587
REMARK INTRA:                  -0.312
REMARK UNBOUND:                -0.297
REMARK SMILES Oc1ccc(-c2[o+]c3cc(O)cc(O)c3cc2O)cc1
REMARK SMILES IDX 6 1 7 2 8 3 9 4 10 5 12 6 13 7 15 8 16 9 17 10 5 11 4 12
REMARK SMILES IDX 3 13 2 14 19 15 20 16 1 17 18 19 11 21 14 23
REMARK H PARENT 1 18 18 20 11 22 14 24
REMARK Flexibility Score: inf
ROOT
ATOM      1  C   UNL     1     -22.065  15.137 -40.062  1.00  0.00     0.401 A 
ATOM      2  O   UNL     1     -22.802  15.977 -39.339  1.00  0.00    -0.202 OA
ATOM      3  C   UNL     1     -23.148  17.190 -39.757  1.00  0.00     0.368 A 
ATOM      4  C   UNL     1     -23.928  17.999 -38.927  1.00  0.00     0.162 A 
ATOM      5  C   UNL     1     -24.309  19.275 -39.342  1.00  0.00     0.128 A 
ATOM      6  C   UNL     1     -23.911  19.747 -40.596  1.00  0.00     0.093 A 
ATOM      7  C   UNL     1     -23.131  18.956 -41.448  1.00  0.00     0.136 A 
ATOM      8  C   UNL     1     -22.738  17.659 -41.028  1.00  0.00     0.125 A 
ATOM      9  C   UNL     1     -21.945  16.802 -41.809  1.00  0.00     0.078 A 
ATOM     10  C   UNL     1     -21.594  15.537 -41.326  1.00  0.00     0.223 A 
ENDROOT
BRANCH   1  11
ATOM     11  C   UNL     1     -21.752  13.809 -39.488  1.00  0.00     0.084 A 
ATOM     12  C   UNL     1     -22.635  12.737 -39.702  1.00  0.00     0.022 A 
ATOM     13  C   UNL     1     -22.349  11.469 -39.188  1.00  0.00     0.047 A 
ATOM     14  C   UNL     1     -21.170  11.251 -38.467  1.00  0.00     0.115 A 
ATOM     15  C   UNL     1     -20.558  13.579 -38.780  1.00  0.00     0.022 A 
ATOM     16  C   UNL     1     -20.274  12.309 -38.267  1.00  0.00     0.047 A 
BRANCH  14  17
ATOM     17  O   UNL     1     -20.898   9.983 -37.961  1.00  0.00    -0.508 OA
ATOM     18  H   UNL     1     -21.042   9.761 -36.982  1.00  0.00     0.293 HD
ENDBRANCH  14  17
ENDBRANCH   1  11
BRANCH  10  19
ATOM     19  O   UNL     1     -20.765  14.705 -42.080  1.00  0.00    -0.500 OA
ATOM     20  H   UNL     1     -20.904  13.703 -42.112  1.00  0.00     0.294 HD
ENDBRANCH  10  19
BRANCH   5  21
ATOM     21  O   UNL     1     -25.087  20.067 -38.499  1.00  0.00    -0.507 OA
ATOM     22  H   UNL     1     -25.744  20.745 -38.866  1.00  0.00     0.293 HD
ENDBRANCH   5  21
BRANCH   7  23
ATOM     23  O   UNL     1     -22.776  19.498 -42.687  1.00  0.00    -0.507 OA
ATOM     24  H   UNL     1     -23.433  19.732 -43.416  1.00  0.00     0.293 HD
ENDBRANCH   7  23
TORSDOF 5
ENDMDL
MODEL 7
REMARK VINA RESULT:    -6.404      4.269      6.989
REMARK INTER + INTRA:          -7.824
REMARK INTER:                  -7.508
REMARK INTRA:                  -0.316
REMARK UNBOUND:                -0.297
REMARK SMILES Oc1ccc(-c2[o+]c3cc(O)cc(O)c3cc2O)cc1
REMARK SMILES IDX 6 1 7 2 8 3 9 4 10 5 12 6 13 7 15 8 16 9 17 10 5 11 4 12
REMARK SMILES IDX 3 13 2 14 19 15 20 16 1 17 18 19 11 21 14 23
REMARK H PARENT 1 18 18 20 11 22 14 24
REMARK Flexibility Score: inf
ROOT
ATOM      1  C   UNL     1     -18.204  12.390 -35.331  1.00  0.00     0.401 A 
ATOM      2  O   UNL     1     -19.512  12.623 -35.404  1.00  0.00    -0.202 OA
ATOM      3  C   UNL     1     -20.251  12.316 -36.465  1.00  0.00     0.368 A 
ATOM      4  C   UNL     1     -21.619  12.597 -36.446  1.00  0.00     0.162 A 
ATOM      5  C   UNL     1     -22.419  12.282 -37.544  1.00  0.00     0.128 A 
ATOM      6  C   UNL     1     -21.849  11.682 -38.672  1.00  0.00     0.093 A 
ATOM      7  C   UNL     1     -20.480  11.389 -38.716  1.00  0.00     0.136 A 
ATOM      8  C   UNL     1     -19.663  11.710 -37.602  1.00  0.00     0.125 A 
ATOM      9  C   UNL     1     -18.280  11.466 -37.563  1.00  0.00     0.078 A 
ATOM     10  C   UNL     1     -17.538  11.815 -36.429  1.00  0.00     0.223 A 
ENDROOT
BRANCH   1  11
ATOM     11  C   UNL     1     -17.493  12.771 -34.089  1.00  0.00     0.084 A 
ATOM     12  C   UNL     1     -17.297  11.811 -33.082  1.00  0.00     0.022 A 
ATOM     13  C   UNL     1     -16.610  12.143 -31.911  1.00  0.00     0.047 A 
ATOM     14  C   UNL     1     -16.096  13.431 -31.737  1.00  0.00     0.115 A 
ATOM     15  C   UNL     1     -16.955  14.060 -33.918  1.00  0.00     0.022 A 
ATOM     16  C   UNL     1     -16.268  14.389 -32.745  1.00  0.00     0.047 A 
BRANCH  14  17
ATOM     17  O   UNL     1     -15.413  13.748 -30.566  1.00  0.00    -0.508 OA
ATOM     18  H   UNL     1     -15.848  13.647 -29.655  1.00  0.00     0.293 HD
ENDBRANCH  14  17
ENDBRANCH   1  11
BRANCH  10  19
ATOM     19  O   UNL     1     -16.157  11.619 -36.410  1.00  0.00    -0.500 OA
ATOM     20  H   UNL     1     -15.706  11.080 -35.680  1.00  0.00     0.294 HD
ENDBRANCH  10  19
BRANCH   5  21
ATOM     21  O   UNL     1     -23.782  12.571 -37.506  1.00  0.00    -0.507 OA
ATOM     22  H   UNL     1     -24.441  11.956 -37.043  1.00  0.00     0.293 HD
ENDBRANCH   5  21
BRANCH   7  23
ATOM     23  O   UNL     1     -19.987  10.785 -39.876  1.00  0.00    -0.507 OA
ATOM     24  H   UNL     1     -19.457  11.264 -40.588  1.00  0.00     0.293 HD
ENDBRANCH   7  23
TORSDOF 5
ENDMDL
MODEL 8
REMARK VINA RESULT:    -6.390      4.438      7.046
REMARK INTER + INTRA:          -7.807
REMARK INTER:                  -7.596
REMARK INTRA:                  -0.211
REMARK UNBOUND:                -0.297
REMARK SMILES Oc1ccc(-c2[o+]c3cc(O)cc(O)c3cc2O)cc1
REMARK SMILES IDX 6 1 7 2 8 3 9 4 10 5 12 6 13 7 15 8 16 9 17 10 5 11 4 12
REMARK SMILES IDX 3 13 2 14 19 15 20 16 1 17 18 19 11 21 14 23
REMARK H PARENT 1 18 18 20 11 22 14 24
REMARK Flexibility Score: inf
ROOT
ATOM      1  C   UNL     1     -19.599  12.487 -35.182  1.00  0.00     0.401 A 
ATOM      2  O   UNL     1     -19.042  12.258 -36.368  1.00  0.00    -0.202 OA
ATOM      3  C   UNL     1     -19.744  12.043 -37.476  1.00  0.00     0.368 A 
ATOM      4  C   UNL     1     -19.068  11.815 -38.677  1.00  0.00     0.162 A 
ATOM      5  C   UNL     1     -19.779  11.591 -39.855  1.00  0.00     0.128 A 
ATOM      6  C   UNL     1     -21.178  11.596 -39.836  1.00  0.00     0.093 A 
ATOM      7  C   UNL     1     -21.880  11.823 -38.646  1.00  0.00     0.136 A 
ATOM      8  C   UNL     1     -21.159  12.049 -37.445  1.00  0.00     0.125 A 
ATOM      9  C   UNL     1     -21.779  12.271 -36.204  1.00  0.00     0.078 A 
ATOM     10  C   UNL     1     -21.001  12.482 -35.060  1.00  0.00     0.223 A 
ENDROOT
BRANCH   1  11
ATOM     11  C   UNL     1     -18.708  12.720 -34.023  1.00  0.00     0.084 A 
ATOM     12  C   UNL     1     -18.671  13.989 -33.422  1.00  0.00     0.022 A 
ATOM     13  C   UNL     1     -17.853  14.225 -32.313  1.00  0.00     0.047 A 
ATOM     14  C   UNL     1     -17.074  13.193 -31.781  1.00  0.00     0.115 A 
ATOM     15  C   UNL     1     -17.938  11.680 -33.470  1.00  0.00     0.022 A 
ATOM     16  C   UNL     1     -17.121  11.919 -32.360  1.00  0.00     0.047 A 
BRANCH  14  17
ATOM     17  O   UNL     1     -16.264  13.443 -30.676  1.00  0.00    -0.508 OA
ATOM     18  H   UNL     1     -15.600  14.209 -30.668  1.00  0.00     0.293 HD
ENDBRANCH  14  17
ENDBRANCH   1  11
BRANCH  10  19
ATOM     19  O   UNL     1     -21.615  12.654 -33.819  1.00  0.00    -0.500 OA
ATOM     20  H   UNL     1     -21.192  12.312 -32.964  1.00  0.00     0.294 HD
ENDBRANCH  10  19
BRANCH   5  21
ATOM     21  O   UNL     1     -19.086  11.364 -41.043  1.00  0.00    -0.507 OA
ATOM     22  H   UNL     1     -18.927  10.427 -41.393  1.00  0.00     0.293 HD
ENDBRANCH   5  21
BRANCH   7  23
ATOM     23  O   UNL     1     -23.276  11.816 -38.710  1.00  0.00    -0.507 OA
ATOM     24  H   UNL     1     -23.853  11.016 -38.500  1.00  0.00     0.293 HD
ENDBRANCH   7  23
TORSDOF 5
ENDMDL
MODEL 9
REMARK VINA RESULT:    -6.177      2.273      6.839
REMARK INTER + INTRA:          -7.557
REMARK INTER:                  -7.241
REMARK INTRA:                  -0.317
REMARK UNBOUND:                -0.297
REMARK SMILES Oc1ccc(-c2[o+]c3cc(O)cc(O)c3cc2O)cc1
REMARK SMILES IDX 6 1 7 2 8 3 9 4 10 5 12 6 13 7 15 8 16 9 17 10 5 11 4 12
REMARK SMILES IDX 3 13 2 14 19 15 20 16 1 17 18 19 11 21 14 23
REMARK H PARENT 1 18 18 20 11 22 14 24
REMARK Flexibility Score: inf
ROOT
ATOM      1  C   UNL     1     -22.858  13.746 -38.252  1.00  0.00     0.401 A 
ATOM      2  O   UNL     1     -22.112  12.980 -37.458  1.00  0.00    -0.202 OA
ATOM      3  C   UNL     1     -21.077  12.269 -37.892  1.00  0.00     0.368 A 
ATOM      4  C   UNL     1     -20.352  11.497 -36.981  1.00  0.00     0.162 A 
ATOM      5  C   UNL     1     -19.259  10.744 -37.408  1.00  0.00     0.128 A 
ATOM      6  C   UNL     1     -18.884  10.761 -38.756  1.00  0.00     0.093 A 
ATOM      7  C   UNL     1     -19.593  11.527 -39.689  1.00  0.00     0.136 A 
ATOM      8  C   UNL     1     -20.708  12.292 -39.259  1.00  0.00     0.125 A 
ATOM      9  C   UNL     1     -21.486  13.078 -40.126  1.00  0.00     0.078 A 
ATOM     10  C   UNL     1     -22.574  13.803 -39.629  1.00  0.00     0.223 A 
ENDROOT
BRANCH   1  11
ATOM     11  C   UNL     1     -23.980  14.497 -37.646  1.00  0.00     0.084 A 
ATOM     12  C   UNL     1     -23.765  15.803 -37.175  1.00  0.00     0.022 A 
ATOM     13  C   UNL     1     -24.816  16.539 -36.619  1.00  0.00     0.047 A 
ATOM     14  C   UNL     1     -26.098  15.986 -36.542  1.00  0.00     0.115 A 
ATOM     15  C   UNL     1     -25.277  13.954 -37.584  1.00  0.00     0.022 A 
ATOM     16  C   UNL     1     -26.327  14.693 -37.028  1.00  0.00     0.047 A 
BRANCH  14  17
ATOM     17  O   UNL     1     -27.135  16.730 -35.986  1.00  0.00    -0.508 OA
ATOM     18  H   UNL     1     -27.036  17.188 -35.087  1.00  0.00     0.293 HD
ENDBRANCH  14  17
ENDBRANCH   1  11
BRANCH  10  19
ATOM     19  O   UNL     1     -23.376  14.543 -40.497  1.00  0.00    -0.500 OA
ATOM     20  H   UNL     1     -23.147  14.644 -41.478  1.00  0.00     0.294 HD
ENDBRANCH  10  19
BRANCH   5  21
ATOM     21  O   UNL     1     -18.549   9.980 -36.484  1.00  0.00    -0.507 OA
ATOM     22  H   UNL     1     -18.003   9.175 -36.769  1.00  0.00     0.293 HD
ENDBRANCH   5  21
BRANCH   7  23
ATOM     23  O   UNL     1     -19.155  11.494 -41.016  1.00  0.00    -0.507 OA
ATOM     24  H   UNL     1     -19.350  12.210 -41.699  1.00  0.00     0.293 HD
ENDBRANCH   7  23
TORSDOF 5
ENDMDL
