MODEL 1
REMARK VINA RESULT:    -8.361      0.000      0.000
REMARK INTER + INTRA:         -12.927
REMARK INTER:                 -11.538
REMARK INTRA:                  -1.390
REMARK UNBOUND:                -1.390
REMARK SMILES CC[C@H](CC[C@H](C)[C@H]1CC[C@H]2[C@H]3CC=C4C[C@H](O)CC[C@]4(C)[C@H]3CC[C@@]12C)C(C)C
REMARK SMILES IDX 5 1 4 2 3 3 2 4 1 5 28 6 29 7 30 8 6 9 7 10 8 11 9 12 26 13
REMARK SMILES IDX 10 14 11 15 25 16 27 17 12 18 24 19 23 20 13 21 21 22 14 23
REMARK SMILES IDX 15 24 20 25 22 26 16 27 19 28 17 29 18 30
REMARK H PARENT 18 31
REMARK Flexibility Score: inf
ROOT
ATOM      1  C   UNL     1      12.455 -23.756  -2.584  1.00  0.00     0.004 C 
ENDROOT
BRANCH   1   2
ATOM      2  C   UNL     1      11.649 -25.035  -2.281  1.00  0.00     0.004 C 
BRANCH   2   3
ATOM      3  C   UNL     1      12.557 -26.205  -1.819  1.00  0.00    -0.009 C 
BRANCH   3   4
ATOM      4  C   UNL     1      12.577 -26.424  -0.273  1.00  0.00     0.000 C 
ATOM      5  C   UNL     1      13.355 -25.384   0.549  1.00  0.00     0.004 C 
ENDBRANCH   3   4
BRANCH   3   6
ATOM      6  C   UNL     1      12.296 -27.501  -2.656  1.00  0.00    -0.014 C 
ATOM      7  C   UNL     1      11.079 -28.290  -2.144  1.00  0.00     0.007 C 
ATOM      8  C   UNL     1      12.174 -27.258  -4.164  1.00  0.00     0.007 C 
ENDBRANCH   3   6
ENDBRANCH   2   3
ENDBRANCH   1   2
BRANCH   1   9
ATOM      9  C   UNL     1      12.151 -23.183  -3.994  1.00  0.00    -0.011 C 
ATOM     10  C   UNL     1      10.637 -23.167  -4.253  1.00  0.00     0.008 C 
BRANCH   9  11
ATOM     11  C   UNL     1      12.961 -23.788  -5.205  1.00  0.00    -0.002 C 
ATOM     12  C   UNL     1      12.544 -23.238  -6.588  1.00  0.00     0.005 C 
ATOM     13  C   UNL     1      14.524 -23.863  -5.231  1.00  0.00    -0.026 C 
ATOM     14  C   UNL     1      13.764 -23.388  -7.498  1.00  0.00     0.005 C 
ATOM     15  C   UNL     1      14.765 -24.238  -6.712  1.00  0.00    -0.001 C 
ATOM     16  C   UNL     1      15.213 -22.504  -4.871  1.00  0.00     0.007 C 
ATOM     17  C   UNL     1      15.055 -25.000  -4.318  1.00  0.00     0.012 C 
ATOM     18  C   UNL     1      16.255 -24.198  -7.178  1.00  0.00     0.000 C 
ATOM     19  C   UNL     1      16.354 -22.044  -5.795  1.00  0.00     0.005 C 
ATOM     20  C   UNL     1      17.167 -23.193  -6.405  1.00  0.00     0.003 C 
ATOM     21  C   UNL     1      16.400 -24.067  -8.699  1.00  0.00     0.031 C 
ATOM     22  C   UNL     1      18.457 -22.700  -7.210  1.00  0.00    -0.008 C 
ATOM     23  C   UNL     1      17.842 -24.239  -9.073  1.00  0.00    -0.027 C 
ATOM     24  C   UNL     1      18.822 -23.682  -8.337  1.00  0.00    -0.065 C 
ATOM     25  C   UNL     1      19.640 -22.602  -6.202  1.00  0.00     0.014 C 
ATOM     26  C   UNL     1      18.241 -21.310  -7.875  1.00  0.00     0.016 C 
ATOM     27  C   UNL     1      20.236 -23.738  -8.888  1.00  0.00     0.063 C 
ATOM     28  C   UNL     1      20.997 -22.392  -6.880  1.00  0.00     0.033 C 
ATOM     29  C   UNL     1      21.322 -23.555  -7.818  1.00  0.00     0.118 C 
BRANCH  29  30
ATOM     30  O   UNL     1      21.471 -24.737  -7.070  1.00  0.00    -0.393 OA
ATOM     31  H   UNL     1      22.444 -24.874  -6.936  1.00  0.00     0.210 HD
ENDBRANCH  29  30
ENDBRANCH   9  11
ENDBRANCH   1   9
TORSDOF 7
ENDMDL
MODEL 2
REMARK VINA RESULT:    -8.001      0.784      1.652
REMARK INTER + INTRA:         -12.431
REMARK INTER:                 -10.593
REMARK INTRA:                  -1.838
REMARK UNBOUND:                -1.390
REMARK SMILES CC[C@H](CC[C@H](C)[C@H]1CC[C@H]2[C@H]3CC=C4C[C@H](O)CC[C@]4(C)[C@H]3CC[C@@]12C)C(C)C
REMARK SMILES IDX 5 1 4 2 3 3 2 4 1 5 28 6 29 7 30 8 6 9 7 10 8 11 9 12 26 13
REMARK SMILES IDX 10 14 11 15 25 16 27 17 12 18 24 19 23 20 13 21 21 22 14 23
REMARK SMILES IDX 15 24 20 25 22 26 16 27 19 28 17 29 18 30
REMARK H PARENT 18 31
REMARK Flexibility Score: inf
ROOT
ATOM      1  C   UNL     1      10.903 -23.943  -2.865  1.00  0.00     0.004 C 
ENDROOT
BRANCH   1   2
ATOM      2  C   UNL     1      10.862 -25.377  -3.428  1.00  0.00     0.004 C 
BRANCH   2   3
ATOM      3  C   UNL     1      11.269 -26.435  -2.370  1.00  0.00    -0.009 C 
BRANCH   3   4
ATOM      4  C   UNL     1      12.260 -27.520  -2.900  1.00  0.00     0.000 C 
ATOM      5  C   UNL     1      12.423 -27.600  -4.427  1.00  0.00     0.004 C 
ENDBRANCH   3   4
BRANCH   3   6
ATOM      6  C   UNL     1      11.699 -25.765  -1.023  1.00  0.00    -0.014 C 
ATOM      7  C   UNL     1      11.176 -26.533   0.203  1.00  0.00     0.007 C 
ATOM      8  C   UNL     1      13.208 -25.529  -0.895  1.00  0.00     0.007 C 
ENDBRANCH   3   6
ENDBRANCH   2   3
ENDBRANCH   1   2
BRANCH   1   9
ATOM      9  C   UNL     1      12.021 -23.082  -3.514  1.00  0.00    -0.011 C 
ATOM     10  C   UNL     1      11.530 -21.643  -3.734  1.00  0.00     0.008 C 
BRANCH   9  11
ATOM     11  C   UNL     1      12.735 -23.674  -4.789  1.00  0.00    -0.002 C 
ATOM     12  C   UNL     1      12.269 -23.054  -6.126  1.00  0.00     0.005 C 
ATOM     13  C   UNL     1      14.290 -23.814  -4.905  1.00  0.00    -0.026 C 
ATOM     14  C   UNL     1      13.430 -23.220  -7.107  1.00  0.00     0.005 C 
ATOM     15  C   UNL     1      14.433 -24.142  -6.409  1.00  0.00    -0.001 C 
ATOM     16  C   UNL     1      15.057 -22.500  -4.535  1.00  0.00     0.007 C 
ATOM     17  C   UNL     1      14.819 -25.007  -4.065  1.00  0.00     0.012 C 
ATOM     18  C   UNL     1      15.896 -24.147  -6.956  1.00  0.00     0.000 C 
ATOM     19  C   UNL     1      16.165 -22.054  -5.504  1.00  0.00     0.005 C 
ATOM     20  C   UNL     1      16.892 -23.212  -6.200  1.00  0.00     0.003 C 
ATOM     21  C   UNL     1      15.963 -23.964  -8.478  1.00  0.00     0.031 C 
ATOM     22  C   UNL     1      18.157 -22.744  -7.058  1.00  0.00    -0.008 C 
ATOM     23  C   UNL     1      17.374 -24.183  -8.937  1.00  0.00    -0.027 C 
ATOM     24  C   UNL     1      18.417 -23.696  -8.238  1.00  0.00    -0.065 C 
ATOM     25  C   UNL     1      19.397 -22.735  -6.115  1.00  0.00     0.014 C 
ATOM     26  C   UNL     1      17.968 -21.321  -7.659  1.00  0.00     0.016 C 
ATOM     27  C   UNL     1      19.794 -23.791  -8.869  1.00  0.00     0.063 C 
ATOM     28  C   UNL     1      20.722 -22.556  -6.860  1.00  0.00     0.033 C 
ATOM     29  C   UNL     1      20.944 -23.695  -7.856  1.00  0.00     0.118 C 
BRANCH  29  30
ATOM     30  O   UNL     1      21.081 -24.910  -7.160  1.00  0.00    -0.393 OA
ATOM     31  H   UNL     1      20.167 -25.210  -6.918  1.00  0.00     0.210 HD
ENDBRANCH  29  30
ENDBRANCH   9  11
ENDBRANCH   1   9
TORSDOF 7
ENDMDL
MODEL 3
REMARK VINA RESULT:    -7.804      1.514      2.488
REMARK INTER + INTRA:         -12.159
REMARK INTER:                 -10.468
REMARK INTRA:                  -1.691
REMARK UNBOUND:                -1.390
REMARK SMILES CC[C@H](CC[C@H](C)[C@H]1CC[C@H]2[C@H]3CC=C4C[C@H](O)CC[C@]4(C)[C@H]3CC[C@@]12C)C(C)C
REMARK SMILES IDX 5 1 4 2 3 3 2 4 1 5 28 6 29 7 30 8 6 9 7 10 8 11 9 12 26 13
REMARK SMILES IDX 10 14 11 15 25 16 27 17 12 18 24 19 23 20 13 21 21 22 14 23
REMARK SMILES IDX 15 24 20 25 22 26 16 27 19 28 17 29 18 30
REMARK H PARENT 18 31
REMARK Flexibility Score: inf
ROOT
ATOM      1  C   UNL     1      12.463 -23.465  -2.575  1.00  0.00     0.004 C 
ENDROOT
BRANCH   1   2
ATOM      2  C   UNL     1      13.302 -22.427  -1.804  1.00  0.00     0.004 C 
BRANCH   2   3
ATOM      3  C   UNL     1      14.402 -23.090  -0.935  1.00  0.00    -0.009 C 
BRANCH   3   4
ATOM      4  C   UNL     1      14.205 -24.624  -0.717  1.00  0.00     0.000 C 
ATOM      5  C   UNL     1      13.802 -25.061   0.701  1.00  0.00     0.004 C 
ENDBRANCH   3   4
BRANCH   3   6
ATOM      6  C   UNL     1      15.835 -22.680  -1.409  1.00  0.00    -0.014 C 
ATOM      7  C   UNL     1      16.406 -21.509  -0.592  1.00  0.00     0.007 C 
ATOM      8  C   UNL     1      16.838 -23.838  -1.445  1.00  0.00     0.007 C 
ENDBRANCH   3   6
ENDBRANCH   2   3
ENDBRANCH   1   2
BRANCH   1   9
ATOM      9  C   UNL     1      12.076 -22.978  -3.998  1.00  0.00    -0.011 C 
ATOM     10  C   UNL     1      10.553 -23.031  -4.188  1.00  0.00     0.008 C 
BRANCH   9  11
ATOM     11  C   UNL     1      12.855 -23.617  -5.212  1.00  0.00    -0.002 C 
ATOM     12  C   UNL     1      12.460 -23.047  -6.593  1.00  0.00     0.005 C 
ATOM     13  C   UNL     1      14.414 -23.761  -5.241  1.00  0.00    -0.026 C 
ATOM     14  C   UNL     1      13.669 -23.249  -7.506  1.00  0.00     0.005 C 
ATOM     15  C   UNL     1      14.634 -24.144  -6.723  1.00  0.00    -0.001 C 
ATOM     16  C   UNL     1      15.163 -22.434  -4.881  1.00  0.00     0.007 C 
ATOM     17  C   UNL     1      14.896 -24.921  -4.332  1.00  0.00     0.012 C 
ATOM     18  C   UNL     1      16.122 -24.169  -7.193  1.00  0.00     0.000 C 
ATOM     19  C   UNL     1      16.320 -22.023  -5.807  1.00  0.00     0.005 C 
ATOM     20  C   UNL     1      17.080 -23.206  -6.421  1.00  0.00     0.003 C 
ATOM     21  C   UNL     1      16.269 -24.042  -8.715  1.00  0.00     0.031 C 
ATOM     22  C   UNL     1      18.388 -22.770  -7.230  1.00  0.00    -0.008 C 
ATOM     23  C   UNL     1      17.702 -24.277  -9.093  1.00  0.00    -0.027 C 
ATOM     24  C   UNL     1      18.707 -23.765  -8.359  1.00  0.00    -0.065 C 
ATOM     25  C   UNL     1      19.578 -22.725  -6.224  1.00  0.00     0.014 C 
ATOM     26  C   UNL     1      18.233 -21.370  -7.892  1.00  0.00     0.016 C 
ATOM     27  C   UNL     1      20.116 -23.882  -8.913  1.00  0.00     0.063 C 
ATOM     28  C   UNL     1      20.940 -22.574  -6.906  1.00  0.00     0.033 C 
ATOM     29  C   UNL     1      21.212 -23.749  -7.846  1.00  0.00     0.118 C 
BRANCH  29  30
ATOM     30  O   UNL     1      21.310 -24.937  -7.100  1.00  0.00    -0.393 OA
ATOM     31  H   UNL     1      20.518 -25.489  -7.328  1.00  0.00     0.210 HD
ENDBRANCH  29  30
ENDBRANCH   9  11
ENDBRANCH   1   9
TORSDOF 7
ENDMDL
MODEL 4
REMARK VINA RESULT:    -7.693      1.873      3.568
REMARK INTER + INTRA:         -12.006
REMARK INTER:                 -10.233
REMARK INTRA:                  -1.773
REMARK UNBOUND:                -1.390
REMARK SMILES CC[C@H](CC[C@H](C)[C@H]1CC[C@H]2[C@H]3CC=C4C[C@H](O)CC[C@]4(C)[C@H]3CC[C@@]12C)C(C)C
REMARK SMILES IDX 5 1 4 2 3 3 2 4 1 5 28 6 29 7 30 8 6 9 7 10 8 11 9 12 26 13
REMARK SMILES IDX 10 14 11 15 25 16 27 17 12 18 24 19 23 20 13 21 21 22 14 23
REMARK SMILES IDX 15 24 20 25 22 26 16 27 19 28 17 29 18 30
REMARK H PARENT 18 31
REMARK Flexibility Score: inf
ROOT
ATOM      1  C   UNL     1      12.814 -22.814  -2.636  1.00  0.00     0.004 C 
ENDROOT
BRANCH   1   2
ATOM      2  C   UNL     1      12.825 -21.341  -2.183  1.00  0.00     0.004 C 
BRANCH   2   3
ATOM      3  C   UNL     1      11.964 -20.437  -3.104  1.00  0.00    -0.009 C 
BRANCH   3   4
ATOM      4  C   UNL     1      10.675 -19.877  -2.422  1.00  0.00     0.000 C 
ATOM      5  C   UNL     1      10.873 -18.679  -1.479  1.00  0.00     0.004 C 
ENDBRANCH   3   4
BRANCH   3   6
ATOM      6  C   UNL     1      12.835 -19.360  -3.831  1.00  0.00    -0.014 C 
ATOM      7  C   UNL     1      14.250 -19.258  -3.238  1.00  0.00     0.007 C 
ATOM      8  C   UNL     1      12.910 -19.538  -5.351  1.00  0.00     0.007 C 
ENDBRANCH   3   6
ENDBRANCH   2   3
ENDBRANCH   1   2
BRANCH   1   9
ATOM      9  C   UNL     1      12.000 -23.028  -3.941  1.00  0.00    -0.011 C 
ATOM     10  C   UNL     1      10.697 -23.784  -3.642  1.00  0.00     0.008 C 
BRANCH   9  11
ATOM     11  C   UNL     1      12.771 -23.628  -5.179  1.00  0.00    -0.002 C 
ATOM     12  C   UNL     1      12.390 -22.994  -6.536  1.00  0.00     0.005 C 
ATOM     13  C   UNL     1      14.328 -23.796  -5.211  1.00  0.00    -0.026 C 
ATOM     14  C   UNL     1      13.598 -23.177  -7.453  1.00  0.00     0.005 C 
ATOM     15  C   UNL     1      14.546 -24.120  -6.707  1.00  0.00    -0.001 C 
ATOM     16  C   UNL     1      15.097 -22.498  -4.794  1.00  0.00     0.007 C 
ATOM     17  C   UNL     1      14.788 -25.002  -4.350  1.00  0.00     0.012 C 
ATOM     18  C   UNL     1      16.035 -24.150  -7.175  1.00  0.00     0.000 C 
ATOM     19  C   UNL     1      16.264 -22.068  -5.699  1.00  0.00     0.005 C 
ATOM     20  C   UNL     1      17.006 -23.237  -6.361  1.00  0.00     0.003 C 
ATOM     21  C   UNL     1      16.188 -23.962  -8.690  1.00  0.00     0.031 C 
ATOM     22  C   UNL     1      18.324 -22.789  -7.147  1.00  0.00    -0.008 C 
ATOM     23  C   UNL     1      17.618 -24.205  -9.073  1.00  0.00    -0.027 C 
ATOM     24  C   UNL     1      18.630 -23.740  -8.317  1.00  0.00    -0.065 C 
ATOM     25  C   UNL     1      19.511 -22.807  -6.138  1.00  0.00     0.014 C 
ATOM     26  C   UNL     1      18.193 -21.360  -7.750  1.00  0.00     0.016 C 
ATOM     27  C   UNL     1      20.037 -23.858  -8.872  1.00  0.00     0.063 C 
ATOM     28  C   UNL     1      20.878 -22.649  -6.810  1.00  0.00     0.033 C 
ATOM     29  C   UNL     1      21.132 -23.788  -7.798  1.00  0.00     0.118 C 
BRANCH  29  30
ATOM     30  O   UNL     1      21.209 -25.008  -7.103  1.00  0.00    -0.393 OA
ATOM     31  H   UNL     1      20.422 -25.547  -7.375  1.00  0.00     0.210 HD
ENDBRANCH  29  30
ENDBRANCH   9  11
ENDBRANCH   1   9
TORSDOF 7
ENDMDL
MODEL 5
REMARK VINA RESULT:    -7.604      2.014      3.765
REMARK INTER + INTRA:         -11.884
REMARK INTER:                 -10.581
REMARK INTRA:                  -1.303
REMARK UNBOUND:                -1.390
REMARK SMILES CC[C@H](CC[C@H](C)[C@H]1CC[C@H]2[C@H]3CC=C4C[C@H](O)CC[C@]4(C)[C@H]3CC[C@@]12C)C(C)C
REMARK SMILES IDX 5 1 4 2 3 3 2 4 1 5 28 6 29 7 30 8 6 9 7 10 8 11 9 12 26 13
REMARK SMILES IDX 10 14 11 15 25 16 27 17 12 18 24 19 23 20 13 21 21 22 14 23
REMARK SMILES IDX 15 24 20 25 22 26 16 27 19 28 17 29 18 30
REMARK H PARENT 18 31
REMARK Flexibility Score: inf
ROOT
ATOM      1  C   UNL     1      11.558 -21.868  -3.806  1.00  0.00     0.004 C 
ENDROOT
BRANCH   1   2
ATOM      2  C   UNL     1      11.951 -21.319  -2.421  1.00  0.00     0.004 C 
BRANCH   2   3
ATOM      3  C   UNL     1      13.101 -20.281  -2.506  1.00  0.00    -0.009 C 
BRANCH   3   4
ATOM      4  C   UNL     1      13.146 -19.488  -3.851  1.00  0.00     0.000 C 
ATOM      5  C   UNL     1      14.540 -19.069  -4.344  1.00  0.00     0.004 C 
ENDBRANCH   3   4
BRANCH   3   6
ATOM      6  C   UNL     1      13.166 -19.389  -1.223  1.00  0.00    -0.014 C 
ATOM      7  C   UNL     1      11.824 -18.699  -0.924  1.00  0.00     0.007 C 
ATOM      8  C   UNL     1      13.674 -20.120   0.024  1.00  0.00     0.007 C 
ENDBRANCH   3   6
ENDBRANCH   2   3
ENDBRANCH   1   2
BRANCH   1   9
ATOM      9  C   UNL     1      11.816 -23.394  -3.936  1.00  0.00    -0.011 C 
ATOM     10  C   UNL     1      12.389 -23.954  -2.626  1.00  0.00     0.008 C 
BRANCH   9  11
ATOM     11  C   UNL     1      12.623 -23.881  -5.201  1.00  0.00    -0.002 C 
ATOM     12  C   UNL     1      12.270 -23.135  -6.507  1.00  0.00     0.005 C 
ATOM     13  C   UNL     1      14.181 -24.036  -5.207  1.00  0.00    -0.026 C 
ATOM     14  C   UNL     1      13.503 -23.231  -7.406  1.00  0.00     0.005 C 
ATOM     15  C   UNL     1      14.439 -24.229  -6.720  1.00  0.00    -0.001 C 
ATOM     16  C   UNL     1      14.929 -22.774  -4.661  1.00  0.00     0.007 C 
ATOM     17  C   UNL     1      14.629 -25.309  -4.441  1.00  0.00     0.012 C 
ATOM     18  C   UNL     1      15.940 -24.210  -7.149  1.00  0.00     0.000 C 
ATOM     19  C   UNL     1      16.115 -22.261  -5.496  1.00  0.00     0.005 C 
ATOM     20  C   UNL     1      16.883 -23.365  -6.236  1.00  0.00     0.003 C 
ATOM     21  C   UNL     1      16.129 -23.891  -8.638  1.00  0.00     0.031 C 
ATOM     22  C   UNL     1      18.216 -22.842  -6.947  1.00  0.00    -0.008 C 
ATOM     23  C   UNL     1      17.570 -24.092  -9.005  1.00  0.00    -0.027 C 
ATOM     24  C   UNL     1      18.559 -23.688  -8.185  1.00  0.00    -0.065 C 
ATOM     25  C   UNL     1      19.378 -22.940  -5.913  1.00  0.00     0.014 C 
ATOM     26  C   UNL     1      18.089 -21.368  -7.428  1.00  0.00     0.016 C 
ATOM     27  C   UNL     1      19.981 -23.750  -8.713  1.00  0.00     0.063 C 
ATOM     28  C   UNL     1      20.760 -22.717  -6.533  1.00  0.00     0.033 C 
ATOM     29  C   UNL     1      21.048 -23.766  -7.609  1.00  0.00     0.118 C 
BRANCH  29  30
ATOM     30  O   UNL     1      21.117 -25.041  -7.018  1.00  0.00    -0.393 OA
ATOM     31  H   UNL     1      20.540 -25.017  -6.212  1.00  0.00     0.210 HD
ENDBRANCH  29  30
ENDBRANCH   9  11
ENDBRANCH   1   9
TORSDOF 7
ENDMDL
MODEL 6
REMARK VINA RESULT:    -6.971      2.876      4.344
REMARK INTER + INTRA:         -11.010
REMARK INTER:                  -9.081
REMARK INTRA:                  -1.929
REMARK UNBOUND:                -1.390
REMARK SMILES CC[C@H](CC[C@H](C)[C@H]1CC[C@H]2[C@H]3CC=C4C[C@H](O)CC[C@]4(C)[C@H]3CC[C@@]12C)C(C)C
REMARK SMILES IDX 5 1 4 2 3 3 2 4 1 5 28 6 29 7 30 8 6 9 7 10 8 11 9 12 26 13
REMARK SMILES IDX 10 14 11 15 25 16 27 17 12 18 24 19 23 20 13 21 21 22 14 23
REMARK SMILES IDX 15 24 20 25 22 26 16 27 19 28 17 29 18 30
REMARK H PARENT 18 31
REMARK Flexibility Score: inf
ROOT
ATOM      1  C   UNL     1      13.023 -21.458  -1.320  1.00  0.00     0.004 C 
ENDROOT
BRANCH   1   2
ATOM      2  C   UNL     1      13.576 -20.376  -0.372  1.00  0.00     0.004 C 
BRANCH   2   3
ATOM      3  C   UNL     1      14.863 -19.711  -0.928  1.00  0.00    -0.009 C 
BRANCH   3   4
ATOM      4  C   UNL     1      14.731 -18.175  -1.178  1.00  0.00     0.000 C 
ATOM      5  C   UNL     1      15.242 -17.663  -2.534  1.00  0.00     0.004 C 
ENDBRANCH   3   4
BRANCH   3   6
ATOM      6  C   UNL     1      16.127 -20.130  -0.107  1.00  0.00    -0.014 C 
ATOM      7  C   UNL     1      17.242 -20.694  -1.003  1.00  0.00     0.007 C 
ATOM      8  C   UNL     1      16.682 -19.023   0.795  1.00  0.00     0.007 C 
ENDBRANCH   3   6
ENDBRANCH   2   3
ENDBRANCH   1   2
BRANCH   1   9
ATOM      9  C   UNL     1      12.879 -20.952  -2.781  1.00  0.00    -0.011 C 
ATOM     10  C   UNL     1      11.484 -20.348  -3.004  1.00  0.00     0.008 C 
BRANCH   9  11
ATOM     11  C   UNL     1      13.292 -21.949  -3.931  1.00  0.00    -0.002 C 
ATOM     12  C   UNL     1      12.673 -21.624  -5.309  1.00  0.00     0.005 C 
ATOM     13  C   UNL     1      14.779 -22.348  -4.217  1.00  0.00    -0.026 C 
ATOM     14  C   UNL     1      13.620 -22.207  -6.357  1.00  0.00     0.005 C 
ATOM     15  C   UNL     1      14.623 -23.064  -5.579  1.00  0.00    -0.001 C 
ATOM     16  C   UNL     1      15.738 -21.115  -4.331  1.00  0.00     0.007 C 
ATOM     17  C   UNL     1      15.311 -23.355  -3.163  1.00  0.00     0.012 C 
ATOM     18  C   UNL     1      15.958 -23.429  -6.299  1.00  0.00     0.000 C 
ATOM     19  C   UNL     1      16.703 -21.102  -5.528  1.00  0.00     0.005 C 
ATOM     20  C   UNL     1      17.167 -22.496  -5.973  1.00  0.00     0.003 C 
ATOM     21  C   UNL     1      15.781 -23.649  -7.807  1.00  0.00     0.031 C 
ATOM     22  C   UNL     1      18.308 -22.457  -7.092  1.00  0.00    -0.008 C 
ATOM     23  C   UNL     1      17.059 -24.188  -8.379  1.00  0.00    -0.027 C 
ATOM     24  C   UNL     1      18.254 -23.705  -7.991  1.00  0.00    -0.065 C 
ATOM     25  C   UNL     1      19.686 -22.398  -6.367  1.00  0.00     0.014 C 
ATOM     26  C   UNL     1      18.175 -21.221  -8.028  1.00  0.00     0.016 C 
ATOM     27  C   UNL     1      19.482 -24.164  -8.754  1.00  0.00     0.063 C 
ATOM     28  C   UNL     1      20.874 -22.617  -7.308  1.00  0.00     0.033 C 
ATOM     29  C   UNL     1      20.794 -23.991  -7.975  1.00  0.00     0.118 C 
BRANCH  29  30
ATOM     30  O   UNL     1      20.915 -24.997  -6.999  1.00  0.00    -0.393 OA
ATOM     31  H   UNL     1      20.987 -24.540  -6.121  1.00  0.00     0.210 HD
ENDBRANCH  29  30
ENDBRANCH   9  11
ENDBRANCH   1   9
TORSDOF 7
ENDMDL
MODEL 7
REMARK VINA RESULT:    -6.964      2.897      8.327
REMARK INTER + INTRA:         -11.000
REMARK INTER:                  -9.515
REMARK INTRA:                  -1.485
REMARK UNBOUND:                -1.390
REMARK SMILES CC[C@H](CC[C@H](C)[C@H]1CC[C@H]2[C@H]3CC=C4C[C@H](O)CC[C@]4(C)[C@H]3CC[C@@]12C)C(C)C
REMARK SMILES IDX 5 1 4 2 3 3 2 4 1 5 28 6 29 7 30 8 6 9 7 10 8 11 9 12 26 13
REMARK SMILES IDX 10 14 11 15 25 16 27 17 12 18 24 19 23 20 13 21 21 22 14 23
REMARK SMILES IDX 15 24 20 25 22 26 16 27 19 28 17 29 18 30
REMARK H PARENT 18 31
REMARK Flexibility Score: inf
ROOT
ATOM      1  C   UNL     1      16.752 -22.004  -6.443  1.00  0.00     0.004 C 
ENDROOT
BRANCH   1   2
ATOM      2  C   UNL     1      17.256 -23.460  -6.409  1.00  0.00     0.004 C 
BRANCH   2   3
ATOM      3  C   UNL     1      16.740 -24.288  -7.615  1.00  0.00    -0.009 C 
BRANCH   3   4
ATOM      4  C   UNL     1      15.305 -23.896  -8.091  1.00  0.00     0.000 C 
ATOM      5  C   UNL     1      14.146 -24.708  -7.490  1.00  0.00     0.004 C 
ENDBRANCH   3   4
BRANCH   3   6
ATOM      6  C   UNL     1      17.805 -24.364  -8.759  1.00  0.00    -0.014 C 
ATOM      7  C   UNL     1      17.492 -23.397  -9.912  1.00  0.00     0.007 C 
ATOM      8  C   UNL     1      19.249 -24.170  -8.283  1.00  0.00     0.007 C 
ENDBRANCH   3   6
ENDBRANCH   2   3
ENDBRANCH   1   2
BRANCH   1   9
ATOM      9  C   UNL     1      16.456 -21.445  -5.025  1.00  0.00    -0.011 C 
ATOM     10  C   UNL     1      17.439 -22.030  -4.001  1.00  0.00     0.008 C 
BRANCH   9  11
ATOM     11  C   UNL     1      14.961 -21.508  -4.525  1.00  0.00    -0.002 C 
ATOM     12  C   UNL     1      13.911 -21.531  -5.659  1.00  0.00     0.005 C 
ATOM     13  C   UNL     1      14.463 -22.545  -3.463  1.00  0.00    -0.026 C 
ATOM     14  C   UNL     1      12.674 -22.224  -5.088  1.00  0.00     0.005 C 
ATOM     15  C   UNL     1      12.932 -22.361  -3.585  1.00  0.00    -0.001 C 
ATOM     16  C   UNL     1      14.885 -24.016  -3.791  1.00  0.00     0.007 C 
ATOM     17  C   UNL     1      14.916 -22.156  -2.031  1.00  0.00     0.012 C 
ATOM     18  C   UNL     1      12.069 -23.402  -2.806  1.00  0.00     0.000 C 
ATOM     19  C   UNL     1      13.787 -25.088  -3.684  1.00  0.00     0.005 C 
ATOM     20  C   UNL     1      12.735 -24.800  -2.604  1.00  0.00     0.003 C 
ATOM     21  C   UNL     1      10.636 -23.511  -3.343  1.00  0.00     0.031 C 
ATOM     22  C   UNL     1      11.711 -26.007  -2.378  1.00  0.00    -0.008 C 
ATOM     23  C   UNL     1       9.828 -24.373  -2.419  1.00  0.00    -0.027 C 
ATOM     24  C   UNL     1      10.345 -25.497  -1.888  1.00  0.00    -0.065 C 
ATOM     25  C   UNL     1      12.324 -26.960  -1.310  1.00  0.00     0.014 C 
ATOM     26  C   UNL     1      11.450 -26.811  -3.684  1.00  0.00     0.016 C 
ATOM     27  C   UNL     1       9.405 -26.412  -1.124  1.00  0.00     0.063 C 
ATOM     28  C   UNL     1      11.339 -28.019  -0.807  1.00  0.00     0.033 C 
ATOM     29  C   UNL     1      10.122 -27.362  -0.153  1.00  0.00     0.118 C 
BRANCH  29  30
ATOM     30  O   UNL     1      10.525 -26.665   1.000  1.00  0.00    -0.393 OA
ATOM     31  H   UNL     1      10.270 -25.716   0.868  1.00  0.00     0.210 HD
ENDBRANCH  29  30
ENDBRANCH   9  11
ENDBRANCH   1   9
TORSDOF 7
ENDMDL
MODEL 8
REMARK VINA RESULT:    -6.939      2.971      9.139
REMARK INTER + INTRA:         -10.966
REMARK INTER:                  -9.822
REMARK INTRA:                  -1.144
REMARK UNBOUND:                -1.390
REMARK SMILES CC[C@H](CC[C@H](C)[C@H]1CC[C@H]2[C@H]3CC=C4C[C@H](O)CC[C@]4(C)[C@H]3CC[C@@]12C)C(C)C
REMARK SMILES IDX 5 1 4 2 3 3 2 4 1 5 28 6 29 7 30 8 6 9 7 10 8 11 9 12 26 13
REMARK SMILES IDX 10 14 11 15 25 16 27 17 12 18 24 19 23 20 13 21 21 22 14 23
REMARK SMILES IDX 15 24 20 25 22 26 16 27 19 28 17 29 18 30
REMARK H PARENT 18 31
REMARK Flexibility Score: inf
ROOT
ATOM      1  C   UNL     1      16.350 -22.843  -6.616  1.00  0.00     0.004 C 
ENDROOT
BRANCH   1   2
ATOM      2  C   UNL     1      17.749 -23.450  -6.391  1.00  0.00     0.004 C 
BRANCH   2   3
ATOM      3  C   UNL     1      18.454 -23.813  -7.724  1.00  0.00    -0.009 C 
BRANCH   3   4
ATOM      4  C   UNL     1      18.145 -22.828  -8.897  1.00  0.00     0.000 C 
ATOM      5  C   UNL     1      17.446 -23.435 -10.125  1.00  0.00     0.004 C 
ENDBRANCH   3   4
BRANCH   3   6
ATOM      6  C   UNL     1      19.974 -24.110  -7.509  1.00  0.00    -0.014 C 
ATOM      7  C   UNL     1      20.844 -23.550  -8.647  1.00  0.00     0.007 C 
ATOM      8  C   UNL     1      20.517 -23.650  -6.152  1.00  0.00     0.007 C 
ENDBRANCH   3   6
ENDBRANCH   2   3
ENDBRANCH   1   2
BRANCH   1   9
ATOM      9  C   UNL     1      15.218 -23.897  -6.486  1.00  0.00    -0.011 C 
ATOM     10  C   UNL     1      14.729 -24.335  -7.875  1.00  0.00     0.008 C 
BRANCH   9  11
ATOM     11  C   UNL     1      14.026 -23.554  -5.511  1.00  0.00    -0.002 C 
ATOM     12  C   UNL     1      12.645 -23.468  -6.200  1.00  0.00     0.005 C 
ATOM     13  C   UNL     1      13.783 -24.314  -4.164  1.00  0.00    -0.026 C 
ATOM     14  C   UNL     1      11.605 -23.784  -5.124  1.00  0.00     0.005 C 
ATOM     15  C   UNL     1      12.372 -23.797  -3.799  1.00  0.00    -0.001 C 
ATOM     16  C   UNL     1      13.792 -25.872  -4.324  1.00  0.00     0.007 C 
ATOM     17  C   UNL     1      14.792 -23.874  -3.072  1.00  0.00     0.012 C 
ATOM     18  C   UNL     1      11.691 -24.512  -2.589  1.00  0.00     0.000 C 
ATOM     19  C   UNL     1      12.643 -26.641  -3.649  1.00  0.00     0.005 C 
ATOM     20  C   UNL     1      12.131 -25.992  -2.357  1.00  0.00     0.003 C 
ATOM     21  C   UNL     1      10.165 -24.349  -2.582  1.00  0.00     0.031 C 
ATOM     22  C   UNL     1      11.070 -26.893  -1.572  1.00  0.00    -0.008 C 
ATOM     23  C   UNL     1       9.619 -24.886  -1.293  1.00  0.00    -0.027 C 
ATOM     24  C   UNL     1      10.091 -26.027  -0.759  1.00  0.00    -0.065 C 
ATOM     25  C   UNL     1      11.859 -27.830  -0.608  1.00  0.00     0.014 C 
ATOM     26  C   UNL     1      10.210 -27.764  -2.533  1.00  0.00     0.016 C 
ATOM     27  C   UNL     1       9.356 -26.604   0.437  1.00  0.00     0.063 C 
ATOM     28  C   UNL     1      10.961 -28.564   0.391  1.00  0.00     0.033 C 
ATOM     29  C   UNL     1      10.204 -27.571   1.275  1.00  0.00     0.118 C 
BRANCH  29  30
ATOM     30  O   UNL     1      11.118 -26.855   2.069  1.00  0.00    -0.393 OA
ATOM     31  H   UNL     1      11.979 -27.347   2.033  1.00  0.00     0.210 HD
ENDBRANCH  29  30
ENDBRANCH   9  11
ENDBRANCH   1   9
TORSDOF 7
ENDMDL
MODEL 9
REMARK VINA RESULT:    -6.848      2.754      8.741
REMARK INTER + INTRA:         -10.840
REMARK INTER:                  -9.467
REMARK INTRA:                  -1.373
REMARK UNBOUND:                -1.390
REMARK SMILES CC[C@H](CC[C@H](C)[C@H]1CC[C@H]2[C@H]3CC=C4C[C@H](O)CC[C@]4(C)[C@H]3CC[C@@]12C)C(C)C
REMARK SMILES IDX 5 1 4 2 3 3 2 4 1 5 28 6 29 7 30 8 6 9 7 10 8 11 9 12 26 13
REMARK SMILES IDX 10 14 11 15 25 16 27 17 12 18 24 19 23 20 13 21 21 22 14 23
REMARK SMILES IDX 15 24 20 25 22 26 16 27 19 28 17 29 18 30
REMARK H PARENT 18 31
REMARK Flexibility Score: inf
ROOT
ATOM      1  C   UNL     1      16.348 -21.576  -6.008  1.00  0.00     0.004 C 
ENDROOT
BRANCH   1   2
ATOM      2  C   UNL     1      17.304 -22.779  -5.892  1.00  0.00     0.004 C 
BRANCH   2   3
ATOM      3  C   UNL     1      17.947 -23.151  -7.253  1.00  0.00    -0.009 C 
BRANCH   3   4
ATOM      4  C   UNL     1      19.030 -24.273  -7.162  1.00  0.00     0.000 C 
ATOM      5  C   UNL     1      20.432 -23.906  -7.675  1.00  0.00     0.004 C 
ENDBRANCH   3   4
BRANCH   3   6
ATOM      6  C   UNL     1      16.863 -23.383  -8.357  1.00  0.00    -0.014 C 
ATOM      7  C   UNL     1      17.483 -23.581  -9.750  1.00  0.00     0.007 C 
ATOM      8  C   UNL     1      15.886 -24.521  -8.046  1.00  0.00     0.007 C 
ENDBRANCH   3   6
ENDBRANCH   2   3
ENDBRANCH   1   2
BRANCH   1   9
ATOM      9  C   UNL     1      14.959 -21.858  -5.372  1.00  0.00    -0.011 C 
ATOM     10  C   UNL     1      14.150 -20.557  -5.253  1.00  0.00     0.008 C 
BRANCH   9  11
ATOM     11  C   UNL     1      14.937 -22.703  -4.041  1.00  0.00    -0.002 C 
ATOM     12  C   UNL     1      14.613 -21.882  -2.771  1.00  0.00     0.005 C 
ATOM     13  C   UNL     1      14.138 -24.041  -3.896  1.00  0.00    -0.026 C 
ATOM     14  C   UNL     1      14.006 -22.862  -1.767  1.00  0.00     0.005 C 
ATOM     15  C   UNL     1      14.217 -24.254  -2.367  1.00  0.00    -0.001 C 
ATOM     16  C   UNL     1      12.652 -23.928  -4.377  1.00  0.00     0.007 C 
ATOM     17  C   UNL     1      14.855 -25.213  -4.618  1.00  0.00     0.012 C 
ATOM     18  C   UNL     1      13.334 -25.413  -1.806  1.00  0.00     0.000 C 
ATOM     19  C   UNL     1      11.579 -24.512  -3.441  1.00  0.00     0.005 C 
ATOM     20  C   UNL     1      12.048 -25.730  -2.635  1.00  0.00     0.003 C 
ATOM     21  C   UNL     1      13.042 -25.268  -0.307  1.00  0.00     0.031 C 
ATOM     22  C   UNL     1      10.874 -26.435  -1.810  1.00  0.00    -0.008 C 
ATOM     23  C   UNL     1      12.367 -26.514   0.185  1.00  0.00    -0.027 C 
ATOM     24  C   UNL     1      11.414 -27.124  -0.544  1.00  0.00    -0.065 C 
ATOM     25  C   UNL     1      10.211 -27.497  -2.737  1.00  0.00     0.014 C 
ATOM     26  C   UNL     1       9.790 -25.422  -1.343  1.00  0.00     0.016 C 
ATOM     27  C   UNL     1      10.647 -28.261   0.106  1.00  0.00     0.063 C 
ATOM     28  C   UNL     1       9.244 -28.426  -1.997  1.00  0.00     0.033 C 
ATOM     29  C   UNL     1       9.971 -29.204  -0.899  1.00  0.00     0.118 C 
BRANCH  29  30
ATOM     30  O   UNL     1      10.923 -30.060  -1.479  1.00  0.00    -0.393 OA
ATOM     31  H   UNL     1      10.722 -30.977  -1.157  1.00  0.00     0.210 HD
ENDBRANCH  29  30
ENDBRANCH   9  11
ENDBRANCH   1   9
TORSDOF 7
ENDMDL
