MODEL 1
REMARK VINA RESULT:    25.567      0.000      0.000
REMARK INTER + INTRA:          34.669
REMARK INTER:                  35.282
REMARK INTRA:                  -0.614
REMARK UNBOUND:                -0.614
REMARK SMILES CC[C@H](CC[C@@H](C)[C@@H]1CC[C@@H]2[C@@H]3CC=C4C[C@H](O)CC[C@@]4(C)[C@@H]3CC[C@]21C)C(C)C
REMARK SMILES IDX 5 1 4 2 3 3 2 4 1 5 28 6 29 7 30 8 6 9 7 10 8 11 9 12 26 13
REMARK SMILES IDX 10 14 11 15 25 16 27 17 12 18 24 19 23 20 13 21 21 22 14 23
REMARK SMILES IDX 15 24 20 25 22 26 16 27 19 28 17 29 18 30
REMARK H PARENT 18 31
REMARK Flexibility Score: inf
ROOT
ATOM      1  C   UNL     1      14.808 -14.313   2.794  1.00  0.00     0.004 C 
ENDROOT
BRANCH   1   2
ATOM      2  C   UNL     1      14.355 -14.503   4.257  1.00  0.00     0.004 C 
BRANCH   2   3
ATOM      3  C   UNL     1      15.070 -15.710   4.943  1.00  0.00    -0.009 C 
BRANCH   3   4
ATOM      4  C   UNL     1      14.990 -15.615   6.491  1.00  0.00     0.000 C 
ATOM      5  C   UNL     1      15.034 -14.175   7.003  1.00  0.00     0.004 C 
ENDBRANCH   3   4
BRANCH   3   6
ATOM      6  C   UNL     1      14.520 -17.068   4.400  1.00  0.00    -0.014 C 
ATOM      7  C   UNL     1      12.984 -17.100   4.332  1.00  0.00     0.007 C 
ATOM      8  C   UNL     1      15.120 -17.463   3.040  1.00  0.00     0.007 C 
ENDBRANCH   3   6
ENDBRANCH   2   3
ENDBRANCH   1   2
BRANCH   1   9
ATOM      9  C   UNL     1      13.878 -13.391   1.954  1.00  0.00    -0.011 C 
ATOM     10  C   UNL     1      14.046 -11.917   2.367  1.00  0.00     0.008 C 
BRANCH   9  11
ATOM     11  C   UNL     1      14.057 -13.713   0.425  1.00  0.00    -0.002 C 
ATOM     12  C   UNL     1      13.843 -12.568  -0.596  1.00  0.00     0.005 C 
ATOM     13  C   UNL     1      13.356 -14.929  -0.261  1.00  0.00    -0.026 C 
ATOM     14  C   UNL     1      13.728 -13.253  -1.985  1.00  0.00     0.005 C 
ATOM     15  C   UNL     1      13.926 -14.743  -1.682  1.00  0.00    -0.001 C 
ATOM     16  C   UNL     1      13.813 -16.307   0.262  1.00  0.00     0.007 C 
ATOM     17  C   UNL     1      11.793 -14.791  -0.236  1.00  0.00     0.012 C 
ATOM     18  C   UNL     1      13.604 -15.842  -2.735  1.00  0.00     0.000 C 
ATOM     19  C   UNL     1      13.428 -17.445  -0.718  1.00  0.00     0.005 C 
ATOM     20  C   UNL     1      13.989 -17.241  -2.169  1.00  0.00     0.003 C 
ATOM     21  C   UNL     1      12.180 -15.899  -3.296  1.00  0.00     0.031 C 
ATOM     22  C   UNL     1      13.703 -18.424  -3.221  1.00  0.00    -0.008 C 
ATOM     23  C   UNL     1      12.163 -16.833  -4.460  1.00  0.00    -0.027 C 
ATOM     24  C   UNL     1      12.875 -17.975  -4.450  1.00  0.00    -0.065 C 
ATOM     25  C   UNL     1      15.089 -18.918  -3.754  1.00  0.00     0.014 C 
ATOM     26  C   UNL     1      12.954 -19.622  -2.567  1.00  0.00     0.016 C 
ATOM     27  C   UNL     1      12.812 -18.878  -5.666  1.00  0.00     0.063 C 
ATOM     28  C   UNL     1      15.008 -19.900  -4.936  1.00  0.00     0.033 C 
ATOM     29  C   UNL     1      14.221 -19.300  -6.110  1.00  0.00     0.118 C 
BRANCH  29  30
ATOM     30  O   UNL     1      14.131 -20.255  -7.133  1.00  0.00    -0.393 OA
ATOM     31  H   UNL     1      14.875 -20.901  -6.990  1.00  0.00     0.210 HD
ENDBRANCH  29  30
ENDBRANCH   9  11
ENDBRANCH   1   9
TORSDOF 7
ENDMDL
MODEL 2
REMARK VINA RESULT:    27.493      2.954      7.610
REMARK INTER + INTRA:          37.327
REMARK INTER:                  32.131
REMARK INTRA:                   5.196
REMARK UNBOUND:                -0.614
REMARK SMILES CC[C@H](CC[C@@H](C)[C@@H]1CC[C@@H]2[C@@H]3CC=C4C[C@H](O)CC[C@@]4(C)[C@@H]3CC[C@]21C)C(C)C
REMARK SMILES IDX 5 1 4 2 3 3 2 4 1 5 28 6 29 7 30 8 6 9 7 10 8 11 9 12 26 13
REMARK SMILES IDX 10 14 11 15 25 16 27 17 12 18 24 19 23 20 13 21 21 22 14 23
REMARK SMILES IDX 15 24 20 25 22 26 16 27 19 28 17 29 18 30
REMARK H PARENT 18 31
REMARK Flexibility Score: inf
ROOT
ATOM      1  C   UNL     1      12.758 -14.944  -4.083  1.00  0.00     0.004 C 
ENDROOT
BRANCH   1   2
ATOM      2  C   UNL     1      12.708 -16.034  -2.991  1.00  0.00     0.004 C 
BRANCH   2   3
ATOM      3  C   UNL     1      13.800 -17.130  -3.202  1.00  0.00    -0.009 C 
BRANCH   3   4
ATOM      4  C   UNL     1      13.504 -18.399  -2.356  1.00  0.00     0.000 C 
ATOM      5  C   UNL     1      14.705 -19.339  -2.253  1.00  0.00     0.004 C 
ENDBRANCH   3   4
BRANCH   3   6
ATOM      6  C   UNL     1      13.982 -17.453  -4.720  1.00  0.00    -0.014 C 
ATOM      7  C   UNL     1      13.507 -18.869  -5.084  1.00  0.00     0.007 C 
ATOM      8  C   UNL     1      13.320 -16.417  -5.643  1.00  0.00     0.007 C 
ENDBRANCH   3   6
ENDBRANCH   2   3
ENDBRANCH   1   2
BRANCH   1   9
ATOM      9  C   UNL     1      13.071 -13.518  -3.545  1.00  0.00    -0.011 C 
ATOM     10  C   UNL     1      12.399 -12.441  -4.417  1.00  0.00     0.008 C 
BRANCH   9  11
ATOM     11  C   UNL     1      12.768 -13.457  -2.003  1.00  0.00    -0.002 C 
ATOM     12  C   UNL     1      12.472 -12.076  -1.367  1.00  0.00     0.005 C 
ATOM     13  C   UNL     1      13.689 -14.141  -0.943  1.00  0.00    -0.026 C 
ATOM     14  C   UNL     1      12.577 -12.284   0.168  1.00  0.00     0.005 C 
ATOM     15  C   UNL     1      12.882 -13.779   0.321  1.00  0.00    -0.001 C 
ATOM     16  C   UNL     1      13.749 -15.680  -1.048  1.00  0.00     0.007 C 
ATOM     17  C   UNL     1      15.124 -13.507  -0.921  1.00  0.00     0.012 C 
ATOM     18  C   UNL     1      13.355 -14.384   1.673  1.00  0.00     0.000 C 
ATOM     19  C   UNL     1      14.305 -16.318   0.250  1.00  0.00     0.005 C 
ATOM     20  C   UNL     1      13.497 -15.929   1.538  1.00  0.00     0.003 C 
ATOM     21  C   UNL     1      14.630 -13.814   2.305  1.00  0.00     0.031 C 
ATOM     22  C   UNL     1      13.961 -16.622   2.913  1.00  0.00    -0.008 C 
ATOM     23  C   UNL     1      14.749 -14.340   3.696  1.00  0.00    -0.027 C 
ATOM     24  C   UNL     1      14.422 -15.611   3.993  1.00  0.00    -0.065 C 
ATOM     25  C   UNL     1      12.722 -17.383   3.492  1.00  0.00     0.014 C 
ATOM     26  C   UNL     1      15.124 -17.634   2.696  1.00  0.00     0.016 C 
ATOM     27  C   UNL     1      14.568 -16.081   5.427  1.00  0.00     0.063 C 
ATOM     28  C   UNL     1      12.915 -17.927   4.920  1.00  0.00     0.033 C 
ATOM     29  C   UNL     1      13.299 -16.809   5.898  1.00  0.00     0.118 C 
BRANCH  29  30
ATOM     30  O   UNL     1      13.516 -17.368   7.165  1.00  0.00    -0.393 OA
ATOM     31  H   UNL     1      12.735 -17.114   7.729  1.00  0.00     0.210 HD
ENDBRANCH  29  30
ENDBRANCH   9  11
ENDBRANCH   1   9
TORSDOF 7
ENDMDL
