MODEL 1
REMARK VINA RESULT:    -4.382      0.000      0.000
REMARK INTER + INTRA:         -11.253
REMARK INTER:                  -9.249
REMARK INTRA:                  -2.004
REMARK UNBOUND:                -2.004
REMARK SMILES CCC(=O)CCCCC[C@@H]1NC(=O)[C@H]2CCCCN2C(=O)[C@@H]([C@H](C)CC)NC(=O)[C@H](Cc2cn(OC)c3ccccc23)NC1=O
REMARK SMILES IDX 9 1 10 2 44 3 43 4 45 6 30 7 28 8 27 9 29 11 22 12 23 14
REMARK SMILES IDX 24 15 25 16 26 17 31 18 32 19 33 20 42 21 34 22 37 23 41 24
REMARK SMILES IDX 38 25 40 26 39 27 35 28 36 29 11 30 12 31 13 33 14 34 19 35
REMARK SMILES IDX 15 36 18 37 16 38 17 39 20 40 21 41 8 43 7 44 6 45 5 46 3 47
REMARK SMILES IDX 4 48 2 49 1 50
REMARK H PARENT 43 5 27 10 11 32
REMARK Flexibility Score: 80.00
ROOT
ATOM      1  C   UNL     1      59.057  14.112  37.800  1.00  0.00     0.035 C 
ENDROOT
BRANCH   1   2
ATOM      2  C   UNL     1      59.568  12.755  37.286  1.00  0.00     0.171 C 
BRANCH   2   3
ATOM      3  C   UNL     1      61.063  12.683  37.428  1.00  0.00     0.243 C 
ATOM      4  N   UNL     1      61.643  12.391  38.708  1.00  0.00    -0.342 N 
ATOM      5  H   UNL     1      61.020  12.354  39.547  1.00  0.00     0.164 HD
ATOM      6  O   UNL     1      61.799  12.875  36.419  1.00  0.00    -0.273 OA
BRANCH   4   7
ATOM      7  C   UNL     1      63.055  12.057  38.900  1.00  0.00     0.175 C 
BRANCH   7   8
ATOM      8  C   UNL     1      63.123  10.788  39.708  1.00  0.00     0.243 C 
ATOM      9  N   UNL     1      63.184   9.523  39.027  1.00  0.00    -0.342 N 
ATOM     10  H   UNL     1      63.373   9.522  37.997  1.00  0.00     0.164 HD
ATOM     11  O   UNL     1      63.004  10.828  40.962  1.00  0.00    -0.273 OA
BRANCH   9  12
ATOM     12  C   UNL     1      62.840   8.252  39.676  1.00  0.00     0.174 CG0
ATOM     13  G   UNL     1      61.333   8.059  39.654  1.00  0.00     0.000 G0
BRANCH  12  14
ATOM     14  C   UNL     1      63.655   7.083  39.045  1.00  0.00     0.018 C 
ATOM     15  C   UNL     1      64.757   6.578  39.999  1.00  0.00     0.010 C 
BRANCH  14  16
ATOM     16  C   UNL     1      64.267   7.540  37.696  1.00  0.00     0.002 C 
ATOM     17  C   UNL     1      65.127   6.465  37.026  1.00  0.00     0.004 C 
ENDBRANCH  14  16
ENDBRANCH  12  14
ENDBRANCH   9  12
ENDBRANCH   7   8
BRANCH   7  18
ATOM     18  C   UNL     1      63.784  13.228  39.588  1.00  0.00     0.073 C 
BRANCH  18  19
ATOM     19  C   UNL     1      63.886  14.416  38.670  1.00  0.00    -0.016 A 
ATOM     20  C   UNL     1      64.312  14.400  37.345  1.00  0.00     0.134 A 
ATOM     21  C   UNL     1      63.426  15.700  38.905  1.00  0.00     0.006 A 
ATOM     22  N   UNL     1      64.130  15.625  36.793  1.00  0.00    -0.191 N 
ATOM     23  C   UNL     1      63.587  16.405  37.740  1.00  0.00     0.087 A 
ATOM     24  C   UNL     1      62.863  16.285  40.041  1.00  0.00     0.011 A 
ATOM     25  C   UNL     1      63.180  17.737  37.622  1.00  0.00     0.030 A 
ATOM     26  C   UNL     1      62.451  17.627  39.956  1.00  0.00     0.001 A 
ATOM     27  C   UNL     1      62.602  18.347  38.751  1.00  0.00     0.002 A 
BRANCH  22  28
ATOM     28  O   UNL     1      64.419  16.020  35.499  1.00  0.00    -0.417 OA
ATOM     29  C   UNL     1      65.325  17.080  35.210  1.00  0.00     0.313 C 
ENDBRANCH  22  28
ENDBRANCH  18  19
ENDBRANCH   7  18
ENDBRANCH   4   7
ENDBRANCH   2   3
BRANCH   2  30
ATOM     30  N   UNL     1      58.973  11.646  38.038  1.00  0.00    -0.343 N 
ATOM     31  C   UNL     1      59.264  10.284  37.698  1.00  0.00     0.243 C 
ATOM     32  H   UNL     1      58.572  11.848  38.984  1.00  0.00     0.164 HD
ATOM     33  O   UNL     1      59.499   9.984  36.497  1.00  0.00    -0.273 OA
BRANCH  31  34
ATOM     34  C   UNL     1      59.328   9.227  38.780  1.00  0.00     0.174 C 
ATOM     35  N   UNL     1      60.474   8.322  38.568  1.00  0.00    -0.329 N 
ATOM     36  C   UNL     1      58.023   8.408  38.889  1.00  0.00     0.035 C 
ATOM     37  C   UNL     1      60.384   7.378  37.447  1.00  0.00     0.120 C 
ATOM     38  C   UNL     1      57.877   7.356  37.774  1.00  0.00     0.004 C 
ATOM     39  C   UNL     1      59.141   6.501  37.617  1.00  0.00     0.022 C 
BRANCH  35  40
ATOM     40  C   UNL     1      61.319   8.003  39.695  1.00  0.00     0.246 CG0
ATOM     41  O   UNL     1      60.787   7.567  40.754  1.00  0.00    -0.272 OA
ATOM     42  G   UNL     1      62.824   8.217  39.675  1.00  0.00     0.000 G0
ENDBRANCH  35  40
ENDBRANCH  31  34
ENDBRANCH   2  30
ENDBRANCH   1   2
BRANCH   1  43
ATOM     43  C   UNL     1      59.241  15.237  36.775  1.00  0.00     0.003 C 
BRANCH  43  44
ATOM     44  C   UNL     1      58.048  16.204  36.810  1.00  0.00     0.001 C 
BRANCH  44  45
ATOM     45  C   UNL     1      58.327  17.469  37.635  1.00  0.00     0.008 C 
BRANCH  45  46
ATOM     46  C   UNL     1      58.974  17.204  39.004  1.00  0.00     0.075 C 
BRANCH  46  47
ATOM     47  C   UNL     1      58.698  18.302  40.004  1.00  0.00     0.132 C 
ATOM     48  O   UNL     1      57.875  18.114  40.886  1.00  0.00    -0.300 OA
BRANCH  47  49
ATOM     49  C   UNL     1      59.383  19.643  39.900  1.00  0.00     0.072 C 
ATOM     50  C   UNL     1      58.698  20.684  40.783  1.00  0.00     0.012 C 
ENDBRANCH  47  49
ENDBRANCH  46  47
ENDBRANCH  45  46
ENDBRANCH  44  45
ENDBRANCH  43  44
ENDBRANCH   1  43
TORSDOF 12
ENDMDL
MODEL 2
REMARK VINA RESULT:    -3.164      2.102      5.088
REMARK INTER + INTRA:          -8.681
REMARK INTER:                  -8.569
REMARK INTRA:                  -0.113
REMARK UNBOUND:                -2.004
REMARK SMILES CCC(=O)CCCCC[C@@H]1NC(=O)[C@H]2CCCCN2C(=O)[C@@H]([C@H](C)CC)NC(=O)[C@H](Cc2cn(OC)c3ccccc23)NC1=O
REMARK SMILES IDX 9 1 10 2 44 3 43 4 45 6 30 7 28 8 27 9 29 11 22 12 23 14
REMARK SMILES IDX 24 15 25 16 26 17 31 18 32 19 33 20 42 21 34 22 37 23 41 24
REMARK SMILES IDX 38 25 40 26 39 27 35 28 36 29 11 30 12 31 13 33 14 34 19 35
REMARK SMILES IDX 15 36 18 37 16 38 17 39 20 40 21 41 8 43 7 44 6 45 5 46 3 47
REMARK SMILES IDX 4 48 2 49 1 50
REMARK H PARENT 43 5 27 10 11 32
REMARK Flexibility Score: 80.00
ROOT
ATOM      1  C   UNL     1      61.546  13.598  37.416  1.00  0.00     0.035 C 
ENDROOT
BRANCH   1   2
ATOM      2  C   UNL     1      62.271  12.661  38.399  1.00  0.00     0.171 C 
BRANCH   2   3
ATOM      3  C   UNL     1      61.404  12.411  39.602  1.00  0.00     0.243 C 
ATOM      4  N   UNL     1      60.168  11.696  39.452  1.00  0.00    -0.342 N 
ATOM      5  H   UNL     1      59.832  11.468  38.489  1.00  0.00     0.164 HD
ATOM      6  O   UNL     1      61.771  12.828  40.737  1.00  0.00    -0.273 OA
BRANCH   4   7
ATOM      7  C   UNL     1      59.385  11.190  40.579  1.00  0.00     0.175 C 
BRANCH   7   8
ATOM      8  C   UNL     1      58.931   9.796  40.236  1.00  0.00     0.243 C 
ATOM      9  N   UNL     1      59.767   8.678  40.586  1.00  0.00    -0.342 N 
ATOM     10  H   UNL     1      60.572   8.843  41.234  1.00  0.00     0.164 HD
ATOM     11  O   UNL     1      57.893   9.618  39.545  1.00  0.00    -0.273 OA
BRANCH   9  12
ATOM     12  C   UNL     1      59.638   7.360  39.952  1.00  0.00     0.174 CG0
ATOM     13  G   UNL     1      60.834   7.108  39.049  1.00  0.00     0.000 G0
BRANCH  12  14
ATOM     14  C   UNL     1      59.395   6.262  41.032  1.00  0.00     0.018 C 
ATOM     15  C   UNL     1      60.438   5.129  40.936  1.00  0.00     0.010 C 
BRANCH  14  16
ATOM     16  C   UNL     1      57.959   5.696  40.890  1.00  0.00     0.002 C 
ATOM     17  C   UNL     1      57.927   4.225  40.465  1.00  0.00     0.004 C 
ENDBRANCH  14  16
ENDBRANCH  12  14
ENDBRANCH   9  12
ENDBRANCH   7   8
BRANCH   7  18
ATOM     18  C   UNL     1      58.201  12.136  40.865  1.00  0.00     0.073 C 
BRANCH  18  19
ATOM     19  C   UNL     1      58.379  13.453  40.159  1.00  0.00    -0.016 A 
ATOM     20  C   UNL     1      58.849  14.635  40.724  1.00  0.00     0.134 A 
ATOM     21  C   UNL     1      58.273  13.697  38.800  1.00  0.00     0.006 A 
ATOM     22  N   UNL     1      59.016  15.568  39.755  1.00  0.00    -0.191 N 
ATOM     23  C   UNL     1      58.672  14.993  38.593  1.00  0.00     0.087 A 
ATOM     24  C   UNL     1      57.879  12.875  37.743  1.00  0.00     0.011 A 
ATOM     25  C   UNL     1      58.724  15.551  37.313  1.00  0.00     0.030 A 
ATOM     26  C   UNL     1      57.913  13.411  36.443  1.00  0.00     0.001 A 
ATOM     27  C   UNL     1      58.340  14.740  36.228  1.00  0.00     0.002 A 
BRANCH  22  28
ATOM     28  O   UNL     1      59.471  16.867  39.901  1.00  0.00    -0.417 OA
ATOM     29  C   UNL     1      58.613  17.936  40.288  1.00  0.00     0.313 C 
ENDBRANCH  22  28
ENDBRANCH  18  19
ENDBRANCH   7  18
ENDBRANCH   4   7
ENDBRANCH   2   3
BRANCH   2  30
ATOM     30  N   UNL     1      62.582  11.374  37.771  1.00  0.00    -0.343 N 
ATOM     31  C   UNL     1      62.730  10.186  38.559  1.00  0.00     0.243 C 
ATOM     32  H   UNL     1      62.415  11.271  36.742  1.00  0.00     0.164 HD
ATOM     33  O   UNL     1      63.182  10.275  39.732  1.00  0.00    -0.273 OA
BRANCH  31  34
ATOM     34  C   UNL     1      62.308   8.844  37.999  1.00  0.00     0.174 C 
ATOM     35  N   UNL     1      62.043   7.879  39.083  1.00  0.00    -0.329 N 
ATOM     36  C   UNL     1      63.344   8.258  37.013  1.00  0.00     0.035 C 
ATOM     37  C   UNL     1      63.202   7.369  39.825  1.00  0.00     0.120 C 
ATOM     38  C   UNL     1      64.572   7.654  37.719  1.00  0.00     0.004 C 
ATOM     39  C   UNL     1      64.176   6.699  38.852  1.00  0.00     0.022 C 
BRANCH  35  40
ATOM     40  C   UNL     1      60.838   7.083  39.019  1.00  0.00     0.246 CG0
ATOM     41  O   UNL     1      60.759   6.162  38.159  1.00  0.00    -0.272 OA
ATOM     42  G   UNL     1      59.639   7.342  39.916  1.00  0.00     0.000 G0
ENDBRANCH  35  40
ENDBRANCH  31  34
ENDBRANCH   2  30
ENDBRANCH   1   2
BRANCH   1  43
ATOM     43  C   UNL     1      62.108  15.024  37.439  1.00  0.00     0.003 C 
BRANCH  43  44
ATOM     44  C   UNL     1      63.605  15.012  37.785  1.00  0.00     0.001 C 
BRANCH  44  45
ATOM     45  C   UNL     1      64.408  16.064  37.005  1.00  0.00     0.008 C 
BRANCH  45  46
ATOM     46  C   UNL     1      64.776  17.314  37.820  1.00  0.00     0.075 C 
BRANCH  46  47
ATOM     47  C   UNL     1      63.775  18.433  37.659  1.00  0.00     0.132 C 
ATOM     48  O   UNL     1      63.391  18.735  36.540  1.00  0.00    -0.300 OA
BRANCH  47  49
ATOM     49  C   UNL     1      63.282  19.217  38.851  1.00  0.00     0.072 C 
ATOM     50  C   UNL     1      63.507  18.449  40.151  1.00  0.00     0.012 C 
ENDBRANCH  47  49
ENDBRANCH  46  47
ENDBRANCH  45  46
ENDBRANCH  44  45
ENDBRANCH  43  44
ENDBRANCH   1  43
TORSDOF 12
ENDMDL
