MODEL 1
REMARK VINA RESULT:    -6.459      0.000      0.000
REMARK INTER + INTRA:         -11.012
REMARK INTER:                  -8.913
REMARK INTRA:                  -2.099
REMARK UNBOUND:                -2.099
REMARK SMILES CC[C@H](CC[C@H](C)[C@H]1CC[C@@H]2[C@@H]3CC=C4C[C@@H](O)CC[C@@]4(C)[C@@H]3CC[C@@]21C)C(C)C
REMARK SMILES IDX 5 1 4 2 3 3 2 4 1 5 28 6 29 7 30 8 6 9 7 10 8 11 9 12 26 13
REMARK SMILES IDX 10 14 11 15 25 16 27 17 12 18 24 19 23 20 13 21 21 22 14 23
REMARK SMILES IDX 15 24 20 25 22 26 16 27 19 28 17 29 18 30
REMARK H PARENT 18 31
REMARK Flexibility Score: inf
ROOT
ATOM      1  C   UNL     1      46.595   1.120  21.385  1.00  0.00     0.004 C 
ENDROOT
BRANCH   1   2
ATOM      2  C   UNL     1      46.483   0.543  22.812  1.00  0.00     0.004 C 
BRANCH   2   3
ATOM      3  C   UNL     1      45.032   0.616  23.400  1.00  0.00    -0.009 C 
BRANCH   3   4
ATOM      4  C   UNL     1      45.024   1.489  24.694  1.00  0.00     0.000 C 
ATOM      5  C   UNL     1      46.419   1.683  25.294  1.00  0.00     0.004 C 
ENDBRANCH   3   4
BRANCH   3   6
ATOM      6  C   UNL     1      44.008   1.100  22.314  1.00  0.00    -0.014 C 
ATOM      7  C   UNL     1      43.264   2.386  22.714  1.00  0.00     0.007 C 
ATOM      8  C   UNL     1      42.952   0.012  22.022  1.00  0.00     0.007 C 
ENDBRANCH   3   6
ENDBRANCH   2   3
ENDBRANCH   1   2
BRANCH   1   9
ATOM      9  C   UNL     1      47.578   2.318  21.221  1.00  0.00    -0.011 C 
ATOM     10  C   UNL     1      49.030   1.812  21.371  1.00  0.00     0.008 C 
BRANCH   9  11
ATOM     11  C   UNL     1      47.176   3.478  22.234  1.00  0.00    -0.002 C 
ATOM     12  C   UNL     1      48.365   4.221  22.879  1.00  0.00     0.005 C 
ATOM     13  C   UNL     1      46.354   4.665  21.608  1.00  0.00    -0.026 C 
ATOM     14  C   UNL     1      48.692   5.393  21.958  1.00  0.00     0.005 C 
ATOM     15  C   UNL     1      47.475   5.569  21.028  1.00  0.00    -0.001 C 
ATOM     16  C   UNL     1      45.516   5.395  22.732  1.00  0.00     0.007 C 
ATOM     17  C   UNL     1      45.366   4.255  20.482  1.00  0.00     0.012 C 
ATOM     18  C   UNL     1      47.031   7.037  20.756  1.00  0.00     0.000 C 
ATOM     19  C   UNL     1      46.035   6.782  23.134  1.00  0.00     0.005 C 
ATOM     20  C   UNL     1      46.191   7.704  21.904  1.00  0.00     0.003 C 
ATOM     21  C   UNL     1      48.193   7.901  20.237  1.00  0.00     0.031 C 
ATOM     22  C   UNL     1      46.588   9.196  22.272  1.00  0.00    -0.008 C 
ATOM     23  C   UNL     1      47.765   9.325  20.070  1.00  0.00    -0.027 C 
ATOM     24  C   UNL     1      47.020   9.949  21.002  1.00  0.00    -0.065 C 
ATOM     25  C   UNL     1      45.340   9.894  22.913  1.00  0.00     0.014 C 
ATOM     26  C   UNL     1      47.759   9.252  23.287  1.00  0.00     0.016 C 
ATOM     27  C   UNL     1      46.894  11.459  20.907  1.00  0.00     0.063 C 
ATOM     28  C   UNL     1      45.432  11.423  22.950  1.00  0.00     0.033 C 
ATOM     29  C   UNL     1      45.606  11.990  21.537  1.00  0.00     0.118 C 
BRANCH  29  30
ATOM     30  O   UNL     1      44.510  11.652  20.726  1.00  0.00    -0.393 OA
ATOM     31  H   UNL     1      44.720  10.773  20.314  1.00  0.00     0.210 HD
ENDBRANCH  29  30
ENDBRANCH   9  11
ENDBRANCH   1   9
TORSDOF 7
ENDMDL
MODEL 2
REMARK VINA RESULT:    -6.416      3.802      8.609
REMARK INTER + INTRA:         -10.953
REMARK INTER:                  -8.894
REMARK INTRA:                  -2.059
REMARK UNBOUND:                -2.099
REMARK SMILES CC[C@H](CC[C@H](C)[C@H]1CC[C@@H]2[C@@H]3CC=C4C[C@@H](O)CC[C@@]4(C)[C@@H]3CC[C@@]21C)C(C)C
REMARK SMILES IDX 5 1 4 2 3 3 2 4 1 5 28 6 29 7 30 8 6 9 7 10 8 11 9 12 26 13
REMARK SMILES IDX 10 14 11 15 25 16 27 17 12 18 24 19 23 20 13 21 21 22 14 23
REMARK SMILES IDX 15 24 20 25 22 26 16 27 19 28 17 29 18 30
REMARK H PARENT 18 31
REMARK Flexibility Score: inf
ROOT
ATOM      1  C   UNL     1      48.868   8.642  23.837  1.00  0.00     0.004 C 
ENDROOT
BRANCH   1   2
ATOM      2  C   UNL     1      47.494   8.380  24.491  1.00  0.00     0.004 C 
BRANCH   2   3
ATOM      3  C   UNL     1      46.368   9.338  23.976  1.00  0.00    -0.009 C 
BRANCH   3   4
ATOM      4  C   UNL     1      46.994  10.490  23.127  1.00  0.00     0.000 C 
ATOM      5  C   UNL     1      46.628  11.883  23.645  1.00  0.00     0.004 C 
ENDBRANCH   3   4
BRANCH   3   6
ATOM      6  C   UNL     1      45.252   8.539  23.215  1.00  0.00    -0.014 C 
ATOM      7  C   UNL     1      45.055   7.111  23.752  1.00  0.00     0.007 C 
ATOM      8  C   UNL     1      45.569   8.440  21.708  1.00  0.00     0.007 C 
ENDBRANCH   3   6
ENDBRANCH   2   3
ENDBRANCH   1   2
BRANCH   1   9
ATOM      9  C   UNL     1      49.348   7.554  22.829  1.00  0.00    -0.011 C 
ATOM     10  C   UNL     1      49.267   8.114  21.393  1.00  0.00     0.008 C 
BRANCH   9  11
ATOM     11  C   UNL     1      48.523   6.212  23.062  1.00  0.00    -0.002 C 
ATOM     12  C   UNL     1      48.038   5.515  21.774  1.00  0.00     0.005 C 
ATOM     13  C   UNL     1      49.308   5.053  23.781  1.00  0.00    -0.026 C 
ATOM     14  C   UNL     1      49.142   4.544  21.366  1.00  0.00     0.005 C 
ATOM     15  C   UNL     1      50.055   4.381  22.598  1.00  0.00    -0.001 C 
ATOM     16  C   UNL     1      48.293   4.069  24.487  1.00  0.00     0.007 C 
ATOM     17  C   UNL     1      50.327   5.521  24.856  1.00  0.00     0.012 C 
ATOM     18  C   UNL     1      50.545   2.933  22.896  1.00  0.00     0.000 C 
ATOM     19  C   UNL     1      48.132   2.703  23.807  1.00  0.00     0.005 C 
ATOM     20  C   UNL     1      49.496   2.007  23.610  1.00  0.00     0.003 C 
ATOM     21  C   UNL     1      51.227   2.295  21.674  1.00  0.00     0.031 C 
ATOM     22  C   UNL     1      49.382   0.529  23.042  1.00  0.00    -0.008 C 
ATOM     23  C   UNL     1      51.608   0.876  21.956  1.00  0.00    -0.027 C 
ATOM     24  C   UNL     1      50.767   0.036  22.589  1.00  0.00    -0.065 C 
ATOM     25  C   UNL     1      48.828  -0.394  24.179  1.00  0.00     0.014 C 
ATOM     26  C   UNL     1      48.421   0.446  21.828  1.00  0.00     0.016 C 
ATOM     27  C   UNL     1      51.099  -1.446  22.560  1.00  0.00     0.063 C 
ATOM     28  C   UNL     1      49.038  -1.891  23.925  1.00  0.00     0.033 C 
ATOM     29  C   UNL     1      50.527  -2.209  23.756  1.00  0.00     0.118 C 
BRANCH  29  30
ATOM     30  O   UNL     1      51.244  -1.872  24.916  1.00  0.00    -0.393 OA
ATOM     31  H   UNL     1      50.818  -2.361  25.667  1.00  0.00     0.210 HD
ENDBRANCH  29  30
ENDBRANCH   9  11
ENDBRANCH   1   9
TORSDOF 7
ENDMDL
MODEL 3
REMARK VINA RESULT:    -6.410      4.020      8.613
REMARK INTER + INTRA:         -10.945
REMARK INTER:                  -9.125
REMARK INTRA:                  -1.820
REMARK UNBOUND:                -2.099
REMARK SMILES CC[C@H](CC[C@H](C)[C@H]1CC[C@@H]2[C@@H]3CC=C4C[C@@H](O)CC[C@@]4(C)[C@@H]3CC[C@@]21C)C(C)C
REMARK SMILES IDX 5 1 4 2 3 3 2 4 1 5 28 6 29 7 30 8 6 9 7 10 8 11 9 12 26 13
REMARK SMILES IDX 10 14 11 15 25 16 27 17 12 18 24 19 23 20 13 21 21 22 14 23
REMARK SMILES IDX 15 24 20 25 22 26 16 27 19 28 17 29 18 30
REMARK H PARENT 18 31
REMARK Flexibility Score: inf
ROOT
ATOM      1  C   UNL     1      48.557   8.628  23.215  1.00  0.00     0.004 C 
ENDROOT
BRANCH   1   2
ATOM      2  C   UNL     1      48.751   8.744  24.742  1.00  0.00     0.004 C 
BRANCH   2   3
ATOM      3  C   UNL     1      47.418   8.592  25.551  1.00  0.00    -0.009 C 
BRANCH   3   4
ATOM      4  C   UNL     1      46.206   8.495  24.570  1.00  0.00     0.000 C 
ATOM      5  C   UNL     1      45.144   9.568  24.823  1.00  0.00     0.004 C 
ENDBRANCH   3   4
BRANCH   3   6
ATOM      6  C   UNL     1      47.503   7.392  26.558  1.00  0.00    -0.014 C 
ATOM      7  C   UNL     1      46.386   6.353  26.359  1.00  0.00     0.007 C 
ATOM      8  C   UNL     1      47.436   7.887  28.019  1.00  0.00     0.007 C 
ENDBRANCH   3   6
ENDBRANCH   2   3
ENDBRANCH   1   2
BRANCH   1   9
ATOM      9  C   UNL     1      49.284   7.429  22.536  1.00  0.00    -0.011 C 
ATOM     10  C   UNL     1      49.516   7.749  21.043  1.00  0.00     0.008 C 
BRANCH   9  11
ATOM     11  C   UNL     1      48.467   6.090  22.805  1.00  0.00    -0.002 C 
ATOM     12  C   UNL     1      48.044   5.319  21.537  1.00  0.00     0.005 C 
ATOM     13  C   UNL     1      49.236   4.981  23.615  1.00  0.00    -0.026 C 
ATOM     14  C   UNL     1      49.176   4.344  21.226  1.00  0.00     0.005 C 
ATOM     15  C   UNL     1      50.039   4.259  22.500  1.00  0.00    -0.001 C 
ATOM     16  C   UNL     1      48.204   4.020  24.330  1.00  0.00     0.007 C 
ATOM     17  C   UNL     1      50.203   5.519  24.704  1.00  0.00     0.012 C 
ATOM     18  C   UNL     1      50.535   2.836  22.894  1.00  0.00     0.000 C 
ATOM     19  C   UNL     1      48.088   2.618  23.717  1.00  0.00     0.005 C 
ATOM     20  C   UNL     1      49.468   1.933  23.612  1.00  0.00     0.003 C 
ATOM     21  C   UNL     1      51.274   2.145  21.736  1.00  0.00     0.031 C 
ATOM     22  C   UNL     1      49.396   0.425  23.119  1.00  0.00    -0.008 C 
ATOM     23  C   UNL     1      51.660   0.748  22.108  1.00  0.00    -0.027 C 
ATOM     24  C   UNL     1      50.805  -0.070  22.749  1.00  0.00    -0.065 C 
ATOM     25  C   UNL     1      48.806  -0.445  24.279  1.00  0.00     0.014 C 
ATOM     26  C   UNL     1      48.487   0.266  21.872  1.00  0.00     0.016 C 
ATOM     27  C   UNL     1      51.156  -1.547  22.811  1.00  0.00     0.063 C 
ATOM     28  C   UNL     1      49.045  -1.949  24.113  1.00  0.00     0.033 C 
ATOM     29  C   UNL     1      50.544  -2.254  24.021  1.00  0.00     0.118 C 
BRANCH  29  30
ATOM     30  O   UNL     1      51.208  -1.847  25.190  1.00  0.00    -0.393 OA
ATOM     31  H   UNL     1      50.512  -1.506  25.810  1.00  0.00     0.210 HD
ENDBRANCH  29  30
ENDBRANCH   9  11
ENDBRANCH   1   9
TORSDOF 7
ENDMDL
MODEL 4
REMARK VINA RESULT:    -6.233      1.654      2.616
REMARK INTER + INTRA:         -10.700
REMARK INTER:                  -8.651
REMARK INTRA:                  -2.049
REMARK UNBOUND:                -2.099
REMARK SMILES CC[C@H](CC[C@H](C)[C@H]1CC[C@@H]2[C@@H]3CC=C4C[C@@H](O)CC[C@@]4(C)[C@@H]3CC[C@@]21C)C(C)C
REMARK SMILES IDX 5 1 4 2 3 3 2 4 1 5 28 6 29 7 30 8 6 9 7 10 8 11 9 12 26 13
REMARK SMILES IDX 10 14 11 15 25 16 27 17 12 18 24 19 23 20 13 21 21 22 14 23
REMARK SMILES IDX 15 24 20 25 22 26 16 27 19 28 17 29 18 30
REMARK H PARENT 18 31
REMARK Flexibility Score: inf
ROOT
ATOM      1  C   UNL     1      47.987   1.145  21.111  1.00  0.00     0.004 C 
ENDROOT
BRANCH   1   2
ATOM      2  C   UNL     1      47.405   0.937  22.526  1.00  0.00     0.004 C 
BRANCH   2   3
ATOM      3  C   UNL     1      48.217  -0.091  23.386  1.00  0.00    -0.009 C 
BRANCH   3   4
ATOM      4  C   UNL     1      49.186  -0.905  22.471  1.00  0.00     0.000 C 
ATOM      5  C   UNL     1      48.917  -2.412  22.505  1.00  0.00     0.004 C 
ENDBRANCH   3   4
BRANCH   3   6
ATOM      6  C   UNL     1      48.940   0.622  24.582  1.00  0.00    -0.014 C 
ATOM      7  C   UNL     1      48.180   1.853  25.105  1.00  0.00     0.007 C 
ATOM      8  C   UNL     1      50.360   1.076  24.182  1.00  0.00     0.007 C 
ENDBRANCH   3   6
ENDBRANCH   2   3
ENDBRANCH   1   2
BRANCH   1   9
ATOM      9  C   UNL     1      48.611   2.548  20.844  1.00  0.00    -0.011 C 
ATOM     10  C   UNL     1      50.140   2.406  20.681  1.00  0.00     0.008 C 
BRANCH   9  11
ATOM     11  C   UNL     1      48.160   3.558  21.989  1.00  0.00    -0.002 C 
ATOM     12  C   UNL     1      49.285   4.459  22.541  1.00  0.00     0.005 C 
ATOM     13  C   UNL     1      47.075   4.617  21.567  1.00  0.00    -0.026 C 
ATOM     14  C   UNL     1      49.285   5.723  21.686  1.00  0.00     0.005 C 
ATOM     15  C   UNL     1      47.941   5.736  20.930  1.00  0.00    -0.001 C 
ATOM     16  C   UNL     1      46.286   5.120  22.841  1.00  0.00     0.007 C 
ATOM     17  C   UNL     1      46.027   4.106  20.541  1.00  0.00     0.012 C 
ATOM     18  C   UNL     1      47.226   7.117  20.834  1.00  0.00     0.000 C 
ATOM     19  C   UNL     1      46.615   6.551  23.287  1.00  0.00     0.005 C 
ATOM     20  C   UNL     1      46.448   7.556  22.127  1.00  0.00     0.003 C 
ATOM     21  C   UNL     1      48.146   8.201  20.249  1.00  0.00     0.031 C 
ATOM     22  C   UNL     1      46.636   9.071  22.563  1.00  0.00    -0.008 C 
ATOM     23  C   UNL     1      47.468   9.535  20.251  1.00  0.00    -0.027 C 
ATOM     24  C   UNL     1      46.762   9.961  21.315  1.00  0.00    -0.065 C 
ATOM     25  C   UNL     1      45.388   9.499  23.406  1.00  0.00     0.014 C 
ATOM     26  C   UNL     1      47.907   9.272  23.428  1.00  0.00     0.016 C 
ATOM     27  C   UNL     1      46.374  11.429  21.359  1.00  0.00     0.063 C 
ATOM     28  C   UNL     1      45.227  11.015  23.556  1.00  0.00     0.033 C 
ATOM     29  C   UNL     1      45.112  11.687  22.183  1.00  0.00     0.118 C 
BRANCH  29  30
ATOM     30  O   UNL     1      43.989  11.209  21.488  1.00  0.00    -0.393 OA
ATOM     31  H   UNL     1      44.108  11.473  20.538  1.00  0.00     0.210 HD
ENDBRANCH  29  30
ENDBRANCH   9  11
ENDBRANCH   1   9
TORSDOF 7
ENDMDL
MODEL 5
REMARK VINA RESULT:    -6.191     12.633     15.458
REMARK INTER + INTRA:         -10.643
REMARK INTER:                  -9.201
REMARK INTRA:                  -1.441
REMARK UNBOUND:                -2.099
REMARK SMILES CC[C@H](CC[C@H](C)[C@H]1CC[C@@H]2[C@@H]3CC=C4C[C@@H](O)CC[C@@]4(C)[C@@H]3CC[C@@]21C)C(C)C
REMARK SMILES IDX 5 1 4 2 3 3 2 4 1 5 28 6 29 7 30 8 6 9 7 10 8 11 9 12 26 13
REMARK SMILES IDX 10 14 11 15 25 16 27 17 12 18 24 19 23 20 13 21 21 22 14 23
REMARK SMILES IDX 15 24 20 25 22 26 16 27 19 28 17 29 18 30
REMARK H PARENT 18 31
REMARK Flexibility Score: inf
ROOT
ATOM      1  C   UNL     1      53.773   9.995   9.300  1.00  0.00     0.004 C 
ENDROOT
BRANCH   1   2
ATOM      2  C   UNL     1      52.888   8.730   9.319  1.00  0.00     0.004 C 
BRANCH   2   3
ATOM      3  C   UNL     1      51.436   8.996   9.843  1.00  0.00    -0.009 C 
BRANCH   3   4
ATOM      4  C   UNL     1      51.418  10.269  10.746  1.00  0.00     0.000 C 
ATOM      5  C   UNL     1      51.106   9.959  12.212  1.00  0.00     0.004 C 
ENDBRANCH   3   4
BRANCH   3   6
ATOM      6  C   UNL     1      50.411   9.059   8.656  1.00  0.00    -0.014 C 
ATOM      7  C   UNL     1      50.003  10.495   8.283  1.00  0.00     0.007 C 
ATOM      8  C   UNL     1      49.126   8.272   8.988  1.00  0.00     0.007 C 
ENDBRANCH   3   6
ENDBRANCH   2   3
ENDBRANCH   1   2
BRANCH   1   9
ATOM      9  C   UNL     1      54.993   9.975  10.269  1.00  0.00    -0.011 C 
ATOM     10  C   UNL     1      56.050  10.990   9.782  1.00  0.00     0.008 C 
BRANCH   9  11
ATOM     11  C   UNL     1      55.530   8.483  10.416  1.00  0.00    -0.002 C 
ATOM     12  C   UNL     1      57.005   8.279  10.010  1.00  0.00     0.005 C 
ATOM     13  C   UNL     1      55.514   7.903  11.879  1.00  0.00    -0.026 C 
ATOM     14  C   UNL     1      57.835   8.504  11.270  1.00  0.00     0.005 C 
ATOM     15  C   UNL     1      56.853   8.435  12.457  1.00  0.00    -0.001 C 
ATOM     16  C   UNL     1      55.466   6.323  11.833  1.00  0.00     0.007 C 
ATOM     17  C   UNL     1      54.328   8.380  12.760  1.00  0.00     0.012 C 
ATOM     18  C   UNL     1      57.355   7.663  13.713  1.00  0.00     0.000 C 
ATOM     19  C   UNL     1      56.771   5.621  12.231  1.00  0.00     0.005 C 
ATOM     20  C   UNL     1      57.270   6.097  13.612  1.00  0.00     0.003 C 
ATOM     21  C   UNL     1      58.710   8.194  14.209  1.00  0.00     0.031 C 
ATOM     22  C   UNL     1      58.538   5.302  14.141  1.00  0.00    -0.008 C 
ATOM     23  C   UNL     1      59.214   7.379  15.359  1.00  0.00    -0.027 C 
ATOM     24  C   UNL     1      59.145   6.034  15.350  1.00  0.00    -0.065 C 
ATOM     25  C   UNL     1      58.079   3.864  14.558  1.00  0.00     0.014 C 
ATOM     26  C   UNL     1      59.637   5.173  13.055  1.00  0.00     0.016 C 
ATOM     27  C   UNL     1      59.947   5.282  16.398  1.00  0.00     0.063 C 
ATOM     28  C   UNL     1      59.082   3.123  15.448  1.00  0.00     0.033 C 
ATOM     29  C   UNL     1      59.354   3.913  16.733  1.00  0.00     0.118 C 
BRANCH  29  30
ATOM     30  O   UNL     1      58.173   4.080  17.474  1.00  0.00    -0.393 OA
ATOM     31  H   UNL     1      58.430   4.525  18.324  1.00  0.00     0.210 HD
ENDBRANCH  29  30
ENDBRANCH   9  11
ENDBRANCH   1   9
TORSDOF 7
ENDMDL
MODEL 6
REMARK VINA RESULT:    -5.990      2.275      3.405
REMARK INTER + INTRA:         -10.364
REMARK INTER:                  -8.237
REMARK INTRA:                  -2.127
REMARK UNBOUND:                -2.099
REMARK SMILES CC[C@H](CC[C@H](C)[C@H]1CC[C@@H]2[C@@H]3CC=C4C[C@@H](O)CC[C@@]4(C)[C@@H]3CC[C@@]21C)C(C)C
REMARK SMILES IDX 5 1 4 2 3 3 2 4 1 5 28 6 29 7 30 8 6 9 7 10 8 11 9 12 26 13
REMARK SMILES IDX 10 14 11 15 25 16 27 17 12 18 24 19 23 20 13 21 21 22 14 23
REMARK SMILES IDX 15 24 20 25 22 26 16 27 19 28 17 29 18 30
REMARK H PARENT 18 31
REMARK Flexibility Score: inf
ROOT
ATOM      1  C   UNL     1      49.161  -1.355  22.342  1.00  0.00     0.004 C 
ENDROOT
BRANCH   1   2
ATOM      2  C   UNL     1      47.757  -1.457  22.976  1.00  0.00     0.004 C 
BRANCH   2   3
ATOM      3  C   UNL     1      47.767  -2.090  24.409  1.00  0.00    -0.009 C 
BRANCH   3   4
ATOM      4  C   UNL     1      49.235  -2.207  24.930  1.00  0.00     0.000 C 
ATOM      5  C   UNL     1      49.570  -1.173  26.009  1.00  0.00     0.004 C 
ENDBRANCH   3   4
BRANCH   3   6
ATOM      6  C   UNL     1      46.821  -1.302  25.381  1.00  0.00    -0.014 C 
ATOM      7  C   UNL     1      45.978  -2.219  26.284  1.00  0.00     0.007 C 
ATOM      8  C   UNL     1      45.853  -0.390  24.596  1.00  0.00     0.007 C 
ENDBRANCH   3   6
ENDBRANCH   2   3
ENDBRANCH   1   2
BRANCH   1   9
ATOM      9  C   UNL     1      49.729   0.089  22.200  1.00  0.00    -0.011 C 
ATOM     10  C   UNL     1      51.189   0.116  22.701  1.00  0.00     0.008 C 
BRANCH   9  11
ATOM     11  C   UNL     1      48.760   1.116  22.936  1.00  0.00    -0.002 C 
ATOM     12  C   UNL     1      49.446   2.027  23.976  1.00  0.00     0.005 C 
ATOM     13  C   UNL     1      48.056   2.168  22.000  1.00  0.00    -0.026 C 
ATOM     14  C   UNL     1      49.896   3.277  23.226  1.00  0.00     0.005 C 
ATOM     15  C   UNL     1      49.135   3.278  21.885  1.00  0.00    -0.001 C 
ATOM     16  C   UNL     1      46.727   2.690  22.678  1.00  0.00     0.007 C 
ATOM     17  C   UNL     1      47.683   1.641  20.588  1.00  0.00     0.012 C 
ATOM     18  C   UNL     1      48.581   4.656  21.416  1.00  0.00     0.000 C 
ATOM     19  C   UNL     1      46.790   4.128  23.210  1.00  0.00     0.005 C 
ATOM     20  C   UNL     1      47.252   5.115  22.116  1.00  0.00     0.003 C 
ATOM     21  C   UNL     1      49.680   5.731  21.374  1.00  0.00     0.031 C 
ATOM     22  C   UNL     1      47.200   6.636  22.567  1.00  0.00    -0.008 C 
ATOM     23  C   UNL     1      49.108   7.065  21.008  1.00  0.00    -0.027 C 
ATOM     24  C   UNL     1      47.957   7.507  21.550  1.00  0.00    -0.065 C 
ATOM     25  C   UNL     1      45.698   7.076  22.640  1.00  0.00     0.014 C 
ATOM     26  C   UNL     1      47.844   6.852  23.960  1.00  0.00     0.016 C 
ATOM     27  C   UNL     1      47.613   8.975  21.368  1.00  0.00     0.063 C 
ATOM     28  C   UNL     1      45.495   8.595  22.664  1.00  0.00     0.033 C 
ATOM     29  C   UNL     1      46.109   9.245  21.420  1.00  0.00     0.118 C 
BRANCH  29  30
ATOM     30  O   UNL     1      45.501   8.756  20.252  1.00  0.00    -0.393 OA
ATOM     31  H   UNL     1      44.521   8.790  20.403  1.00  0.00     0.210 HD
ENDBRANCH  29  30
ENDBRANCH   9  11
ENDBRANCH   1   9
TORSDOF 7
ENDMDL
MODEL 7
REMARK VINA RESULT:    -5.984     12.464     15.945
REMARK INTER + INTRA:         -10.357
REMARK INTER:                  -8.883
REMARK INTRA:                  -1.474
REMARK UNBOUND:                -2.099
REMARK SMILES CC[C@H](CC[C@H](C)[C@H]1CC[C@@H]2[C@@H]3CC=C4C[C@@H](O)CC[C@@]4(C)[C@@H]3CC[C@@]21C)C(C)C
REMARK SMILES IDX 5 1 4 2 3 3 2 4 1 5 28 6 29 7 30 8 6 9 7 10 8 11 9 12 26 13
REMARK SMILES IDX 10 14 11 15 25 16 27 17 12 18 24 19 23 20 13 21 21 22 14 23
REMARK SMILES IDX 15 24 20 25 22 26 16 27 19 28 17 29 18 30
REMARK H PARENT 18 31
REMARK Flexibility Score: inf
ROOT
ATOM      1  C   UNL     1      52.981  10.318   8.482  1.00  0.00     0.004 C 
ENDROOT
BRANCH   1   2
ATOM      2  C   UNL     1      51.965  11.165   9.277  1.00  0.00     0.004 C 
BRANCH   2   3
ATOM      3  C   UNL     1      51.098  10.323  10.273  1.00  0.00    -0.009 C 
BRANCH   3   4
ATOM      4  C   UNL     1      50.908   8.874   9.722  1.00  0.00     0.000 C 
ATOM      5  C   UNL     1      49.540   8.655   9.072  1.00  0.00     0.004 C 
ENDBRANCH   3   4
BRANCH   3   6
ATOM      6  C   UNL     1      51.702  10.365  11.721  1.00  0.00    -0.014 C 
ATOM      7  C   UNL     1      50.815   9.671  12.769  1.00  0.00     0.007 C 
ATOM      8  C   UNL     1      51.935  11.819  12.184  1.00  0.00     0.007 C 
ENDBRANCH   3   6
ENDBRANCH   2   3
ENDBRANCH   1   2
BRANCH   1   9
ATOM      9  C   UNL     1      54.430  10.297   9.056  1.00  0.00    -0.011 C 
ATOM     10  C   UNL     1      55.442  10.269   7.890  1.00  0.00     0.008 C 
BRANCH   9  11
ATOM     11  C   UNL     1      54.577   9.091  10.085  1.00  0.00    -0.002 C 
ATOM     12  C   UNL     1      55.151   7.790   9.486  1.00  0.00     0.005 C 
ATOM     13  C   UNL     1      55.554   9.350  11.292  1.00  0.00    -0.026 C 
ATOM     14  C   UNL     1      56.665   7.869   9.651  1.00  0.00     0.005 C 
ATOM     15  C   UNL     1      56.934   8.986  10.679  1.00  0.00    -0.001 C 
ATOM     16  C   UNL     1      55.172   8.415  12.507  1.00  0.00     0.007 C 
ATOM     17  C   UNL     1      55.574  10.811  11.817  1.00  0.00     0.012 C 
ATOM     18  C   UNL     1      58.039   8.690  11.735  1.00  0.00     0.000 C 
ATOM     19  C   UNL     1      56.145   7.258  12.770  1.00  0.00     0.005 C 
ATOM     20  C   UNL     1      57.596   7.766  12.925  1.00  0.00     0.003 C 
ATOM     21  C   UNL     1      59.367   8.281  11.076  1.00  0.00     0.031 C 
ATOM     22  C   UNL     1      58.627   6.632  13.340  1.00  0.00    -0.008 C 
ATOM     23  C   UNL     1      60.386   7.914  12.109  1.00  0.00    -0.027 C 
ATOM     24  C   UNL     1      60.066   7.148  13.169  1.00  0.00    -0.065 C 
ATOM     25  C   UNL     1      58.365   6.252  14.837  1.00  0.00     0.014 C 
ATOM     26  C   UNL     1      58.467   5.356  12.473  1.00  0.00     0.016 C 
ATOM     27  C   UNL     1      61.206   6.573  13.991  1.00  0.00     0.063 C 
ATOM     28  C   UNL     1      59.515   5.481  15.494  1.00  0.00     0.033 C 
ATOM     29  C   UNL     1      60.813   6.294  15.442  1.00  0.00     0.118 C 
BRANCH  29  30
ATOM     30  O   UNL     1      60.669   7.508  16.133  1.00  0.00    -0.393 OA
ATOM     31  H   UNL     1      61.585   7.836  16.329  1.00  0.00     0.210 HD
ENDBRANCH  29  30
ENDBRANCH   9  11
ENDBRANCH   1   9
TORSDOF 7
ENDMDL
MODEL 8
REMARK VINA RESULT:    -5.982     13.504     15.638
REMARK INTER + INTRA:         -10.353
REMARK INTER:                  -8.471
REMARK INTRA:                  -1.882
REMARK UNBOUND:                -2.099
REMARK SMILES CC[C@H](CC[C@H](C)[C@H]1CC[C@@H]2[C@@H]3CC=C4C[C@@H](O)CC[C@@]4(C)[C@@H]3CC[C@@]21C)C(C)C
REMARK SMILES IDX 5 1 4 2 3 3 2 4 1 5 28 6 29 7 30 8 6 9 7 10 8 11 9 12 26 13
REMARK SMILES IDX 10 14 11 15 25 16 27 17 12 18 24 19 23 20 13 21 21 22 14 23
REMARK SMILES IDX 15 24 20 25 22 26 16 27 19 28 17 29 18 30
REMARK H PARENT 18 31
REMARK Flexibility Score: inf
ROOT
ATOM      1  C   UNL     1      62.611   3.855  15.719  1.00  0.00     0.004 C 
ENDROOT
BRANCH   1   2
ATOM      2  C   UNL     1      61.842   2.621  16.238  1.00  0.00     0.004 C 
BRANCH   2   3
ATOM      3  C   UNL     1      61.122   2.870  17.607  1.00  0.00    -0.009 C 
BRANCH   3   4
ATOM      4  C   UNL     1      61.452   4.303  18.131  1.00  0.00     0.000 C 
ATOM      5  C   UNL     1      62.419   4.298  19.318  1.00  0.00     0.004 C 
ENDBRANCH   3   4
BRANCH   3   6
ATOM      6  C   UNL     1      59.583   2.586  17.494  1.00  0.00    -0.014 C 
ATOM      7  C   UNL     1      59.181   1.940  16.157  1.00  0.00     0.007 C 
ATOM      8  C   UNL     1      58.765   3.885  17.658  1.00  0.00     0.007 C 
ENDBRANCH   3   6
ENDBRANCH   2   3
ENDBRANCH   1   2
BRANCH   1   9
ATOM      9  C   UNL     1      62.065   4.480  14.399  1.00  0.00    -0.011 C 
ATOM     10  C   UNL     1      63.124   5.435  13.808  1.00  0.00     0.008 C 
BRANCH   9  11
ATOM     11  C   UNL     1      60.650   5.154  14.677  1.00  0.00    -0.002 C 
ATOM     12  C   UNL     1      60.671   6.694  14.777  1.00  0.00     0.005 C 
ATOM     13  C   UNL     1      59.560   4.917  13.566  1.00  0.00    -0.026 C 
ATOM     14  C   UNL     1      60.436   7.221  13.364  1.00  0.00     0.005 C 
ATOM     15  C   UNL     1      59.886   6.038  12.543  1.00  0.00    -0.001 C 
ATOM     16  C   UNL     1      58.114   5.072  14.186  1.00  0.00     0.007 C 
ATOM     17  C   UNL     1      59.624   3.529  12.873  1.00  0.00     0.012 C 
ATOM     18  C   UNL     1      58.717   6.368  11.569  1.00  0.00     0.000 C 
ATOM     19  C   UNL     1      57.364   6.346  13.777  1.00  0.00     0.005 C 
ATOM     20  C   UNL     1      57.303   6.497  12.241  1.00  0.00     0.003 C 
ATOM     21  C   UNL     1      59.074   7.522  10.616  1.00  0.00     0.031 C 
ATOM     22  C   UNL     1      56.417   7.721  11.755  1.00  0.00    -0.008 C 
ATOM     23  C   UNL     1      57.906   7.881   9.752  1.00  0.00    -0.027 C 
ATOM     24  C   UNL     1      56.662   7.980  10.259  1.00  0.00    -0.065 C 
ATOM     25  C   UNL     1      54.912   7.367  12.001  1.00  0.00     0.014 C 
ATOM     26  C   UNL     1      56.750   9.023  12.530  1.00  0.00     0.016 C 
ATOM     27  C   UNL     1      55.602   8.642   9.395  1.00  0.00     0.063 C 
ATOM     28  C   UNL     1      53.929   8.255  11.229  1.00  0.00     0.033 C 
ATOM     29  C   UNL     1      54.186   8.165   9.721  1.00  0.00     0.118 C 
BRANCH  29  30
ATOM     30  O   UNL     1      54.015   6.849   9.264  1.00  0.00    -0.393 OA
ATOM     31  H   UNL     1      53.944   6.897   8.275  1.00  0.00     0.210 HD
ENDBRANCH  29  30
ENDBRANCH   9  11
ENDBRANCH   1   9
TORSDOF 7
ENDMDL
MODEL 9
REMARK VINA RESULT:    -5.931     12.743     15.102
REMARK INTER + INTRA:         -10.284
REMARK INTER:                  -8.509
REMARK INTRA:                  -1.775
REMARK UNBOUND:                -2.099
REMARK SMILES CC[C@H](CC[C@H](C)[C@H]1CC[C@@H]2[C@@H]3CC=C4C[C@@H](O)CC[C@@]4(C)[C@@H]3CC[C@@]21C)C(C)C
REMARK SMILES IDX 5 1 4 2 3 3 2 4 1 5 28 6 29 7 30 8 6 9 7 10 8 11 9 12 26 13
REMARK SMILES IDX 10 14 11 15 25 16 27 17 12 18 24 19 23 20 13 21 21 22 14 23
REMARK SMILES IDX 15 24 20 25 22 26 16 27 19 28 17 29 18 30
REMARK H PARENT 18 31
REMARK Flexibility Score: inf
ROOT
ATOM      1  C   UNL     1      59.321   4.028  17.291  1.00  0.00     0.004 C 
ENDROOT
BRANCH   1   2
ATOM      2  C   UNL     1      60.843   3.767  17.310  1.00  0.00     0.004 C 
BRANCH   2   3
ATOM      3  C   UNL     1      61.684   5.029  17.703  1.00  0.00    -0.009 C 
BRANCH   3   4
ATOM      4  C   UNL     1      62.463   4.759  19.029  1.00  0.00     0.000 C 
ATOM      5  C   UNL     1      63.125   3.379  19.065  1.00  0.00     0.004 C 
ENDBRANCH   3   4
BRANCH   3   6
ATOM      6  C   UNL     1      62.608   5.482  16.518  1.00  0.00    -0.014 C 
ATOM      7  C   UNL     1      62.178   6.819  15.890  1.00  0.00     0.007 C 
ATOM      8  C   UNL     1      62.637   4.419  15.399  1.00  0.00     0.007 C 
ENDBRANCH   3   6
ENDBRANCH   2   3
ENDBRANCH   1   2
BRANCH   1   9
ATOM      9  C   UNL     1      58.663   4.048  15.878  1.00  0.00    -0.011 C 
ATOM     10  C   UNL     1      59.083   2.782  15.100  1.00  0.00     0.008 C 
BRANCH   9  11
ATOM     11  C   UNL     1      59.013   5.418  15.147  1.00  0.00    -0.002 C 
ATOM     12  C   UNL     1      59.478   5.274  13.683  1.00  0.00     0.005 C 
ATOM     13  C   UNL     1      57.819   6.434  15.010  1.00  0.00    -0.026 C 
ATOM     14  C   UNL     1      58.221   5.352  12.821  1.00  0.00     0.005 C 
ATOM     15  C   UNL     1      57.112   5.935  13.721  1.00  0.00    -0.001 C 
ATOM     16  C   UNL     1      58.376   7.905  14.858  1.00  0.00     0.007 C 
ATOM     17  C   UNL     1      56.820   6.434  16.198  1.00  0.00     0.012 C 
ATOM     18  C   UNL     1      56.181   6.992  13.057  1.00  0.00     0.000 C 
ATOM     19  C   UNL     1      58.241   8.510  13.454  1.00  0.00     0.005 C 
ATOM     20  C   UNL     1      56.784   8.438  12.946  1.00  0.00     0.003 C 
ATOM     21  C   UNL     1      55.551   6.466  11.756  1.00  0.00     0.031 C 
ATOM     22  C   UNL     1      56.554   9.176  11.560  1.00  0.00    -0.008 C 
ATOM     23  C   UNL     1      54.734   7.528  11.091  1.00  0.00    -0.027 C 
ATOM     24  C   UNL     1      55.179   8.794  10.987  1.00  0.00    -0.065 C 
ATOM     25  C   UNL     1      56.624  10.721  11.807  1.00  0.00     0.014 C 
ATOM     26  C   UNL     1      57.634   8.796  10.514  1.00  0.00     0.016 C 
ATOM     27  C   UNL     1      54.440   9.724  10.040  1.00  0.00     0.063 C 
ATOM     28  C   UNL     1      56.033  11.562  10.671  1.00  0.00     0.033 C 
ATOM     29  C   UNL     1      54.564  11.196  10.434  1.00  0.00     0.118 C 
BRANCH  29  30
ATOM     30  O   UNL     1      53.797  11.442  11.584  1.00  0.00    -0.393 OA
ATOM     31  H   UNL     1      53.379  12.334  11.464  1.00  0.00     0.210 HD
ENDBRANCH  29  30
ENDBRANCH   9  11
ENDBRANCH   1   9
TORSDOF 7
ENDMDL
