MODEL 1
REMARK VINA RESULT:    -8.105      0.000      0.000
REMARK INTER + INTRA:          -8.816
REMARK INTER:                  -8.816
REMARK INTRA:                   0.000
REMARK UNBOUND:                 0.000
REMARK SMILES C[C@H]1CC[C@H]2[N@H+](C1)C[C@@H]1[C@@H]3C[C@@H]4[C@H](C[C@H](O)[C@H]5C[C@H](O)CC[C@@]45C)[C@H]3CC[C@@H]1[C@@]2(C)O
REMARK SMILES IDX 5 1 6 2 8 3 7 4 4 5 29 6 3 7 28 8 30 9 2 10 27 11 9 12 1 13
REMARK SMILES IDX 26 14 10 15 25 16 11 17 13 18 12 19 14 20 23 21 15 22 17 23
REMARK SMILES IDX 22 24 24 25 18 26 21 27 19 28 31 30 16 32 20 34
REMARK H PARENT 6 29 31 31 16 33 20 35
REMARK Flexibility Score: inf
ROOT
ATOM      1  C   UNL     1      22.579  16.490  10.802  1.00  0.00     0.216 C 
ATOM      2  N   UNL     1      21.222  15.942  11.100  1.00  0.00    -0.330 N 
ATOM      3  C   UNL     1      20.240  16.368  10.077  1.00  0.00     0.266 C 
ATOM      4  C   UNL     1      21.231  14.460  11.153  1.00  0.00     0.265 C 
ATOM      5  C   UNL     1      23.616  15.971  11.837  1.00  0.00     0.069 C 
ATOM      6  C   UNL     1      22.552  18.062  10.776  1.00  0.00     0.117 C 
ATOM      7  C   UNL     1      23.603  14.445  11.936  1.00  0.00     0.015 C 
ATOM      8  C   UNL     1      21.483  18.569   9.748  1.00  0.00     0.036 C 
ATOM      9  C   UNL     1      23.954  18.636  10.435  1.00  0.00     0.049 C 
ATOM     10  C   UNL     1      22.189  13.947  12.240  1.00  0.00     0.041 C 
ATOM     11  C   UNL     1      21.913  18.435   8.246  1.00  0.00     0.007 C 
ATOM     12  C   UNL     1      20.105  17.907  10.034  1.00  0.00     0.054 C 
ATOM     13  C   UNL     1      22.158  12.416  12.320  1.00  0.00     0.013 C 
ATOM     14  C   UNL     1      20.816  18.901   7.264  1.00  0.00     0.004 C 
ATOM     15  C   UNL     1      19.085  18.437   8.999  1.00  0.00     0.002 C 
ATOM     16  C   UNL     1      19.529  18.136   7.567  1.00  0.00    -0.004 C 
ATOM     17  C   UNL     1      17.604  18.007   9.081  1.00  0.00     0.009 C 
ATOM     18  C   UNL     1      18.281  18.493   6.774  1.00  0.00    -0.001 C 
ATOM     19  C   UNL     1      17.197  17.795   7.605  1.00  0.00    -0.001 C 
ATOM     20  C   UNL     1      18.258  18.064   5.294  1.00  0.00     0.036 C 
ATOM     21  C   UNL     1      15.756  18.159   7.125  1.00  0.00    -0.024 C 
ATOM     22  C   UNL     1      16.957  17.323   4.895  1.00  0.00     0.118 C 
ATOM     23  C   UNL     1      15.655  17.911   5.550  1.00  0.00     0.026 C 
ATOM     24  C   UNL     1      14.752  17.257   7.904  1.00  0.00     0.010 C 
ATOM     25  C   UNL     1      15.411  19.646   7.438  1.00  0.00     0.012 C 
ATOM     26  C   UNL     1      14.462  16.995   5.166  1.00  0.00     0.038 C 
ATOM     27  C   UNL     1      13.302  17.417   7.416  1.00  0.00     0.032 C 
ATOM     28  C   UNL     1      13.158  17.385   5.875  1.00  0.00     0.114 C 
ATOM     29  H   UNL     1      20.898  16.290  12.034  1.00  0.00     0.348 HD
ENDROOT
BRANCH   6  30
ATOM     30  O   UNL     1      22.179  18.509  12.062  1.00  0.00    -0.384 OA
ATOM     31  H   UNL     1      21.925  17.718  12.611  1.00  0.00     0.211 HD
ENDBRANCH   6  30
BRANCH  22  32
ATOM     32  O   UNL     1      16.845  17.276   3.493  1.00  0.00    -0.393 OA
ATOM     33  H   UNL     1      15.929  17.574   3.255  1.00  0.00     0.210 HD
ENDBRANCH  22  32
BRANCH  28  34
ATOM     34  O   UNL     1      12.720  18.633   5.391  1.00  0.00    -0.393 OA
ATOM     35  H   UNL     1      12.718  18.571   4.399  1.00  0.00     0.210 HD
ENDBRANCH  28  34
TORSDOF 3
ENDMDL
MODEL 2
REMARK VINA RESULT:    -7.919      2.582      3.803
REMARK INTER + INTRA:          -8.614
REMARK INTER:                  -8.614
REMARK INTRA:                   0.000
REMARK UNBOUND:                 0.000
REMARK SMILES C[C@H]1CC[C@H]2[N@H+](C1)C[C@@H]1[C@@H]3C[C@@H]4[C@H](C[C@H](O)[C@H]5C[C@H](O)CC[C@@]45C)[C@H]3CC[C@@H]1[C@@]2(C)O
REMARK SMILES IDX 5 1 6 2 8 3 7 4 4 5 29 6 3 7 28 8 30 9 2 10 27 11 9 12 1 13
REMARK SMILES IDX 26 14 10 15 25 16 11 17 13 18 12 19 14 20 23 21 15 22 17 23
REMARK SMILES IDX 22 24 24 25 18 26 21 27 19 28 31 30 16 32 20 34
REMARK H PARENT 6 29 31 31 16 33 20 35
REMARK Flexibility Score: inf
ROOT
ATOM      1  C   UNL     1      21.773  18.294   7.882  1.00  0.00     0.216 C 
ATOM      2  N   UNL     1      20.833  18.861   8.895  1.00  0.00    -0.330 N 
ATOM      3  C   UNL     1      19.426  18.575   8.535  1.00  0.00     0.266 C 
ATOM      4  C   UNL     1      21.092  18.312  10.249  1.00  0.00     0.265 C 
ATOM      5  C   UNL     1      23.247  18.532   8.313  1.00  0.00     0.069 C 
ATOM      6  C   UNL     1      21.498  18.908   6.462  1.00  0.00     0.117 C 
ATOM      7  C   UNL     1      23.516  18.012   9.726  1.00  0.00     0.015 C 
ATOM      8  C   UNL     1      20.001  18.684   6.054  1.00  0.00     0.036 C 
ATOM      9  C   UNL     1      22.451  18.298   5.399  1.00  0.00     0.049 C 
ATOM     10  C   UNL     1      22.523  18.627  10.714  1.00  0.00     0.041 C 
ATOM     11  C   UNL     1      19.660  17.218   5.614  1.00  0.00     0.007 C 
ATOM     12  C   UNL     1      19.055  19.205   7.174  1.00  0.00     0.054 C 
ATOM     13  C   UNL     1      22.768  18.096  12.131  1.00  0.00     0.013 C 
ATOM     14  C   UNL     1      18.168  17.028   5.266  1.00  0.00     0.004 C 
ATOM     15  C   UNL     1      17.593  18.966   6.727  1.00  0.00     0.002 C 
ATOM     16  C   UNL     1      17.324  17.485   6.454  1.00  0.00    -0.004 C 
ATOM     17  C   UNL     1      16.425  19.450   7.612  1.00  0.00     0.009 C 
ATOM     18  C   UNL     1      15.811  17.467   6.306  1.00  0.00    -0.001 C 
ATOM     19  C   UNL     1      15.388  18.307   7.518  1.00  0.00    -0.001 C 
ATOM     20  C   UNL     1      15.136  16.082   6.285  1.00  0.00     0.036 C 
ATOM     21  C   UNL     1      13.860  18.628   7.514  1.00  0.00    -0.024 C 
ATOM     22  C   UNL     1      13.936  15.973   7.258  1.00  0.00     0.118 C 
ATOM     23  C   UNL     1      13.044  17.266   7.326  1.00  0.00     0.026 C 
ATOM     24  C   UNL     1      13.512  19.312   8.869  1.00  0.00     0.010 C 
ATOM     25  C   UNL     1      13.489  19.615   6.366  1.00  0.00     0.012 C 
ATOM     26  C   UNL     1      11.971  17.059   8.427  1.00  0.00     0.038 C 
ATOM     27  C   UNL     1      12.003  19.549   9.050  1.00  0.00     0.032 C 
ATOM     28  C   UNL     1      11.135  18.318   8.690  1.00  0.00     0.114 C 
ATOM     29  H   UNL     1      20.956  19.902   8.947  1.00  0.00     0.348 HD
ENDROOT
BRANCH   6  30
ATOM     30  O   UNL     1      21.735  20.298   6.538  1.00  0.00    -0.384 OA
ATOM     31  H   UNL     1      22.009  20.521   7.470  1.00  0.00     0.211 HD
ENDBRANCH   6  30
BRANCH  22  32
ATOM     32  O   UNL     1      13.164  14.840   6.941  1.00  0.00    -0.393 OA
ATOM     33  H   UNL     1      13.521  14.077   7.463  1.00  0.00     0.210 HD
ENDBRANCH  22  32
BRANCH  28  34
ATOM     34  O   UNL     1      10.333  18.588   7.565  1.00  0.00    -0.393 OA
ATOM     35  H   UNL     1      10.038  19.534   7.642  1.00  0.00     0.210 HD
ENDBRANCH  28  34
TORSDOF 3
ENDMDL
MODEL 3
REMARK VINA RESULT:    -7.901      5.663      9.021
REMARK INTER + INTRA:          -8.594
REMARK INTER:                  -8.594
REMARK INTRA:                   0.000
REMARK UNBOUND:                 0.000
REMARK SMILES C[C@H]1CC[C@H]2[N@H+](C1)C[C@@H]1[C@@H]3C[C@@H]4[C@H](C[C@H](O)[C@H]5C[C@H](O)CC[C@@]45C)[C@H]3CC[C@@H]1[C@@]2(C)O
REMARK SMILES IDX 5 1 6 2 8 3 7 4 4 5 29 6 3 7 28 8 30 9 2 10 27 11 9 12 1 13
REMARK SMILES IDX 26 14 10 15 25 16 11 17 13 18 12 19 14 20 23 21 15 22 17 23
REMARK SMILES IDX 22 24 24 25 18 26 21 27 19 28 31 30 16 32 20 34
REMARK H PARENT 6 29 31 31 16 33 20 35
REMARK Flexibility Score: inf
ROOT
ATOM      1  C   UNL     1      23.944  12.083   3.497  1.00  0.00     0.216 C 
ATOM      2  N   UNL     1      24.615  13.372   3.841  1.00  0.00    -0.330 N 
ATOM      3  C   UNL     1      24.207  13.844   5.183  1.00  0.00     0.266 C 
ATOM      4  C   UNL     1      26.093  13.241   3.819  1.00  0.00     0.265 C 
ATOM      5  C   UNL     1      24.442  11.558   2.122  1.00  0.00     0.069 C 
ATOM      6  C   UNL     1      22.381  12.250   3.501  1.00  0.00     0.117 C 
ATOM      7  C   UNL     1      25.967  11.462   2.070  1.00  0.00     0.015 C 
ATOM      8  C   UNL     1      21.898  12.805   4.885  1.00  0.00     0.036 C 
ATOM      9  C   UNL     1      21.677  10.904   3.176  1.00  0.00     0.049 C 
ATOM     10  C   UNL     1      26.594  12.810   2.432  1.00  0.00     0.041 C 
ATOM     11  C   UNL     1      21.904  11.751   6.045  1.00  0.00     0.007 C 
ATOM     12  C   UNL     1      22.684  14.098   5.250  1.00  0.00     0.054 C 
ATOM     13  C   UNL     1      28.124  12.722   2.404  1.00  0.00     0.013 C 
ATOM     14  C   UNL     1      21.467  12.348   7.400  1.00  0.00     0.004 C 
ATOM     15  C   UNL     1      22.173  14.609   6.618  1.00  0.00     0.002 C 
ATOM     16  C   UNL     1      22.349  13.556   7.713  1.00  0.00    -0.004 C 
ATOM     17  C   UNL     1      22.724  15.925   7.206  1.00  0.00     0.009 C 
ATOM     18  C   UNL     1      22.044  14.359   8.967  1.00  0.00    -0.001 C 
ATOM     19  C   UNL     1      22.875  15.623   8.714  1.00  0.00    -0.001 C 
ATOM     20  C   UNL     1      22.382  13.690  10.314  1.00  0.00     0.036 C 
ATOM     21  C   UNL     1      22.599  16.737   9.773  1.00  0.00    -0.024 C 
ATOM     22  C   UNL     1      23.198  14.605  11.261  1.00  0.00     0.118 C 
ATOM     23  C   UNL     1      22.757  16.114  11.236  1.00  0.00     0.026 C 
ATOM     24  C   UNL     1      23.623  17.886   9.536  1.00  0.00     0.010 C 
ATOM     25  C   UNL     1      21.166  17.329   9.614  1.00  0.00     0.012 C 
ATOM     26  C   UNL     1      23.739  16.922  12.125  1.00  0.00     0.038 C 
ATOM     27  C   UNL     1      23.549  18.985  10.610  1.00  0.00     0.032 C 
ATOM     28  C   UNL     1      23.498  18.436  12.056  1.00  0.00     0.114 C 
ATOM     29  H   UNL     1      24.352  14.104   3.138  1.00  0.00     0.348 HD
ENDROOT
BRANCH   6  30
ATOM     30  O   UNL     1      22.044  13.190   2.502  1.00  0.00    -0.384 OA
ATOM     31  H   UNL     1      21.215  12.881   2.045  1.00  0.00     0.211 HD
ENDBRANCH   6  30
BRANCH  22  32
ATOM     32  O   UNL     1      23.167  14.088  12.569  1.00  0.00    -0.393 OA
ATOM     33  H   UNL     1      23.575  13.185  12.545  1.00  0.00     0.210 HD
ENDBRANCH  22  32
BRANCH  28  34
ATOM     34  O   UNL     1      22.261  18.739  12.659  1.00  0.00    -0.393 OA
ATOM     35  H   UNL     1      22.175  18.145  13.451  1.00  0.00     0.210 HD
ENDBRANCH  28  34
TORSDOF 3
ENDMDL
MODEL 4
REMARK VINA RESULT:    -7.768      5.393      9.118
REMARK INTER + INTRA:          -8.449
REMARK INTER:                  -8.449
REMARK INTRA:                   0.000
REMARK UNBOUND:                 0.000
REMARK SMILES C[C@H]1CC[C@H]2[N@H+](C1)C[C@@H]1[C@@H]3C[C@@H]4[C@H](C[C@H](O)[C@H]5C[C@H](O)CC[C@@]45C)[C@H]3CC[C@@H]1[C@@]2(C)O
REMARK SMILES IDX 5 1 6 2 8 3 7 4 4 5 29 6 3 7 28 8 30 9 2 10 27 11 9 12 1 13
REMARK SMILES IDX 26 14 10 15 25 16 11 17 13 18 12 19 14 20 23 21 15 22 17 23
REMARK SMILES IDX 22 24 24 25 18 26 21 27 19 28 31 30 16 32 20 34
REMARK H PARENT 6 29 31 31 16 33 20 35
REMARK Flexibility Score: inf
ROOT
ATOM      1  C   UNL     1      21.423   9.368   5.560  1.00  0.00     0.216 C 
ATOM      2  N   UNL     1      21.812  10.760   5.182  1.00  0.00    -0.330 N 
ATOM      3  C   UNL     1      21.910  11.628   6.376  1.00  0.00     0.266 C 
ATOM      4  C   UNL     1      23.113  10.789   4.471  1.00  0.00     0.265 C 
ATOM      5  C   UNL     1      21.402   8.448   4.307  1.00  0.00     0.069 C 
ATOM      6  C   UNL     1      20.030   9.356   6.288  1.00  0.00     0.117 C 
ATOM      7  C   UNL     1      22.722   8.505   3.539  1.00  0.00     0.015 C 
ATOM      8  C   UNL     1      20.061  10.308   7.533  1.00  0.00     0.036 C 
ATOM      9  C   UNL     1      19.637   7.915   6.712  1.00  0.00     0.049 C 
ATOM     10  C   UNL     1      23.065   9.953   3.183  1.00  0.00     0.041 C 
ATOM     11  C   UNL     1      20.841   9.739   8.767  1.00  0.00     0.007 C 
ATOM     12  C   UNL     1      20.557  11.723   7.116  1.00  0.00     0.054 C 
ATOM     13  C   UNL     1      24.399  10.026   2.431  1.00  0.00     0.013 C 
ATOM     14  C   UNL     1      20.888  10.725   9.954  1.00  0.00     0.004 C 
ATOM     15  C   UNL     1      20.568  12.626   8.372  1.00  0.00     0.002 C 
ATOM     16  C   UNL     1      21.466  12.052   9.468  1.00  0.00    -0.004 C 
ATOM     17  C   UNL     1      20.950  14.116   8.250  1.00  0.00     0.009 C 
ATOM     18  C   UNL     1      21.530  13.209  10.453  1.00  0.00    -0.001 C 
ATOM     19  C   UNL     1      21.808  14.384   9.507  1.00  0.00    -0.001 C 
ATOM     20  C   UNL     1      22.576  13.099  11.580  1.00  0.00     0.036 C 
ATOM     21  C   UNL     1      21.730  15.763  10.235  1.00  0.00    -0.024 C 
ATOM     22  C   UNL     1      23.447  14.371  11.730  1.00  0.00     0.118 C 
ATOM     23  C   UNL     1      22.658  15.717  11.536  1.00  0.00     0.026 C 
ATOM     24  C   UNL     1      22.211  16.858   9.238  1.00  0.00     0.010 C 
ATOM     25  C   UNL     1      20.268  16.103  10.655  1.00  0.00     0.012 C 
ATOM     26  C   UNL     1      23.676  16.888  11.583  1.00  0.00     0.038 C 
ATOM     27  C   UNL     1      22.319  18.250   9.883  1.00  0.00     0.032 C 
ATOM     28  C   UNL     1      23.040  18.245  11.253  1.00  0.00     0.114 C 
ATOM     29  H   UNL     1      21.090  11.164   4.537  1.00  0.00     0.348 HD
ENDROOT
BRANCH   6  30
ATOM     30  O   UNL     1      19.064   9.841   5.380  1.00  0.00    -0.384 OA
ATOM     31  H   UNL     1      18.619  10.635   5.786  1.00  0.00     0.211 HD
ENDBRANCH   6  30
BRANCH  22  32
ATOM     32  O   UNL     1      24.117  14.349  12.966  1.00  0.00    -0.393 OA
ATOM     33  H   UNL     1      23.612  13.746  13.571  1.00  0.00     0.210 HD
ENDBRANCH  22  32
BRANCH  28  34
ATOM     34  O   UNL     1      22.150  18.605  12.283  1.00  0.00    -0.393 OA
ATOM     35  H   UNL     1      21.436  19.156  11.866  1.00  0.00     0.210 HD
ENDBRANCH  28  34
TORSDOF 3
ENDMDL
MODEL 5
REMARK VINA RESULT:    -7.752      7.305      9.487
REMARK INTER + INTRA:          -8.431
REMARK INTER:                  -8.431
REMARK INTRA:                   0.000
REMARK UNBOUND:                 0.000
REMARK SMILES C[C@H]1CC[C@H]2[N@H+](C1)C[C@@H]1[C@@H]3C[C@@H]4[C@H](C[C@H](O)[C@H]5C[C@H](O)CC[C@@]45C)[C@H]3CC[C@@H]1[C@@]2(C)O
REMARK SMILES IDX 5 1 6 2 8 3 7 4 4 5 29 6 3 7 28 8 30 9 2 10 27 11 9 12 1 13
REMARK SMILES IDX 26 14 10 15 25 16 11 17 13 18 12 19 14 20 23 21 15 22 17 23
REMARK SMILES IDX 22 24 24 25 18 26 21 27 19 28 31 30 16 32 20 34
REMARK H PARENT 6 29 31 31 16 33 20 35
REMARK Flexibility Score: inf
ROOT
ATOM      1  C   UNL     1      22.520   9.497   1.928  1.00  0.00     0.216 C 
ATOM      2  N   UNL     1      21.548  10.577   1.580  1.00  0.00    -0.330 N 
ATOM      3  C   UNL     1      21.719  11.752   2.465  1.00  0.00     0.266 C 
ATOM      4  C   UNL     1      21.706  11.022   0.174  1.00  0.00     0.265 C 
ATOM      5  C   UNL     1      22.384   8.304   0.941  1.00  0.00     0.069 C 
ATOM      6  C   UNL     1      22.318   9.023   3.413  1.00  0.00     0.117 C 
ATOM      7  C   UNL     1      22.499   8.756  -0.515  1.00  0.00     0.015 C 
ATOM      8  C   UNL     1      22.431  10.242   4.392  1.00  0.00     0.036 C 
ATOM      9  C   UNL     1      23.348   7.923   3.789  1.00  0.00     0.049 C 
ATOM     10  C   UNL     1      21.482   9.860  -0.807  1.00  0.00     0.041 C 
ATOM     11  C   UNL     1      23.895  10.751   4.630  1.00  0.00     0.007 C 
ATOM     12  C   UNL     1      21.471  11.382   3.944  1.00  0.00     0.054 C 
ATOM     13  C   UNL     1      21.601  10.338  -2.259  1.00  0.00     0.013 C 
ATOM     14  C   UNL     1      23.959  11.980   5.562  1.00  0.00     0.004 C 
ATOM     15  C   UNL     1      21.615  12.559   4.938  1.00  0.00     0.002 C 
ATOM     16  C   UNL     1      23.054  13.073   4.996  1.00  0.00    -0.004 C 
ATOM     17  C   UNL     1      20.725  13.811   4.787  1.00  0.00     0.009 C 
ATOM     18  C   UNL     1      22.893  14.355   5.798  1.00  0.00    -0.001 C 
ATOM     19  C   UNL     1      21.680  14.985   5.101  1.00  0.00    -0.001 C 
ATOM     20  C   UNL     1      24.109  15.301   5.837  1.00  0.00     0.036 C 
ATOM     21  C   UNL     1      21.155  16.249   5.853  1.00  0.00    -0.024 C 
ATOM     22  C   UNL     1      23.748  16.770   5.504  1.00  0.00     0.118 C 
ATOM     23  C   UNL     1      22.377  17.249   6.105  1.00  0.00     0.026 C 
ATOM     24  C   UNL     1      20.059  16.911   4.966  1.00  0.00     0.010 C 
ATOM     25  C   UNL     1      20.507  15.870   7.218  1.00  0.00     0.012 C 
ATOM     26  C   UNL     1      22.091  18.682   5.583  1.00  0.00     0.038 C 
ATOM     27  C   UNL     1      19.561  18.252   5.531  1.00  0.00     0.032 C 
ATOM     28  C   UNL     1      20.702  19.196   5.983  1.00  0.00     0.114 C 
ATOM     29  H   UNL     1      20.569  10.219   1.691  1.00  0.00     0.348 HD
ENDROOT
BRANCH   6  30
ATOM     30  O   UNL     1      21.018   8.484   3.522  1.00  0.00    -0.384 OA
ATOM     31  H   UNL     1      20.362   9.233   3.502  1.00  0.00     0.211 HD
ENDBRANCH   6  30
BRANCH  22  32
ATOM     32  O   UNL     1      24.799  17.620   5.896  1.00  0.00    -0.393 OA
ATOM     33  H   UNL     1      24.855  17.593   6.885  1.00  0.00     0.210 HD
ENDBRANCH  22  32
BRANCH  28  34
ATOM     34  O   UNL     1      20.661  19.392   7.377  1.00  0.00    -0.393 OA
ATOM     35  H   UNL     1      21.378  18.825   7.768  1.00  0.00     0.210 HD
ENDBRANCH  28  34
TORSDOF 3
ENDMDL
MODEL 6
REMARK VINA RESULT:    -7.535      2.837      8.739
REMARK INTER + INTRA:          -8.195
REMARK INTER:                  -8.195
REMARK INTRA:                   0.000
REMARK UNBOUND:                 0.000
REMARK SMILES C[C@H]1CC[C@H]2[N@H+](C1)C[C@@H]1[C@@H]3C[C@@H]4[C@H](C[C@H](O)[C@H]5C[C@H](O)CC[C@@]45C)[C@H]3CC[C@@H]1[C@@]2(C)O
REMARK SMILES IDX 5 1 6 2 8 3 7 4 4 5 29 6 3 7 28 8 30 9 2 10 27 11 9 12 1 13
REMARK SMILES IDX 26 14 10 15 25 16 11 17 13 18 12 19 14 20 23 21 15 22 17 23
REMARK SMILES IDX 22 24 24 25 18 26 21 27 19 28 31 30 16 32 20 34
REMARK H PARENT 6 29 31 31 16 33 20 35
REMARK Flexibility Score: inf
ROOT
ATOM      1  C   UNL     1      12.319  19.465   7.840  1.00  0.00     0.216 C 
ATOM      2  N   UNL     1      12.552  18.275   8.711  1.00  0.00    -0.330 N 
ATOM      3  C   UNL     1      14.000  18.014   8.879  1.00  0.00     0.266 C 
ATOM      4  C   UNL     1      11.949  18.454  10.054  1.00  0.00     0.265 C 
ATOM      5  C   UNL     1      10.799  19.775   7.737  1.00  0.00     0.069 C 
ATOM      6  C   UNL     1      12.943  19.244   6.415  1.00  0.00     0.117 C 
ATOM      7  C   UNL     1      10.154  19.916   9.117  1.00  0.00     0.015 C 
ATOM      8  C   UNL     1      14.469  18.906   6.537  1.00  0.00     0.036 C 
ATOM      9  C   UNL     1      12.731  20.492   5.515  1.00  0.00     0.049 C 
ATOM     10  C   UNL     1      10.430  18.669   9.959  1.00  0.00     0.041 C 
ATOM     11  C   UNL     1      15.381  20.135   6.875  1.00  0.00     0.007 C 
ATOM     12  C   UNL     1      14.679  17.720   7.523  1.00  0.00     0.054 C 
ATOM     13  C   UNL     1       9.807  18.807  11.353  1.00  0.00     0.013 C 
ATOM     14  C   UNL     1      16.869  19.753   7.033  1.00  0.00     0.004 C 
ATOM     15  C   UNL     1      16.195  17.422   7.610  1.00  0.00     0.002 C 
ATOM     16  C   UNL     1      16.982  18.646   8.079  1.00  0.00    -0.004 C 
ATOM     17  C   UNL     1      16.703  16.240   8.463  1.00  0.00     0.009 C 
ATOM     18  C   UNL     1      18.356  18.048   8.342  1.00  0.00    -0.001 C 
ATOM     19  C   UNL     1      17.981  16.791   9.136  1.00  0.00    -0.001 C 
ATOM     20  C   UNL     1      19.365  18.940   9.091  1.00  0.00     0.036 C 
ATOM     21  C   UNL     1      19.207  15.856   9.382  1.00  0.00    -0.024 C 
ATOM     22  C   UNL     1      20.043  18.223  10.285  1.00  0.00     0.118 C 
ATOM     23  C   UNL     1      20.397  16.716  10.013  1.00  0.00     0.026 C 
ATOM     24  C   UNL     1      18.757  14.722  10.349  1.00  0.00     0.010 C 
ATOM     25  C   UNL     1      19.692  15.195   8.057  1.00  0.00     0.012 C 
ATOM     26  C   UNL     1      20.944  16.100  11.328  1.00  0.00     0.038 C 
ATOM     27  C   UNL     1      19.917  13.811  10.787  1.00  0.00     0.032 C 
ATOM     28  C   UNL     1      21.183  14.588  11.225  1.00  0.00     0.114 C 
ATOM     29  H   UNL     1      12.112  17.428   8.276  1.00  0.00     0.348 HD
ENDROOT
BRANCH   6  30
ATOM     30  O   UNL     1      12.289  18.142   5.822  1.00  0.00    -0.384 OA
ATOM     31  H   UNL     1      12.347  18.236   4.832  1.00  0.00     0.211 HD
ENDBRANCH   6  30
BRANCH  22  32
ATOM     32  O   UNL     1      21.179  18.946  10.694  1.00  0.00    -0.393 OA
ATOM     33  H   UNL     1      20.876  19.846  10.980  1.00  0.00     0.210 HD
ENDBRANCH  22  32
BRANCH  28  34
ATOM     34  O   UNL     1      22.248  14.343  10.337  1.00  0.00    -0.393 OA
ATOM     35  H   UNL     1      21.847  14.214   9.437  1.00  0.00     0.210 HD
ENDBRANCH  28  34
TORSDOF 3
ENDMDL
MODEL 7
REMARK VINA RESULT:    -7.534      2.772      8.622
REMARK INTER + INTRA:          -8.195
REMARK INTER:                  -8.195
REMARK INTRA:                   0.000
REMARK UNBOUND:                 0.000
REMARK SMILES C[C@H]1CC[C@H]2[N@H+](C1)C[C@@H]1[C@@H]3C[C@@H]4[C@H](C[C@H](O)[C@H]5C[C@H](O)CC[C@@]45C)[C@H]3CC[C@@H]1[C@@]2(C)O
REMARK SMILES IDX 5 1 6 2 8 3 7 4 4 5 29 6 3 7 28 8 30 9 2 10 27 11 9 12 1 13
REMARK SMILES IDX 26 14 10 15 25 16 11 17 13 18 12 19 14 20 23 21 15 22 17 23
REMARK SMILES IDX 22 24 24 25 18 26 21 27 19 28 31 30 16 32 20 34
REMARK H PARENT 6 29 31 31 16 33 20 35
REMARK Flexibility Score: inf
ROOT
ATOM      1  C   UNL     1      12.103  17.356   7.805  1.00  0.00     0.216 C 
ATOM      2  N   UNL     1      12.813  17.130   9.099  1.00  0.00    -0.330 N 
ATOM      3  C   UNL     1      14.280  17.218   8.925  1.00  0.00     0.266 C 
ATOM      4  C   UNL     1      12.402  18.117  10.127  1.00  0.00     0.265 C 
ATOM      5  C   UNL     1      10.563  17.340   8.017  1.00  0.00     0.069 C 
ATOM      6  C   UNL     1      12.533  16.284   6.739  1.00  0.00     0.117 C 
ATOM      7  C   UNL     1      10.131  18.321   9.108  1.00  0.00     0.015 C 
ATOM      8  C   UNL     1      14.090  16.294   6.556  1.00  0.00     0.036 C 
ATOM      9  C   UNL     1      11.822  16.535   5.381  1.00  0.00     0.049 C 
ATOM     10  C   UNL     1      10.893  18.039  10.404  1.00  0.00     0.041 C 
ATOM     11  C   UNL     1      14.639  17.508   5.729  1.00  0.00     0.007 C 
ATOM     12  C   UNL     1      14.794  16.148   7.936  1.00  0.00     0.054 C 
ATOM     13  C   UNL     1      10.484  19.030  11.500  1.00  0.00     0.013 C 
ATOM     14  C   UNL     1      16.178  17.507   5.612  1.00  0.00     0.004 C 
ATOM     15  C   UNL     1      16.324  16.161   7.706  1.00  0.00     0.002 C 
ATOM     16  C   UNL     1      16.778  17.447   7.016  1.00  0.00    -0.004 C 
ATOM     17  C   UNL     1      17.286  15.959   8.896  1.00  0.00     0.009 C 
ATOM     18  C   UNL     1      18.290  17.352   7.145  1.00  0.00    -0.001 C 
ATOM     19  C   UNL     1      18.433  16.957   8.620  1.00  0.00    -0.001 C 
ATOM     20  C   UNL     1      19.094  18.618   6.791  1.00  0.00     0.036 C 
ATOM     21  C   UNL     1      19.904  16.592   8.996  1.00  0.00    -0.024 C 
ATOM     22  C   UNL     1      20.133  19.002   7.874  1.00  0.00     0.118 C 
ATOM     23  C   UNL     1      20.870  17.774   8.522  1.00  0.00     0.026 C 
ATOM     24  C   UNL     1      19.967  16.397  10.540  1.00  0.00     0.010 C 
ATOM     25  C   UNL     1      20.349  15.259   8.323  1.00  0.00     0.012 C 
ATOM     26  C   UNL     1      21.774  18.300   9.669  1.00  0.00     0.038 C 
ATOM     27  C   UNL     1      21.399  16.174  11.057  1.00  0.00     0.032 C 
ATOM     28  C   UNL     1      22.430  17.172  10.476  1.00  0.00     0.114 C 
ATOM     29  H   UNL     1      12.580  16.175   9.466  1.00  0.00     0.348 HD
ENDROOT
BRANCH   6  30
ATOM     30  O   UNL     1      12.150  15.014   7.223  1.00  0.00    -0.384 OA
ATOM     31  H   UNL     1      12.125  15.051   8.218  1.00  0.00     0.211 HD
ENDBRANCH   6  30
BRANCH  22  32
ATOM     32  O   UNL     1      21.053  19.926   7.347  1.00  0.00    -0.393 OA
ATOM     33  H   UNL     1      21.562  19.468   6.629  1.00  0.00     0.210 HD
ENDBRANCH  22  32
BRANCH  28  34
ATOM     34  O   UNL     1      23.367  16.502   9.665  1.00  0.00    -0.393 OA
ATOM     35  H   UNL     1      24.239  16.961   9.795  1.00  0.00     0.210 HD
ENDBRANCH  28  34
TORSDOF 3
ENDMDL
MODEL 8
REMARK VINA RESULT:    -7.455      5.875      8.682
REMARK INTER + INTRA:          -8.108
REMARK INTER:                  -8.108
REMARK INTRA:                   0.000
REMARK UNBOUND:                 0.000
REMARK SMILES C[C@H]1CC[C@H]2[N@H+](C1)C[C@@H]1[C@@H]3C[C@@H]4[C@H](C[C@H](O)[C@H]5C[C@H](O)CC[C@@]45C)[C@H]3CC[C@@H]1[C@@]2(C)O
REMARK SMILES IDX 5 1 6 2 8 3 7 4 4 5 29 6 3 7 28 8 30 9 2 10 27 11 9 12 1 13
REMARK SMILES IDX 26 14 10 15 25 16 11 17 13 18 12 19 14 20 23 21 15 22 17 23
REMARK SMILES IDX 22 24 24 25 18 26 21 27 19 28 31 30 16 32 20 34
REMARK H PARENT 6 29 31 31 16 33 20 35
REMARK Flexibility Score: inf
ROOT
ATOM      1  C   UNL     1      20.435  17.358   8.803  1.00  0.00     0.216 C 
ATOM      2  N   UNL     1      20.727  17.717   7.383  1.00  0.00    -0.330 N 
ATOM      3  C   UNL     1      21.539  16.668   6.725  1.00  0.00     0.266 C 
ATOM      4  C   UNL     1      19.482  17.907   6.600  1.00  0.00     0.265 C 
ATOM      5  C   UNL     1      19.516  18.427   9.457  1.00  0.00     0.069 C 
ATOM      6  C   UNL     1      21.766  17.187   9.620  1.00  0.00     0.117 C 
ATOM      7  C   UNL     1      18.249  18.667   8.635  1.00  0.00     0.015 C 
ATOM      8  C   UNL     1      22.692  16.125   8.933  1.00  0.00     0.036 C 
ATOM      9  C   UNL     1      21.468  16.781  11.089  1.00  0.00     0.049 C 
ATOM     10  C   UNL     1      18.615  19.028   7.194  1.00  0.00     0.041 C 
ATOM     11  C   UNL     1      22.239  14.638   9.137  1.00  0.00     0.007 C 
ATOM     12  C   UNL     1      22.900  16.484   7.433  1.00  0.00     0.054 C 
ATOM     13  C   UNL     1      17.353  19.250   6.353  1.00  0.00     0.013 C 
ATOM     14  C   UNL     1      23.149  13.628   8.406  1.00  0.00     0.004 C 
ATOM     15  C   UNL     1      23.819  15.414   6.798  1.00  0.00     0.002 C 
ATOM     16  C   UNL     1      23.223  14.012   6.929  1.00  0.00    -0.004 C 
ATOM     17  C   UNL     1      24.261  15.548   5.325  1.00  0.00     0.009 C 
ATOM     18  C   UNL     1      24.136  13.201   6.024  1.00  0.00    -0.001 C 
ATOM     19  C   UNL     1      24.195  14.102   4.784  1.00  0.00    -0.001 C 
ATOM     20  C   UNL     1      23.680  11.767   5.689  1.00  0.00     0.036 C 
ATOM     21  C   UNL     1      25.241  13.604   3.737  1.00  0.00    -0.024 C 
ATOM     22  C   UNL     1      23.729  11.450   4.173  1.00  0.00     0.118 C 
ATOM     23  C   UNL     1      24.973  12.059   3.429  1.00  0.00     0.026 C 
ATOM     24  C   UNL     1      25.083  14.471   2.453  1.00  0.00     0.010 C 
ATOM     25  C   UNL     1      26.699  13.781   4.261  1.00  0.00     0.012 C 
ATOM     26  C   UNL     1      24.818  11.773   1.911  1.00  0.00     0.038 C 
ATOM     27  C   UNL     1      25.962  13.984   1.289  1.00  0.00     0.032 C 
ATOM     28  C   UNL     1      25.900  12.454   1.063  1.00  0.00     0.114 C 
ATOM     29  H   UNL     1      21.262  18.618   7.351  1.00  0.00     0.348 HD
ENDROOT
BRANCH   6  30
ATOM     30  O   UNL     1      22.437  18.429   9.620  1.00  0.00    -0.384 OA
ATOM     31  H   UNL     1      23.243  18.353   9.040  1.00  0.00     0.211 HD
ENDBRANCH   6  30
BRANCH  22  32
ATOM     32  O   UNL     1      23.649  10.059   3.973  1.00  0.00    -0.393 OA
ATOM     33  H   UNL     1      23.975   9.868   3.057  1.00  0.00     0.210 HD
ENDBRANCH  22  32
BRANCH  28  34
ATOM     34  O   UNL     1      27.148  11.861   1.334  1.00  0.00    -0.393 OA
ATOM     35  H   UNL     1      27.098  10.925   1.005  1.00  0.00     0.210 HD
ENDBRANCH  28  34
TORSDOF 3
ENDMDL
MODEL 9
REMARK VINA RESULT:    -7.391      5.221      7.918
REMARK INTER + INTRA:          -8.039
REMARK INTER:                  -8.039
REMARK INTRA:                   0.000
REMARK UNBOUND:                 0.000
REMARK SMILES C[C@H]1CC[C@H]2[N@H+](C1)C[C@@H]1[C@@H]3C[C@@H]4[C@H](C[C@H](O)[C@H]5C[C@H](O)CC[C@@]45C)[C@H]3CC[C@@H]1[C@@]2(C)O
REMARK SMILES IDX 5 1 6 2 8 3 7 4 4 5 29 6 3 7 28 8 30 9 2 10 27 11 9 12 1 13
REMARK SMILES IDX 26 14 10 15 25 16 11 17 13 18 12 19 14 20 23 21 15 22 17 23
REMARK SMILES IDX 22 24 24 25 18 26 21 27 19 28 31 30 16 32 20 34
REMARK H PARENT 6 29 31 31 16 33 20 35
REMARK Flexibility Score: inf
ROOT
ATOM      1  C   UNL     1      21.198  17.455   9.776  1.00  0.00     0.216 C 
ATOM      2  N   UNL     1      20.779  17.133   8.379  1.00  0.00    -0.330 N 
ATOM      3  C   UNL     1      20.940  15.690   8.094  1.00  0.00     0.266 C 
ATOM      4  C   UNL     1      19.364  17.506   8.134  1.00  0.00     0.265 C 
ATOM      5  C   UNL     1      20.949  18.957  10.088  1.00  0.00     0.069 C 
ATOM      6  C   UNL     1      22.706  17.077  10.007  1.00  0.00     0.117 C 
ATOM      7  C   UNL     1      19.505  19.365   9.795  1.00  0.00     0.015 C 
ATOM      8  C   UNL     1      22.945  15.566   9.663  1.00  0.00     0.036 C 
ATOM      9  C   UNL     1      23.137  17.379  11.468  1.00  0.00     0.049 C 
ATOM     10  C   UNL     1      19.137  19.010   8.353  1.00  0.00     0.041 C 
ATOM     11  C   UNL     1      22.408  14.561  10.740  1.00  0.00     0.007 C 
ATOM     12  C   UNL     1      22.414  15.249   8.235  1.00  0.00     0.054 C 
ATOM     13  C   UNL     1      17.684  19.394   8.052  1.00  0.00     0.013 C 
ATOM     14  C   UNL     1      22.621  13.085  10.342  1.00  0.00     0.004 C 
ATOM     15  C   UNL     1      22.674  13.753   7.940  1.00  0.00     0.002 C 
ATOM     16  C   UNL     1      21.993  12.851   8.969  1.00  0.00    -0.004 C 
ATOM     17  C   UNL     1      22.314  13.164   6.559  1.00  0.00     0.009 C 
ATOM     18  C   UNL     1      22.154  11.479   8.333  1.00  0.00    -0.001 C 
ATOM     19  C   UNL     1      21.727  11.773   6.890  1.00  0.00    -0.001 C 
ATOM     20  C   UNL     1      21.348  10.327   8.964  1.00  0.00     0.036 C 
ATOM     21  C   UNL     1      21.982  10.563   5.937  1.00  0.00    -0.024 C 
ATOM     22  C   UNL     1      20.556   9.496   7.923  1.00  0.00     0.118 C 
ATOM     23  C   UNL     1      21.327   9.252   6.575  1.00  0.00     0.026 C 
ATOM     24  C   UNL     1      21.343  10.898   4.557  1.00  0.00     0.010 C 
ATOM     25  C   UNL     1      23.507  10.324   5.717  1.00  0.00     0.012 C 
ATOM     26  C   UNL     1      20.369   8.527   5.593  1.00  0.00     0.038 C 
ATOM     27  C   UNL     1      21.400   9.721   3.568  1.00  0.00     0.032 C 
ATOM     28  C   UNL     1      20.963   8.371   4.186  1.00  0.00     0.114 C 
ATOM     29  H   UNL     1      21.370  17.672   7.701  1.00  0.00     0.348 HD
ENDROOT
BRANCH   6  30
ATOM     30  O   UNL     1      23.487  17.862   9.132  1.00  0.00    -0.384 OA
ATOM     31  H   UNL     1      22.971  18.008   8.293  1.00  0.00     0.211 HD
ENDBRANCH   6  30
BRANCH  22  32
ATOM     32  O   UNL     1      20.142   8.280   8.498  1.00  0.00    -0.393 OA
ATOM     33  H   UNL     1      19.150   8.272   8.502  1.00  0.00     0.210 HD
ENDBRANCH  22  32
BRANCH  28  34
ATOM     34  O   UNL     1      22.047   7.473   4.235  1.00  0.00    -0.393 OA
ATOM     35  H   UNL     1      22.779   7.933   4.724  1.00  0.00     0.210 HD
ENDBRANCH  28  34
TORSDOF 3
ENDMDL
