MODEL 1
REMARK VINA RESULT:    -4.413      0.000      0.000
REMARK INTER + INTRA:         -11.264
REMARK INTER:                  -9.315
REMARK INTRA:                  -1.949
REMARK UNBOUND:                -1.949
REMARK SMILES CCC(=O)CCCCC[C@@H]1NC(=O)[C@H]2CCCCN2C(=O)[C@H]([C@H](C)CC)NC(=O)[C@H](Cc2cn(OC)c3ccccc23)NC1=O
REMARK SMILES IDX 9 1 10 2 44 3 43 4 45 6 30 7 28 8 27 9 29 11 22 12 23 14
REMARK SMILES IDX 24 15 25 16 26 17 31 18 32 19 33 20 42 21 34 22 37 23 41 24
REMARK SMILES IDX 38 25 40 26 39 27 35 28 36 29 11 30 12 31 13 33 14 34 19 35
REMARK SMILES IDX 15 36 18 37 16 38 17 39 20 40 21 41 8 43 7 44 6 45 5 46 3 47
REMARK SMILES IDX 4 48 2 49 1 50
REMARK H PARENT 43 5 27 10 11 32
REMARK Flexibility Score: 80.00
ROOT
ATOM      1  C   UNL     1      64.474  31.539  61.239  1.00  0.00     0.035 C 
ENDROOT
BRANCH   1   2
ATOM      2  C   UNL     1      64.519  30.211  60.446  1.00  0.00     0.171 C 
BRANCH   2   3
ATOM      3  C   UNL     1      65.913  29.769  60.091  1.00  0.00     0.243 C 
ATOM      4  N   UNL     1      66.413  29.970  58.761  1.00  0.00    -0.342 N 
ATOM      5  H   UNL     1      65.977  30.723  58.183  1.00  0.00     0.164 HD
ATOM      6  O   UNL     1      66.626  29.196  60.960  1.00  0.00    -0.273 OA
BRANCH   4   7
ATOM      7  C   UNL     1      67.266  29.007  58.056  1.00  0.00     0.175 C 
BRANCH   7   8
ATOM      8  C   UNL     1      66.471  27.763  57.739  1.00  0.00     0.243 C 
ATOM      9  N   UNL     1      66.204  26.763  58.741  1.00  0.00    -0.342 N 
ATOM     10  H   UNL     1      66.617  26.870  59.694  1.00  0.00     0.164 HD
ATOM     11  O   UNL     1      66.016  27.622  56.572  1.00  0.00    -0.273 OA
BRANCH   9  12
ATOM     12  C   UNL     1      65.534  25.492  58.430  1.00  0.00     0.174 CG0
ATOM     13  G   UNL     1      64.262  25.371  59.250  1.00  0.00     0.000 G0
BRANCH  12  14
ATOM     14  C   UNL     1      66.498  24.286  58.644  1.00  0.00     0.018 C 
ATOM     15  C   UNL     1      67.676  24.669  59.558  1.00  0.00     0.010 C 
BRANCH  14  16
ATOM     16  C   UNL     1      67.026  23.769  57.279  1.00  0.00     0.002 C 
ATOM     17  C   UNL     1      66.995  22.245  57.165  1.00  0.00     0.004 C 
ENDBRANCH  14  16
ENDBRANCH  12  14
ENDBRANCH   9  12
ENDBRANCH   7   8
BRANCH   7  18
ATOM     18  C   UNL     1      68.580  28.719  58.824  1.00  0.00     0.073 C 
BRANCH  18  19
ATOM     19  C   UNL     1      69.481  29.919  58.954  1.00  0.00    -0.016 A 
ATOM     20  C   UNL     1      69.538  31.041  58.126  1.00  0.00     0.134 A 
ATOM     21  C   UNL     1      70.531  30.065  59.850  1.00  0.00     0.006 A 
ATOM     22  N   UNL     1      70.552  31.849  58.516  1.00  0.00    -0.191 N 
ATOM     23  C   UNL     1      71.150  31.254  59.560  1.00  0.00     0.087 A 
ATOM     24  C   UNL     1      70.990  29.235  60.876  1.00  0.00     0.011 A 
ATOM     25  C   UNL     1      72.260  31.701  60.278  1.00  0.00     0.030 A 
ATOM     26  C   UNL     1      72.109  29.660  61.616  1.00  0.00     0.001 A 
ATOM     27  C   UNL     1      72.738  30.889  61.323  1.00  0.00     0.002 A 
BRANCH  22  28
ATOM     28  O   UNL     1      70.940  33.052  57.952  1.00  0.00    -0.417 OA
ATOM     29  C   UNL     1      70.040  33.879  57.231  1.00  0.00     0.313 C 
ENDBRANCH  22  28
ENDBRANCH  18  19
ENDBRANCH   7  18
ENDBRANCH   4   7
ENDBRANCH   2   3
BRANCH   2  30
ATOM     30  N   UNL     1      63.844  29.132  61.169  1.00  0.00    -0.343 N 
ATOM     31  C   UNL     1      63.494  27.903  60.511  1.00  0.00     0.243 C 
ATOM     32  H   UNL     1      63.860  29.148  62.211  1.00  0.00     0.164 HD
ATOM     33  O   UNL     1      63.194  27.912  59.285  1.00  0.00    -0.273 OA
BRANCH  31  34
ATOM     34  C   UNL     1      63.430  26.617  61.299  1.00  0.00     0.174 C 
ATOM     35  N   UNL     1      64.147  25.489  60.666  1.00  0.00    -0.329 N 
ATOM     36  C   UNL     1      61.974  26.211  61.581  1.00  0.00     0.035 C 
ATOM     37  C   UNL     1      64.180  24.259  61.469  1.00  0.00     0.120 C 
ATOM     38  C   UNL     1      61.935  24.931  62.428  1.00  0.00     0.004 C 
ATOM     39  C   UNL     1      62.748  23.804  61.777  1.00  0.00     0.022 C 
BRANCH  35  40
ATOM     40  C   UNL     1      64.218  25.349  59.233  1.00  0.00     0.246 CG0
ATOM     41  O   UNL     1      63.171  25.062  58.591  1.00  0.00    -0.272 OA
ATOM     42  G   UNL     1      65.526  25.517  58.480  1.00  0.00     0.000 G0
ENDBRANCH  35  40
ENDBRANCH  31  34
ENDBRANCH   2  30
ENDBRANCH   1   2
BRANCH   1  43
ATOM     43  C   UNL     1      64.497  32.825  60.382  1.00  0.00     0.003 C 
BRANCH  43  44
ATOM     44  C   UNL     1      64.513  34.094  61.254  1.00  0.00     0.001 C 
BRANCH  44  45
ATOM     45  C   UNL     1      63.515  35.162  60.785  1.00  0.00     0.008 C 
BRANCH  45  46
ATOM     46  C   UNL     1      62.501  34.627  59.763  1.00  0.00     0.075 C 
BRANCH  46  47
ATOM     47  C   UNL     1      61.094  34.796  60.271  1.00  0.00     0.132 C 
ATOM     48  O   UNL     1      60.667  35.921  60.498  1.00  0.00    -0.300 OA
BRANCH  47  49
ATOM     49  C   UNL     1      60.201  33.606  60.500  1.00  0.00     0.072 C 
ATOM     50  C   UNL     1      60.884  32.320  60.045  1.00  0.00     0.012 C 
ENDBRANCH  47  49
ENDBRANCH  46  47
ENDBRANCH  45  46
ENDBRANCH  44  45
ENDBRANCH  43  44
ENDBRANCH   1  43
TORSDOF 12
ENDMDL
MODEL 2
REMARK VINA RESULT:    -4.360      3.257      8.530
REMARK INTER + INTRA:         -11.152
REMARK INTER:                  -8.730
REMARK INTRA:                  -2.422
REMARK UNBOUND:                -1.949
REMARK SMILES CCC(=O)CCCCC[C@@H]1NC(=O)[C@H]2CCCCN2C(=O)[C@H]([C@H](C)CC)NC(=O)[C@H](Cc2cn(OC)c3ccccc23)NC1=O
REMARK SMILES IDX 9 1 10 2 44 3 43 4 45 6 30 7 28 8 27 9 29 11 22 12 23 14
REMARK SMILES IDX 24 15 25 16 26 17 31 18 32 19 33 20 42 21 34 22 37 23 41 24
REMARK SMILES IDX 38 25 40 26 39 27 35 28 36 29 11 30 12 31 13 33 14 34 19 35
REMARK SMILES IDX 15 36 18 37 16 38 17 39 20 40 21 41 8 43 7 44 6 45 5 46 3 47
REMARK SMILES IDX 4 48 2 49 1 50
REMARK H PARENT 43 5 27 10 11 32
REMARK Flexibility Score: 80.00
ROOT
ATOM      1  C   UNL     1      61.392  31.030  61.344  1.00  0.00     0.035 C 
ENDROOT
BRANCH   1   2
ATOM      2  C   UNL     1      62.340  29.836  61.079  1.00  0.00     0.171 C 
BRANCH   2   3
ATOM      3  C   UNL     1      61.622  28.573  60.685  1.00  0.00     0.243 C 
ATOM      4  N   UNL     1      61.258  27.613  61.687  1.00  0.00    -0.342 N 
ATOM      5  H   UNL     1      61.155  27.948  62.672  1.00  0.00     0.164 HD
ATOM      6  O   UNL     1      61.369  28.353  59.470  1.00  0.00    -0.273 OA
BRANCH   4   7
ATOM      7  C   UNL     1      61.323  26.161  61.488  1.00  0.00     0.175 C 
BRANCH   7   8
ATOM      8  C   UNL     1      62.736  25.761  61.136  1.00  0.00     0.243 C 
ATOM      9  N   UNL     1      63.346  26.157  59.893  1.00  0.00    -0.342 N 
ATOM     10  H   UNL     1      62.780  26.686  59.191  1.00  0.00     0.164 HD
ATOM     11  O   UNL     1      63.394  25.083  61.972  1.00  0.00    -0.273 OA
BRANCH   9  12
ATOM     12  C   UNL     1      64.674  25.684  59.479  1.00  0.00     0.174 CG0
ATOM     13  G   UNL     1      65.618  26.866  59.343  1.00  0.00     0.000 G0
BRANCH  12  14
ATOM     14  C   UNL     1      64.583  24.842  58.170  1.00  0.00     0.018 C 
ATOM     15  C   UNL     1      63.200  24.985  57.510  1.00  0.00     0.010 C 
BRANCH  14  16
ATOM     16  C   UNL     1      64.881  23.349  58.469  1.00  0.00     0.002 C 
ATOM     17  C   UNL     1      65.685  23.144  59.754  1.00  0.00     0.004 C 
ENDBRANCH  14  16
ENDBRANCH  12  14
ENDBRANCH   9  12
ENDBRANCH   7   8
BRANCH   7  18
ATOM     18  C   UNL     1      60.270  25.665  60.465  1.00  0.00     0.073 C 
BRANCH  18  19
ATOM     19  C   UNL     1      58.848  25.826  60.934  1.00  0.00    -0.016 A 
ATOM     20  C   UNL     1      58.174  25.076  61.899  1.00  0.00     0.134 A 
ATOM     21  C   UNL     1      57.892  26.669  60.384  1.00  0.00     0.006 A 
ATOM     22  N   UNL     1      56.877  25.462  61.958  1.00  0.00    -0.191 N 
ATOM     23  C   UNL     1      56.712  26.426  61.040  1.00  0.00     0.087 A 
ATOM     24  C   UNL     1      57.973  27.606  59.351  1.00  0.00     0.011 A 
ATOM     25  C   UNL     1      55.537  27.108  60.719  1.00  0.00     0.030 A 
ATOM     26  C   UNL     1      56.804  28.308  59.005  1.00  0.00     0.001 A 
ATOM     27  C   UNL     1      55.593  28.066  59.688  1.00  0.00     0.002 A 
BRANCH  22  28
ATOM     28  O   UNL     1      55.882  24.961  62.780  1.00  0.00    -0.417 OA
ATOM     29  C   UNL     1      55.144  23.794  62.455  1.00  0.00     0.313 C 
ENDBRANCH  22  28
ENDBRANCH  18  19
ENDBRANCH   7  18
ENDBRANCH   4   7
ENDBRANCH   2   3
BRANCH   2  30
ATOM     30  N   UNL     1      63.335  30.159  60.054  1.00  0.00    -0.343 N 
ATOM     31  C   UNL     1      64.635  29.546  60.063  1.00  0.00     0.243 C 
ATOM     32  H   UNL     1      63.012  30.623  59.178  1.00  0.00     0.164 HD
ATOM     33  O   UNL     1      65.171  29.229  61.161  1.00  0.00    -0.273 OA
BRANCH  31  34
ATOM     34  C   UNL     1      65.380  29.339  58.766  1.00  0.00     0.174 C 
ATOM     35  N   UNL     1      65.518  27.919  58.375  1.00  0.00    -0.329 N 
ATOM     36  C   UNL     1      66.766  30.001  58.810  1.00  0.00     0.035 C 
ATOM     37  C   UNL     1      66.149  27.705  57.065  1.00  0.00     0.120 C 
ATOM     38  C   UNL     1      67.482  29.822  57.463  1.00  0.00     0.004 C 
ATOM     39  C   UNL     1      67.544  28.344  57.053  1.00  0.00     0.022 C 
BRANCH  35  40
ATOM     40  C   UNL     1      65.659  26.876  59.359  1.00  0.00     0.246 CG0
ATOM     41  O   UNL     1      66.651  26.897  60.138  1.00  0.00    -0.272 OA
ATOM     42  G   UNL     1      64.657  25.740  59.467  1.00  0.00     0.000 G0
ENDBRANCH  35  40
ENDBRANCH  31  34
ENDBRANCH   2  30
ENDBRANCH   1   2
BRANCH   1  43
ATOM     43  C   UNL     1      61.105  31.933  60.123  1.00  0.00     0.003 C 
BRANCH  43  44
ATOM     44  C   UNL     1      60.892  33.401  60.534  1.00  0.00     0.001 C 
BRANCH  44  45
ATOM     45  C   UNL     1      61.944  34.352  59.948  1.00  0.00     0.008 C 
BRANCH  45  46
ATOM     46  C   UNL     1      62.698  35.147  61.025  1.00  0.00     0.075 C 
BRANCH  46  47
ATOM     47  C   UNL     1      64.075  34.579  61.239  1.00  0.00     0.132 C 
ATOM     48  O   UNL     1      64.860  35.162  61.976  1.00  0.00    -0.300 OA
BRANCH  47  49
ATOM     49  C   UNL     1      64.504  33.302  60.566  1.00  0.00     0.072 C 
ATOM     50  C   UNL     1      65.238  33.597  59.261  1.00  0.00     0.012 C 
ENDBRANCH  47  49
ENDBRANCH  46  47
ENDBRANCH  45  46
ENDBRANCH  44  45
ENDBRANCH  43  44
ENDBRANCH   1  43
TORSDOF 12
ENDMDL
MODEL 3
REMARK VINA RESULT:    -4.125      9.023     12.485
REMARK INTER + INTRA:         -10.656
REMARK INTER:                  -8.775
REMARK INTRA:                  -1.880
REMARK UNBOUND:                -1.949
REMARK SMILES CCC(=O)CCCCC[C@@H]1NC(=O)[C@H]2CCCCN2C(=O)[C@H]([C@H](C)CC)NC(=O)[C@H](Cc2cn(OC)c3ccccc23)NC1=O
REMARK SMILES IDX 9 1 10 2 44 3 43 4 45 6 30 7 28 8 27 9 29 11 22 12 23 14
REMARK SMILES IDX 24 15 25 16 26 17 31 18 32 19 33 20 42 21 34 22 37 23 41 24
REMARK SMILES IDX 38 25 40 26 39 27 35 28 36 29 11 30 12 31 13 33 14 34 19 35
REMARK SMILES IDX 15 36 18 37 16 38 17 39 20 40 21 41 8 43 7 44 6 45 5 46 3 47
REMARK SMILES IDX 4 48 2 49 1 50
REMARK H PARENT 43 5 27 10 11 32
REMARK Flexibility Score: 80.00
ROOT
ATOM      1  C   UNL     1      58.386  28.959  50.140  1.00  0.00     0.035 C 
ENDROOT
BRANCH   1   2
ATOM      2  C   UNL     1      59.818  28.698  50.665  1.00  0.00     0.171 C 
BRANCH   2   3
ATOM      3  C   UNL     1      60.329  27.317  50.354  1.00  0.00     0.243 C 
ATOM      4  N   UNL     1      60.102  26.243  51.279  1.00  0.00    -0.342 N 
ATOM      5  H   UNL     1      59.299  26.330  51.943  1.00  0.00     0.164 HD
ATOM      6  O   UNL     1      60.982  27.117  49.294  1.00  0.00    -0.273 OA
BRANCH   4   7
ATOM      7  C   UNL     1      61.084  25.192  51.567  1.00  0.00     0.175 C 
BRANCH   7   8
ATOM      8  C   UNL     1      62.359  25.817  52.083  1.00  0.00     0.243 C 
ATOM      9  N   UNL     1      62.996  26.910  51.394  1.00  0.00    -0.342 N 
ATOM     10  H   UNL     1      62.601  27.242  50.486  1.00  0.00     0.164 HD
ATOM     11  O   UNL     1      62.852  25.376  53.156  1.00  0.00    -0.273 OA
BRANCH   9  12
ATOM     12  C   UNL     1      64.295  27.456  51.811  1.00  0.00     0.174 CG0
ATOM     13  G   UNL     1      64.224  28.973  51.846  1.00  0.00     0.000 G0
BRANCH  12  14
ATOM     14  C   UNL     1      65.441  26.936  50.892  1.00  0.00     0.018 C 
ATOM     15  C   UNL     1      64.885  26.088  49.733  1.00  0.00     0.010 C 
BRANCH  14  16
ATOM     16  C   UNL     1      66.461  26.109  51.718  1.00  0.00     0.002 C 
ATOM     17  C   UNL     1      66.853  24.795  51.043  1.00  0.00     0.004 C 
ENDBRANCH  14  16
ENDBRANCH  12  14
ENDBRANCH   9  12
ENDBRANCH   7   8
BRANCH   7  18
ATOM     18  C   UNL     1      61.306  24.254  50.354  1.00  0.00     0.073 C 
BRANCH  18  19
ATOM     19  C   UNL     1      61.434  22.800  50.729  1.00  0.00    -0.016 A 
ATOM     20  C   UNL     1      60.415  21.911  51.072  1.00  0.00     0.134 A 
ATOM     21  C   UNL     1      62.619  22.108  50.941  1.00  0.00     0.006 A 
ATOM     22  N   UNL     1      60.948  20.723  51.446  1.00  0.00    -0.191 N 
ATOM     23  C   UNL     1      62.282  20.848  51.365  1.00  0.00     0.087 A 
ATOM     24  C   UNL     1      63.953  22.502  50.812  1.00  0.00     0.011 A 
ATOM     25  C   UNL     1      63.250  19.893  51.677  1.00  0.00     0.030 A 
ATOM     26  C   UNL     1      64.951  21.559  51.120  1.00  0.00     0.001 A 
ATOM     27  C   UNL     1      64.602  20.259  51.546  1.00  0.00     0.002 A 
BRANCH  22  28
ATOM     28  O   UNL     1      60.275  19.588  51.862  1.00  0.00    -0.417 OA
ATOM     29  C   UNL     1      58.905  19.610  52.235  1.00  0.00     0.313 C 
ENDBRANCH  22  28
ENDBRANCH  18  19
ENDBRANCH   7  18
ENDBRANCH   4   7
ENDBRANCH   2   3
BRANCH   2  30
ATOM     30  N   UNL     1      60.766  29.687  50.148  1.00  0.00    -0.343 N 
ATOM     31  C   UNL     1      61.745  30.296  51.008  1.00  0.00     0.243 C 
ATOM     32  H   UNL     1      60.906  29.748  49.117  1.00  0.00     0.164 HD
ATOM     33  O   UNL     1      61.476  30.487  52.226  1.00  0.00    -0.273 OA
BRANCH  31  34
ATOM     34  C   UNL     1      63.065  30.757  50.439  1.00  0.00     0.174 C 
ATOM     35  N   UNL     1      64.178  29.808  50.661  1.00  0.00    -0.329 N 
ATOM     36  C   UNL     1      63.450  32.142  50.983  1.00  0.00     0.035 C 
ATOM     37  C   UNL     1      65.445  30.194  50.025  1.00  0.00     0.120 C 
ATOM     38  C   UNL     1      64.768  32.612  50.350  1.00  0.00     0.004 C 
ATOM     39  C   UNL     1      65.881  31.572  50.537  1.00  0.00     0.022 C 
BRANCH  35  40
ATOM     40  C   UNL     1      64.250  28.995  51.849  1.00  0.00     0.246 CG0
ATOM     41  O   UNL     1      64.298  29.559  52.976  1.00  0.00    -0.272 OA
ATOM     42  G   UNL     1      64.294  27.479  51.776  1.00  0.00     0.000 G0
ENDBRANCH  35  40
ENDBRANCH  31  34
ENDBRANCH   2  30
ENDBRANCH   1   2
BRANCH   1  43
ATOM     43  C   UNL     1      57.297  28.002  50.677  1.00  0.00     0.003 C 
BRANCH  43  44
ATOM     44  C   UNL     1      56.474  28.647  51.806  1.00  0.00     0.001 C 
BRANCH  44  45
ATOM     45  C   UNL     1      54.979  28.756  51.479  1.00  0.00     0.008 C 
BRANCH  45  46
ATOM     46  C   UNL     1      54.264  27.396  51.486  1.00  0.00     0.075 C 
BRANCH  46  47
ATOM     47  C   UNL     1      53.320  27.285  50.318  1.00  0.00     0.132 C 
ATOM     48  O   UNL     1      52.910  28.304  49.776  1.00  0.00    -0.300 OA
BRANCH  47  49
ATOM     49  C   UNL     1      52.877  25.943  49.800  1.00  0.00     0.072 C 
ATOM     50  C   UNL     1      54.070  25.007  49.632  1.00  0.00     0.012 C 
ENDBRANCH  47  49
ENDBRANCH  46  47
ENDBRANCH  45  46
ENDBRANCH  44  45
ENDBRANCH  43  44
ENDBRANCH   1  43
TORSDOF 12
ENDMDL
MODEL 4
REMARK VINA RESULT:    -4.108      8.570     11.986
REMARK INTER + INTRA:         -10.621
REMARK INTER:                  -8.587
REMARK INTRA:                  -2.033
REMARK UNBOUND:                -1.949
REMARK SMILES CCC(=O)CCCCC[C@@H]1NC(=O)[C@H]2CCCCN2C(=O)[C@H]([C@H](C)CC)NC(=O)[C@H](Cc2cn(OC)c3ccccc23)NC1=O
REMARK SMILES IDX 9 1 10 2 44 3 43 4 45 6 30 7 28 8 27 9 29 11 22 12 23 14
REMARK SMILES IDX 24 15 25 16 26 17 31 18 32 19 33 20 42 21 34 22 37 23 41 24
REMARK SMILES IDX 38 25 40 26 39 27 35 28 36 29 11 30 12 31 13 33 14 34 19 35
REMARK SMILES IDX 15 36 18 37 16 38 17 39 20 40 21 41 8 43 7 44 6 45 5 46 3 47
REMARK SMILES IDX 4 48 2 49 1 50
REMARK H PARENT 43 5 27 10 11 32
REMARK Flexibility Score: 80.00
ROOT
ATOM      1  C   UNL     1      59.651  26.331  49.678  1.00  0.00     0.035 C 
ENDROOT
BRANCH   1   2
ATOM      2  C   UNL     1      60.982  27.120  49.690  1.00  0.00     0.171 C 
BRANCH   2   3
ATOM      3  C   UNL     1      61.008  28.239  50.696  1.00  0.00     0.243 C 
ATOM      4  N   UNL     1      60.827  29.596  50.265  1.00  0.00    -0.342 N 
ATOM      5  H   UNL     1      60.324  29.760  49.363  1.00  0.00     0.164 HD
ATOM      6  O   UNL     1      61.219  27.980  51.912  1.00  0.00    -0.273 OA
BRANCH   4   7
ATOM      7  C   UNL     1      61.555  30.737  50.831  1.00  0.00     0.175 C 
BRANCH   7   8
ATOM      8  C   UNL     1      63.004  30.671  50.410  1.00  0.00     0.243 C 
ATOM      9  N   UNL     1      63.932  29.764  51.035  1.00  0.00    -0.342 N 
ATOM     10  H   UNL     1      63.611  29.177  51.838  1.00  0.00     0.164 HD
ATOM     11  O   UNL     1      63.391  31.418  49.470  1.00  0.00    -0.273 OA
BRANCH   9  12
ATOM     12  C   UNL     1      65.368  29.763  50.725  1.00  0.00     0.174 CG0
ATOM     13  G   UNL     1      65.765  28.418  50.144  1.00  0.00     0.000 G0
BRANCH  12  14
ATOM     14  C   UNL     1      66.211  30.141  51.980  1.00  0.00     0.018 C 
ATOM     15  C   UNL     1      65.312  30.352  53.212  1.00  0.00     0.010 C 
BRANCH  14  16
ATOM     16  C   UNL     1      67.048  31.418  51.703  1.00  0.00     0.002 C 
ATOM     17  C   UNL     1      67.938  31.817  52.880  1.00  0.00     0.004 C 
ENDBRANCH  14  16
ENDBRANCH  12  14
ENDBRANCH   9  12
ENDBRANCH   7   8
BRANCH   7  18
ATOM     18  C   UNL     1      61.364  30.848  52.364  1.00  0.00     0.073 C 
BRANCH  18  19
ATOM     19  C   UNL     1      60.318  31.853  52.772  1.00  0.00    -0.016 A 
ATOM     20  C   UNL     1      60.484  33.221  52.993  1.00  0.00     0.134 A 
ATOM     21  C   UNL     1      59.010  31.571  53.144  1.00  0.00     0.006 A 
ATOM     22  N   UNL     1      59.326  33.756  53.448  1.00  0.00    -0.191 N 
ATOM     23  C   UNL     1      58.438  32.754  53.538  1.00  0.00     0.087 A 
ATOM     24  C   UNL     1      58.301  30.369  53.182  1.00  0.00     0.011 A 
ATOM     25  C   UNL     1      57.118  32.820  53.985  1.00  0.00     0.030 A 
ATOM     26  C   UNL     1      56.967  30.405  53.630  1.00  0.00     0.001 A 
ATOM     27  C   UNL     1      56.376  31.624  54.025  1.00  0.00     0.002 A 
BRANCH  22  28
ATOM     28  O   UNL     1      59.081  35.075  53.789  1.00  0.00    -0.417 OA
ATOM     29  C   UNL     1      59.934  35.808  54.655  1.00  0.00     0.313 C 
ENDBRANCH  22  28
ENDBRANCH  18  19
ENDBRANCH   7  18
ENDBRANCH   4   7
ENDBRANCH   2   3
BRANCH   2  30
ATOM     30  N   UNL     1      62.126  26.237  49.928  1.00  0.00    -0.343 N 
ATOM     31  C   UNL     1      63.458  26.635  49.566  1.00  0.00     0.243 C 
ATOM     32  H   UNL     1      62.010  25.444  50.595  1.00  0.00     0.164 HD
ATOM     33  O   UNL     1      63.639  27.387  48.568  1.00  0.00    -0.273 OA
BRANCH  31  34
ATOM     34  C   UNL     1      64.641  26.107  50.343  1.00  0.00     0.174 C 
ATOM     35  N   UNL     1      65.540  27.163  50.857  1.00  0.00    -0.329 N 
ATOM     36  C   UNL     1      65.448  25.100  49.509  1.00  0.00     0.035 C 
ATOM     37  C   UNL     1      66.638  26.672  51.702  1.00  0.00     0.120 C 
ATOM     38  C   UNL     1      66.612  24.538  50.338  1.00  0.00     0.004 C 
ATOM     39  C   UNL     1      67.483  25.663  50.915  1.00  0.00     0.022 C 
BRANCH  35  40
ATOM     40  C   UNL     1      65.757  28.388  50.130  1.00  0.00     0.246 CG0
ATOM     41  O   UNL     1      66.312  28.340  48.998  1.00  0.00    -0.272 OA
ATOM     42  G   UNL     1      65.356  29.737  50.702  1.00  0.00     0.000 G0
ENDBRANCH  35  40
ENDBRANCH  31  34
ENDBRANCH   2  30
ENDBRANCH   1   2
BRANCH   1  43
ATOM     43  C   UNL     1      59.666  24.991  50.448  1.00  0.00     0.003 C 
BRANCH  43  44
ATOM     44  C   UNL     1      58.324  24.718  51.150  1.00  0.00     0.001 C 
BRANCH  44  45
ATOM     45  C   UNL     1      57.368  25.918  51.114  1.00  0.00     0.008 C 
BRANCH  45  46
ATOM     46  C   UNL     1      56.112  25.659  50.268  1.00  0.00     0.075 C 
BRANCH  46  47
ATOM     47  C   UNL     1      55.110  26.767  50.449  1.00  0.00     0.132 C 
ATOM     48  O   UNL     1      53.914  26.517  50.372  1.00  0.00    -0.300 OA
BRANCH  47  49
ATOM     49  C   UNL     1      55.553  28.178  50.729  1.00  0.00     0.072 C 
ATOM     50  C   UNL     1      54.422  28.986  51.360  1.00  0.00     0.012 C 
ENDBRANCH  47  49
ENDBRANCH  46  47
ENDBRANCH  45  46
ENDBRANCH  44  45
ENDBRANCH  43  44
ENDBRANCH   1  43
TORSDOF 12
ENDMDL
MODEL 5
REMARK VINA RESULT:    -4.072      5.760      8.648
REMARK INTER + INTRA:         -10.544
REMARK INTER:                  -8.326
REMARK INTRA:                  -2.217
REMARK UNBOUND:                -1.949
REMARK SMILES CCC(=O)CCCCC[C@@H]1NC(=O)[C@H]2CCCCN2C(=O)[C@H]([C@H](C)CC)NC(=O)[C@H](Cc2cn(OC)c3ccccc23)NC1=O
REMARK SMILES IDX 9 1 10 2 44 3 43 4 45 6 30 7 28 8 27 9 29 11 22 12 23 14
REMARK SMILES IDX 24 15 25 16 26 17 31 18 32 19 33 20 42 21 34 22 37 23 41 24
REMARK SMILES IDX 38 25 40 26 39 27 35 28 36 29 11 30 12 31 13 33 14 34 19 35
REMARK SMILES IDX 15 36 18 37 16 38 17 39 20 40 21 41 8 43 7 44 6 45 5 46 3 47
REMARK SMILES IDX 4 48 2 49 1 50
REMARK H PARENT 43 5 27 10 11 32
REMARK Flexibility Score: 80.00
ROOT
ATOM      1  C   UNL     1      62.636  28.859  61.557  1.00  0.00     0.035 C 
ENDROOT
BRANCH   1   2
ATOM      2  C   UNL     1      61.790  27.613  61.200  1.00  0.00     0.171 C 
BRANCH   2   3
ATOM      3  C   UNL     1      62.093  26.415  62.059  1.00  0.00     0.243 C 
ATOM      4  N   UNL     1      63.061  25.448  61.626  1.00  0.00    -0.342 N 
ATOM      5  H   UNL     1      63.789  25.756  60.942  1.00  0.00     0.164 HD
ATOM      6  O   UNL     1      61.471  26.252  63.143  1.00  0.00    -0.273 OA
BRANCH   4   7
ATOM      7  C   UNL     1      62.918  24.002  61.831  1.00  0.00     0.175 C 
BRANCH   7   8
ATOM      8  C   UNL     1      61.662  23.516  61.148  1.00  0.00     0.243 C 
ATOM      9  N   UNL     1      60.355  23.939  61.579  1.00  0.00    -0.342 N 
ATOM     10  H   UNL     1      60.268  24.553  62.421  1.00  0.00     0.164 HD
ATOM     11  O   UNL     1      61.778  22.738  60.161  1.00  0.00    -0.273 OA
BRANCH   9  12
ATOM     12  C   UNL     1      59.118  23.391  61.008  1.00  0.00     0.174 CG0
ATOM     13  G   UNL     1      58.313  24.507  60.366  1.00  0.00     0.000 G0
BRANCH  12  14
ATOM     14  C   UNL     1      58.303  22.612  62.084  1.00  0.00     0.018 C 
ATOM     15  C   UNL     1      58.817  22.917  63.502  1.00  0.00     0.010 C 
BRANCH  14  16
ATOM     16  C   UNL     1      58.366  21.086  61.808  1.00  0.00     0.002 C 
ATOM     17  C   UNL     1      58.831  20.753  60.391  1.00  0.00     0.004 C 
ENDBRANCH  14  16
ENDBRANCH  12  14
ENDBRANCH   9  12
ENDBRANCH   7   8
BRANCH   7  18
ATOM     18  C   UNL     1      62.993  23.615  63.329  1.00  0.00     0.073 C 
BRANCH  18  19
ATOM     19  C   UNL     1      63.733  22.328  63.586  1.00  0.00    -0.016 A 
ATOM     20  C   UNL     1      65.108  22.147  63.740  1.00  0.00     0.134 A 
ATOM     21  C   UNL     1      63.188  21.051  63.575  1.00  0.00     0.006 A 
ATOM     22  N   UNL     1      65.387  20.826  63.850  1.00  0.00    -0.191 N 
ATOM     23  C   UNL     1      64.222  20.168  63.749  1.00  0.00     0.087 A 
ATOM     24  C   UNL     1      61.873  20.611  63.405  1.00  0.00     0.011 A 
ATOM     25  C   UNL     1      64.015  18.788  63.777  1.00  0.00     0.030 A 
ATOM     26  C   UNL     1      61.634  19.225  63.429  1.00  0.00     0.001 A 
ATOM     27  C   UNL     1      62.698  18.317  63.619  1.00  0.00     0.002 A 
BRANCH  22  28
ATOM     28  O   UNL     1      66.629  20.235  64.009  1.00  0.00    -0.417 OA
ATOM     29  C   UNL     1      67.378  20.353  65.209  1.00  0.00     0.313 C 
ENDBRANCH  22  28
ENDBRANCH  18  19
ENDBRANCH   7  18
ENDBRANCH   4   7
ENDBRANCH   2   3
BRANCH   2  30
ATOM     30  N   UNL     1      60.356  27.901  61.268  1.00  0.00    -0.343 N 
ATOM     31  C   UNL     1      59.426  27.247  60.389  1.00  0.00     0.243 C 
ATOM     32  H   UNL     1      59.985  28.372  62.121  1.00  0.00     0.164 HD
ATOM     33  O   UNL     1      59.788  26.916  59.227  1.00  0.00    -0.273 OA
BRANCH  31  34
ATOM     34  C   UNL     1      58.003  27.011  60.838  1.00  0.00     0.174 C 
ATOM     35  N   UNL     1      57.687  25.592  61.107  1.00  0.00    -0.329 N 
ATOM     36  C   UNL     1      56.999  27.582  59.824  1.00  0.00     0.035 C 
ATOM     37  C   UNL     1      56.339  25.357  61.642  1.00  0.00     0.120 C 
ATOM     38  C   UNL     1      55.563  27.378  60.327  1.00  0.00     0.004 C 
ATOM     39  C   UNL     1      55.292  25.905  60.664  1.00  0.00     0.022 C 
BRANCH  35  40
ATOM     40  C   UNL     1      58.296  24.527  60.350  1.00  0.00     0.246 CG0
ATOM     41  O   UNL     1      58.133  24.491  59.100  1.00  0.00    -0.272 OA
ATOM     42  G   UNL     1      59.110  23.435  61.023  1.00  0.00     0.000 G0
ENDBRANCH  35  40
ENDBRANCH  31  34
ENDBRANCH   2  30
ENDBRANCH   1   2
BRANCH   1  43
ATOM     43  C   UNL     1      61.829  30.127  61.920  1.00  0.00     0.003 C 
BRANCH  43  44
ATOM     44  C   UNL     1      62.089  31.275  60.928  1.00  0.00     0.001 C 
BRANCH  44  45
ATOM     45  C   UNL     1      60.873  32.190  60.732  1.00  0.00     0.008 C 
BRANCH  45  46
ATOM     46  C   UNL     1      61.170  33.394  59.824  1.00  0.00     0.075 C 
BRANCH  46  47
ATOM     47  C   UNL     1      60.482  34.630  60.337  1.00  0.00     0.132 C 
ATOM     48  O   UNL     1      59.262  34.638  60.450  1.00  0.00    -0.300 OA
BRANCH  47  49
ATOM     49  C   UNL     1      61.267  35.856  60.720  1.00  0.00     0.072 C 
ATOM     50  C   UNL     1      62.641  35.471  61.262  1.00  0.00     0.012 C 
ENDBRANCH  47  49
ENDBRANCH  46  47
ENDBRANCH  45  46
ENDBRANCH  44  45
ENDBRANCH  43  44
ENDBRANCH   1  43
TORSDOF 12
ENDMDL
MODEL 6
REMARK VINA RESULT:    -4.012      8.999     12.636
REMARK INTER + INTRA:         -10.418
REMARK INTER:                  -8.791
REMARK INTRA:                  -1.627
REMARK UNBOUND:                -1.949
REMARK SMILES CCC(=O)CCCCC[C@@H]1NC(=O)[C@H]2CCCCN2C(=O)[C@H]([C@H](C)CC)NC(=O)[C@H](Cc2cn(OC)c3ccccc23)NC1=O
REMARK SMILES IDX 9 1 10 2 44 3 43 4 45 6 30 7 28 8 27 9 29 11 22 12 23 14
REMARK SMILES IDX 24 15 25 16 26 17 31 18 32 19 33 20 42 21 34 22 37 23 41 24
REMARK SMILES IDX 38 25 40 26 39 27 35 28 36 29 11 30 12 31 13 33 14 34 19 35
REMARK SMILES IDX 15 36 18 37 16 38 17 39 20 40 21 41 8 43 7 44 6 45 5 46 3 47
REMARK SMILES IDX 4 48 2 49 1 50
REMARK H PARENT 43 5 27 10 11 32
REMARK Flexibility Score: 80.00
ROOT
ATOM      1  C   UNL     1      59.261  28.282  50.200  1.00  0.00     0.035 C 
ENDROOT
BRANCH   1   2
ATOM      2  C   UNL     1      60.707  28.604  50.647  1.00  0.00     0.171 C 
BRANCH   2   3
ATOM      3  C   UNL     1      61.683  27.491  50.375  1.00  0.00     0.243 C 
ATOM      4  N   UNL     1      61.951  26.509  51.386  1.00  0.00    -0.342 N 
ATOM      5  H   UNL     1      61.226  26.355  52.124  1.00  0.00     0.164 HD
ATOM      6  O   UNL     1      62.283  27.445  49.267  1.00  0.00    -0.273 OA
BRANCH   4   7
ATOM      7  C   UNL     1      63.278  25.936  51.636  1.00  0.00     0.175 C 
BRANCH   7   8
ATOM      8  C   UNL     1      64.253  27.042  51.966  1.00  0.00     0.243 C 
ATOM      9  N   UNL     1      64.590  28.062  51.007  1.00  0.00    -0.342 N 
ATOM     10  H   UNL     1      64.196  28.006  50.041  1.00  0.00     0.164 HD
ATOM     11  O   UNL     1      64.758  27.072  53.121  1.00  0.00    -0.273 OA
BRANCH   9  12
ATOM     12  C   UNL     1      65.620  29.078  51.263  1.00  0.00     0.174 CG0
ATOM     13  G   UNL     1      64.986  30.457  51.275  1.00  0.00     0.000 G0
BRANCH  12  14
ATOM     14  C   UNL     1      66.782  28.966  50.230  1.00  0.00     0.018 C 
ATOM     15  C   UNL     1      66.793  27.586  49.549  1.00  0.00     0.010 C 
BRANCH  14  16
ATOM     16  C   UNL     1      68.146  29.232  50.923  1.00  0.00     0.002 C 
ATOM     17  C   UNL     1      68.651  30.660  50.720  1.00  0.00     0.004 C 
ENDBRANCH  14  16
ENDBRANCH  12  14
ENDBRANCH   9  12
ENDBRANCH   7   8
BRANCH   7  18
ATOM     18  C   UNL     1      63.749  25.027  50.474  1.00  0.00     0.073 C 
BRANCH  18  19
ATOM     19  C   UNL     1      63.705  23.557  50.800  1.00  0.00    -0.016 A 
ATOM     20  C   UNL     1      64.778  22.708  51.076  1.00  0.00     0.134 A 
ATOM     21  C   UNL     1      62.586  22.736  50.746  1.00  0.00     0.006 A 
ATOM     22  N   UNL     1      64.333  21.436  51.214  1.00  0.00    -0.191 N 
ATOM     23  C   UNL     1      63.007  21.459  51.014  1.00  0.00     0.087 A 
ATOM     24  C   UNL     1      61.248  23.020  50.463  1.00  0.00     0.011 A 
ATOM     25  C   UNL     1      62.121  20.380  51.029  1.00  0.00     0.030 A 
ATOM     26  C   UNL     1      60.332  21.951  50.471  1.00  0.00     0.001 A 
ATOM     27  C   UNL     1      60.765  20.638  50.758  1.00  0.00     0.002 A 
BRANCH  22  28
ATOM     28  O   UNL     1      65.082  20.303  51.485  1.00  0.00    -0.417 OA
ATOM     29  C   UNL     1      65.659  19.510  50.460  1.00  0.00     0.313 C 
ENDBRANCH  22  28
ENDBRANCH  18  19
ENDBRANCH   7  18
ENDBRANCH   4   7
ENDBRANCH   2   3
BRANCH   2  30
ATOM     30  N   UNL     1      61.199  29.835  50.023  1.00  0.00    -0.343 N 
ATOM     31  C   UNL     1      62.107  30.707  50.716  1.00  0.00     0.243 C 
ATOM     32  H   UNL     1      61.104  29.939  48.990  1.00  0.00     0.164 HD
ATOM     33  O   UNL     1      62.045  30.804  51.973  1.00  0.00    -0.273 OA
BRANCH  31  34
ATOM     34  C   UNL     1      63.090  31.546  49.936  1.00  0.00     0.174 C 
ATOM     35  N   UNL     1      64.491  31.087  50.050  1.00  0.00    -0.329 N 
ATOM     36  C   UNL     1      62.997  33.027  50.337  1.00  0.00     0.035 C 
ATOM     37  C   UNL     1      65.446  31.830  49.216  1.00  0.00     0.120 C 
ATOM     38  C   UNL     1      63.967  33.866  49.494  1.00  0.00     0.004 C 
ATOM     39  C   UNL     1      65.399  33.320  49.578  1.00  0.00     0.022 C 
BRANCH  35  40
ATOM     40  C   UNL     1      64.993  30.486  51.260  1.00  0.00     0.246 CG0
ATOM     41  O   UNL     1      64.959  31.147  52.333  1.00  0.00    -0.272 OA
ATOM     42  G   UNL     1      65.582  29.087  51.270  1.00  0.00     0.000 G0
ENDBRANCH  35  40
ENDBRANCH  31  34
ENDBRANCH   2  30
ENDBRANCH   1   2
BRANCH   1  43
ATOM     43  C   UNL     1      58.958  26.785  49.963  1.00  0.00     0.003 C 
BRANCH  43  44
ATOM     44  C   UNL     1      58.230  26.150  51.162  1.00  0.00     0.001 C 
BRANCH  44  45
ATOM     45  C   UNL     1      57.074  25.230  50.749  1.00  0.00     0.008 C 
BRANCH  45  46
ATOM     46  C   UNL     1      55.735  25.627  51.389  1.00  0.00     0.075 C 
BRANCH  46  47
ATOM     47  C   UNL     1      54.943  26.509  50.462  1.00  0.00     0.132 C 
ATOM     48  O   UNL     1      55.216  27.700  50.384  1.00  0.00    -0.300 OA
BRANCH  47  49
ATOM     49  C   UNL     1      53.824  25.951  49.623  1.00  0.00     0.072 C 
ATOM     50  C   UNL     1      53.538  24.500  49.998  1.00  0.00     0.012 C 
ENDBRANCH  47  49
ENDBRANCH  46  47
ENDBRANCH  45  46
ENDBRANCH  44  45
ENDBRANCH  43  44
ENDBRANCH   1  43
TORSDOF 12
ENDMDL
MODEL 7
REMARK VINA RESULT:    -3.993      8.811     12.168
REMARK INTER + INTRA:         -10.378
REMARK INTER:                  -7.288
REMARK INTRA:                  -3.090
REMARK UNBOUND:                -1.949
REMARK SMILES CCC(=O)CCCCC[C@@H]1NC(=O)[C@H]2CCCCN2C(=O)[C@H]([C@H](C)CC)NC(=O)[C@H](Cc2cn(OC)c3ccccc23)NC1=O
REMARK SMILES IDX 9 1 10 2 44 3 43 4 45 6 30 7 28 8 27 9 29 11 22 12 23 14
REMARK SMILES IDX 24 15 25 16 26 17 31 18 32 19 33 20 42 21 34 22 37 23 41 24
REMARK SMILES IDX 38 25 40 26 39 27 35 28 36 29 11 30 12 31 13 33 14 34 19 35
REMARK SMILES IDX 15 36 18 37 16 38 17 39 20 40 21 41 8 43 7 44 6 45 5 46 3 47
REMARK SMILES IDX 4 48 2 49 1 50
REMARK H PARENT 43 5 27 10 11 32
REMARK Flexibility Score: 80.00
ROOT
ATOM      1  C   UNL     1      61.705  27.607  50.645  1.00  0.00     0.035 C 
ENDROOT
BRANCH   1   2
ATOM      2  C   UNL     1      62.669  28.669  50.065  1.00  0.00     0.171 C 
BRANCH   2   3
ATOM      3  C   UNL     1      62.618  29.987  50.789  1.00  0.00     0.243 C 
ATOM      4  N   UNL     1      61.879  31.084  50.232  1.00  0.00    -0.342 N 
ATOM      5  H   UNL     1      61.108  30.864  49.560  1.00  0.00     0.164 HD
ATOM      6  O   UNL     1      63.250  30.130  51.871  1.00  0.00    -0.273 OA
BRANCH   4   7
ATOM      7  C   UNL     1      62.320  32.482  50.294  1.00  0.00     0.175 C 
BRANCH   7   8
ATOM      8  C   UNL     1      63.462  32.695  49.329  1.00  0.00     0.243 C 
ATOM      9  N   UNL     1      64.734  32.044  49.508  1.00  0.00    -0.342 N 
ATOM     10  H   UNL     1      64.892  31.454  50.357  1.00  0.00     0.164 HD
ATOM     11  O   UNL     1      63.274  33.446  48.334  1.00  0.00    -0.273 OA
BRANCH   9  12
ATOM     12  C   UNL     1      65.894  32.326  48.652  1.00  0.00     0.174 CG0
ATOM     13  G   UNL     1      66.609  31.029  48.317  1.00  0.00     0.000 G0
BRANCH  12  14
ATOM     14  C   UNL     1      66.839  33.371  49.317  1.00  0.00     0.018 C 
ATOM     15  C   UNL     1      66.509  33.551  50.809  1.00  0.00     0.010 C 
BRANCH  14  16
ATOM     16  C   UNL     1      66.741  34.733  48.579  1.00  0.00     0.002 C 
ATOM     17  C   UNL     1      66.626  34.584  47.062  1.00  0.00     0.004 C 
ENDBRANCH  14  16
ENDBRANCH  12  14
ENDBRANCH   9  12
ENDBRANCH   7   8
BRANCH   7  18
ATOM     18  C   UNL     1      62.647  32.926  51.742  1.00  0.00     0.073 C 
BRANCH  18  19
ATOM     19  C   UNL     1      61.432  33.310  52.546  1.00  0.00    -0.016 A 
ATOM     20  C   UNL     1      60.447  34.243  52.217  1.00  0.00     0.134 A 
ATOM     21  C   UNL     1      61.141  32.903  53.841  1.00  0.00     0.006 A 
ATOM     22  N   UNL     1      59.579  34.377  53.249  1.00  0.00    -0.191 N 
ATOM     23  C   UNL     1      60.004  33.564  54.228  1.00  0.00     0.087 A 
ATOM     24  C   UNL     1      61.803  32.023  54.701  1.00  0.00     0.011 A 
ATOM     25  C   UNL     1      59.443  33.385  55.493  1.00  0.00     0.030 A 
ATOM     26  C   UNL     1      61.260  31.823  55.983  1.00  0.00     0.001 A 
ATOM     27  C   UNL     1      60.083  32.496  56.377  1.00  0.00     0.002 A 
BRANCH  22  28
ATOM     28  O   UNL     1      58.472  35.204  53.320  1.00  0.00    -0.417 OA
ATOM     29  C   UNL     1      57.169  34.763  52.968  1.00  0.00     0.313 C 
ENDBRANCH  22  28
ENDBRANCH  18  19
ENDBRANCH   7  18
ENDBRANCH   4   7
ENDBRANCH   2   3
BRANCH   2  30
ATOM     30  N   UNL     1      64.051  28.186  50.049  1.00  0.00    -0.343 N 
ATOM     31  C   UNL     1      64.994  28.668  49.077  1.00  0.00     0.243 C 
ATOM     32  H   UNL     1      64.418  27.702  50.896  1.00  0.00     0.164 HD
ATOM     33  O   UNL     1      64.594  29.000  47.927  1.00  0.00    -0.273 OA
BRANCH  31  34
ATOM     34  C   UNL     1      66.465  28.720  49.414  1.00  0.00     0.174 C 
ATOM     35  N   UNL     1      67.060  30.068  49.293  1.00  0.00    -0.329 N 
ATOM     36  C   UNL     1      67.266  27.722  48.562  1.00  0.00     0.035 C 
ATOM     37  C   UNL     1      68.465  30.155  49.716  1.00  0.00     0.120 C 
ATOM     38  C   UNL     1      68.748  27.755  48.959  1.00  0.00     0.004 C 
ATOM     39  C   UNL     1      69.315  29.180  48.892  1.00  0.00     0.022 C 
BRANCH  35  40
ATOM     40  C   UNL     1      66.607  31.007  48.298  1.00  0.00     0.246 CG0
ATOM     41  O   UNL     1      66.829  30.766  47.080  1.00  0.00    -0.272 OA
ATOM     42  G   UNL     1      65.888  32.289  48.681  1.00  0.00     0.000 G0
ENDBRANCH  35  40
ENDBRANCH  31  34
ENDBRANCH   2  30
ENDBRANCH   1   2
BRANCH   1  43
ATOM     43  C   UNL     1      60.736  26.964  49.627  1.00  0.00     0.003 C 
BRANCH  43  44
ATOM     44  C   UNL     1      59.529  27.873  49.332  1.00  0.00     0.001 C 
BRANCH  44  45
ATOM     45  C   UNL     1      58.348  27.638  50.282  1.00  0.00     0.008 C 
BRANCH  45  46
ATOM     46  C   UNL     1      57.724  28.944  50.797  1.00  0.00     0.075 C 
BRANCH  46  47
ATOM     47  C   UNL     1      57.954  29.096  52.277  1.00  0.00     0.132 C 
ATOM     48  O   UNL     1      57.233  28.494  53.063  1.00  0.00    -0.300 OA
BRANCH  47  49
ATOM     49  C   UNL     1      59.058  29.970  52.807  1.00  0.00     0.072 C 
ATOM     50  C   UNL     1      60.092  29.138  53.561  1.00  0.00     0.012 C 
ENDBRANCH  47  49
ENDBRANCH  46  47
ENDBRANCH  45  46
ENDBRANCH  44  45
ENDBRANCH  43  44
ENDBRANCH   1  43
TORSDOF 12
ENDMDL
MODEL 8
REMARK VINA RESULT:    -3.991      4.523      8.779
REMARK INTER + INTRA:         -10.374
REMARK INTER:                  -8.506
REMARK INTRA:                  -1.868
REMARK UNBOUND:                -1.949
REMARK SMILES CCC(=O)CCCCC[C@@H]1NC(=O)[C@H]2CCCCN2C(=O)[C@H]([C@H](C)CC)NC(=O)[C@H](Cc2cn(OC)c3ccccc23)NC1=O
REMARK SMILES IDX 9 1 10 2 44 3 43 4 45 6 30 7 28 8 27 9 29 11 22 12 23 14
REMARK SMILES IDX 24 15 25 16 26 17 31 18 32 19 33 20 42 21 34 22 37 23 41 24
REMARK SMILES IDX 38 25 40 26 39 27 35 28 36 29 11 30 12 31 13 33 14 34 19 35
REMARK SMILES IDX 15 36 18 37 16 38 17 39 20 40 21 41 8 43 7 44 6 45 5 46 3 47
REMARK SMILES IDX 4 48 2 49 1 50
REMARK H PARENT 43 5 27 10 11 32
REMARK Flexibility Score: 80.00
ROOT
ATOM      1  C   UNL     1      64.695  29.646  60.749  1.00  0.00     0.035 C 
ENDROOT
BRANCH   1   2
ATOM      2  C   UNL     1      63.544  28.800  60.154  1.00  0.00     0.171 C 
BRANCH   2   3
ATOM      3  C   UNL     1      62.873  27.904  61.160  1.00  0.00     0.243 C 
ATOM      4  N   UNL     1      63.174  26.501  61.185  1.00  0.00    -0.342 N 
ATOM      5  H   UNL     1      64.088  26.189  60.785  1.00  0.00     0.164 HD
ATOM      6  O   UNL     1      62.027  28.388  61.959  1.00  0.00    -0.273 OA
BRANCH   4   7
ATOM      7  C   UNL     1      62.177  25.457  61.444  1.00  0.00     0.175 C 
BRANCH   7   8
ATOM      8  C   UNL     1      61.168  25.431  60.320  1.00  0.00     0.243 C 
ATOM      9  N   UNL     1      60.054  26.343  60.284  1.00  0.00    -0.342 N 
ATOM     10  H   UNL     1      59.906  27.001  61.081  1.00  0.00     0.164 HD
ATOM     11  O   UNL     1      61.332  24.600  59.386  1.00  0.00    -0.273 OA
BRANCH   9  12
ATOM     12  C   UNL     1      58.998  26.260  59.266  1.00  0.00     0.174 CG0
ATOM     13  G   UNL     1      59.120  27.431  58.307  1.00  0.00     0.000 G0
BRANCH  12  14
ATOM     14  C   UNL     1      57.589  26.177  59.928  1.00  0.00     0.018 C 
ATOM     15  C   UNL     1      57.644  26.591  61.409  1.00  0.00     0.010 C 
BRANCH  14  16
ATOM     16  C   UNL     1      57.015  24.742  59.794  1.00  0.00     0.002 C 
ATOM     17  C   UNL     1      56.152  24.329  60.986  1.00  0.00     0.004 C 
ENDBRANCH  14  16
ENDBRANCH  12  14
ENDBRANCH   9  12
ENDBRANCH   7   8
BRANCH   7  18
ATOM     18  C   UNL     1      61.533  25.601  62.845  1.00  0.00     0.073 C 
BRANCH  18  19
ATOM     19  C   UNL     1      60.932  24.322  63.369  1.00  0.00    -0.016 A 
ATOM     20  C   UNL     1      59.621  23.867  63.218  1.00  0.00     0.134 A 
ATOM     21  C   UNL     1      61.542  23.419  64.228  1.00  0.00     0.006 A 
ATOM     22  N   UNL     1      59.447  22.724  63.925  1.00  0.00    -0.191 N 
ATOM     23  C   UNL     1      60.613  22.458  64.534  1.00  0.00     0.087 A 
ATOM     24  C   UNL     1      62.829  23.388  64.771  1.00  0.00     0.011 A 
ATOM     25  C   UNL     1      60.905  21.396  65.392  1.00  0.00     0.030 A 
ATOM     26  C   UNL     1      63.153  22.329  65.639  1.00  0.00     0.001 A 
ATOM     27  C   UNL     1      62.198  21.335  65.945  1.00  0.00     0.002 A 
BRANCH  22  28
ATOM     28  O   UNL     1      58.294  21.968  64.039  1.00  0.00    -0.417 OA
ATOM     29  C   UNL     1      56.998  22.534  63.916  1.00  0.00     0.313 C 
ENDBRANCH  22  28
ENDBRANCH  18  19
ENDBRANCH   7  18
ENDBRANCH   4   7
ENDBRANCH   2   3
BRANCH   2  30
ATOM     30  N   UNL     1      62.533  29.646  59.517  1.00  0.00    -0.343 N 
ATOM     31  C   UNL     1      61.541  29.084  58.640  1.00  0.00     0.243 C 
ATOM     32  H   UNL     1      62.368  30.599  59.905  1.00  0.00     0.164 HD
ATOM     33  O   UNL     1      61.825  28.073  57.939  1.00  0.00    -0.273 OA
BRANCH  31  34
ATOM     34  C   UNL     1      60.186  29.738  58.517  1.00  0.00     0.174 C 
ATOM     35  N   UNL     1      59.052  28.806  58.699  1.00  0.00    -0.329 N 
ATOM     36  C   UNL     1      60.043  30.471  57.174  1.00  0.00     0.035 C 
ATOM     37  C   UNL     1      57.729  29.445  58.685  1.00  0.00     0.120 C 
ATOM     38  C   UNL     1      58.679  31.171  57.095  1.00  0.00     0.004 C 
ATOM     39  C   UNL     1      57.529  30.190  57.359  1.00  0.00     0.022 C 
BRANCH  35  40
ATOM     40  C   UNL     1      59.131  27.430  58.277  1.00  0.00     0.246 CG0
ATOM     41  O   UNL     1      59.271  27.172  57.050  1.00  0.00    -0.272 OA
ATOM     42  G   UNL     1      59.027  26.285  59.268  1.00  0.00     0.000 G0
ENDBRANCH  35  40
ENDBRANCH  31  34
ENDBRANCH   2  30
ENDBRANCH   1   2
BRANCH   1  43
ATOM     43  C   UNL     1      64.848  31.067  60.161  1.00  0.00     0.003 C 
BRANCH  43  44
ATOM     44  C   UNL     1      64.166  32.128  61.043  1.00  0.00     0.001 C 
BRANCH  44  45
ATOM     45  C   UNL     1      64.434  33.565  60.577  1.00  0.00     0.008 C 
BRANCH  45  46
ATOM     46  C   UNL     1      63.339  34.551  61.011  1.00  0.00     0.075 C 
BRANCH  46  47
ATOM     47  C   UNL     1      62.197  34.543  60.031  1.00  0.00     0.132 C 
ATOM     48  O   UNL     1      61.762  35.605  59.604  1.00  0.00    -0.300 OA
BRANCH  47  49
ATOM     49  C   UNL     1      61.583  33.252  59.560  1.00  0.00     0.072 C 
ATOM     50  C   UNL     1      60.284  32.965  60.308  1.00  0.00     0.012 C 
ENDBRANCH  47  49
ENDBRANCH  46  47
ENDBRANCH  45  46
ENDBRANCH  44  45
ENDBRANCH  43  44
ENDBRANCH   1  43
TORSDOF 12
ENDMDL
MODEL 9
REMARK VINA RESULT:    -3.890      4.876      9.266
REMARK INTER + INTRA:         -10.159
REMARK INTER:                  -7.191
REMARK INTRA:                  -2.968
REMARK UNBOUND:                -1.949
REMARK SMILES CCC(=O)CCCCC[C@@H]1NC(=O)[C@H]2CCCCN2C(=O)[C@H]([C@H](C)CC)NC(=O)[C@H](Cc2cn(OC)c3ccccc23)NC1=O
REMARK SMILES IDX 9 1 10 2 44 3 43 4 45 6 30 7 28 8 27 9 29 11 22 12 23 14
REMARK SMILES IDX 24 15 25 16 26 17 31 18 32 19 33 20 42 21 34 22 37 23 41 24
REMARK SMILES IDX 38 25 40 26 39 27 35 28 36 29 11 30 12 31 13 33 14 34 19 35
REMARK SMILES IDX 15 36 18 37 16 38 17 39 20 40 21 41 8 43 7 44 6 45 5 46 3 47
REMARK SMILES IDX 4 48 2 49 1 50
REMARK H PARENT 43 5 27 10 11 32
REMARK Flexibility Score: 80.00
ROOT
ATOM      1  C   UNL     1      64.126  28.021  60.432  1.00  0.00     0.035 C 
ENDROOT
BRANCH   1   2
ATOM      2  C   UNL     1      62.880  27.283  60.978  1.00  0.00     0.171 C 
BRANCH   2   3
ATOM      3  C   UNL     1      61.662  27.435  60.107  1.00  0.00     0.243 C 
ATOM      4  N   UNL     1      60.649  28.391  60.452  1.00  0.00    -0.342 N 
ATOM      5  H   UNL     1      60.924  29.200  61.055  1.00  0.00     0.164 HD
ATOM      6  O   UNL     1      61.524  26.698  59.093  1.00  0.00    -0.273 OA
BRANCH   4   7
ATOM      7  C   UNL     1      59.211  28.155  60.280  1.00  0.00     0.175 C 
BRANCH   7   8
ATOM      8  C   UNL     1      58.757  27.081  61.240  1.00  0.00     0.243 C 
ATOM      9  N   UNL     1      59.114  25.699  61.051  1.00  0.00    -0.342 N 
ATOM     10  H   UNL     1      59.652  25.421  60.199  1.00  0.00     0.164 HD
ATOM     11  O   UNL     1      58.068  27.422  62.241  1.00  0.00    -0.273 OA
BRANCH   9  12
ATOM     12  C   UNL     1      58.589  24.623  61.903  1.00  0.00     0.174 CG0
ATOM     13  G   UNL     1      59.741  23.855  62.525  1.00  0.00     0.000 G0
BRANCH  12  14
ATOM     14  C   UNL     1      57.621  23.699  61.104  1.00  0.00     0.018 C 
ATOM     15  C   UNL     1      57.485  24.165  59.643  1.00  0.00     0.010 C 
BRANCH  14  16
ATOM     16  C   UNL     1      56.227  23.661  61.785  1.00  0.00     0.002 C 
ATOM     17  C   UNL     1      55.211  24.590  61.121  1.00  0.00     0.004 C 
ENDBRANCH  14  16
ENDBRANCH  12  14
ENDBRANCH   9  12
ENDBRANCH   7   8
BRANCH   7  18
ATOM     18  C   UNL     1      58.840  27.859  58.806  1.00  0.00     0.073 C 
BRANCH  18  19
ATOM     19  C   UNL     1      57.761  28.758  58.261  1.00  0.00    -0.016 A 
ATOM     20  C   UNL     1      57.913  29.996  57.634  1.00  0.00     0.134 A 
ATOM     21  C   UNL     1      56.392  28.583  58.412  1.00  0.00     0.006 A 
ATOM     22  N   UNL     1      56.696  30.537  57.385  1.00  0.00    -0.191 N 
ATOM     23  C   UNL     1      55.780  29.677  57.858  1.00  0.00     0.087 A 
ATOM     24  C   UNL     1      55.654  27.557  59.008  1.00  0.00     0.011 A 
ATOM     25  C   UNL     1      54.391  29.820  57.851  1.00  0.00     0.030 A 
ATOM     26  C   UNL     1      54.252  27.674  59.016  1.00  0.00     0.001 A 
ATOM     27  C   UNL     1      53.622  28.797  58.436  1.00  0.00     0.002 A 
BRANCH  22  28
ATOM     28  O   UNL     1      56.418  31.752  56.784  1.00  0.00    -0.417 OA
ATOM     29  C   UNL     1      56.700  32.993  57.413  1.00  0.00     0.313 C 
ENDBRANCH  22  28
ENDBRANCH  18  19
ENDBRANCH   7  18
ENDBRANCH   4   7
ENDBRANCH   2   3
BRANCH   2  30
ATOM     30  N   UNL     1      63.149  25.858  61.180  1.00  0.00    -0.343 N 
ATOM     31  C   UNL     1      62.360  25.077  62.094  1.00  0.00     0.243 C 
ATOM     32  H   UNL     1      63.728  25.357  60.473  1.00  0.00     0.164 HD
ATOM     33  O   UNL     1      61.876  25.620  63.125  1.00  0.00    -0.273 OA
BRANCH  31  34
ATOM     34  C   UNL     1      62.164  23.600  61.849  1.00  0.00     0.174 C 
ATOM     35  N   UNL     1      60.746  23.189  61.768  1.00  0.00    -0.329 N 
ATOM     36  C   UNL     1      62.886  22.760  62.915  1.00  0.00     0.035 C 
ATOM     37  C   UNL     1      60.538  21.775  61.428  1.00  0.00     0.120 C 
ATOM     38  C   UNL     1      62.716  21.264  62.614  1.00  0.00     0.004 C 
ATOM     39  C   UNL     1      61.236  20.886  62.465  1.00  0.00     0.022 C 
BRANCH  35  40
ATOM     40  C   UNL     1      59.725  23.842  62.549  1.00  0.00     0.246 CG0
ATOM     41  O   UNL     1      59.765  23.753  63.807  1.00  0.00    -0.272 OA
ATOM     42  G   UNL     1      58.592  24.613  61.896  1.00  0.00     0.000 G0
ENDBRANCH  35  40
ENDBRANCH  31  34
ENDBRANCH   2  30
ENDBRANCH   1   2
BRANCH   1  43
ATOM     43  C   UNL     1      64.551  29.280  61.223  1.00  0.00     0.003 C 
BRANCH  43  44
ATOM     44  C   UNL     1      64.477  30.552  60.359  1.00  0.00     0.001 C 
BRANCH  44  45
ATOM     45  C   UNL     1      64.086  31.802  61.157  1.00  0.00     0.008 C 
BRANCH  45  46
ATOM     46  C   UNL     1      62.952  32.603  60.499  1.00  0.00     0.075 C 
BRANCH  46  47
ATOM     47  C   UNL     1      61.670  31.813  60.506  1.00  0.00     0.132 C 
ATOM     48  O   UNL     1      61.338  31.213  61.520  1.00  0.00    -0.300 OA
BRANCH  47  49
ATOM     49  C   UNL     1      60.786  31.754  59.289  1.00  0.00     0.072 C 
ATOM     50  C   UNL     1      61.510  31.081  58.126  1.00  0.00     0.012 C 
ENDBRANCH  47  49
ENDBRANCH  46  47
ENDBRANCH  45  46
ENDBRANCH  44  45
ENDBRANCH  43  44
ENDBRANCH   1  43
TORSDOF 12
ENDMDL
