MODEL 1
REMARK VINA RESULT:    -6.115      0.000      0.000
REMARK INTER + INTRA:          -7.508
REMARK INTER:                  -7.187
REMARK INTRA:                  -0.321
REMARK UNBOUND:                -0.321
REMARK SMILES Oc1ccc(-c2[o+]c3cc(O)cc(O)c3cc2O)cc1
REMARK SMILES IDX 6 1 7 2 8 3 9 4 10 5 12 6 13 7 15 8 16 9 17 10 5 11 4 12
REMARK SMILES IDX 3 13 2 14 19 15 20 16 1 17 18 19 11 21 14 23
REMARK H PARENT 1 18 18 20 11 22 14 24
REMARK Flexibility Score: inf
ROOT
ATOM      1  C   UNL     1      12.406 -11.118 -44.192  1.00  0.00     0.401 A 
ATOM      2  O   UNL     1      13.727 -11.057 -44.047  1.00  0.00    -0.202 OA
ATOM      3  C   UNL     1      14.548 -12.033 -44.425  1.00  0.00     0.368 A 
ATOM      4  C   UNL     1      15.923 -11.875 -44.234  1.00  0.00     0.162 A 
ATOM      5  C   UNL     1      16.809 -12.884 -44.625  1.00  0.00     0.128 A 
ATOM      6  C   UNL     1      16.317 -14.054 -45.208  1.00  0.00     0.093 A 
ATOM      7  C   UNL     1      14.943 -14.235 -45.411  1.00  0.00     0.136 A 
ATOM      8  C   UNL     1      14.039 -13.215 -45.014  1.00  0.00     0.125 A 
ATOM      9  C   UNL     1      12.647 -13.317 -45.165  1.00  0.00     0.078 A 
ATOM     10  C   UNL     1      11.819 -12.271 -44.745  1.00  0.00     0.223 A 
ENDROOT
BRANCH   1  11
ATOM     11  C   UNL     1      11.599  -9.961 -43.741  1.00  0.00     0.084 A 
ATOM     12  C   UNL     1      11.228  -9.862 -42.389  1.00  0.00     0.022 A 
ATOM     13  C   UNL     1      10.484  -8.767 -41.937  1.00  0.00     0.047 A 
ATOM     14  C   UNL     1      10.116  -7.750 -42.828  1.00  0.00     0.115 A 
ATOM     15  C   UNL     1      11.243  -8.925 -44.625  1.00  0.00     0.022 A 
ATOM     16  C   UNL     1      10.500  -7.832 -44.170  1.00  0.00     0.047 A 
BRANCH  14  17
ATOM     17  O   UNL     1       9.375  -6.655 -42.389  1.00  0.00    -0.508 OA
ATOM     18  H   UNL     1       9.312  -6.419 -41.406  1.00  0.00     0.293 HD
ENDBRANCH  14  17
ENDBRANCH   1  11
BRANCH  10  19
ATOM     19  O   UNL     1      10.432 -12.391 -44.849  1.00  0.00    -0.500 OA
ATOM     20  H   UNL     1       9.945 -12.206 -45.718  1.00  0.00     0.294 HD
ENDBRANCH  10  19
BRANCH   5  21
ATOM     21  O   UNL     1      18.181 -12.735 -44.438  1.00  0.00    -0.507 OA
ATOM     22  H   UNL     1      18.555 -12.144 -43.704  1.00  0.00     0.293 HD
ENDBRANCH   5  21
BRANCH   7  23
ATOM     23  O   UNL     1      14.532 -15.432 -46.004  1.00  0.00    -0.507 OA
ATOM     24  H   UNL     1      15.114 -16.004 -46.598  1.00  0.00     0.293 HD
ENDBRANCH   7  23
TORSDOF 5
ENDMDL
MODEL 2
REMARK VINA RESULT:    -5.862      1.401      6.376
REMARK INTER + INTRA:          -7.211
REMARK INTER:                  -7.320
REMARK INTRA:                   0.109
REMARK UNBOUND:                -0.321
REMARK SMILES Oc1ccc(-c2[o+]c3cc(O)cc(O)c3cc2O)cc1
REMARK SMILES IDX 6 1 7 2 8 3 9 4 10 5 12 6 13 7 15 8 16 9 17 10 5 11 4 12
REMARK SMILES IDX 3 13 2 14 19 15 20 16 1 17 18 19 11 21 14 23
REMARK H PARENT 1 18 18 20 11 22 14 24
REMARK Flexibility Score: inf
ROOT
ATOM      1  C   UNL     1      13.619 -11.846 -44.298  1.00  0.00     0.401 A 
ATOM      2  O   UNL     1      13.139 -10.631 -44.042  1.00  0.00    -0.202 OA
ATOM      3  C   UNL     1      11.863 -10.301 -44.216  1.00  0.00     0.368 A 
ATOM      4  C   UNL     1      11.452  -8.999 -43.916  1.00  0.00     0.162 A 
ATOM      5  C   UNL     1      10.115  -8.625 -44.087  1.00  0.00     0.128 A 
ATOM      6  C   UNL     1       9.187  -9.556 -44.558  1.00  0.00     0.093 A 
ATOM      7  C   UNL     1       9.574 -10.867 -44.864  1.00  0.00     0.136 A 
ATOM      8  C   UNL     1      10.930 -11.251 -44.695  1.00  0.00     0.125 A 
ATOM      9  C   UNL     1      11.410 -12.537 -44.990  1.00  0.00     0.078 A 
ATOM     10  C   UNL     1      12.762 -12.841 -44.802  1.00  0.00     0.223 A 
ENDROOT
BRANCH   1  11
ATOM     11  C   UNL     1      15.059 -12.094 -44.054  1.00  0.00     0.084 A 
ATOM     12  C   UNL     1      15.644 -11.646 -42.857  1.00  0.00     0.022 A 
ATOM     13  C   UNL     1      16.997 -11.888 -42.596  1.00  0.00     0.047 A 
ATOM     14  C   UNL     1      17.776 -12.595 -43.521  1.00  0.00     0.115 A 
ATOM     15  C   UNL     1      15.843 -12.821 -44.968  1.00  0.00     0.022 A 
ATOM     16  C   UNL     1      17.195 -13.062 -44.704  1.00  0.00     0.047 A 
BRANCH  14  17
ATOM     17  O   UNL     1      19.124 -12.842 -43.272  1.00  0.00    -0.508 OA
ATOM     18  H   UNL     1      19.539 -12.650 -42.368  1.00  0.00     0.293 HD
ENDBRANCH  14  17
ENDBRANCH   1  11
BRANCH  10  19
ATOM     19  O   UNL     1      13.250 -14.103 -45.142  1.00  0.00    -0.500 OA
ATOM     20  H   UNL     1      13.738 -14.684 -44.471  1.00  0.00     0.294 HD
ENDBRANCH  10  19
BRANCH   5  21
ATOM     21  O   UNL     1       9.698  -7.330 -43.791  1.00  0.00    -0.507 OA
ATOM     22  H   UNL     1       9.614  -6.622 -44.513  1.00  0.00     0.293 HD
ENDBRANCH   5  21
BRANCH   7  23
ATOM     23  O   UNL     1       8.585 -11.739 -45.327  1.00  0.00    -0.507 OA
ATOM     24  H   UNL     1       7.988 -12.293 -44.731  1.00  0.00     0.293 HD
ENDBRANCH   7  23
TORSDOF 5
ENDMDL
MODEL 3
REMARK VINA RESULT:    -5.808      2.523      3.918
REMARK INTER + INTRA:          -7.147
REMARK INTER:                  -6.880
REMARK INTRA:                  -0.268
REMARK UNBOUND:                -0.321
REMARK SMILES Oc1ccc(-c2[o+]c3cc(O)cc(O)c3cc2O)cc1
REMARK SMILES IDX 6 1 7 2 8 3 9 4 10 5 12 6 13 7 15 8 16 9 17 10 5 11 4 12
REMARK SMILES IDX 3 13 2 14 19 15 20 16 1 17 18 19 11 21 14 23
REMARK H PARENT 1 18 18 20 11 22 14 24
REMARK Flexibility Score: inf
ROOT
ATOM      1  C   UNL     1      11.496 -12.522 -44.465  1.00  0.00     0.401 A 
ATOM      2  O   UNL     1      12.437 -13.148 -45.169  1.00  0.00    -0.202 OA
ATOM      3  C   UNL     1      13.727 -13.120 -44.849  1.00  0.00     0.368 A 
ATOM      4  C   UNL     1      14.640 -13.813 -45.649  1.00  0.00     0.162 A 
ATOM      5  C   UNL     1      16.002 -13.802 -45.335  1.00  0.00     0.128 A 
ATOM      6  C   UNL     1      16.452 -13.097 -44.216  1.00  0.00     0.093 A 
ATOM      7  C   UNL     1      15.557 -12.395 -43.399  1.00  0.00     0.136 A 
ATOM      8  C   UNL     1      14.173 -12.401 -43.715  1.00  0.00     0.125 A 
ATOM      9  C   UNL     1      13.207 -11.715 -42.961  1.00  0.00     0.078 A 
ATOM     10  C   UNL     1      11.861 -11.763 -43.338  1.00  0.00     0.223 A 
ENDROOT
BRANCH   1  11
ATOM     11  C   UNL     1      10.091 -12.638 -44.918  1.00  0.00     0.084 A 
ATOM     12  C   UNL     1       9.359 -13.798 -44.610  1.00  0.00     0.022 A 
ATOM     13  C   UNL     1       8.024 -13.920 -45.008  1.00  0.00     0.047 A 
ATOM     14  C   UNL     1       7.400 -12.876 -45.704  1.00  0.00     0.115 A 
ATOM     15  C   UNL     1       9.450 -11.587 -45.599  1.00  0.00     0.022 A 
ATOM     16  C   UNL     1       8.115 -11.711 -45.995  1.00  0.00     0.047 A 
BRANCH  14  17
ATOM     17  O   UNL     1       6.070 -12.987 -46.107  1.00  0.00    -0.508 OA
ATOM     18  H   UNL     1       5.603 -13.885 -46.147  1.00  0.00     0.293 HD
ENDBRANCH  14  17
ENDBRANCH   1  11
BRANCH  10  19
ATOM     19  O   UNL     1      10.907 -11.042 -42.619  1.00  0.00    -0.500 OA
ATOM     20  H   UNL     1       9.923 -11.073 -42.859  1.00  0.00     0.294 HD
ENDBRANCH  10  19
BRANCH   5  21
ATOM     21  O   UNL     1      16.919 -14.489 -46.127  1.00  0.00    -0.507 OA
ATOM     22  H   UNL     1      17.001 -15.499 -46.087  1.00  0.00     0.293 HD
ENDBRANCH   5  21
BRANCH   7  23
ATOM     23  O   UNL     1      16.086 -11.718 -42.297  1.00  0.00    -0.507 OA
ATOM     24  H   UNL     1      16.424 -10.767 -42.320  1.00  0.00     0.293 HD
ENDBRANCH   7  23
TORSDOF 5
ENDMDL
MODEL 4
REMARK VINA RESULT:    -5.783      1.946      3.295
REMARK INTER + INTRA:          -7.118
REMARK INTER:                  -6.905
REMARK INTRA:                  -0.213
REMARK UNBOUND:                -0.321
REMARK SMILES Oc1ccc(-c2[o+]c3cc(O)cc(O)c3cc2O)cc1
REMARK SMILES IDX 6 1 7 2 8 3 9 4 10 5 12 6 13 7 15 8 16 9 17 10 5 11 4 12
REMARK SMILES IDX 3 13 2 14 19 15 20 16 1 17 18 19 11 21 14 23
REMARK H PARENT 1 18 18 20 11 22 14 24
REMARK Flexibility Score: inf
ROOT
ATOM      1  C   UNL     1      11.921 -11.414 -43.632  1.00  0.00     0.401 A 
ATOM      2  O   UNL     1      11.298 -12.550 -43.325  1.00  0.00    -0.202 OA
ATOM      3  C   UNL     1      11.836 -13.751 -43.516  1.00  0.00     0.368 A 
ATOM      4  C   UNL     1      11.104 -14.886 -43.158  1.00  0.00     0.162 A 
ATOM      5  C   UNL     1      11.646 -16.162 -43.345  1.00  0.00     0.128 A 
ATOM      6  C   UNL     1      12.924 -16.301 -43.890  1.00  0.00     0.093 A 
ATOM      7  C   UNL     1      13.678 -15.178 -44.255  1.00  0.00     0.136 A 
ATOM      8  C   UNL     1      13.131 -13.882 -44.070  1.00  0.00     0.125 A 
ATOM      9  C   UNL     1      13.808 -12.702 -44.420  1.00  0.00     0.078 A 
ATOM     10  C   UNL     1      13.202 -11.459 -44.212  1.00  0.00     0.223 A 
ENDROOT
BRANCH   1  11
ATOM     11  C   UNL     1      11.221 -10.137 -43.363  1.00  0.00     0.084 A 
ATOM     12  C   UNL     1      11.082  -9.691 -42.038  1.00  0.00     0.022 A 
ATOM     13  C   UNL     1      10.443  -8.478 -41.762  1.00  0.00     0.047 A 
ATOM     14  C   UNL     1       9.950  -7.688 -42.809  1.00  0.00     0.115 A 
ATOM     15  C   UNL     1      10.741  -9.329 -44.410  1.00  0.00     0.022 A 
ATOM     16  C   UNL     1      10.104  -8.116 -44.131  1.00  0.00     0.047 A 
BRANCH  14  17
ATOM     17  O   UNL     1       9.312  -6.478 -42.546  1.00  0.00    -0.508 OA
ATOM     18  H   UNL     1       9.708  -5.595 -42.846  1.00  0.00     0.293 HD
ENDBRANCH  14  17
ENDBRANCH   1  11
BRANCH  10  19
ATOM     19  O   UNL     1      13.853 -10.289 -44.605  1.00  0.00    -0.500 OA
ATOM     20  H   UNL     1      13.341  -9.475 -44.923  1.00  0.00     0.294 HD
ENDBRANCH  10  19
BRANCH   5  21
ATOM     21  O   UNL     1      10.923 -17.298 -42.992  1.00  0.00    -0.507 OA
ATOM     22  H   UNL     1       9.993 -17.233 -42.594  1.00  0.00     0.293 HD
ENDBRANCH   5  21
BRANCH   7  23
ATOM     23  O   UNL     1      14.949 -15.403 -44.790  1.00  0.00    -0.507 OA
ATOM     24  H   UNL     1      15.744 -15.724 -44.257  1.00  0.00     0.293 HD
ENDBRANCH   7  23
TORSDOF 5
ENDMDL
MODEL 5
REMARK VINA RESULT:    -5.754     12.202     14.552
REMARK INTER + INTRA:          -7.085
REMARK INTER:                  -6.949
REMARK INTRA:                  -0.136
REMARK UNBOUND:                -0.321
REMARK SMILES Oc1ccc(-c2[o+]c3cc(O)cc(O)c3cc2O)cc1
REMARK SMILES IDX 6 1 7 2 8 3 9 4 10 5 12 6 13 7 15 8 16 9 17 10 5 11 4 12
REMARK SMILES IDX 3 13 2 14 19 15 20 16 1 17 18 19 11 21 14 23
REMARK H PARENT 1 18 18 20 11 22 14 24
REMARK Flexibility Score: inf
ROOT
ATOM      1  C   UNL     1       6.821 -19.355 -36.342  1.00  0.00     0.401 A 
ATOM      2  O   UNL     1       6.385 -18.689 -35.275  1.00  0.00    -0.202 OA
ATOM      3  C   UNL     1       5.732 -17.534 -35.354  1.00  0.00     0.368 A 
ATOM      4  C   UNL     1       5.311 -16.911 -34.176  1.00  0.00     0.162 A 
ATOM      5  C   UNL     1       4.619 -15.697 -34.229  1.00  0.00     0.128 A 
ATOM      6  C   UNL     1       4.346 -15.106 -35.465  1.00  0.00     0.093 A 
ATOM      7  C   UNL     1       4.757 -15.711 -36.659  1.00  0.00     0.136 A 
ATOM      8  C   UNL     1       5.462 -16.942 -36.610  1.00  0.00     0.125 A 
ATOM      9  C   UNL     1       5.924 -17.612 -37.755  1.00  0.00     0.078 A 
ATOM     10  C   UNL     1       6.616 -18.820 -37.627  1.00  0.00     0.223 A 
ENDROOT
BRANCH   1  11
ATOM     11  C   UNL     1       7.528 -20.638 -36.125  1.00  0.00     0.084 A 
ATOM     12  C   UNL     1       8.656 -20.673 -35.288  1.00  0.00     0.022 A 
ATOM     13  C   UNL     1       9.326 -21.877 -35.051  1.00  0.00     0.047 A 
ATOM     14  C   UNL     1       8.868 -23.064 -35.637  1.00  0.00     0.115 A 
ATOM     15  C   UNL     1       7.062 -21.838 -36.693  1.00  0.00     0.022 A 
ATOM     16  C   UNL     1       7.734 -23.041 -36.455  1.00  0.00     0.047 A 
BRANCH  14  17
ATOM     17  O   UNL     1       9.528 -24.270 -35.410  1.00  0.00    -0.508 OA
ATOM     18  H   UNL     1      10.253 -24.601 -36.035  1.00  0.00     0.293 HD
ENDBRANCH  14  17
ENDBRANCH   1  11
BRANCH  10  19
ATOM     19  O   UNL     1       7.118 -19.461 -38.760  1.00  0.00    -0.500 OA
ATOM     20  H   UNL     1       8.098 -19.406 -39.013  1.00  0.00     0.294 HD
ENDBRANCH  10  19
BRANCH   5  21
ATOM     21  O   UNL     1       4.196 -15.069 -33.060  1.00  0.00    -0.507 OA
ATOM     22  H   UNL     1       4.216 -14.060 -32.964  1.00  0.00     0.293 HD
ENDBRANCH   5  21
BRANCH   7  23
ATOM     23  O   UNL     1       4.442 -15.057 -37.853  1.00  0.00    -0.507 OA
ATOM     24  H   UNL     1       4.568 -14.068 -38.013  1.00  0.00     0.293 HD
ENDBRANCH   7  23
TORSDOF 5
ENDMDL
MODEL 6
REMARK VINA RESULT:    -5.668     10.512     13.091
REMARK INTER + INTRA:          -6.983
REMARK INTER:                  -6.677
REMARK INTRA:                  -0.305
REMARK UNBOUND:                -0.321
REMARK SMILES Oc1ccc(-c2[o+]c3cc(O)cc(O)c3cc2O)cc1
REMARK SMILES IDX 6 1 7 2 8 3 9 4 10 5 12 6 13 7 15 8 16 9 17 10 5 11 4 12
REMARK SMILES IDX 3 13 2 14 19 15 20 16 1 17 18 19 11 21 14 23
REMARK H PARENT 1 18 18 20 11 22 14 24
REMARK Flexibility Score: inf
ROOT
ATOM      1  C   UNL     1      15.048 -22.056 -39.904  1.00  0.00     0.401 A 
ATOM      2  O   UNL     1      14.115 -21.240 -39.420  1.00  0.00    -0.202 OA
ATOM      3  C   UNL     1      13.109 -21.655 -38.656  1.00  0.00     0.368 A 
ATOM      4  C   UNL     1      12.179 -20.720 -38.191  1.00  0.00     0.162 A 
ATOM      5  C   UNL     1      11.113 -21.129 -37.383  1.00  0.00     0.128 A 
ATOM      6  C   UNL     1      10.978 -22.475 -37.039  1.00  0.00     0.093 A 
ATOM      7  C   UNL     1      11.896 -23.431 -37.492  1.00  0.00     0.136 A 
ATOM      8  C   UNL     1      12.979 -23.022 -38.314  1.00  0.00     0.125 A 
ATOM      9  C   UNL     1      13.939 -23.911 -38.824  1.00  0.00     0.078 A 
ATOM     10  C   UNL     1      14.976 -23.434 -39.633  1.00  0.00     0.223 A 
ENDROOT
BRANCH   1  11
ATOM     11  C   UNL     1      16.125 -21.471 -40.736  1.00  0.00     0.084 A 
ATOM     12  C   UNL     1      15.854 -21.114 -42.068  1.00  0.00     0.022 A 
ATOM     13  C   UNL     1      16.850 -20.541 -42.865  1.00  0.00     0.047 A 
ATOM     14  C   UNL     1      18.124 -20.303 -42.334  1.00  0.00     0.115 A 
ATOM     15  C   UNL     1      17.402 -21.209 -40.205  1.00  0.00     0.022 A 
ATOM     16  C   UNL     1      18.395 -20.636 -41.004  1.00  0.00     0.047 A 
BRANCH  14  17
ATOM     17  O   UNL     1      19.125 -19.733 -43.119  1.00  0.00    -0.508 OA
ATOM     18  H   UNL     1      18.966 -18.879 -43.641  1.00  0.00     0.293 HD
ENDBRANCH  14  17
ENDBRANCH   1  11
BRANCH  10  19
ATOM     19  O   UNL     1      15.901 -24.324 -40.181  1.00  0.00    -0.500 OA
ATOM     20  H   UNL     1      16.504 -24.058 -40.950  1.00  0.00     0.294 HD
ENDBRANCH  10  19
BRANCH   5  21
ATOM     21  O   UNL     1      10.182 -20.204 -36.916  1.00  0.00    -0.507 OA
ATOM     22  H   UNL     1       9.186 -20.390 -36.953  1.00  0.00     0.293 HD
ENDBRANCH   5  21
BRANCH   7  23
ATOM     23  O   UNL     1      11.692 -24.757 -37.100  1.00  0.00    -0.507 OA
ATOM     24  H   UNL     1      12.420 -25.453 -37.042  1.00  0.00     0.293 HD
ENDBRANCH   7  23
TORSDOF 5
ENDMDL
MODEL 7
REMARK VINA RESULT:    -5.664      4.043      6.367
REMARK INTER + INTRA:          -6.978
REMARK INTER:                  -6.672
REMARK INTRA:                  -0.307
REMARK UNBOUND:                -0.321
REMARK SMILES Oc1ccc(-c2[o+]c3cc(O)cc(O)c3cc2O)cc1
REMARK SMILES IDX 6 1 7 2 8 3 9 4 10 5 12 6 13 7 15 8 16 9 17 10 5 11 4 12
REMARK SMILES IDX 3 13 2 14 19 15 20 16 1 17 18 19 11 21 14 23
REMARK H PARENT 1 18 18 20 11 22 14 24
REMARK Flexibility Score: inf
ROOT
ATOM      1  C   UNL     1       8.751 -12.643 -45.607  1.00  0.00     0.401 A 
ATOM      2  O   UNL     1       9.977 -13.041 -45.277  1.00  0.00    -0.202 OA
ATOM      3  C   UNL     1      10.930 -12.206 -44.871  1.00  0.00     0.368 A 
ATOM      4  C   UNL     1      12.187 -12.720 -44.543  1.00  0.00     0.162 A 
ATOM      5  C   UNL     1      13.206 -11.865 -44.111  1.00  0.00     0.128 A 
ATOM      6  C   UNL     1      12.966 -10.494 -44.006  1.00  0.00     0.093 A 
ATOM      7  C   UNL     1      11.714  -9.955 -44.328  1.00  0.00     0.136 A 
ATOM      8  C   UNL     1      10.677 -10.818 -44.770  1.00  0.00     0.125 A 
ATOM      9  C   UNL     1       9.396 -10.365 -45.127  1.00  0.00     0.078 A 
ATOM     10  C   UNL     1       8.426 -11.275 -45.559  1.00  0.00     0.223 A 
ENDROOT
BRANCH   1  11
ATOM     11  C   UNL     1       7.774 -13.671 -46.035  1.00  0.00     0.084 A 
ATOM     12  C   UNL     1       7.859 -14.209 -47.331  1.00  0.00     0.022 A 
ATOM     13  C   UNL     1       6.960 -15.195 -47.749  1.00  0.00     0.047 A 
ATOM     14  C   UNL     1       5.976 -15.668 -46.871  1.00  0.00     0.115 A 
ATOM     15  C   UNL     1       6.796 -14.166 -45.153  1.00  0.00     0.022 A 
ATOM     16  C   UNL     1       5.899 -15.153 -45.574  1.00  0.00     0.047 A 
BRANCH  14  17
ATOM     17  O   UNL     1       5.075 -16.650 -47.276  1.00  0.00    -0.508 OA
ATOM     18  H   UNL     1       5.280 -17.636 -47.162  1.00  0.00     0.293 HD
ENDBRANCH  14  17
ENDBRANCH   1  11
BRANCH  10  19
ATOM     19  O   UNL     1       7.170 -10.820 -45.962  1.00  0.00    -0.500 OA
ATOM     20  H   UNL     1       7.063  -9.998 -46.544  1.00  0.00     0.294 HD
ENDBRANCH  10  19
BRANCH   5  21
ATOM     21  O   UNL     1      14.462 -12.369 -43.782  1.00  0.00    -0.507 OA
ATOM     22  H   UNL     1      14.579 -13.078 -43.067  1.00  0.00     0.293 HD
ENDBRANCH   5  21
BRANCH   7  23
ATOM     23  O   UNL     1      11.553  -8.573 -44.193  1.00  0.00    -0.507 OA
ATOM     24  H   UNL     1      11.511  -8.087 -43.309  1.00  0.00     0.293 HD
ENDBRANCH   7  23
TORSDOF 5
ENDMDL
MODEL 8
REMARK VINA RESULT:    -5.616      2.643      6.334
REMARK INTER + INTRA:          -6.922
REMARK INTER:                  -6.674
REMARK INTRA:                  -0.248
REMARK UNBOUND:                -0.321
REMARK SMILES Oc1ccc(-c2[o+]c3cc(O)cc(O)c3cc2O)cc1
REMARK SMILES IDX 6 1 7 2 8 3 9 4 10 5 12 6 13 7 15 8 16 9 17 10 5 11 4 12
REMARK SMILES IDX 3 13 2 14 19 15 20 16 1 17 18 19 11 21 14 23
REMARK H PARENT 1 18 18 20 11 22 14 24
REMARK Flexibility Score: inf
ROOT
ATOM      1  C   UNL     1      12.635 -12.986 -44.504  1.00  0.00     0.401 A 
ATOM      2  O   UNL     1      11.791 -12.030 -44.884  1.00  0.00    -0.202 OA
ATOM      3  C   UNL     1      10.497 -12.243 -45.099  1.00  0.00     0.368 A 
ATOM      4  C   UNL     1       9.689 -11.172 -45.493  1.00  0.00     0.162 A 
ATOM      5  C   UNL     1       8.323 -11.367 -45.723  1.00  0.00     0.128 A 
ATOM      6  C   UNL     1       7.765 -12.636 -45.557  1.00  0.00     0.093 A 
ATOM      7  C   UNL     1       8.553 -13.725 -45.161  1.00  0.00     0.136 A 
ATOM      8  C   UNL     1       9.940 -13.532 -44.929  1.00  0.00     0.125 A 
ATOM      9  C   UNL     1      10.808 -14.567 -44.544  1.00  0.00     0.078 A 
ATOM     10  C   UNL     1      12.166 -14.302 -44.338  1.00  0.00     0.223 A 
ENDROOT
BRANCH   1  11
ATOM     11  C   UNL     1      14.054 -12.621 -44.286  1.00  0.00     0.084 A 
ATOM     12  C   UNL     1      15.012 -12.967 -45.254  1.00  0.00     0.022 A 
ATOM     13  C   UNL     1      16.354 -12.614 -45.079  1.00  0.00     0.047 A 
ATOM     14  C   UNL     1      16.751 -11.897 -43.943  1.00  0.00     0.115 A 
ATOM     15  C   UNL     1      14.457 -11.883 -43.158  1.00  0.00     0.022 A 
ATOM     16  C   UNL     1      15.799 -11.531 -42.987  1.00  0.00     0.047 A 
BRANCH  14  17
ATOM     17  O   UNL     1      18.085 -11.541 -43.758  1.00  0.00    -0.508 OA
ATOM     18  H   UNL     1      18.409 -10.596 -43.931  1.00  0.00     0.293 HD
ENDBRANCH  14  17
ENDBRANCH   1  11
BRANCH  10  19
ATOM     19  O   UNL     1      13.038 -15.339 -44.005  1.00  0.00    -0.500 OA
ATOM     20  H   UNL     1      12.752 -16.310 -44.047  1.00  0.00     0.294 HD
ENDBRANCH  10  19
BRANCH   5  21
ATOM     21  O   UNL     1       7.512 -10.307 -46.117  1.00  0.00    -0.507 OA
ATOM     22  H   UNL     1       6.628 -10.462 -46.589  1.00  0.00     0.293 HD
ENDBRANCH   5  21
BRANCH   7  23
ATOM     23  O   UNL     1       7.917 -14.960 -45.014  1.00  0.00    -0.507 OA
ATOM     24  H   UNL     1       7.424 -15.253 -44.183  1.00  0.00     0.293 HD
ENDBRANCH   7  23
TORSDOF 5
ENDMDL
MODEL 9
REMARK VINA RESULT:    -5.566      1.898      7.266
REMARK INTER + INTRA:          -6.863
REMARK INTER:                  -6.547
REMARK INTRA:                  -0.315
REMARK UNBOUND:                -0.321
REMARK SMILES Oc1ccc(-c2[o+]c3cc(O)cc(O)c3cc2O)cc1
REMARK SMILES IDX 6 1 7 2 8 3 9 4 10 5 12 6 13 7 15 8 16 9 17 10 5 11 4 12
REMARK SMILES IDX 3 13 2 14 19 15 20 16 1 17 18 19 11 21 14 23
REMARK H PARENT 1 18 18 20 11 22 14 24
REMARK Flexibility Score: inf
ROOT
ATOM      1  C   UNL     1      12.843 -12.775 -44.713  1.00  0.00     0.401 A 
ATOM      2  O   UNL     1      11.619 -12.654 -45.221  1.00  0.00    -0.202 OA
ATOM      3  C   UNL     1      10.844 -11.593 -45.011  1.00  0.00     0.368 A 
ATOM      4  C   UNL     1       9.573 -11.556 -45.591  1.00  0.00     0.162 A 
ATOM      5  C   UNL     1       8.739 -10.452 -45.389  1.00  0.00     0.128 A 
ATOM      6  C   UNL     1       9.179  -9.382 -44.607  1.00  0.00     0.093 A 
ATOM      7  C   UNL     1      10.449  -9.395 -44.016  1.00  0.00     0.136 A 
ATOM      8  C   UNL     1      11.298 -10.515 -44.215  1.00  0.00     0.125 A 
ATOM      9  C   UNL     1      12.580 -10.621 -43.651  1.00  0.00     0.078 A 
ATOM     10  C   UNL     1      13.358 -11.759 -43.889  1.00  0.00     0.223 A 
ENDROOT
BRANCH   1  11
ATOM     11  C   UNL     1      13.612 -14.002 -45.027  1.00  0.00     0.084 A 
ATOM     12  C   UNL     1      14.516 -13.994 -46.103  1.00  0.00     0.022 A 
ATOM     13  C   UNL     1      15.268 -15.134 -46.404  1.00  0.00     0.047 A 
ATOM     14  C   UNL     1      15.137 -16.290 -45.623  1.00  0.00     0.115 A 
ATOM     15  C   UNL     1      13.501 -15.160 -44.235  1.00  0.00     0.022 A 
ATOM     16  C   UNL     1      14.255 -16.298 -44.539  1.00  0.00     0.047 A 
BRANCH  14  17
ATOM     17  O   UNL     1      15.881 -17.431 -45.915  1.00  0.00    -0.508 OA
ATOM     18  H   UNL     1      16.882 -17.386 -46.068  1.00  0.00     0.293 HD
ENDBRANCH  14  17
ENDBRANCH   1  11
BRANCH  10  19
ATOM     19  O   UNL     1      14.611 -11.886 -43.289  1.00  0.00    -0.500 OA
ATOM     20  H   UNL     1      14.740 -11.756 -42.292  1.00  0.00     0.294 HD
ENDBRANCH  10  19
BRANCH   5  21
ATOM     21  O   UNL     1       7.471 -10.407 -45.962  1.00  0.00    -0.507 OA
ATOM     22  H   UNL     1       7.068 -11.215 -46.423  1.00  0.00     0.293 HD
ENDBRANCH   5  21
BRANCH   7  23
ATOM     23  O   UNL     1      10.815  -8.284 -43.251  1.00  0.00    -0.507 OA
ATOM     24  H   UNL     1      11.665  -8.219 -42.711  1.00  0.00     0.293 HD
ENDBRANCH   7  23
TORSDOF 5
ENDMDL
