MODEL 1
REMARK VINA RESULT:    10.675      0.000      0.000
REMARK INTER + INTRA:          12.233
REMARK INTER:                  12.547
REMARK INTRA:                  -0.314
REMARK UNBOUND:                -0.314
REMARK SMILES Oc1ccc(-c2[o+]c3cc(O)cc(O)c3cc2O)cc1
REMARK SMILES IDX 6 1 7 2 8 3 9 4 10 5 12 6 13 7 15 8 16 9 17 10 5 11 4 12
REMARK SMILES IDX 3 13 2 14 19 15 20 16 1 17 18 19 11 21 14 23
REMARK H PARENT 1 18 18 20 11 22 14 24
REMARK Flexibility Score: inf
ROOT
ATOM      1  C   UNL     1      90.702  17.864 120.321  1.00  0.00     0.401 A 
ATOM      2  O   UNL     1      89.511  17.281 120.445  1.00  0.00    -0.202 OA
ATOM      3  C   UNL     1      88.388  17.958 120.664  1.00  0.00     0.368 A 
ATOM      4  C   UNL     1      87.176  17.270 120.776  1.00  0.00     0.162 A 
ATOM      5  C   UNL     1      85.985  17.973 121.003  1.00  0.00     0.128 A 
ATOM      6  C   UNL     1      86.009  19.367 121.118  1.00  0.00     0.093 A 
ATOM      7  C   UNL     1      87.218  20.071 121.008  1.00  0.00     0.136 A 
ATOM      8  C   UNL     1      88.414  19.365 120.779  1.00  0.00     0.125 A 
ATOM      9  C   UNL     1      89.650  20.013 120.669  1.00  0.00     0.078 A 
ATOM     10  C   UNL     1      90.809  19.265 120.449  1.00  0.00     0.223 A 
ENDROOT
BRANCH   1  11
ATOM     11  C   UNL     1      91.881  17.004 120.070  1.00  0.00     0.084 A 
ATOM     12  C   UNL     1      92.686  16.537 121.125  1.00  0.00     0.022 A 
ATOM     13  C   UNL     1      93.808  15.744 120.859  1.00  0.00     0.047 A 
ATOM     14  C   UNL     1      94.148  15.424 119.542  1.00  0.00     0.115 A 
ATOM     15  C   UNL     1      92.240  16.695 118.747  1.00  0.00     0.022 A 
ATOM     16  C   UNL     1      93.363  15.902 118.486  1.00  0.00     0.047 A 
BRANCH  14  17
ATOM     17  O   UNL     1      95.268  14.633 119.293  1.00  0.00    -0.508 OA
ATOM     18  H   UNL     1      95.320  13.673 119.614  1.00  0.00     0.293 HD
ENDBRANCH  14  17
ENDBRANCH   1  11
BRANCH  10  19
ATOM     19  O   UNL     1      92.050  19.899 120.389  1.00  0.00    -0.500 OA
ATOM     20  H   UNL     1      92.839  19.577 120.938  1.00  0.00     0.294 HD
ENDBRANCH  10  19
BRANCH   5  21
ATOM     21  O   UNL     1      84.773  17.295 121.117  1.00  0.00    -0.507 OA
ATOM     22  H   UNL     1      84.510  16.822 121.973  1.00  0.00     0.293 HD
ENDBRANCH   5  21
BRANCH   7  23
ATOM     23  O   UNL     1      87.228  21.461 121.125  1.00  0.00    -0.507 OA
ATOM     24  H   UNL     1      86.531  21.953 121.673  1.00  0.00     0.293 HD
ENDBRANCH   7  23
TORSDOF 5
ENDMDL
MODEL 2
REMARK VINA RESULT:    13.129      1.493      6.836
REMARK INTER + INTRA:          15.118
REMARK INTER:                  15.057
REMARK INTRA:                   0.061
REMARK UNBOUND:                -0.314
REMARK SMILES Oc1ccc(-c2[o+]c3cc(O)cc(O)c3cc2O)cc1
REMARK SMILES IDX 6 1 7 2 8 3 9 4 10 5 12 6 13 7 15 8 16 9 17 10 5 11 4 12
REMARK SMILES IDX 3 13 2 14 19 15 20 16 1 17 18 19 11 21 14 23
REMARK H PARENT 1 18 18 20 11 22 14 24
REMARK Flexibility Score: inf
ROOT
ATOM      1  C   UNL     1      91.118  17.607 120.117  1.00  0.00     0.401 A 
ATOM      2  O   UNL     1      91.423  16.382 120.539  1.00  0.00    -0.202 OA
ATOM      3  C   UNL     1      92.615  15.823 120.355  1.00  0.00     0.368 A 
ATOM      4  C   UNL     1      92.856  14.532 120.835  1.00  0.00     0.162 A 
ATOM      5  C   UNL     1      94.110  13.934 120.649  1.00  0.00     0.128 A 
ATOM      6  C   UNL     1      95.123  14.630 119.981  1.00  0.00     0.093 A 
ATOM      7  C   UNL     1      94.895  15.926 119.492  1.00  0.00     0.136 A 
ATOM      8  C   UNL     1      93.635  16.527 119.679  1.00  0.00     0.125 A 
ATOM      9  C   UNL     1      93.349  17.813 119.207  1.00  0.00     0.078 A 
ATOM     10  C   UNL     1      92.080  18.362 119.413  1.00  0.00     0.223 A 
ENDROOT
BRANCH   1  11
ATOM     11  C   UNL     1      89.758  18.125 120.390  1.00  0.00     0.084 A 
ATOM     12  C   UNL     1      88.611  17.358 120.115  1.00  0.00     0.022 A 
ATOM     13  C   UNL     1      87.337  17.879 120.361  1.00  0.00     0.047 A 
ATOM     14  C   UNL     1      87.191  19.174 120.868  1.00  0.00     0.115 A 
ATOM     15  C   UNL     1      89.603  19.433 120.880  1.00  0.00     0.022 A 
ATOM     16  C   UNL     1      88.327  19.951 121.124  1.00  0.00     0.047 A 
BRANCH  14  17
ATOM     17  O   UNL     1      85.915  19.679 121.108  1.00  0.00    -0.508 OA
ATOM     18  H   UNL     1      85.113  19.369 120.572  1.00  0.00     0.293 HD
ENDBRANCH  14  17
ENDBRANCH   1  11
BRANCH  10  19
ATOM     19  O   UNL     1      91.772  19.621 118.901  1.00  0.00    -0.500 OA
ATOM     20  H   UNL     1      92.459  20.366 118.869  1.00  0.00     0.294 HD
ENDBRANCH  10  19
BRANCH   5  21
ATOM     21  O   UNL     1      94.359  12.648 121.124  1.00  0.00    -0.507 OA
ATOM     22  H   UNL     1      93.804  12.242 121.868  1.00  0.00     0.293 HD
ENDBRANCH   5  21
BRANCH   7  23
ATOM     23  O   UNL     1      95.912  16.609 118.826  1.00  0.00    -0.507 OA
ATOM     24  H   UNL     1      95.712  17.377 118.196  1.00  0.00     0.293 HD
ENDBRANCH   7  23
TORSDOF 5
ENDMDL
