MODEL 1
REMARK VINA RESULT:    -3.409      0.000      0.000
REMARK INTER + INTRA:          -4.821
REMARK INTER:                  -4.704
REMARK INTRA:                  -0.117
REMARK UNBOUND:                -0.117
REMARK SMILES CC[C@@H](CC[C@H](C)[C@@H]1CC[C@@H]2[C@@H]3CC=C4C[C@@H](O)CC[C@@]4(C)[C@@H]3CC[C@@]21C)C(C)C
REMARK SMILES IDX 5 1 4 2 3 3 2 4 1 5 28 6 29 7 30 8 6 9 7 10 8 11 9 12 26 13
REMARK SMILES IDX 10 14 11 15 25 16 27 17 12 18 24 19 23 20 13 21 21 22 14 23
REMARK SMILES IDX 15 24 20 25 22 26 16 27 19 28 17 29 18 30
REMARK H PARENT 18 31
REMARK Flexibility Score: inf
ROOT
ATOM      1  C   UNL     1      -9.129  -6.806  18.315  1.00  0.00     0.004 C 
ENDROOT
BRANCH   1   2
ATOM      2  C   UNL     1      -9.853  -7.932  19.085  1.00  0.00     0.004 C 
BRANCH   2   3
ATOM      3  C   UNL     1      -9.370  -8.119  20.551  1.00  0.00    -0.009 C 
BRANCH   3   4
ATOM      4  C   UNL     1     -10.591  -8.125  21.525  1.00  0.00     0.000 C 
ATOM      5  C   UNL     1     -11.907  -7.794  20.819  1.00  0.00     0.004 C 
ENDBRANCH   3   4
BRANCH   3   6
ATOM      6  C   UNL     1      -8.267  -7.091  20.978  1.00  0.00    -0.014 C 
ATOM      7  C   UNL     1      -8.746  -6.183  22.125  1.00  0.00     0.007 C 
ATOM      8  C   UNL     1      -6.965  -7.787  21.417  1.00  0.00     0.007 C 
ENDBRANCH   3   6
ENDBRANCH   2   3
ENDBRANCH   1   2
BRANCH   1   9
ATOM      9  C   UNL     1     -10.139  -5.764  17.729  1.00  0.00    -0.011 C 
ATOM     10  C   UNL     1     -10.891  -6.449  16.562  1.00  0.00     0.008 C 
BRANCH   9  11
ATOM     11  C   UNL     1      -9.405  -4.431  17.311  1.00  0.00    -0.002 C 
ATOM     12  C   UNL     1      -8.909  -4.496  15.847  1.00  0.00     0.005 C 
ATOM     13  C   UNL     1      -8.152  -3.900  18.148  1.00  0.00    -0.026 C 
ATOM     14  C   UNL     1      -7.411  -4.606  15.906  1.00  0.00     0.005 C 
ATOM     15  C   UNL     1      -6.998  -3.759  17.099  1.00  0.00    -0.001 C 
ATOM     16  C   UNL     1      -7.682  -4.811  19.316  1.00  0.00     0.007 C 
ATOM     17  C   UNL     1      -8.543  -2.514  18.736  1.00  0.00     0.012 C 
ATOM     18  C   UNL     1      -5.528  -4.029  17.585  1.00  0.00     0.000 C 
ATOM     19  C   UNL     1      -6.320  -4.433  19.951  1.00  0.00     0.005 C 
ATOM     20  C   UNL     1      -5.355  -3.604  19.054  1.00  0.00     0.003 C 
ATOM     21  C   UNL     1      -5.002  -5.471  17.403  1.00  0.00     0.031 C 
ATOM     22  C   UNL     1      -3.841  -3.654  19.513  1.00  0.00    -0.008 C 
ATOM     23  C   UNL     1      -3.625  -5.652  17.977  1.00  0.00    -0.027 C 
ATOM     24  C   UNL     1      -3.108  -4.878  18.956  1.00  0.00    -0.065 C 
ATOM     25  C   UNL     1      -3.086  -2.390  18.981  1.00  0.00     0.014 C 
ATOM     26  C   UNL     1      -3.761  -3.646  21.068  1.00  0.00     0.016 C 
ATOM     27  C   UNL     1      -1.626  -4.977  19.243  1.00  0.00     0.063 C 
ATOM     28  C   UNL     1      -1.553  -2.438  19.191  1.00  0.00     0.033 C 
ATOM     29  C   UNL     1      -0.917  -3.740  18.666  1.00  0.00     0.118 C 
BRANCH  29  30
ATOM     30  O   UNL     1      -0.978  -3.754  17.262  1.00  0.00    -0.393 OA
ATOM     31  H   UNL     1      -1.503  -2.956  16.991  1.00  0.00     0.210 HD
ENDBRANCH  29  30
ENDBRANCH   9  11
ENDBRANCH   1   9
TORSDOF 7
ENDMDL
MODEL 2
REMARK VINA RESULT:    -2.818      2.675      7.167
REMARK INTER + INTRA:          -4.006
REMARK INTER:                  -3.514
REMARK INTRA:                  -0.492
REMARK UNBOUND:                -0.117
REMARK SMILES CC[C@@H](CC[C@H](C)[C@@H]1CC[C@@H]2[C@@H]3CC=C4C[C@@H](O)CC[C@@]4(C)[C@@H]3CC[C@@]21C)C(C)C
REMARK SMILES IDX 5 1 4 2 3 3 2 4 1 5 28 6 29 7 30 8 6 9 7 10 8 11 9 12 26 13
REMARK SMILES IDX 10 14 11 15 25 16 27 17 12 18 24 19 23 20 13 21 21 22 14 23
REMARK SMILES IDX 15 24 20 25 22 26 16 27 19 28 17 29 18 30
REMARK H PARENT 18 31
REMARK Flexibility Score: inf
ROOT
ATOM      1  C   UNL     1      -3.287  -3.140  16.626  1.00  0.00     0.004 C 
ENDROOT
BRANCH   1   2
ATOM      2  C   UNL     1      -3.213  -4.004  15.348  1.00  0.00     0.004 C 
BRANCH   2   3
ATOM      3  C   UNL     1      -4.557  -4.121  14.575  1.00  0.00    -0.009 C 
BRANCH   3   4
ATOM      4  C   UNL     1      -4.471  -3.344  13.223  1.00  0.00     0.000 C 
ATOM      5  C   UNL     1      -4.475  -4.275  12.009  1.00  0.00     0.004 C 
ENDBRANCH   3   4
BRANCH   3   6
ATOM      6  C   UNL     1      -5.804  -3.705  15.428  1.00  0.00    -0.014 C 
ATOM      7  C   UNL     1      -6.596  -2.566  14.763  1.00  0.00     0.007 C 
ATOM      8  C   UNL     1      -6.760  -4.888  15.672  1.00  0.00     0.007 C 
ENDBRANCH   3   6
ENDBRANCH   2   3
ENDBRANCH   1   2
BRANCH   1   9
ATOM      9  C   UNL     1      -1.971  -3.235  17.466  1.00  0.00    -0.011 C 
ATOM     10  C   UNL     1      -1.098  -4.351  16.840  1.00  0.00     0.008 C 
BRANCH   9  11
ATOM     11  C   UNL     1      -2.285  -3.464  18.995  1.00  0.00    -0.002 C 
ATOM     12  C   UNL     1      -1.768  -4.840  19.477  1.00  0.00     0.005 C 
ATOM     13  C   UNL     1      -3.785  -3.374  19.535  1.00  0.00    -0.026 C 
ATOM     14  C   UNL     1      -2.981  -5.698  19.707  1.00  0.00     0.005 C 
ATOM     15  C   UNL     1      -4.042  -4.749  20.241  1.00  0.00    -0.001 C 
ATOM     16  C   UNL     1      -4.880  -3.132  18.459  1.00  0.00     0.007 C 
ATOM     17  C   UNL     1      -3.839  -2.203  20.558  1.00  0.00     0.012 C 
ATOM     18  C   UNL     1      -5.498  -5.338  20.191  1.00  0.00     0.000 C 
ATOM     19  C   UNL     1      -6.342  -3.309  18.941  1.00  0.00     0.005 C 
ATOM     20  C   UNL     1      -6.542  -4.207  20.197  1.00  0.00     0.003 C 
ATOM     21  C   UNL     1      -5.802  -6.311  19.029  1.00  0.00     0.031 C 
ATOM     22  C   UNL     1      -8.016  -4.759  20.369  1.00  0.00    -0.008 C 
ATOM     23  C   UNL     1      -7.239  -6.749  19.014  1.00  0.00    -0.027 C 
ATOM     24  C   UNL     1      -8.250  -6.042  19.567  1.00  0.00    -0.065 C 
ATOM     25  C   UNL     1      -8.276  -5.109  21.872  1.00  0.00     0.014 C 
ATOM     26  C   UNL     1      -9.040  -3.669  19.941  1.00  0.00     0.016 C 
ATOM     27  C   UNL     1      -9.592  -6.720  19.736  1.00  0.00     0.063 C 
ATOM     28  C   UNL     1      -9.610  -5.852  22.124  1.00  0.00     0.033 C 
ATOM     29  C   UNL     1      -9.788  -7.086  21.218  1.00  0.00     0.118 C 
BRANCH  29  30
ATOM     30  O   UNL     1      -8.871  -8.080  21.600  1.00  0.00    -0.393 OA
ATOM     31  H   UNL     1      -8.871  -8.762  20.879  1.00  0.00     0.210 HD
ENDBRANCH  29  30
ENDBRANCH   9  11
ENDBRANCH   1   9
TORSDOF 7
ENDMDL
MODEL 3
REMARK VINA RESULT:    -2.721      1.355      3.968
REMARK INTER + INTRA:          -3.872
REMARK INTER:                  -3.371
REMARK INTRA:                  -0.501
REMARK UNBOUND:                -0.117
REMARK SMILES CC[C@@H](CC[C@H](C)[C@@H]1CC[C@@H]2[C@@H]3CC=C4C[C@@H](O)CC[C@@]4(C)[C@@H]3CC[C@@]21C)C(C)C
REMARK SMILES IDX 5 1 4 2 3 3 2 4 1 5 28 6 29 7 30 8 6 9 7 10 8 11 9 12 26 13
REMARK SMILES IDX 10 14 11 15 25 16 27 17 12 18 24 19 23 20 13 21 21 22 14 23
REMARK SMILES IDX 15 24 20 25 22 26 16 27 19 28 17 29 18 30
REMARK H PARENT 18 31
REMARK Flexibility Score: inf
ROOT
ATOM      1  C   UNL     1      -9.140  -7.580  19.143  1.00  0.00     0.004 C 
ENDROOT
BRANCH   1   2
ATOM      2  C   UNL     1      -9.646  -6.135  18.936  1.00  0.00     0.004 C 
BRANCH   2   3
ATOM      3  C   UNL     1     -10.100  -5.817  17.484  1.00  0.00    -0.009 C 
BRANCH   3   4
ATOM      4  C   UNL     1     -10.655  -7.105  16.798  1.00  0.00     0.000 C 
ATOM      5  C   UNL     1     -12.118  -6.962  16.375  1.00  0.00     0.004 C 
ENDBRANCH   3   4
BRANCH   3   6
ATOM      6  C   UNL     1      -8.995  -5.109  16.627  1.00  0.00    -0.014 C 
ATOM      7  C   UNL     1      -8.815  -3.636  17.033  1.00  0.00     0.007 C 
ATOM      8  C   UNL     1      -7.632  -5.818  16.739  1.00  0.00     0.007 C 
ENDBRANCH   3   6
ENDBRANCH   2   3
ENDBRANCH   1   2
BRANCH   1   9
ATOM      9  C   UNL     1      -9.392  -8.078  20.605  1.00  0.00    -0.011 C 
ATOM     10  C   UNL     1     -10.870  -7.771  20.953  1.00  0.00     0.008 C 
BRANCH   9  11
ATOM     11  C   UNL     1      -8.361  -7.436  21.612  1.00  0.00    -0.002 C 
ATOM     12  C   UNL     1      -8.854  -6.063  22.125  1.00  0.00     0.005 C 
ATOM     13  C   UNL     1      -6.844  -7.193  21.171  1.00  0.00    -0.026 C 
ATOM     14  C   UNL     1      -7.974  -5.025  21.485  1.00  0.00     0.005 C 
ATOM     15  C   UNL     1      -6.597  -5.664  21.408  1.00  0.00    -0.001 C 
ATOM     16  C   UNL     1      -6.501  -7.551  19.699  1.00  0.00     0.007 C 
ATOM     17  C   UNL     1      -5.948  -8.054  22.106  1.00  0.00     0.012 C 
ATOM     18  C   UNL     1      -5.610  -4.922  20.436  1.00  0.00     0.000 C 
ATOM     19  C   UNL     1      -5.114  -7.071  19.201  1.00  0.00     0.005 C 
ATOM     20  C   UNL     1      -4.491  -5.869  19.971  1.00  0.00     0.003 C 
ATOM     21  C   UNL     1      -6.249  -4.238  19.205  1.00  0.00     0.031 C 
ATOM     22  C   UNL     1      -3.359  -5.104  19.171  1.00  0.00    -0.008 C 
ATOM     23  C   UNL     1      -5.220  -3.634  18.292  1.00  0.00    -0.027 C 
ATOM     24  C   UNL     1      -3.934  -4.043  18.229  1.00  0.00    -0.065 C 
ATOM     25  C   UNL     1      -2.415  -4.361  20.173  1.00  0.00     0.014 C 
ATOM     26  C   UNL     1      -2.503  -6.125  18.365  1.00  0.00     0.016 C 
ATOM     27  C   UNL     1      -2.940  -3.176  17.488  1.00  0.00     0.063 C 
ATOM     28  C   UNL     1      -1.398  -3.411  19.494  1.00  0.00     0.033 C 
ATOM     29  C   UNL     1      -2.063  -2.430  18.509  1.00  0.00     0.118 C 
BRANCH  29  30
ATOM     30  O   UNL     1      -2.834  -1.500  19.227  1.00  0.00    -0.393 OA
ATOM     31  H   UNL     1      -2.218  -0.775  19.510  1.00  0.00     0.210 HD
ENDBRANCH  29  30
ENDBRANCH   9  11
ENDBRANCH   1   9
TORSDOF 7
ENDMDL
MODEL 4
REMARK VINA RESULT:    -2.565      2.375      5.047
REMARK INTER + INTRA:          -3.656
REMARK INTER:                  -2.664
REMARK INTRA:                  -0.992
REMARK UNBOUND:                -0.117
REMARK SMILES CC[C@@H](CC[C@H](C)[C@@H]1CC[C@@H]2[C@@H]3CC=C4C[C@@H](O)CC[C@@]4(C)[C@@H]3CC[C@@]21C)C(C)C
REMARK SMILES IDX 5 1 4 2 3 3 2 4 1 5 28 6 29 7 30 8 6 9 7 10 8 11 9 12 26 13
REMARK SMILES IDX 10 14 11 15 25 16 27 17 12 18 24 19 23 20 13 21 21 22 14 23
REMARK SMILES IDX 15 24 20 25 22 26 16 27 19 28 17 29 18 30
REMARK H PARENT 18 31
REMARK Flexibility Score: inf
ROOT
ATOM      1  C   UNL     1      -6.413  -4.120  21.341  1.00  0.00     0.004 C 
ENDROOT
BRANCH   1   2
ATOM      2  C   UNL     1      -5.081  -4.870  21.568  1.00  0.00     0.004 C 
BRANCH   2   3
ATOM      3  C   UNL     1      -4.454  -5.465  20.275  1.00  0.00    -0.009 C 
BRANCH   3   4
ATOM      4  C   UNL     1      -3.839  -6.870  20.572  1.00  0.00     0.000 C 
ATOM      5  C   UNL     1      -4.601  -8.002  19.882  1.00  0.00     0.004 C 
ENDBRANCH   3   4
BRANCH   3   6
ATOM      6  C   UNL     1      -3.436  -4.501  19.576  1.00  0.00    -0.014 C 
ATOM      7  C   UNL     1      -3.490  -3.083  20.173  1.00  0.00     0.007 C 
ATOM      8  C   UNL     1      -1.988  -5.017  19.672  1.00  0.00     0.007 C 
ENDBRANCH   3   6
ENDBRANCH   2   3
ENDBRANCH   1   2
BRANCH   1   9
ATOM      9  C   UNL     1      -7.647  -5.052  21.576  1.00  0.00    -0.011 C 
ATOM     10  C   UNL     1      -7.117  -6.399  22.125  1.00  0.00     0.008 C 
BRANCH   9  11
ATOM     11  C   UNL     1      -8.508  -5.201  20.262  1.00  0.00    -0.002 C 
ATOM     12  C   UNL     1      -8.504  -6.660  19.749  1.00  0.00     0.005 C 
ATOM     13  C   UNL     1      -8.183  -4.310  18.977  1.00  0.00    -0.026 C 
ATOM     14  C   UNL     1      -7.671  -6.674  18.498  1.00  0.00     0.005 C 
ATOM     15  C   UNL     1      -7.952  -5.341  17.820  1.00  0.00    -0.001 C 
ATOM     16  C   UNL     1      -6.946  -3.377  19.094  1.00  0.00     0.007 C 
ATOM     17  C   UNL     1      -9.434  -3.430  18.696  1.00  0.00     0.012 C 
ATOM     18  C   UNL     1      -6.910  -4.970  16.704  1.00  0.00     0.000 C 
ATOM     19  C   UNL     1      -6.478  -2.719  17.771  1.00  0.00     0.005 C 
ATOM     20  C   UNL     1      -6.894  -3.451  16.461  1.00  0.00     0.003 C 
ATOM     21  C   UNL     1      -5.464  -5.470  16.924  1.00  0.00     0.031 C 
ATOM     22  C   UNL     1      -6.023  -3.060  15.197  1.00  0.00    -0.008 C 
ATOM     23  C   UNL     1      -4.526  -4.991  15.853  1.00  0.00    -0.027 C 
ATOM     24  C   UNL     1      -4.738  -3.886  15.104  1.00  0.00    -0.065 C 
ATOM     25  C   UNL     1      -6.837  -3.335  13.890  1.00  0.00     0.014 C 
ATOM     26  C   UNL     1      -5.680  -1.542  15.243  1.00  0.00     0.016 C 
ATOM     27  C   UNL     1      -3.875  -3.673  13.879  1.00  0.00     0.063 C 
ATOM     28  C   UNL     1      -6.010  -3.188  12.590  1.00  0.00     0.033 C 
ATOM     29  C   UNL     1      -4.698  -3.997  12.621  1.00  0.00     0.118 C 
BRANCH  29  30
ATOM     30  O   UNL     1      -4.997  -5.369  12.573  1.00  0.00    -0.393 OA
ATOM     31  H   UNL     1      -5.915  -5.449  12.206  1.00  0.00     0.210 HD
ENDBRANCH  29  30
ENDBRANCH   9  11
ENDBRANCH   1   9
TORSDOF 7
ENDMDL
MODEL 5
REMARK VINA RESULT:    -2.070     15.896     19.063
REMARK INTER + INTRA:          -2.973
REMARK INTER:                  -2.952
REMARK INTRA:                  -0.021
REMARK UNBOUND:                -0.117
REMARK SMILES CC[C@@H](CC[C@H](C)[C@@H]1CC[C@@H]2[C@@H]3CC=C4C[C@@H](O)CC[C@@]4(C)[C@@H]3CC[C@@]21C)C(C)C
REMARK SMILES IDX 5 1 4 2 3 3 2 4 1 5 28 6 29 7 30 8 6 9 7 10 8 11 9 12 26 13
REMARK SMILES IDX 10 14 11 15 25 16 27 17 12 18 24 19 23 20 13 21 21 22 14 23
REMARK SMILES IDX 15 24 20 25 22 26 16 27 19 28 17 29 18 30
REMARK H PARENT 18 31
REMARK Flexibility Score: inf
ROOT
ATOM      1  C   UNL     1      -3.078   6.322   3.193  1.00  0.00     0.004 C 
ENDROOT
BRANCH   1   2
ATOM      2  C   UNL     1      -3.528   6.989   1.875  1.00  0.00     0.004 C 
BRANCH   2   3
ATOM      3  C   UNL     1      -4.996   7.502   1.885  1.00  0.00    -0.009 C 
BRANCH   3   4
ATOM      4  C   UNL     1      -5.069   8.916   2.542  1.00  0.00     0.000 C 
ATOM      5  C   UNL     1      -3.954   9.847   2.062  1.00  0.00     0.004 C 
ENDBRANCH   3   4
BRANCH   3   6
ATOM      6  C   UNL     1      -6.005   6.489   2.527  1.00  0.00    -0.014 C 
ATOM      7  C   UNL     1      -7.458   6.983   2.418  1.00  0.00     0.007 C 
ATOM      8  C   UNL     1      -5.914   5.093   1.882  1.00  0.00     0.007 C 
ENDBRANCH   3   6
ENDBRANCH   2   3
ENDBRANCH   1   2
BRANCH   1   9
ATOM      9  C   UNL     1      -1.571   6.606   3.501  1.00  0.00    -0.011 C 
ATOM     10  C   UNL     1      -0.841   6.768   2.145  1.00  0.00     0.008 C 
BRANCH   9  11
ATOM     11  C   UNL     1      -0.954   5.482   4.419  1.00  0.00    -0.002 C 
ATOM     12  C   UNL     1       0.336   4.893   3.799  1.00  0.00     0.005 C 
ATOM     13  C   UNL     1      -1.826   4.211   4.840  1.00  0.00    -0.026 C 
ATOM     14  C   UNL     1      -0.004   3.504   3.337  1.00  0.00     0.005 C 
ATOM     15  C   UNL     1      -0.989   2.974   4.367  1.00  0.00    -0.001 C 
ATOM     16  C   UNL     1      -3.253   4.136   4.228  1.00  0.00     0.007 C 
ATOM     17  C   UNL     1      -1.959   4.234   6.389  1.00  0.00     0.012 C 
ATOM     18  C   UNL     1      -1.773   1.698   3.891  1.00  0.00     0.000 C 
ATOM     19  C   UNL     1      -3.992   2.788   4.420  1.00  0.00     0.005 C 
ATOM     20  C   UNL     1      -3.089   1.545   4.674  1.00  0.00     0.003 C 
ATOM     21  C   UNL     1      -2.064   1.599   2.376  1.00  0.00     0.031 C 
ATOM     22  C   UNL     1      -3.797   0.159   4.382  1.00  0.00    -0.008 C 
ATOM     23  C   UNL     1      -2.892   0.393   2.031  1.00  0.00    -0.027 C 
ATOM     24  C   UNL     1      -3.710  -0.234   2.905  1.00  0.00    -0.065 C 
ATOM     25  C   UNL     1      -3.094  -0.976   5.197  1.00  0.00     0.014 C 
ATOM     26  C   UNL     1      -5.287   0.225   4.829  1.00  0.00     0.016 C 
ATOM     27  C   UNL     1      -4.263  -1.590   2.524  1.00  0.00     0.063 C 
ATOM     28  C   UNL     1      -3.568  -2.403   4.829  1.00  0.00     0.033 C 
ATOM     29  C   UNL     1      -3.514  -2.678   3.313  1.00  0.00     0.118 C 
BRANCH  29  30
ATOM     30  O   UNL     1      -2.173  -2.745   2.899  1.00  0.00    -0.393 OA
ATOM     31  H   UNL     1      -2.158  -3.282   2.065  1.00  0.00     0.210 HD
ENDBRANCH  29  30
ENDBRANCH   9  11
ENDBRANCH   1   9
TORSDOF 7
ENDMDL
MODEL 6
REMARK VINA RESULT:    -1.639      2.635      6.983
REMARK INTER + INTRA:          -2.378
REMARK INTER:                  -2.196
REMARK INTRA:                  -0.182
REMARK UNBOUND:                -0.117
REMARK SMILES CC[C@@H](CC[C@H](C)[C@@H]1CC[C@@H]2[C@@H]3CC=C4C[C@@H](O)CC[C@@]4(C)[C@@H]3CC[C@@]21C)C(C)C
REMARK SMILES IDX 5 1 4 2 3 3 2 4 1 5 28 6 29 7 30 8 6 9 7 10 8 11 9 12 26 13
REMARK SMILES IDX 10 14 11 15 25 16 27 17 12 18 24 19 23 20 13 21 21 22 14 23
REMARK SMILES IDX 15 24 20 25 22 26 16 27 19 28 17 29 18 30
REMARK H PARENT 18 31
REMARK Flexibility Score: inf
ROOT
ATOM      1  C   UNL     1      -2.527  -3.231  19.294  1.00  0.00     0.004 C 
ENDROOT
BRANCH   1   2
ATOM      2  C   UNL     1      -2.549  -4.680  19.828  1.00  0.00     0.004 C 
BRANCH   2   3
ATOM      3  C   UNL     1      -3.093  -4.821  21.278  1.00  0.00    -0.009 C 
BRANCH   3   4
ATOM      4  C   UNL     1      -2.146  -5.728  22.124  1.00  0.00     0.000 C 
ATOM      5  C   UNL     1      -0.948  -6.238  21.321  1.00  0.00     0.004 C 
ENDBRANCH   3   4
BRANCH   3   6
ATOM      6  C   UNL     1      -4.587  -5.291  21.339  1.00  0.00    -0.014 C 
ATOM      7  C   UNL     1      -4.721  -6.686  21.977  1.00  0.00     0.007 C 
ATOM      8  C   UNL     1      -5.473  -4.307  22.125  1.00  0.00     0.007 C 
ENDBRANCH   3   6
ENDBRANCH   2   3
ENDBRANCH   1   2
BRANCH   1   9
ATOM      9  C   UNL     1      -3.695  -2.967  18.287  1.00  0.00    -0.011 C 
ATOM     10  C   UNL     1      -4.930  -2.530  19.111  1.00  0.00     0.008 C 
BRANCH   9  11
ATOM     11  C   UNL     1      -3.959  -4.228  17.376  1.00  0.00    -0.002 C 
ATOM     12  C   UNL     1      -4.124  -3.827  15.892  1.00  0.00     0.005 C 
ATOM     13  C   UNL     1      -5.188  -5.203  17.680  1.00  0.00    -0.026 C 
ATOM     14  C   UNL     1      -5.577  -4.015  15.555  1.00  0.00     0.005 C 
ATOM     15  C   UNL     1      -6.012  -5.238  16.348  1.00  0.00    -0.001 C 
ATOM     16  C   UNL     1      -6.115  -4.779  18.852  1.00  0.00     0.007 C 
ATOM     17  C   UNL     1      -4.597  -6.604  18.006  1.00  0.00     0.012 C 
ATOM     18  C   UNL     1      -7.572  -5.397  16.455  1.00  0.00     0.000 C 
ATOM     19  C   UNL     1      -7.442  -5.570  18.974  1.00  0.00     0.005 C 
ATOM     20  C   UNL     1      -7.947  -6.260  17.673  1.00  0.00     0.003 C 
ATOM     21  C   UNL     1      -8.393  -4.087  16.482  1.00  0.00     0.031 C 
ATOM     22  C   UNL     1      -9.487  -6.626  17.690  1.00  0.00    -0.008 C 
ATOM     23  C   UNL     1      -9.861  -4.339  16.676  1.00  0.00    -0.027 C 
ATOM     24  C   UNL     1     -10.366  -5.449  17.259  1.00  0.00    -0.065 C 
ATOM     25  C   UNL     1      -9.764  -7.793  16.684  1.00  0.00     0.014 C 
ATOM     26  C   UNL     1      -9.899  -7.106  19.113  1.00  0.00     0.016 C 
ATOM     27  C   UNL     1     -11.851  -5.712  17.137  1.00  0.00     0.063 C 
ATOM     28  C   UNL     1     -11.267  -8.091  16.464  1.00  0.00     0.033 C 
ATOM     29  C   UNL     1     -12.081  -6.832  16.108  1.00  0.00     0.118 C 
BRANCH  29  30
ATOM     30  O   UNL     1     -11.721  -6.394  14.822  1.00  0.00    -0.393 OA
ATOM     31  H   UNL     1     -12.139  -7.023  14.178  1.00  0.00     0.210 HD
ENDBRANCH  29  30
ENDBRANCH   9  11
ENDBRANCH   1   9
TORSDOF 7
ENDMDL
MODEL 7
REMARK VINA RESULT:    -1.426      2.254      6.570
REMARK INTER + INTRA:          -2.085
REMARK INTER:                  -1.487
REMARK INTRA:                  -0.598
REMARK UNBOUND:                -0.117
REMARK SMILES CC[C@@H](CC[C@H](C)[C@@H]1CC[C@@H]2[C@@H]3CC=C4C[C@@H](O)CC[C@@]4(C)[C@@H]3CC[C@@]21C)C(C)C
REMARK SMILES IDX 5 1 4 2 3 3 2 4 1 5 28 6 29 7 30 8 6 9 7 10 8 11 9 12 26 13
REMARK SMILES IDX 10 14 11 15 25 16 27 17 12 18 24 19 23 20 13 21 21 22 14 23
REMARK SMILES IDX 15 24 20 25 22 26 16 27 19 28 17 29 18 30
REMARK H PARENT 18 31
REMARK Flexibility Score: inf
ROOT
ATOM      1  C   UNL     1      -3.709  -5.152  21.861  1.00  0.00     0.004 C 
ENDROOT
BRANCH   1   2
ATOM      2  C   UNL     1      -2.685  -4.787  20.764  1.00  0.00     0.004 C 
BRANCH   2   3
ATOM      3  C   UNL     1      -2.740  -3.302  20.305  1.00  0.00    -0.009 C 
BRANCH   3   4
ATOM      4  C   UNL     1      -4.161  -2.710  20.564  1.00  0.00     0.000 C 
ATOM      5  C   UNL     1      -4.649  -1.828  19.414  1.00  0.00     0.004 C 
ENDBRANCH   3   4
BRANCH   3   6
ATOM      6  C   UNL     1      -2.261  -3.089  18.828  1.00  0.00    -0.014 C 
ATOM      7  C   UNL     1      -0.998  -2.212  18.759  1.00  0.00     0.007 C 
ATOM      8  C   UNL     1      -1.970  -4.423  18.115  1.00  0.00     0.007 C 
ENDBRANCH   3   6
ENDBRANCH   2   3
ENDBRANCH   1   2
BRANCH   1   9
ATOM      9  C   UNL     1      -3.749  -6.694  22.124  1.00  0.00    -0.011 C 
ATOM     10  C   UNL     1      -2.301  -7.227  21.994  1.00  0.00     0.008 C 
BRANCH   9  11
ATOM     11  C   UNL     1      -4.774  -7.411  21.161  1.00  0.00    -0.002 C 
ATOM     12  C   UNL     1      -4.059  -8.030  19.937  1.00  0.00     0.005 C 
ATOM     13  C   UNL     1      -6.012  -6.605  20.552  1.00  0.00    -0.026 C 
ATOM     14  C   UNL     1      -4.436  -7.190  18.749  1.00  0.00     0.005 C 
ATOM     15  C   UNL     1      -5.876  -6.771  19.000  1.00  0.00    -0.001 C 
ATOM     16  C   UNL     1      -6.076  -5.093  20.908  1.00  0.00     0.007 C 
ATOM     17  C   UNL     1      -7.309  -7.286  21.075  1.00  0.00     0.012 C 
ATOM     18  C   UNL     1      -6.355  -5.583  18.091  1.00  0.00     0.000 C 
ATOM     19  C   UNL     1      -7.114  -4.264  20.110  1.00  0.00     0.005 C 
ATOM     20  C   UNL     1      -7.547  -4.853  18.735  1.00  0.00     0.003 C 
ATOM     21  C   UNL     1      -5.277  -4.550  17.691  1.00  0.00     0.031 C 
ATOM     22  C   UNL     1      -8.197  -3.794  17.753  1.00  0.00    -0.008 C 
ATOM     23  C   UNL     1      -5.847  -3.408  16.899  1.00  0.00    -0.027 C 
ATOM     24  C   UNL     1      -7.142  -3.026  16.952  1.00  0.00    -0.065 C 
ATOM     25  C   UNL     1      -9.111  -4.528  16.716  1.00  0.00     0.014 C 
ATOM     26  C   UNL     1      -9.082  -2.801  18.560  1.00  0.00     0.016 C 
ATOM     27  C   UNL     1      -7.649  -2.058  15.905  1.00  0.00     0.063 C 
ATOM     28  C   UNL     1      -9.631  -3.616  15.578  1.00  0.00     0.033 C 
ATOM     29  C   UNL     1      -8.504  -2.827  14.882  1.00  0.00     0.118 C 
BRANCH  29  30
ATOM     30  O   UNL     1      -7.702  -3.714  14.145  1.00  0.00    -0.393 OA
ATOM     31  H   UNL     1      -8.304  -4.185  13.512  1.00  0.00     0.210 HD
ENDBRANCH  29  30
ENDBRANCH   9  11
ENDBRANCH   1   9
TORSDOF 7
ENDMDL
MODEL 8
REMARK VINA RESULT:    -1.337      2.245      5.239
REMARK INTER + INTRA:          -1.962
REMARK INTER:                  -2.428
REMARK INTRA:                   0.466
REMARK UNBOUND:                -0.117
REMARK SMILES CC[C@@H](CC[C@H](C)[C@@H]1CC[C@@H]2[C@@H]3CC=C4C[C@@H](O)CC[C@@]4(C)[C@@H]3CC[C@@]21C)C(C)C
REMARK SMILES IDX 5 1 4 2 3 3 2 4 1 5 28 6 29 7 30 8 6 9 7 10 8 11 9 12 26 13
REMARK SMILES IDX 10 14 11 15 25 16 27 17 12 18 24 19 23 20 13 21 21 22 14 23
REMARK SMILES IDX 15 24 20 25 22 26 16 27 19 28 17 29 18 30
REMARK H PARENT 18 31
REMARK Flexibility Score: inf
ROOT
ATOM      1  C   UNL     1      -8.021  -3.748  15.086  1.00  0.00     0.004 C 
ENDROOT
BRANCH   1   2
ATOM      2  C   UNL     1      -6.972  -2.643  15.338  1.00  0.00     0.004 C 
BRANCH   2   3
ATOM      3  C   UNL     1      -5.557  -2.965  14.779  1.00  0.00    -0.009 C 
BRANCH   3   4
ATOM      4  C   UNL     1      -5.672  -3.692  13.402  1.00  0.00     0.000 C 
ATOM      5  C   UNL     1      -4.388  -3.594  12.576  1.00  0.00     0.004 C 
ENDBRANCH   3   4
BRANCH   3   6
ATOM      6  C   UNL     1      -4.649  -3.743  15.793  1.00  0.00    -0.014 C 
ATOM      7  C   UNL     1      -4.413  -5.197  15.348  1.00  0.00     0.007 C 
ATOM      8  C   UNL     1      -3.281  -3.062  15.987  1.00  0.00     0.007 C 
ENDBRANCH   3   6
ENDBRANCH   2   3
ENDBRANCH   1   2
BRANCH   1   9
ATOM      9  C   UNL     1      -9.420  -3.360  15.669  1.00  0.00    -0.011 C 
ATOM     10  C   UNL     1      -9.632  -1.849  15.404  1.00  0.00     0.008 C 
BRANCH   9  11
ATOM     11  C   UNL     1      -9.534  -3.755  17.192  1.00  0.00    -0.002 C 
ATOM     12  C   UNL     1      -9.403  -2.515  18.108  1.00  0.00     0.005 C 
ATOM     13  C   UNL     1      -8.544  -4.840  17.823  1.00  0.00    -0.026 C 
ATOM     14  C   UNL     1      -8.067  -2.622  18.789  1.00  0.00     0.005 C 
ATOM     15  C   UNL     1      -7.864  -4.110  19.031  1.00  0.00    -0.001 C 
ATOM     16  C   UNL     1      -7.449  -5.393  16.869  1.00  0.00     0.007 C 
ATOM     17  C   UNL     1      -9.415  -6.032  18.311  1.00  0.00     0.012 C 
ATOM     18  C   UNL     1      -6.381  -4.494  19.379  1.00  0.00     0.000 C 
ATOM     19  C   UNL     1      -6.337  -6.234  17.545  1.00  0.00     0.005 C 
ATOM     20  C   UNL     1      -6.117  -5.977  19.065  1.00  0.00     0.003 C 
ATOM     21  C   UNL     1      -5.278  -3.628  18.728  1.00  0.00     0.031 C 
ATOM     22  C   UNL     1      -4.708  -6.458  19.605  1.00  0.00    -0.008 C 
ATOM     23  C   UNL     1      -3.898  -4.127  19.048  1.00  0.00    -0.027 C 
ATOM     24  C   UNL     1      -3.618  -5.403  19.395  1.00  0.00    -0.065 C 
ATOM     25  C   UNL     1      -4.795  -6.722  21.145  1.00  0.00     0.014 C 
ATOM     26  C   UNL     1      -4.302  -7.789  18.908  1.00  0.00     0.016 C 
ATOM     27  C   UNL     1      -2.251  -5.709  19.966  1.00  0.00     0.063 C 
ATOM     28  C   UNL     1      -3.426  -6.993  21.816  1.00  0.00     0.033 C 
ATOM     29  C   UNL     1      -2.374  -5.917  21.485  1.00  0.00     0.118 C 
BRANCH  29  30
ATOM     30  O   UNL     1      -2.727  -4.712  22.115  1.00  0.00    -0.393 OA
ATOM     31  H   UNL     1      -2.211  -3.993  21.667  1.00  0.00     0.210 HD
ENDBRANCH  29  30
ENDBRANCH   9  11
ENDBRANCH   1   9
TORSDOF 7
ENDMDL
