MODEL 1
REMARK VINA RESULT:    -3.444      0.000      0.000
REMARK INTER + INTRA:          -4.320
REMARK INTER:                  -4.047
REMARK INTRA:                  -0.272
REMARK UNBOUND:                -0.272
REMARK SMILES Oc1ccc(-c2[o+]c3cc(O)cc(O)c3cc2O)cc1
REMARK SMILES IDX 6 1 7 2 8 3 9 4 10 5 12 6 13 7 15 8 16 9 17 10 5 11 4 12
REMARK SMILES IDX 3 13 2 14 19 15 20 16 1 17 18 19 11 21 14 23
REMARK H PARENT 1 18 18 20 11 22 14 24
REMARK Flexibility Score: inf
ROOT
ATOM      1  C   UNL     1     -44.025 -23.928  44.627  1.00  0.00     0.401 A 
ATOM      2  O   UNL     1     -44.781 -23.658  45.691  1.00  0.00    -0.202 OA
ATOM      3  C   UNL     1     -44.300 -23.600  46.930  1.00  0.00     0.368 A 
ATOM      4  C   UNL     1     -45.161 -23.315  47.993  1.00  0.00     0.162 A 
ATOM      5  C   UNL     1     -44.667 -23.253  49.303  1.00  0.00     0.128 A 
ATOM      6  C   UNL     1     -43.308 -23.476  49.547  1.00  0.00     0.093 A 
ATOM      7  C   UNL     1     -42.431 -23.761  48.490  1.00  0.00     0.136 A 
ATOM      8  C   UNL     1     -42.928 -23.823  47.173  1.00  0.00     0.125 A 
ATOM      9  C   UNL     1     -42.099 -24.095  46.079  1.00  0.00     0.078 A 
ATOM     10  C   UNL     1     -42.641 -24.139  44.791  1.00  0.00     0.223 A 
ENDROOT
BRANCH   1  11
ATOM     11  C   UNL     1     -44.678 -23.975  43.299  1.00  0.00     0.084 A 
ATOM     12  C   UNL     1     -45.461 -25.075  42.907  1.00  0.00     0.022 A 
ATOM     13  C   UNL     1     -46.087 -25.087  41.656  1.00  0.00     0.047 A 
ATOM     14  C   UNL     1     -45.951 -23.998  40.790  1.00  0.00     0.115 A 
ATOM     15  C   UNL     1     -44.562 -22.876  42.432  1.00  0.00     0.022 A 
ATOM     16  C   UNL     1     -45.188 -22.890  41.183  1.00  0.00     0.047 A 
BRANCH  14  17
ATOM     17  O   UNL     1     -46.579 -24.024  39.547  1.00  0.00    -0.508 OA
ATOM     18  H   UNL     1     -47.433 -23.506  39.375  1.00  0.00     0.293 HD
ENDBRANCH  14  17
ENDBRANCH   1  11
BRANCH  10  19
ATOM     19  O   UNL     1     -41.812 -24.359  43.691  1.00  0.00    -0.500 OA
ATOM     20  H   UNL     1     -41.346 -23.596  43.215  1.00  0.00     0.294 HD
ENDBRANCH  10  19
BRANCH   5  21
ATOM     21  O   UNL     1     -45.518 -22.972  50.369  1.00  0.00    -0.507 OA
ATOM     22  H   UNL     1     -46.367 -22.434  50.241  1.00  0.00     0.293 HD
ENDBRANCH   5  21
BRANCH   7  23
ATOM     23  O   UNL     1     -41.077 -23.979  48.746  1.00  0.00    -0.507 OA
ATOM     24  H   UNL     1     -40.579 -23.450  49.453  1.00  0.00     0.293 HD
ENDBRANCH   7  23
TORSDOF 5
ENDMDL
MODEL 2
REMARK VINA RESULT:    -3.342      1.614      6.633
REMARK INTER + INTRA:          -4.200
REMARK INTER:                  -3.882
REMARK INTRA:                  -0.319
REMARK UNBOUND:                -0.272
REMARK SMILES Oc1ccc(-c2[o+]c3cc(O)cc(O)c3cc2O)cc1
REMARK SMILES IDX 6 1 7 2 8 3 9 4 10 5 12 6 13 7 15 8 16 9 17 10 5 11 4 12
REMARK SMILES IDX 3 13 2 14 19 15 20 16 1 17 18 19 11 21 14 23
REMARK H PARENT 1 18 18 20 11 22 14 24
REMARK Flexibility Score: inf
ROOT
ATOM      1  C   UNL     1     -43.857 -23.841  44.667  1.00  0.00     0.401 A 
ATOM      2  O   UNL     1     -44.843 -24.056  43.797  1.00  0.00    -0.202 OA
ATOM      3  C   UNL     1     -44.696 -23.922  42.482  1.00  0.00     0.368 A 
ATOM      4  C   UNL     1     -45.783 -24.161  41.637  1.00  0.00     0.162 A 
ATOM      5  C   UNL     1     -45.641 -24.021  40.249  1.00  0.00     0.128 A 
ATOM      6  C   UNL     1     -44.408 -23.640  39.709  1.00  0.00     0.093 A 
ATOM      7  C   UNL     1     -43.308 -23.399  40.545  1.00  0.00     0.136 A 
ATOM      8  C   UNL     1     -43.451 -23.540  41.939  1.00  0.00     0.125 A 
ATOM      9  C   UNL     1     -42.386 -23.320  42.820  1.00  0.00     0.078 A 
ATOM     10  C   UNL     1     -42.578 -23.480  44.196  1.00  0.00     0.223 A 
ENDROOT
BRANCH   1  11
ATOM     11  C   UNL     1     -44.146 -24.013  46.109  1.00  0.00     0.084 A 
ATOM     12  C   UNL     1     -43.955 -25.249  46.752  1.00  0.00     0.022 A 
ATOM     13  C   UNL     1     -44.213 -25.382  48.120  1.00  0.00     0.047 A 
ATOM     14  C   UNL     1     -44.649 -24.281  48.864  1.00  0.00     0.115 A 
ATOM     15  C   UNL     1     -44.565 -22.907  46.866  1.00  0.00     0.022 A 
ATOM     16  C   UNL     1     -44.822 -23.041  48.234  1.00  0.00     0.047 A 
BRANCH  14  17
ATOM     17  O   UNL     1     -44.903 -24.428  50.226  1.00  0.00    -0.508 OA
ATOM     18  H   UNL     1     -45.828 -24.275  50.611  1.00  0.00     0.293 HD
ENDBRANCH  14  17
ENDBRANCH   1  11
BRANCH  10  19
ATOM     19  O   UNL     1     -41.509 -23.311  45.075  1.00  0.00    -0.500 OA
ATOM     20  H   UNL     1     -40.561 -23.553  44.812  1.00  0.00     0.294 HD
ENDBRANCH  10  19
BRANCH   5  21
ATOM     21  O   UNL     1     -46.719 -24.256  39.399  1.00  0.00    -0.507 OA
ATOM     22  H   UNL     1     -46.968 -25.194  39.106  1.00  0.00     0.293 HD
ENDBRANCH   5  21
BRANCH   7  23
ATOM     23  O   UNL     1     -42.083 -23.023  39.994  1.00  0.00    -0.507 OA
ATOM     24  H   UNL     1     -41.902 -23.101  39.000  1.00  0.00     0.293 HD
ENDBRANCH   7  23
TORSDOF 5
ENDMDL
MODEL 3
REMARK VINA RESULT:    -3.314     15.726     16.479
REMARK INTER + INTRA:          -4.167
REMARK INTER:                  -3.851
REMARK INTRA:                  -0.317
REMARK UNBOUND:                -0.272
REMARK SMILES Oc1ccc(-c2[o+]c3cc(O)cc(O)c3cc2O)cc1
REMARK SMILES IDX 6 1 7 2 8 3 9 4 10 5 12 6 13 7 15 8 16 9 17 10 5 11 4 12
REMARK SMILES IDX 3 13 2 14 19 15 20 16 1 17 18 19 11 21 14 23
REMARK H PARENT 1 18 18 20 11 22 14 24
REMARK Flexibility Score: inf
ROOT
ATOM      1  C   UNL     1     -28.034 -26.145  43.961  1.00  0.00     0.401 A 
ATOM      2  O   UNL     1     -27.989 -25.471  45.110  1.00  0.00    -0.202 OA
ATOM      3  C   UNL     1     -27.971 -26.063  46.301  1.00  0.00     0.368 A 
ATOM      4  C   UNL     1     -27.930 -25.283  47.460  1.00  0.00     0.162 A 
ATOM      5  C   UNL     1     -27.913 -25.894  48.721  1.00  0.00     0.128 A 
ATOM      6  C   UNL     1     -27.938 -27.290  48.820  1.00  0.00     0.093 A 
ATOM      7  C   UNL     1     -27.979 -28.085  47.665  1.00  0.00     0.136 A 
ATOM      8  C   UNL     1     -27.995 -27.470  46.398  1.00  0.00     0.125 A 
ATOM      9  C   UNL     1     -28.027 -28.214  45.213  1.00  0.00     0.078 A 
ATOM     10  C   UNL     1     -28.035 -27.555  43.980  1.00  0.00     0.223 A 
ENDROOT
BRANCH   1  11
ATOM     11  C   UNL     1     -28.060 -25.374  42.698  1.00  0.00     0.084 A 
ATOM     12  C   UNL     1     -26.875 -25.055  42.010  1.00  0.00     0.022 A 
ATOM     13  C   UNL     1     -26.926 -24.344  40.806  1.00  0.00     0.047 A 
ATOM     14  C   UNL     1     -28.157 -23.958  40.269  1.00  0.00     0.115 A 
ATOM     15  C   UNL     1     -29.294 -24.999  42.142  1.00  0.00     0.022 A 
ATOM     16  C   UNL     1     -29.343 -24.290  40.938  1.00  0.00     0.047 A 
BRANCH  14  17
ATOM     17  O   UNL     1     -28.193 -23.250  39.069  1.00  0.00    -0.508 OA
ATOM     18  H   UNL     1     -28.046 -23.711  38.178  1.00  0.00     0.293 HD
ENDBRANCH  14  17
ENDBRANCH   1  11
BRANCH  10  19
ATOM     19  O   UNL     1     -28.017 -28.290  42.794  1.00  0.00    -0.500 OA
ATOM     20  H   UNL     1     -28.090 -29.300  42.794  1.00  0.00     0.294 HD
ENDBRANCH  10  19
BRANCH   5  21
ATOM     21  O   UNL     1     -27.873 -25.126  49.881  1.00  0.00    -0.507 OA
ATOM     22  H   UNL     1     -28.700 -24.979  50.448  1.00  0.00     0.293 HD
ENDBRANCH   5  21
BRANCH   7  23
ATOM     23  O   UNL     1     -28.001 -29.475  47.777  1.00  0.00    -0.507 OA
ATOM     24  H   UNL     1     -28.386 -29.936  48.593  1.00  0.00     0.293 HD
ENDBRANCH   7  23
TORSDOF 5
ENDMDL
MODEL 4
REMARK VINA RESULT:    -3.305     15.743     16.514
REMARK INTER + INTRA:          -4.156
REMARK INTER:                  -3.860
REMARK INTRA:                  -0.296
REMARK UNBOUND:                -0.272
REMARK SMILES Oc1ccc(-c2[o+]c3cc(O)cc(O)c3cc2O)cc1
REMARK SMILES IDX 6 1 7 2 8 3 9 4 10 5 12 6 13 7 15 8 16 9 17 10 5 11 4 12
REMARK SMILES IDX 3 13 2 14 19 15 20 16 1 17 18 19 11 21 14 23
REMARK H PARENT 1 18 18 20 11 22 14 24
REMARK Flexibility Score: inf
ROOT
ATOM      1  C   UNL     1     -28.010 -26.175  44.224  1.00  0.00     0.401 A 
ATOM      2  O   UNL     1     -27.935 -25.461  45.346  1.00  0.00    -0.202 OA
ATOM      3  C   UNL     1     -27.890 -26.010  46.557  1.00  0.00     0.368 A 
ATOM      4  C   UNL     1     -27.817 -25.189  47.686  1.00  0.00     0.162 A 
ATOM      5  C   UNL     1     -27.772 -25.756  48.967  1.00  0.00     0.128 A 
ATOM      6  C   UNL     1     -27.802 -27.146  49.116  1.00  0.00     0.093 A 
ATOM      7  C   UNL     1     -27.874 -27.982  47.992  1.00  0.00     0.136 A 
ATOM      8  C   UNL     1     -27.918 -27.413  46.705  1.00  0.00     0.125 A 
ATOM      9  C   UNL     1     -27.982 -28.197  45.548  1.00  0.00     0.078 A 
ATOM     10  C   UNL     1     -28.018 -27.583  44.293  1.00  0.00     0.223 A 
ENDROOT
BRANCH   1  11
ATOM     11  C   UNL     1     -28.063 -25.449  42.935  1.00  0.00     0.084 A 
ATOM     12  C   UNL     1     -29.263 -24.893  42.455  1.00  0.00     0.022 A 
ATOM     13  C   UNL     1     -29.284 -24.191  41.246  1.00  0.00     0.047 A 
ATOM     14  C   UNL     1     -28.107 -24.023  40.510  1.00  0.00     0.115 A 
ATOM     15  C   UNL     1     -26.882 -25.258  42.200  1.00  0.00     0.022 A 
ATOM     16  C   UNL     1     -26.904 -24.556  40.991  1.00  0.00     0.047 A 
BRANCH  14  17
ATOM     17  O   UNL     1     -28.143 -23.323  39.306  1.00  0.00    -0.508 OA
ATOM     18  H   UNL     1     -28.815 -23.550  38.581  1.00  0.00     0.293 HD
ENDBRANCH  14  17
ENDBRANCH   1  11
BRANCH  10  19
ATOM     19  O   UNL     1     -28.031 -28.360  43.134  1.00  0.00    -0.500 OA
ATOM     20  H   UNL     1     -28.894 -28.723  42.748  1.00  0.00     0.294 HD
ENDBRANCH  10  19
BRANCH   5  21
ATOM     21  O   UNL     1     -27.700 -24.946  50.098  1.00  0.00    -0.507 OA
ATOM     22  H   UNL     1     -27.872 -25.316  51.026  1.00  0.00     0.293 HD
ENDBRANCH   5  21
BRANCH   7  23
ATOM     23  O   UNL     1     -27.899 -29.367  48.154  1.00  0.00    -0.507 OA
ATOM     24  H   UNL     1     -27.944 -29.994  47.359  1.00  0.00     0.293 HD
ENDBRANCH   7  23
TORSDOF 5
ENDMDL
MODEL 5
REMARK VINA RESULT:    -3.282      1.697      7.069
REMARK INTER + INTRA:          -4.130
REMARK INTER:                  -3.850
REMARK INTRA:                  -0.281
REMARK UNBOUND:                -0.272
REMARK SMILES Oc1ccc(-c2[o+]c3cc(O)cc(O)c3cc2O)cc1
REMARK SMILES IDX 6 1 7 2 8 3 9 4 10 5 12 6 13 7 15 8 16 9 17 10 5 11 4 12
REMARK SMILES IDX 3 13 2 14 19 15 20 16 1 17 18 19 11 21 14 23
REMARK H PARENT 1 18 18 20 11 22 14 24
REMARK Flexibility Score: inf
ROOT
ATOM      1  C   UNL     1     -45.001 -24.999  44.917  1.00  0.00     0.401 A 
ATOM      2  O   UNL     1     -45.003 -24.157  43.884  1.00  0.00    -0.202 OA
ATOM      3  C   UNL     1     -45.490 -24.474  42.688  1.00  0.00     0.368 A 
ATOM      4  C   UNL     1     -45.449 -23.534  41.654  1.00  0.00     0.162 A 
ATOM      5  C   UNL     1     -45.957 -23.857  40.388  1.00  0.00     0.128 A 
ATOM      6  C   UNL     1     -46.505 -25.123  40.158  1.00  0.00     0.093 A 
ATOM      7  C   UNL     1     -46.553 -26.076  41.186  1.00  0.00     0.136 A 
ATOM      8  C   UNL     1     -46.044 -25.751  42.458  1.00  0.00     0.125 A 
ATOM      9  C   UNL     1     -46.073 -26.659  43.524  1.00  0.00     0.078 A 
ATOM     10  C   UNL     1     -45.560 -26.285  44.769  1.00  0.00     0.223 A 
ENDROOT
BRANCH   1  11
ATOM     11  C   UNL     1     -44.422 -24.534  46.198  1.00  0.00     0.084 A 
ATOM     12  C   UNL     1     -45.239 -24.100  47.257  1.00  0.00     0.022 A 
ATOM     13  C   UNL     1     -44.670 -23.687  48.466  1.00  0.00     0.047 A 
ATOM     14  C   UNL     1     -43.283 -23.716  48.637  1.00  0.00     0.115 A 
ATOM     15  C   UNL     1     -43.031 -24.579  46.384  1.00  0.00     0.022 A 
ATOM     16  C   UNL     1     -42.463 -24.165  47.593  1.00  0.00     0.047 A 
BRANCH  14  17
ATOM     17  O   UNL     1     -42.730 -23.300  49.846  1.00  0.00    -0.508 OA
ATOM     18  H   UNL     1     -42.016 -23.845  50.317  1.00  0.00     0.293 HD
ENDBRANCH  14  17
ENDBRANCH   1  11
BRANCH  10  19
ATOM     19  O   UNL     1     -45.632 -27.166  45.848  1.00  0.00    -0.500 OA
ATOM     20  H   UNL     1     -46.115 -26.920  46.704  1.00  0.00     0.294 HD
ENDBRANCH  10  19
BRANCH   5  21
ATOM     21  O   UNL     1     -45.920 -22.927  39.351  1.00  0.00    -0.507 OA
ATOM     22  H   UNL     1     -46.492 -22.091  39.369  1.00  0.00     0.293 HD
ENDBRANCH   5  21
BRANCH   7  23
ATOM     23  O   UNL     1     -47.105 -27.334  40.945  1.00  0.00    -0.507 OA
ATOM     24  H   UNL     1     -47.474 -27.587  40.036  1.00  0.00     0.293 HD
ENDBRANCH   7  23
TORSDOF 5
ENDMDL
MODEL 6
REMARK VINA RESULT:    -3.234      1.588      1.603
REMARK INTER + INTRA:          -4.073
REMARK INTER:                  -3.750
REMARK INTRA:                  -0.323
REMARK UNBOUND:                -0.272
REMARK SMILES Oc1ccc(-c2[o+]c3cc(O)cc(O)c3cc2O)cc1
REMARK SMILES IDX 6 1 7 2 8 3 9 4 10 5 12 6 13 7 15 8 16 9 17 10 5 11 4 12
REMARK SMILES IDX 3 13 2 14 19 15 20 16 1 17 18 19 11 21 14 23
REMARK H PARENT 1 18 18 20 11 22 14 24
REMARK Flexibility Score: inf
ROOT
ATOM      1  C   UNL     1     -44.511 -24.730  44.591  1.00  0.00     0.401 A 
ATOM      2  O   UNL     1     -44.899 -23.984  45.624  1.00  0.00    -0.202 OA
ATOM      3  C   UNL     1     -44.648 -24.306  46.890  1.00  0.00     0.368 A 
ATOM      4  C   UNL     1     -45.096 -23.470  47.917  1.00  0.00     0.162 A 
ATOM      5  C   UNL     1     -44.840 -23.799  49.255  1.00  0.00     0.128 A 
ATOM      6  C   UNL     1     -44.135 -24.968  49.564  1.00  0.00     0.093 A 
ATOM      7  C   UNL     1     -43.679 -25.814  48.543  1.00  0.00     0.136 A 
ATOM      8  C   UNL     1     -43.936 -25.483  47.199  1.00  0.00     0.125 A 
ATOM      9  C   UNL     1     -43.498 -26.286  46.140  1.00  0.00     0.078 A 
ATOM     10  C   UNL     1     -43.773 -25.909  44.822  1.00  0.00     0.223 A 
ENDROOT
BRANCH   1  11
ATOM     11  C   UNL     1     -44.858 -24.272  43.227  1.00  0.00     0.084 A 
ATOM     12  C   UNL     1     -46.048 -24.680  42.597  1.00  0.00     0.022 A 
ATOM     13  C   UNL     1     -46.366 -24.216  41.317  1.00  0.00     0.047 A 
ATOM     14  C   UNL     1     -45.509 -23.330  40.657  1.00  0.00     0.115 A 
ATOM     15  C   UNL     1     -44.013 -23.366  42.566  1.00  0.00     0.022 A 
ATOM     16  C   UNL     1     -44.332 -22.903  41.286  1.00  0.00     0.047 A 
BRANCH  14  17
ATOM     17  O   UNL     1     -45.838 -22.876  39.382  1.00  0.00    -0.508 OA
ATOM     18  H   UNL     1     -46.782 -22.588  39.149  1.00  0.00     0.293 HD
ENDBRANCH  14  17
ENDBRANCH   1  11
BRANCH  10  19
ATOM     19  O   UNL     1     -43.296 -26.679  43.760  1.00  0.00    -0.500 OA
ATOM     20  H   UNL     1     -43.855 -26.846  42.932  1.00  0.00     0.294 HD
ENDBRANCH  10  19
BRANCH   5  21
ATOM     21  O   UNL     1     -45.283 -22.973  50.286  1.00  0.00    -0.507 OA
ATOM     22  H   UNL     1     -44.647 -22.362  50.785  1.00  0.00     0.293 HD
ENDBRANCH   5  21
BRANCH   7  23
ATOM     23  O   UNL     1     -42.975 -26.975  48.864  1.00  0.00    -0.507 OA
ATOM     24  H   UNL     1     -42.845 -27.721  48.190  1.00  0.00     0.293 HD
ENDBRANCH   7  23
TORSDOF 5
ENDMDL
MODEL 7
REMARK VINA RESULT:    -3.200     22.123     23.385
REMARK INTER + INTRA:          -4.033
REMARK INTER:                  -3.721
REMARK INTRA:                  -0.312
REMARK UNBOUND:                -0.272
REMARK SMILES Oc1ccc(-c2[o+]c3cc(O)cc(O)c3cc2O)cc1
REMARK SMILES IDX 6 1 7 2 8 3 9 4 10 5 12 6 13 7 15 8 16 9 17 10 5 11 4 12
REMARK SMILES IDX 3 13 2 14 19 15 20 16 1 17 18 19 11 21 14 23
REMARK H PARENT 1 18 18 20 11 22 14 24
REMARK Flexibility Score: inf
ROOT
ATOM      1  C   UNL     1     -30.010 -42.059  44.100  1.00  0.00     0.401 A 
ATOM      2  O   UNL     1     -29.363 -41.996  45.264  1.00  0.00    -0.202 OA
ATOM      3  C   UNL     1     -29.979 -42.042  46.442  1.00  0.00     0.368 A 
ATOM      4  C   UNL     1     -29.228 -41.965  47.618  1.00  0.00     0.162 A 
ATOM      5  C   UNL     1     -29.865 -42.011  48.865  1.00  0.00     0.128 A 
ATOM      6  C   UNL     1     -31.257 -42.133  48.934  1.00  0.00     0.093 A 
ATOM      7  C   UNL     1     -32.023 -42.214  47.762  1.00  0.00     0.136 A 
ATOM      8  C   UNL     1     -31.383 -42.168  46.508  1.00  0.00     0.125 A 
ATOM      9  C   UNL     1     -32.095 -42.252  45.307  1.00  0.00     0.078 A 
ATOM     10  C   UNL     1     -31.411 -42.209  44.088  1.00  0.00     0.223 A 
ENDROOT
BRANCH   1  11
ATOM     11  C   UNL     1     -29.214 -41.987  42.853  1.00  0.00     0.084 A 
ATOM     12  C   UNL     1     -29.090 -40.786  42.131  1.00  0.00     0.022 A 
ATOM     13  C   UNL     1     -28.315 -40.737  40.968  1.00  0.00     0.047 A 
ATOM     14  C   UNL     1     -27.643 -41.880  40.522  1.00  0.00     0.115 A 
ATOM     15  C   UNL     1     -28.521 -43.125  42.409  1.00  0.00     0.022 A 
ATOM     16  C   UNL     1     -27.746 -43.074  41.247  1.00  0.00     0.047 A 
BRANCH  14  17
ATOM     17  O   UNL     1     -26.875 -41.816  39.361  1.00  0.00    -0.508 OA
ATOM     18  H   UNL     1     -26.887 -40.998  38.763  1.00  0.00     0.293 HD
ENDBRANCH  14  17
ENDBRANCH   1  11
BRANCH  10  19
ATOM     19  O   UNL     1     -32.110 -42.343  42.889  1.00  0.00    -0.500 OA
ATOM     20  H   UNL     1     -32.132 -41.599  42.201  1.00  0.00     0.294 HD
ENDBRANCH  10  19
BRANCH   5  21
ATOM     21  O   UNL     1     -29.125 -41.933  50.042  1.00  0.00    -0.507 OA
ATOM     22  H   UNL     1     -29.547 -42.112  50.946  1.00  0.00     0.293 HD
ENDBRANCH   5  21
BRANCH   7  23
ATOM     23  O   UNL     1     -33.410 -42.339  47.843  1.00  0.00    -0.507 OA
ATOM     24  H   UNL     1     -34.018 -41.992  47.111  1.00  0.00     0.293 HD
ENDBRANCH   7  23
TORSDOF 5
ENDMDL
MODEL 8
REMARK VINA RESULT:    -2.732     15.626     16.778
REMARK INTER + INTRA:          -3.484
REMARK INTER:                  -3.188
REMARK INTRA:                  -0.296
REMARK UNBOUND:                -0.272
REMARK SMILES Oc1ccc(-c2[o+]c3cc(O)cc(O)c3cc2O)cc1
REMARK SMILES IDX 6 1 7 2 8 3 9 4 10 5 12 6 13 7 15 8 16 9 17 10 5 11 4 12
REMARK SMILES IDX 3 13 2 14 19 15 20 16 1 17 18 19 11 21 14 23
REMARK H PARENT 1 18 18 20 11 22 14 24
REMARK Flexibility Score: inf
ROOT
ATOM      1  C   UNL     1     -27.872 -26.176  45.923  1.00  0.00     0.401 A 
ATOM      2  O   UNL     1     -27.625 -25.489  47.037  1.00  0.00    -0.202 OA
ATOM      3  C   UNL     1     -27.507 -26.059  48.233  1.00  0.00     0.368 A 
ATOM      4  C   UNL     1     -27.252 -25.266  49.355  1.00  0.00     0.162 A 
ATOM      5  C   UNL     1     -27.128 -25.855  50.621  1.00  0.00     0.128 A 
ATOM      6  C   UNL     1     -27.261 -27.240  50.762  1.00  0.00     0.093 A 
ATOM      7  C   UNL     1     -27.516 -28.048  49.644  1.00  0.00     0.136 A 
ATOM      8  C   UNL     1     -27.640 -27.457  48.372  1.00  0.00     0.125 A 
ATOM      9  C   UNL     1     -27.886 -28.214  47.222  1.00  0.00     0.078 A 
ATOM     10  C   UNL     1     -27.993 -27.579  45.981  1.00  0.00     0.223 A 
ENDROOT
BRANCH   1  11
ATOM     11  C   UNL     1     -27.991 -25.427  44.651  1.00  0.00     0.084 A 
ATOM     12  C   UNL     1     -29.183 -24.769  44.296  1.00  0.00     0.022 A 
ATOM     13  C   UNL     1     -29.264 -24.049  43.100  1.00  0.00     0.047 A 
ATOM     14  C   UNL     1     -28.155 -23.964  42.254  1.00  0.00     0.115 A 
ATOM     15  C   UNL     1     -26.875 -25.320  43.805  1.00  0.00     0.022 A 
ATOM     16  C   UNL     1     -26.958 -24.599  42.610  1.00  0.00     0.047 A 
BRANCH  14  17
ATOM     17  O   UNL     1     -28.250 -23.243  41.065  1.00  0.00    -0.508 OA
ATOM     18  H   UNL     1     -27.882 -23.608  40.194  1.00  0.00     0.293 HD
ENDBRANCH  14  17
ENDBRANCH   1  11
BRANCH  10  19
ATOM     19  O   UNL     1     -28.188 -28.333  44.824  1.00  0.00    -0.500 OA
ATOM     20  H   UNL     1     -27.597 -29.124  44.599  1.00  0.00     0.294 HD
ENDBRANCH  10  19
BRANCH   5  21
ATOM     21  O   UNL     1     -26.875 -25.072  51.745  1.00  0.00    -0.507 OA
ATOM     22  H   UNL     1     -27.535 -25.019  52.512  1.00  0.00     0.293 HD
ENDBRANCH   5  21
BRANCH   7  23
ATOM     23  O   UNL     1     -27.644 -29.429  49.798  1.00  0.00    -0.507 OA
ATOM     24  H   UNL     1     -27.073 -29.945  50.456  1.00  0.00     0.293 HD
ENDBRANCH   7  23
TORSDOF 5
ENDMDL
