MODEL 1
REMARK VINA RESULT:    22.113      0.000      0.000
REMARK INTER + INTRA:          25.731
REMARK INTER:                  25.992
REMARK INTRA:                  -0.261
REMARK UNBOUND:                -0.261
REMARK SMILES Oc1ccc(-c2[o+]c3cc(O)cc(O)c3cc2O)cc1
REMARK SMILES IDX 6 1 7 2 8 3 9 4 10 5 12 6 13 7 15 8 16 9 17 10 5 11 4 12
REMARK SMILES IDX 3 13 2 14 19 15 20 16 1 17 18 19 11 21 14 23
REMARK H PARENT 1 18 18 20 11 22 14 24
REMARK Flexibility Score: inf
ROOT
ATOM      1  C   UNL     1      29.254  33.573  48.539  1.00  0.00     0.401 A 
ATOM      2  O   UNL     1      29.531  32.527  49.313  1.00  0.00    -0.202 OA
ATOM      3  C   UNL     1      29.199  31.279  49.001  1.00  0.00     0.368 A 
ATOM      4  C   UNL     1      29.536  30.245  49.877  1.00  0.00     0.162 A 
ATOM      5  C   UNL     1      29.202  28.922  49.572  1.00  0.00     0.128 A 
ATOM      6  C   UNL     1      28.529  28.632  48.382  1.00  0.00     0.093 A 
ATOM      7  C   UNL     1      28.180  29.651  47.486  1.00  0.00     0.136 A 
ATOM      8  C   UNL     1      28.515  30.995  47.794  1.00  0.00     0.125 A 
ATOM      9  C   UNL     1      28.194  32.080  46.961  1.00  0.00     0.078 A 
ATOM     10  C   UNL     1      28.553  33.380  47.334  1.00  0.00     0.223 A 
ENDROOT
BRANCH   1  11
ATOM     11  C   UNL     1      29.685  34.914  48.994  1.00  0.00     0.084 A 
ATOM     12  C   UNL     1      28.769  35.837  49.532  1.00  0.00     0.022 A 
ATOM     13  C   UNL     1      29.198  37.107  49.932  1.00  0.00     0.047 A 
ATOM     14  C   UNL     1      30.539  37.474  49.790  1.00  0.00     0.115 A 
ATOM     15  C   UNL     1      31.027  35.299  48.835  1.00  0.00     0.022 A 
ATOM     16  C   UNL     1      31.453  36.568  49.238  1.00  0.00     0.047 A 
BRANCH  14  17
ATOM     17  O   UNL     1      30.951  38.742  50.196  1.00  0.00    -0.508 OA
ATOM     18  H   UNL     1      31.472  39.352  49.577  1.00  0.00     0.293 HD
ENDBRANCH  14  17
ENDBRANCH   1  11
BRANCH  10  19
ATOM     19  O   UNL     1      28.190  34.462  46.533  1.00  0.00    -0.500 OA
ATOM     20  H   UNL     1      27.434  34.399  45.863  1.00  0.00     0.294 HD
ENDBRANCH  10  19
BRANCH   5  21
ATOM     21  O   UNL     1      29.535  27.887  50.442  1.00  0.00    -0.507 OA
ATOM     22  H   UNL     1      30.152  28.036  51.231  1.00  0.00     0.293 HD
ENDBRANCH   5  21
BRANCH   7  23
ATOM     23  O   UNL     1      27.511  29.277  46.317  1.00  0.00    -0.507 OA
ATOM     24  H   UNL     1      27.422  29.862  45.500  1.00  0.00     0.293 HD
ENDBRANCH   7  23
TORSDOF 5
ENDMDL
MODEL 2
REMARK VINA RESULT:    22.170      1.105      2.678
REMARK INTER + INTRA:          25.797
REMARK INTER:                  26.058
REMARK INTRA:                  -0.261
REMARK UNBOUND:                -0.261
REMARK SMILES Oc1ccc(-c2[o+]c3cc(O)cc(O)c3cc2O)cc1
REMARK SMILES IDX 6 1 7 2 8 3 9 4 10 5 12 6 13 7 15 8 16 9 17 10 5 11 4 12
REMARK SMILES IDX 3 13 2 14 19 15 20 16 1 17 18 19 11 21 14 23
REMARK H PARENT 1 18 18 20 11 22 14 24
REMARK Flexibility Score: inf
ROOT
ATOM      1  C   UNL     1      29.591  33.720  49.273  1.00  0.00     0.401 A 
ATOM      2  O   UNL     1      28.925  33.302  48.200  1.00  0.00    -0.202 OA
ATOM      3  C   UNL     1      28.589  32.033  47.998  1.00  0.00     0.368 A 
ATOM      4  C   UNL     1      27.886  31.690  46.840  1.00  0.00     0.162 A 
ATOM      5  C   UNL     1      27.518  30.362  46.604  1.00  0.00     0.128 A 
ATOM      6  C   UNL     1      27.852  29.373  47.532  1.00  0.00     0.093 A 
ATOM      7  C   UNL     1      28.555  29.691  48.701  1.00  0.00     0.136 A 
ATOM      8  C   UNL     1      28.934  31.036  48.943  1.00  0.00     0.125 A 
ATOM      9  C   UNL     1      29.651  31.443  50.080  1.00  0.00     0.078 A 
ATOM     10  C   UNL     1      29.994  32.789  50.248  1.00  0.00     0.223 A 
ENDROOT
BRANCH   1  11
ATOM     11  C   UNL     1      29.898  35.164  49.388  1.00  0.00     0.084 A 
ATOM     12  C   UNL     1      28.904  36.101  49.729  1.00  0.00     0.022 A 
ATOM     13  C   UNL     1      29.214  37.463  49.808  1.00  0.00     0.047 A 
ATOM     14  C   UNL     1      30.511  37.906  49.537  1.00  0.00     0.115 A 
ATOM     15  C   UNL     1      31.194  35.621  49.097  1.00  0.00     0.022 A 
ATOM     16  C   UNL     1      31.501  36.982  49.179  1.00  0.00     0.047 A 
BRANCH  14  17
ATOM     17  O   UNL     1      30.805  39.265  49.622  1.00  0.00    -0.508 OA
ATOM     18  H   UNL     1      31.748  39.612  49.491  1.00  0.00     0.293 HD
ENDBRANCH  14  17
ENDBRANCH   1  11
BRANCH  10  19
ATOM     19  O   UNL     1      30.749  33.186  51.352  1.00  0.00    -0.500 OA
ATOM     20  H   UNL     1      30.396  33.855  52.025  1.00  0.00     0.294 HD
ENDBRANCH  10  19
BRANCH   5  21
ATOM     21  O   UNL     1      26.817  30.015  45.452  1.00  0.00    -0.507 OA
ATOM     22  H   UNL     1      26.069  30.594  45.091  1.00  0.00     0.293 HD
ENDBRANCH   5  21
BRANCH   7  23
ATOM     23  O   UNL     1      28.847  28.643  49.580  1.00  0.00    -0.507 OA
ATOM     24  H   UNL     1      28.352  28.467  50.441  1.00  0.00     0.293 HD
ENDBRANCH   7  23
TORSDOF 5
ENDMDL
MODEL 3
REMARK VINA RESULT:    24.320      2.043      3.242
REMARK INTER + INTRA:          28.325
REMARK INTER:                  28.605
REMARK INTRA:                  -0.280
REMARK UNBOUND:                -0.261
REMARK SMILES Oc1ccc(-c2[o+]c3cc(O)cc(O)c3cc2O)cc1
REMARK SMILES IDX 6 1 7 2 8 3 9 4 10 5 12 6 13 7 15 8 16 9 17 10 5 11 4 12
REMARK SMILES IDX 3 13 2 14 19 15 20 16 1 17 18 19 11 21 14 23
REMARK H PARENT 1 18 18 20 11 22 14 24
REMARK Flexibility Score: inf
ROOT
ATOM      1  C   UNL     1      28.649  33.704  49.624  1.00  0.00     0.401 A 
ATOM      2  O   UNL     1      27.995  33.126  48.620  1.00  0.00    -0.202 OA
ATOM      3  C   UNL     1      28.339  31.951  48.105  1.00  0.00     0.368 A 
ATOM      4  C   UNL     1      27.589  31.423  47.052  1.00  0.00     0.162 A 
ATOM      5  C   UNL     1      27.928  30.187  46.493  1.00  0.00     0.128 A 
ATOM      6  C   UNL     1      29.022  29.475  46.991  1.00  0.00     0.093 A 
ATOM      7  C   UNL     1      29.790  29.983  48.047  1.00  0.00     0.136 A 
ATOM      8  C   UNL     1      29.452  31.237  48.615  1.00  0.00     0.125 A 
ATOM      9  C   UNL     1      30.172  31.829  49.666  1.00  0.00     0.078 A 
ATOM     10  C   UNL     1      29.781  33.073  50.171  1.00  0.00     0.223 A 
ENDROOT
BRANCH   1  11
ATOM     11  C   UNL     1      28.160  35.012  50.117  1.00  0.00     0.084 A 
ATOM     12  C   UNL     1      27.455  35.122  51.331  1.00  0.00     0.022 A 
ATOM     13  C   UNL     1      26.983  36.366  51.763  1.00  0.00     0.047 A 
ATOM     14  C   UNL     1      27.196  37.508  50.988  1.00  0.00     0.115 A 
ATOM     15  C   UNL     1      28.352  36.162  49.334  1.00  0.00     0.022 A 
ATOM     16  C   UNL     1      27.880  37.404  49.770  1.00  0.00     0.047 A 
BRANCH  14  17
ATOM     17  O   UNL     1      26.722  38.740  51.433  1.00  0.00    -0.508 OA
ATOM     18  H   UNL     1      25.754  39.011  51.309  1.00  0.00     0.293 HD
ENDBRANCH  14  17
ENDBRANCH   1  11
BRANCH  10  19
ATOM     19  O   UNL     1      30.526  33.683  51.181  1.00  0.00    -0.500 OA
ATOM     20  H   UNL     1      31.225  34.387  50.975  1.00  0.00     0.294 HD
ENDBRANCH  10  19
BRANCH   5  21
ATOM     21  O   UNL     1      27.184  29.655  45.443  1.00  0.00    -0.507 OA
ATOM     22  H   UNL     1      27.093  30.141  44.558  1.00  0.00     0.293 HD
ENDBRANCH   5  21
BRANCH   7  23
ATOM     23  O   UNL     1      30.866  29.207  48.489  1.00  0.00    -0.507 OA
ATOM     24  H   UNL     1      30.773  28.332  48.983  1.00  0.00     0.293 HD
ENDBRANCH   7  23
TORSDOF 5
ENDMDL
MODEL 4
REMARK VINA RESULT:    25.029      1.736      2.030
REMARK INTER + INTRA:          29.157
REMARK INTER:                  28.799
REMARK INTRA:                   0.358
REMARK UNBOUND:                -0.261
REMARK SMILES Oc1ccc(-c2[o+]c3cc(O)cc(O)c3cc2O)cc1
REMARK SMILES IDX 6 1 7 2 8 3 9 4 10 5 12 6 13 7 15 8 16 9 17 10 5 11 4 12
REMARK SMILES IDX 3 13 2 14 19 15 20 16 1 17 18 19 11 21 14 23
REMARK H PARENT 1 18 18 20 11 22 14 24
REMARK Flexibility Score: inf
ROOT
ATOM      1  C   UNL     1      28.566  33.366  49.096  1.00  0.00     0.401 A 
ATOM      2  O   UNL     1      28.864  32.245  49.748  1.00  0.00    -0.202 OA
ATOM      3  C   UNL     1      29.197  31.112  49.139  1.00  0.00     0.368 A 
ATOM      4  C   UNL     1      29.495  29.987  49.910  1.00  0.00     0.162 A 
ATOM      5  C   UNL     1      29.852  28.783  49.295  1.00  0.00     0.128 A 
ATOM      6  C   UNL     1      29.911  28.705  47.902  1.00  0.00     0.093 A 
ATOM      7  C   UNL     1      29.617  29.820  47.106  1.00  0.00     0.136 A 
ATOM      8  C   UNL     1      29.252  31.042  47.725  1.00  0.00     0.125 A 
ATOM      9  C   UNL     1      28.929  32.206  47.007  1.00  0.00     0.078 A 
ATOM     10  C   UNL     1      28.573  33.374  47.688  1.00  0.00     0.223 A 
ENDROOT
BRANCH   1  11
ATOM     11  C   UNL     1      28.220  34.567  49.889  1.00  0.00     0.084 A 
ATOM     12  C   UNL     1      27.672  34.460  51.181  1.00  0.00     0.022 A 
ATOM     13  C   UNL     1      27.331  35.610  51.901  1.00  0.00     0.047 A 
ATOM     14  C   UNL     1      27.522  36.875  51.339  1.00  0.00     0.115 A 
ATOM     15  C   UNL     1      28.389  35.842  49.324  1.00  0.00     0.022 A 
ATOM     16  C   UNL     1      28.049  36.989  50.047  1.00  0.00     0.047 A 
BRANCH  14  17
ATOM     17  O   UNL     1      27.180  38.011  52.070  1.00  0.00    -0.508 OA
ATOM     18  H   UNL     1      26.338  38.045  52.633  1.00  0.00     0.293 HD
ENDBRANCH  14  17
ENDBRANCH   1  11
BRANCH  10  19
ATOM     19  O   UNL     1      28.203  34.515  46.976  1.00  0.00    -0.500 OA
ATOM     20  H   UNL     1      28.211  35.434  47.401  1.00  0.00     0.294 HD
ENDBRANCH  10  19
BRANCH   5  21
ATOM     21  O   UNL     1      30.150  27.657  50.059  1.00  0.00    -0.507 OA
ATOM     22  H   UNL     1      30.317  27.722  51.056  1.00  0.00     0.293 HD
ENDBRANCH   5  21
BRANCH   7  23
ATOM     23  O   UNL     1      29.704  29.660  45.719  1.00  0.00    -0.507 OA
ATOM     24  H   UNL     1      29.883  28.782  45.257  1.00  0.00     0.293 HD
ENDBRANCH   7  23
TORSDOF 5
ENDMDL
