MODEL 1
REMARK VINA RESULT:    71.529      0.000      0.000
REMARK INTER + INTRA:         153.642
REMARK INTER:                 150.980
REMARK INTRA:                   2.662
REMARK UNBOUND:                 2.662
REMARK SMILES CCC(=O)CCCCC[C@H]1NC(=O)[C@@H]2CCCCN2C(=O)[C@H]([C@@H](C)CC)NC(=O)[C@@H](Cc2cn(OC)c3ccccc23)NC1=O
REMARK SMILES IDX 9 1 10 2 44 3 43 4 45 6 30 7 28 8 27 9 29 11 22 12 23 14
REMARK SMILES IDX 24 15 25 16 26 17 31 18 32 19 33 20 42 21 34 22 37 23 41 24
REMARK SMILES IDX 38 25 40 26 39 27 35 28 36 29 11 30 12 31 13 33 14 34 19 35
REMARK SMILES IDX 15 36 18 37 16 38 17 39 20 40 21 41 8 43 7 44 6 45 5 46 3 47
REMARK SMILES IDX 4 48 2 49 1 50
REMARK H PARENT 43 5 27 10 11 32
REMARK Flexibility Score: 80.00
ROOT
ATOM      1  C   UNL     1      10.409  15.276  26.849  1.00  0.00     0.035 C 
ENDROOT
BRANCH   1   2
ATOM      2  C   UNL     1       8.915  15.423  27.213  1.00  0.00     0.171 C 
BRANCH   2   3
ATOM      3  C   UNL     1       8.227  16.316  26.219  1.00  0.00     0.243 C 
ATOM      4  N   UNL     1       6.882  16.759  26.468  1.00  0.00    -0.342 N 
ATOM      5  H   UNL     1       6.267  16.130  27.038  1.00  0.00     0.164 HD
ATOM      6  O   UNL     1       8.857  16.707  25.204  1.00  0.00    -0.273 OA
BRANCH   4   7
ATOM      7  C   UNL     1       6.379  18.120  26.227  1.00  0.00     0.175 C 
BRANCH   7   8
ATOM      8  C   UNL     1       7.338  19.162  26.757  1.00  0.00     0.243 C 
ATOM      9  N   UNL     1       8.613  18.785  27.338  1.00  0.00    -0.342 N 
ATOM     10  H   UNL     1       8.830  17.773  27.308  1.00  0.00     0.164 HD
ATOM     11  O   UNL     1       7.019  20.370  26.610  1.00  0.00    -0.273 OA
BRANCH   9  12
ATOM     12  C   UNL     1       9.766  19.639  27.719  1.00  0.00     0.174 CG0
ATOM     13  G   UNL     1       9.713  19.894  29.230  1.00  0.00     0.000 G0
BRANCH  12  14
ATOM     14  C   UNL     1      10.010  20.886  26.784  1.00  0.00     0.018 C 
ATOM     15  C   UNL     1      11.226  21.761  27.129  1.00  0.00     0.010 C 
BRANCH  14  16
ATOM     16  C   UNL     1      10.091  20.473  25.276  1.00  0.00     0.002 C 
ATOM     17  C   UNL     1      10.933  21.402  24.388  1.00  0.00     0.004 C 
ENDBRANCH  14  16
ENDBRANCH  12  14
ENDBRANCH   9  12
ENDBRANCH   7   8
BRANCH   7  18
ATOM     18  C   UNL     1       6.003  18.398  24.758  1.00  0.00     0.073 C 
BRANCH  18  19
ATOM     19  C   UNL     1       4.524  18.600  24.593  1.00  0.00    -0.016 A 
ATOM     20  C   UNL     1       3.507  17.900  25.237  1.00  0.00     0.134 A 
ATOM     21  C   UNL     1       3.895  19.502  23.753  1.00  0.00     0.006 A 
ATOM     22  N   UNL     1       2.303  18.356  24.810  1.00  0.00    -0.191 N 
ATOM     23  C   UNL     1       2.545  19.326  23.912  1.00  0.00     0.087 A 
ATOM     24  C   UNL     1       4.411  20.433  22.852  1.00  0.00     0.011 A 
ATOM     25  C   UNL     1       1.615  20.071  23.185  1.00  0.00     0.030 A 
ATOM     26  C   UNL     1       3.497  21.205  22.110  1.00  0.00     0.001 A 
ATOM     27  C   UNL     1       2.107  21.024  22.275  1.00  0.00     0.002 A 
BRANCH  22  28
ATOM     28  O   UNL     1       1.049  17.894  25.170  1.00  0.00    -0.417 OA
ATOM     29  C   UNL     1       0.319  16.973  24.370  1.00  0.00     0.313 C 
ENDBRANCH  22  28
ENDBRANCH  18  19
ENDBRANCH   7  18
ENDBRANCH   4   7
ENDBRANCH   2   3
BRANCH   2  30
ATOM     30  N   UNL     1       8.748  15.993  28.553  1.00  0.00    -0.343 N 
ATOM     31  C   UNL     1       9.688  16.911  29.129  1.00  0.00     0.243 C 
ATOM     32  H   UNL     1       7.948  15.652  29.150  1.00  0.00     0.164 HD
ATOM     33  O   UNL     1      10.784  17.142  28.552  1.00  0.00    -0.273 OA
BRANCH  31  34
ATOM     34  C   UNL     1       9.338  17.632  30.405  1.00  0.00     0.174 C 
ATOM     35  N   UNL     1       9.050  19.074  30.224  1.00  0.00    -0.329 N 
ATOM     36  C   UNL     1       8.136  16.944  31.080  1.00  0.00     0.035 C 
ATOM     37  C   UNL     1       8.731  19.778  31.482  1.00  0.00     0.120 C 
ATOM     38  C   UNL     1       7.825  17.611  32.423  1.00  0.00     0.004 C 
ATOM     39  C   UNL     1       7.570  19.107  32.228  1.00  0.00     0.022 C 
BRANCH  35  40
ATOM     40  C   UNL     1       9.763  19.856  29.233  1.00  0.00     0.246 CG0
ATOM     41  O   UNL     1      10.500  20.800  29.631  1.00  0.00    -0.272 OA
ATOM     42  G   UNL     1       9.718  19.581  27.726  1.00  0.00     0.000 G0
ENDBRANCH  35  40
ENDBRANCH  31  34
ENDBRANCH   2  30
ENDBRANCH   1   2
BRANCH   1  43
ATOM     43  C   UNL     1      10.739  13.959  26.125  1.00  0.00     0.003 C 
BRANCH  43  44
ATOM     44  C   UNL     1      10.760  12.746  27.070  1.00  0.00     0.001 C 
BRANCH  44  45
ATOM     45  C   UNL     1      10.006  11.561  26.452  1.00  0.00     0.008 C 
BRANCH  45  46
ATOM     46  C   UNL     1      10.169  10.268  27.264  1.00  0.00     0.075 C 
BRANCH  46  47
ATOM     47  C   UNL     1       8.887   9.475  27.393  1.00  0.00     0.132 C 
ATOM     48  O   UNL     1       8.857   8.519  28.150  1.00  0.00    -0.300 OA
BRANCH  47  49
ATOM     49  C   UNL     1       7.609   9.901  26.708  1.00  0.00     0.072 C 
ATOM     50  C   UNL     1       6.386   9.620  27.578  1.00  0.00     0.012 C 
ENDBRANCH  47  49
ENDBRANCH  46  47
ENDBRANCH  45  46
ENDBRANCH  44  45
ENDBRANCH  43  44
ENDBRANCH   1  43
TORSDOF 12
ENDMDL
MODEL 2
REMARK VINA RESULT:    72.601      1.042      1.808
REMARK INTER + INTRA:         155.904
REMARK INTER:                 150.572
REMARK INTRA:                   5.332
REMARK UNBOUND:                 2.662
REMARK SMILES CCC(=O)CCCCC[C@H]1NC(=O)[C@@H]2CCCCN2C(=O)[C@H]([C@@H](C)CC)NC(=O)[C@@H](Cc2cn(OC)c3ccccc23)NC1=O
REMARK SMILES IDX 9 1 10 2 44 3 43 4 45 6 30 7 28 8 27 9 29 11 22 12 23 14
REMARK SMILES IDX 24 15 25 16 26 17 31 18 32 19 33 20 42 21 34 22 37 23 41 24
REMARK SMILES IDX 38 25 40 26 39 27 35 28 36 29 11 30 12 31 13 33 14 34 19 35
REMARK SMILES IDX 15 36 18 37 16 38 17 39 20 40 21 41 8 43 7 44 6 45 5 46 3 47
REMARK SMILES IDX 4 48 2 49 1 50
REMARK H PARENT 43 5 27 10 11 32
REMARK Flexibility Score: 80.00
ROOT
ATOM      1  C   UNL     1      10.577  15.217  27.181  1.00  0.00     0.035 C 
ENDROOT
BRANCH   1   2
ATOM      2  C   UNL     1       9.088  15.557  27.407  1.00  0.00     0.171 C 
BRANCH   2   3
ATOM      3  C   UNL     1       8.611  16.512  26.348  1.00  0.00     0.243 C 
ATOM      4  N   UNL     1       7.202  16.740  26.174  1.00  0.00    -0.342 N 
ATOM      5  H   UNL     1       6.554  15.955  26.423  1.00  0.00     0.164 HD
ATOM      6  O   UNL     1       9.456  17.140  25.660  1.00  0.00    -0.273 OA
BRANCH   4   7
ATOM      7  C   UNL     1       6.579  18.050  25.934  1.00  0.00     0.175 C 
BRANCH   7   8
ATOM      8  C   UNL     1       7.384  19.166  26.562  1.00  0.00     0.243 C 
ATOM      9  N   UNL     1       8.607  18.890  27.293  1.00  0.00    -0.342 N 
ATOM     10  H   UNL     1       8.905  17.898  27.299  1.00  0.00     0.164 HD
ATOM     11  O   UNL     1       6.992  20.344  26.366  1.00  0.00    -0.273 OA
BRANCH   9  12
ATOM     12  C   UNL     1       9.637  19.833  27.797  1.00  0.00     0.174 CG0
ATOM     13  G   UNL     1       9.193  20.364  29.164  1.00  0.00     0.000 G0
BRANCH  12  14
ATOM     14  C   UNL     1      10.148  20.889  26.742  1.00  0.00     0.018 C 
ATOM     15  C   UNL     1      11.425  21.658  27.121  1.00  0.00     0.010 C 
BRANCH  14  16
ATOM     16  C   UNL     1      10.340  20.249  25.327  1.00  0.00     0.002 C 
ATOM     17  C   UNL     1      10.363  21.245  24.157  1.00  0.00     0.004 C 
ENDBRANCH  14  16
ENDBRANCH  12  14
ENDBRANCH   9  12
ENDBRANCH   7   8
BRANCH   7  18
ATOM     18  C   UNL     1       6.278  18.340  24.450  1.00  0.00     0.073 C 
BRANCH  18  19
ATOM     19  C   UNL     1       4.852  18.763  24.246  1.00  0.00    -0.016 A 
ATOM     20  C   UNL     1       4.357  19.575  23.228  1.00  0.00     0.134 A 
ATOM     21  C   UNL     1       3.766  18.445  25.042  1.00  0.00     0.006 A 
ATOM     22  N   UNL     1       3.023  19.747  23.393  1.00  0.00    -0.191 N 
ATOM     23  C   UNL     1       2.671  19.060  24.493  1.00  0.00     0.087 A 
ATOM     24  C   UNL     1       3.673  17.691  26.212  1.00  0.00     0.011 A 
ATOM     25  C   UNL     1       1.405  18.961  25.072  1.00  0.00     0.030 A 
ATOM     26  C   UNL     1       2.407  17.566  26.814  1.00  0.00     0.001 A 
ATOM     27  C   UNL     1       1.279  18.199  26.248  1.00  0.00     0.002 A 
BRANCH  22  28
ATOM     28  O   UNL     1       2.169  20.520  22.626  1.00  0.00    -0.417 OA
ATOM     29  C   UNL     1       1.984  20.297  21.234  1.00  0.00     0.313 C 
ENDBRANCH  22  28
ENDBRANCH  18  19
ENDBRANCH   7  18
ENDBRANCH   4   7
ENDBRANCH   2   3
BRANCH   2  30
ATOM     30  N   UNL     1       8.875  16.169  28.721  1.00  0.00    -0.343 N 
ATOM     31  C   UNL     1       9.576  17.344  29.154  1.00  0.00     0.243 C 
ATOM     32  H   UNL     1       8.243  15.679  29.409  1.00  0.00     0.164 HD
ATOM     33  O   UNL     1      10.523  17.807  28.464  1.00  0.00    -0.273 OA
BRANCH  31  34
ATOM     34  C   UNL     1       9.143  18.048  30.414  1.00  0.00     0.174 C 
ATOM     35  N   UNL     1       8.607  19.411  30.190  1.00  0.00    -0.329 N 
ATOM     36  C   UNL     1       8.095  17.193  31.154  1.00  0.00     0.035 C 
ATOM     37  C   UNL     1       8.207  20.102  31.433  1.00  0.00     0.120 C 
ATOM     38  C   UNL     1       7.710  17.853  32.481  1.00  0.00     0.004 C 
ATOM     39  C   UNL     1       7.198  19.274  32.241  1.00  0.00     0.022 C 
BRANCH  35  40
ATOM     40  C   UNL     1       9.149  20.260  29.149  1.00  0.00     0.246 CG0
ATOM     41  O   UNL     1       9.226  21.501  29.366  1.00  0.00    -0.272 OA
ATOM     42  G   UNL     1       9.681  19.743  27.807  1.00  0.00     0.000 G0
ENDBRANCH  35  40
ENDBRANCH  31  34
ENDBRANCH   2  30
ENDBRANCH   1   2
BRANCH   1  43
ATOM     43  C   UNL     1      10.797  13.938  26.355  1.00  0.00     0.003 C 
BRANCH  43  44
ATOM     44  C   UNL     1       9.625  12.948  26.460  1.00  0.00     0.001 C 
BRANCH  44  45
ATOM     45  C   UNL     1      10.133  11.534  26.772  1.00  0.00     0.008 C 
BRANCH  45  46
ATOM     46  C   UNL     1       9.205  10.438  26.226  1.00  0.00     0.075 C 
BRANCH  46  47
ATOM     47  C   UNL     1       8.789   9.428  27.272  1.00  0.00     0.132 C 
ATOM     48  O   UNL     1       9.633   8.980  28.030  1.00  0.00    -0.300 OA
BRANCH  47  49
ATOM     49  C   UNL     1       7.342   9.046  27.486  1.00  0.00     0.072 C 
ATOM     50  C   UNL     1       6.398   9.999  26.758  1.00  0.00     0.012 C 
ENDBRANCH  47  49
ENDBRANCH  46  47
ENDBRANCH  45  46
ENDBRANCH  44  45
ENDBRANCH  43  44
ENDBRANCH   1  43
TORSDOF 12
ENDMDL
MODEL 3
REMARK VINA RESULT:    73.319      2.877      5.898
REMARK INTER + INTRA:         157.420
REMARK INTER:                 153.594
REMARK INTRA:                   3.826
REMARK UNBOUND:                 2.662
REMARK SMILES CCC(=O)CCCCC[C@H]1NC(=O)[C@@H]2CCCCN2C(=O)[C@H]([C@@H](C)CC)NC(=O)[C@@H](Cc2cn(OC)c3ccccc23)NC1=O
REMARK SMILES IDX 9 1 10 2 44 3 43 4 45 6 30 7 28 8 27 9 29 11 22 12 23 14
REMARK SMILES IDX 24 15 25 16 26 17 31 18 32 19 33 20 42 21 34 22 37 23 41 24
REMARK SMILES IDX 38 25 40 26 39 27 35 28 36 29 11 30 12 31 13 33 14 34 19 35
REMARK SMILES IDX 15 36 18 37 16 38 17 39 20 40 21 41 8 43 7 44 6 45 5 46 3 47
REMARK SMILES IDX 4 48 2 49 1 50
REMARK H PARENT 43 5 27 10 11 32
REMARK Flexibility Score: 80.00
ROOT
ATOM      1  C   UNL     1       2.675  17.448  28.291  1.00  0.00     0.035 C 
ENDROOT
BRANCH   1   2
ATOM      2  C   UNL     1       4.097  18.020  28.099  1.00  0.00     0.171 C 
BRANCH   2   3
ATOM      3  C   UNL     1       4.527  17.864  26.668  1.00  0.00     0.243 C 
ATOM      4  N   UNL     1       5.128  18.972  25.977  1.00  0.00    -0.342 N 
ATOM      5  H   UNL     1       4.848  19.935  26.279  1.00  0.00     0.164 HD
ATOM      6  O   UNL     1       4.403  16.745  26.107  1.00  0.00    -0.273 OA
BRANCH   4   7
ATOM      7  C   UNL     1       6.289  18.882  25.077  1.00  0.00     0.175 C 
BRANCH   7   8
ATOM      8  C   UNL     1       7.234  17.783  25.508  1.00  0.00     0.243 C 
ATOM      9  N   UNL     1       7.943  17.853  26.772  1.00  0.00    -0.342 N 
ATOM     10  H   UNL     1       7.710  18.671  27.365  1.00  0.00     0.164 HD
ATOM     11  O   UNL     1       7.327  16.775  24.762  1.00  0.00    -0.273 OA
BRANCH   9  12
ATOM     12  C   UNL     1       8.738  16.810  27.467  1.00  0.00     0.174 CG0
ATOM     13  G   UNL     1       9.368  17.425  28.722  1.00  0.00     0.000 G0
BRANCH  12  14
ATOM     14  C   UNL     1       9.678  15.955  26.532  1.00  0.00     0.018 C 
ATOM     15  C   UNL     1      10.996  16.622  26.106  1.00  0.00     0.010 C 
BRANCH  14  16
ATOM     16  C   UNL     1       9.994  14.553  27.153  1.00  0.00     0.002 C 
ATOM     17  C   UNL     1      11.019  13.711  26.379  1.00  0.00     0.004 C 
ENDBRANCH  14  16
ENDBRANCH  12  14
ENDBRANCH   9  12
ENDBRANCH   7   8
BRANCH   7  18
ATOM     18  C   UNL     1       5.918  18.753  23.586  1.00  0.00     0.073 C 
BRANCH  18  19
ATOM     19  C   UNL     1       4.794  19.675  23.213  1.00  0.00    -0.016 A 
ATOM     20  C   UNL     1       3.749  19.408  22.331  1.00  0.00     0.134 A 
ATOM     21  C   UNL     1       4.597  20.971  23.655  1.00  0.00     0.006 A 
ATOM     22  N   UNL     1       2.945  20.495  22.238  1.00  0.00    -0.191 N 
ATOM     23  C   UNL     1       3.464  21.438  23.042  1.00  0.00     0.087 A 
ATOM     24  C   UNL     1       5.344  21.771  24.521  1.00  0.00     0.011 A 
ATOM     25  C   UNL     1       2.994  22.735  23.255  1.00  0.00     0.030 A 
ATOM     26  C   UNL     1       4.890  23.081  24.761  1.00  0.00     0.001 A 
ATOM     27  C   UNL     1       3.722  23.561  24.131  1.00  0.00     0.002 A 
BRANCH  22  28
ATOM     28  O   UNL     1       1.828  20.654  21.436  1.00  0.00    -0.417 OA
ATOM     29  C   UNL     1       1.225  19.565  20.748  1.00  0.00     0.313 C 
ENDBRANCH  22  28
ENDBRANCH  18  19
ENDBRANCH   7  18
ENDBRANCH   4   7
ENDBRANCH   2   3
BRANCH   2  30
ATOM     30  N   UNL     1       5.066  17.336  28.959  1.00  0.00    -0.343 N 
ATOM     31  C   UNL     1       6.404  17.815  29.158  1.00  0.00     0.243 C 
ATOM     32  H   UNL     1       4.797  16.409  29.384  1.00  0.00     0.164 HD
ATOM     33  O   UNL     1       6.842  18.774  28.468  1.00  0.00    -0.273 OA
BRANCH  31  34
ATOM     34  C   UNL     1       7.265  17.197  30.228  1.00  0.00     0.174 C 
ATOM     35  N   UNL     1       8.718  17.420  30.038  1.00  0.00    -0.329 N 
ATOM     36  C   UNL     1       6.836  17.724  31.611  1.00  0.00     0.035 C 
ATOM     37  C   UNL     1       9.556  16.791  31.079  1.00  0.00     0.120 C 
ATOM     38  C   UNL     1       7.642  17.037  32.718  1.00  0.00     0.004 C 
ATOM     39  C   UNL     1       9.141  17.240  32.487  1.00  0.00     0.022 C 
BRANCH  35  40
ATOM     40  C   UNL     1       9.296  17.462  28.710  1.00  0.00     0.246 CG0
ATOM     41  O   UNL     1      10.394  18.064  28.553  1.00  0.00    -0.272 OA
ATOM     42  G   UNL     1       8.681  16.780  27.483  1.00  0.00     0.000 G0
ENDBRANCH  35  40
ENDBRANCH  31  34
ENDBRANCH   2  30
ENDBRANCH   1   2
BRANCH   1  43
ATOM     43  C   UNL     1       1.591  18.228  27.527  1.00  0.00     0.003 C 
BRANCH  43  44
ATOM     44  C   UNL     1       1.385  17.716  26.092  1.00  0.00     0.001 C 
BRANCH  44  45
ATOM     45  C   UNL     1       1.388  18.881  25.093  1.00  0.00     0.008 C 
BRANCH  45  46
ATOM     46  C   UNL     1       0.169  18.861  24.158  1.00  0.00     0.075 C 
BRANCH  46  47
ATOM     47  C   UNL     1      -0.065  17.516  23.505  1.00  0.00     0.132 C 
ATOM     48  O   UNL     1      -0.491  17.480  22.363  1.00  0.00    -0.300 OA
BRANCH  47  49
ATOM     49  C   UNL     1       0.324  16.220  24.179  1.00  0.00     0.072 C 
ATOM     50  C   UNL     1      -0.875  15.557  24.852  1.00  0.00     0.012 C 
ENDBRANCH  47  49
ENDBRANCH  46  47
ENDBRANCH  45  46
ENDBRANCH  44  45
ENDBRANCH  43  44
ENDBRANCH   1  43
TORSDOF 12
ENDMDL
MODEL 4
REMARK VINA RESULT:    74.200      3.479     10.155
REMARK INTER + INTRA:         159.279
REMARK INTER:                 156.930
REMARK INTRA:                   2.349
REMARK UNBOUND:                 2.662
REMARK SMILES CCC(=O)CCCCC[C@H]1NC(=O)[C@@H]2CCCCN2C(=O)[C@H]([C@@H](C)CC)NC(=O)[C@@H](Cc2cn(OC)c3ccccc23)NC1=O
REMARK SMILES IDX 9 1 10 2 44 3 43 4 45 6 30 7 28 8 27 9 29 11 22 12 23 14
REMARK SMILES IDX 24 15 25 16 26 17 31 18 32 19 33 20 42 21 34 22 37 23 41 24
REMARK SMILES IDX 38 25 40 26 39 27 35 28 36 29 11 30 12 31 13 33 14 34 19 35
REMARK SMILES IDX 15 36 18 37 16 38 17 39 20 40 21 41 8 43 7 44 6 45 5 46 3 47
REMARK SMILES IDX 4 48 2 49 1 50
REMARK H PARENT 43 5 27 10 11 32
REMARK Flexibility Score: 80.00
ROOT
ATOM      1  C   UNL     1       4.939  20.903  21.991  1.00  0.00     0.035 C 
ENDROOT
BRANCH   1   2
ATOM      2  C   UNL     1       4.768  20.896  23.526  1.00  0.00     0.171 C 
BRANCH   2   3
ATOM      3  C   UNL     1       5.170  19.559  24.083  1.00  0.00     0.243 C 
ATOM      4  N   UNL     1       5.706  19.472  25.415  1.00  0.00    -0.342 N 
ATOM      5  H   UNL     1       6.224  20.306  25.779  1.00  0.00     0.164 HD
ATOM      6  O   UNL     1       4.983  18.524  23.394  1.00  0.00    -0.273 OA
BRANCH   4   7
ATOM      7  C   UNL     1       5.366  18.433  26.399  1.00  0.00     0.175 C 
BRANCH   7   8
ATOM      8  C   UNL     1       3.879  18.163  26.423  1.00  0.00     0.243 C 
ATOM      9  N   UNL     1       3.122  18.009  25.194  1.00  0.00    -0.342 N 
ATOM     10  H   UNL     1       3.683  18.042  24.323  1.00  0.00     0.164 HD
ATOM     11  O   UNL     1       3.337  18.005  27.547  1.00  0.00    -0.273 OA
BRANCH   9  12
ATOM     12  C   UNL     1       1.727  17.543  24.998  1.00  0.00     0.174 CG0
ATOM     13  G   UNL     1       1.007  18.522  24.063  1.00  0.00     0.000 G0
BRANCH  12  14
ATOM     14  C   UNL     1       0.974  17.117  26.317  1.00  0.00     0.018 C 
ATOM     15  C   UNL     1       0.194  18.228  27.038  1.00  0.00     0.010 C 
BRANCH  14  16
ATOM     16  C   UNL     1       0.019  15.901  26.072  1.00  0.00     0.002 C 
ATOM     17  C   UNL     1      -0.627  15.847  24.679  1.00  0.00     0.004 C 
ENDBRANCH  14  16
ENDBRANCH  12  14
ENDBRANCH   9  12
ENDBRANCH   7   8
BRANCH   7  18
ATOM     18  C   UNL     1       6.172  17.128  26.237  1.00  0.00     0.073 C 
BRANCH  18  19
ATOM     19  C   UNL     1       7.412  17.133  27.084  1.00  0.00    -0.016 A 
ATOM     20  C   UNL     1       7.716  18.015  28.118  1.00  0.00     0.134 A 
ATOM     21  C   UNL     1       8.494  16.277  26.982  1.00  0.00     0.006 A 
ATOM     22  N   UNL     1       8.934  17.712  28.629  1.00  0.00    -0.191 N 
ATOM     23  C   UNL     1       9.400  16.659  27.937  1.00  0.00     0.087 A 
ATOM     24  C   UNL     1       8.753  15.222  26.107  1.00  0.00     0.011 A 
ATOM     25  C   UNL     1      10.626  16.009  28.089  1.00  0.00     0.030 A 
ATOM     26  C   UNL     1       9.978  14.543  26.241  1.00  0.00     0.001 A 
ATOM     27  C   UNL     1      10.911  14.935  27.226  1.00  0.00     0.002 A 
BRANCH  22  28
ATOM     28  O   UNL     1       9.618  18.375  29.633  1.00  0.00    -0.417 OA
ATOM     29  C   UNL     1       9.277  18.236  31.006  1.00  0.00     0.313 C 
ENDBRANCH  22  28
ENDBRANCH  18  19
ENDBRANCH   7  18
ENDBRANCH   4   7
ENDBRANCH   2   3
BRANCH   2  30
ATOM     30  N   UNL     1       3.379  21.166  23.908  1.00  0.00    -0.343 N 
ATOM     31  C   UNL     1       2.268  20.894  23.042  1.00  0.00     0.243 C 
ATOM     32  H   UNL     1       3.194  21.657  24.823  1.00  0.00     0.164 HD
ATOM     33  O   UNL     1       2.466  20.548  21.847  1.00  0.00    -0.273 OA
BRANCH  31  34
ATOM     34  C   UNL     1       0.864  20.978  23.583  1.00  0.00     0.174 C 
ATOM     35  N   UNL     1       0.457  19.804  24.390  1.00  0.00    -0.329 N 
ATOM     36  C   UNL     1       0.704  22.263  24.418  1.00  0.00     0.035 C 
ATOM     37  C   UNL     1      -0.929  19.884  24.896  1.00  0.00     0.120 C 
ATOM     38  C   UNL     1      -0.743  22.408  24.900  1.00  0.00     0.004 C 
ATOM     39  C   UNL     1      -1.165  21.172  25.697  1.00  0.00     0.022 C 
BRANCH  35  40
ATOM     40  C   UNL     1       0.925  18.474  24.055  1.00  0.00     0.246 CG0
ATOM     41  O   UNL     1       0.682  18.025  22.901  1.00  0.00    -0.272 OA
ATOM     42  G   UNL     1       1.742  17.587  25.001  1.00  0.00     0.000 G0
ENDBRANCH  35  40
ENDBRANCH  31  34
ENDBRANCH   2  30
ENDBRANCH   1   2
BRANCH   1  43
ATOM     43  C   UNL     1       4.988  22.316  21.385  1.00  0.00     0.003 C 
BRANCH  43  44
ATOM     44  C   UNL     1       6.172  23.149  21.903  1.00  0.00     0.001 C 
BRANCH  44  45
ATOM     45  C   UNL     1       5.698  24.194  22.922  1.00  0.00     0.008 C 
BRANCH  45  46
ATOM     46  C   UNL     1       6.863  24.868  23.663  1.00  0.00     0.075 C 
BRANCH  46  47
ATOM     47  C   UNL     1       7.873  23.886  24.213  1.00  0.00     0.132 C 
ATOM     48  O   UNL     1       7.631  23.314  25.263  1.00  0.00    -0.300 OA
BRANCH  47  49
ATOM     49  C   UNL     1       9.116  23.499  23.444  1.00  0.00     0.072 C 
ATOM     50  C   UNL     1      10.343  24.255  23.948  1.00  0.00     0.012 C 
ENDBRANCH  47  49
ENDBRANCH  46  47
ENDBRANCH  45  46
ENDBRANCH  44  45
ENDBRANCH  43  44
ENDBRANCH   1  43
TORSDOF 12
ENDMDL
