MODEL 1
REMARK VINA RESULT:    18.916      0.000      0.000
REMARK INTER + INTRA:          25.089
REMARK INTER:                  26.103
REMARK INTRA:                  -1.014
REMARK UNBOUND:                -1.014
REMARK SMILES CC[C@@H](CC[C@@H](C)[C@@H]1CC[C@H]2[C@@H]3CC=C4C[C@H](O)CC[C@@]4(C)[C@@H]3CC[C@@]21C)C(C)C
REMARK SMILES IDX 5 1 4 2 3 3 2 4 1 5 28 6 29 7 30 8 6 9 7 10 8 11 9 12 26 13
REMARK SMILES IDX 10 14 11 15 25 16 27 17 12 18 24 19 23 20 13 21 21 22 14 23
REMARK SMILES IDX 15 24 20 25 22 26 16 27 19 28 17 29 18 30
REMARK H PARENT 18 31
REMARK Flexibility Score: inf
ROOT
ATOM      1  C   UNL     1      12.788  22.013  -3.412  1.00  0.00     0.004 C 
ENDROOT
BRANCH   1   2
ATOM      2  C   UNL     1      13.809  23.173  -3.413  1.00  0.00     0.004 C 
BRANCH   2   3
ATOM      3  C   UNL     1      13.586  24.166  -2.226  1.00  0.00    -0.009 C 
BRANCH   3   4
ATOM      4  C   UNL     1      12.658  25.348  -2.610  1.00  0.00     0.000 C 
ATOM      5  C   UNL     1      12.637  25.605  -4.117  1.00  0.00     0.004 C 
ENDBRANCH   3   4
BRANCH   3   6
ATOM      6  C   UNL     1      14.954  24.642  -1.636  1.00  0.00    -0.014 C 
ATOM      7  C   UNL     1      15.877  23.470  -1.264  1.00  0.00     0.007 C 
ATOM      8  C   UNL     1      14.802  25.602  -0.442  1.00  0.00     0.007 C 
ENDBRANCH   3   6
ENDBRANCH   2   3
ENDBRANCH   1   2
BRANCH   1   9
ATOM      9  C   UNL     1      12.210  21.691  -2.004  1.00  0.00    -0.011 C 
ATOM     10  C   UNL     1      10.759  21.156  -2.122  1.00  0.00     0.008 C 
BRANCH   9  11
ATOM     11  C   UNL     1      13.189  20.730  -1.234  1.00  0.00    -0.002 C 
ATOM     12  C   UNL     1      12.639  19.286  -1.078  1.00  0.00     0.005 C 
ATOM     13  C   UNL     1      13.702  21.142   0.197  1.00  0.00    -0.026 C 
ATOM     14  C   UNL     1      12.826  18.875   0.385  1.00  0.00     0.005 C 
ATOM     15  C   UNL     1      12.897  20.200   1.119  1.00  0.00    -0.001 C 
ATOM     16  C   UNL     1      13.513  22.627   0.675  1.00  0.00     0.007 C 
ATOM     17  C   UNL     1      15.235  20.827   0.244  1.00  0.00     0.012 C 
ATOM     18  C   UNL     1      13.417  20.197   2.577  1.00  0.00     0.000 C 
ATOM     19  C   UNL     1      13.013  22.744   2.140  1.00  0.00     0.005 C 
ATOM     20  C   UNL     1      13.617  21.673   3.106  1.00  0.00     0.003 C 
ATOM     21  C   UNL     1      12.502  19.363   3.481  1.00  0.00     0.031 C 
ATOM     22  C   UNL     1      13.230  21.911   4.634  1.00  0.00    -0.008 C 
ATOM     23  C   UNL     1      12.970  19.440   4.899  1.00  0.00    -0.027 C 
ATOM     24  C   UNL     1      13.339  20.611   5.447  1.00  0.00    -0.065 C 
ATOM     25  C   UNL     1      14.212  22.973   5.220  1.00  0.00     0.014 C 
ATOM     26  C   UNL     1      11.775  22.435   4.790  1.00  0.00     0.016 C 
ATOM     27  C   UNL     1      13.536  20.654   6.953  1.00  0.00     0.063 C 
ATOM     28  C   UNL     1      14.158  23.084   6.748  1.00  0.00     0.033 C 
ATOM     29  C   UNL     1      14.522  21.740   7.386  1.00  0.00     0.118 C 
BRANCH  29  30
ATOM     30  O   UNL     1      14.492  21.853   8.784  1.00  0.00    -0.393 OA
ATOM     31  H   UNL     1      15.298  21.383   9.128  1.00  0.00     0.210 HD
ENDBRANCH  29  30
ENDBRANCH   9  11
ENDBRANCH   1   9
TORSDOF 7
ENDMDL
MODEL 2
REMARK VINA RESULT:    20.448      0.537      1.657
REMARK INTER + INTRA:          27.204
REMARK INTER:                  25.541
REMARK INTRA:                   1.663
REMARK UNBOUND:                -1.014
REMARK SMILES CC[C@@H](CC[C@@H](C)[C@@H]1CC[C@H]2[C@@H]3CC=C4C[C@H](O)CC[C@@]4(C)[C@@H]3CC[C@@]21C)C(C)C
REMARK SMILES IDX 5 1 4 2 3 3 2 4 1 5 28 6 29 7 30 8 6 9 7 10 8 11 9 12 26 13
REMARK SMILES IDX 10 14 11 15 25 16 27 17 12 18 24 19 23 20 13 21 21 22 14 23
REMARK SMILES IDX 15 24 20 25 22 26 16 27 19 28 17 29 18 30
REMARK H PARENT 18 31
REMARK Flexibility Score: inf
ROOT
ATOM      1  C   UNL     1      13.206  22.642  -2.879  1.00  0.00     0.004 C 
ENDROOT
BRANCH   1   2
ATOM      2  C   UNL     1      14.558  23.020  -2.232  1.00  0.00     0.004 C 
BRANCH   2   3
ATOM      3  C   UNL     1      14.771  24.567  -2.151  1.00  0.00    -0.009 C 
BRANCH   3   4
ATOM      4  C   UNL     1      15.276  25.022  -0.757  1.00  0.00     0.000 C 
ATOM      5  C   UNL     1      16.143  23.962  -0.078  1.00  0.00     0.004 C 
ENDBRANCH   3   4
BRANCH   3   6
ATOM      6  C   UNL     1      13.482  25.329  -2.602  1.00  0.00    -0.014 C 
ATOM      7  C   UNL     1      12.226  24.865  -1.846  1.00  0.00     0.007 C 
ATOM      8  C   UNL     1      13.241  25.272  -4.123  1.00  0.00     0.007 C 
ENDBRANCH   3   6
ENDBRANCH   2   3
ENDBRANCH   1   2
BRANCH   1   9
ATOM      9  C   UNL     1      12.342  21.688  -2.006  1.00  0.00    -0.011 C 
ATOM     10  C   UNL     1      11.269  20.980  -2.875  1.00  0.00     0.008 C 
BRANCH   9  11
ATOM     11  C   UNL     1      13.275  20.704  -1.210  1.00  0.00    -0.002 C 
ATOM     12  C   UNL     1      12.679  19.278  -1.053  1.00  0.00     0.005 C 
ATOM     13  C   UNL     1      13.773  21.112   0.228  1.00  0.00    -0.026 C 
ATOM     14  C   UNL     1      12.825  18.875   0.417  1.00  0.00     0.005 C 
ATOM     15  C   UNL     1      12.922  20.203   1.142  1.00  0.00    -0.001 C 
ATOM     16  C   UNL     1      13.622  22.607   0.690  1.00  0.00     0.007 C 
ATOM     17  C   UNL     1      15.294  20.751   0.307  1.00  0.00     0.012 C 
ATOM     18  C   UNL     1      13.414  20.197   2.610  1.00  0.00     0.000 C 
ATOM     19  C   UNL     1      13.097  22.752   2.145  1.00  0.00     0.005 C 
ATOM     20  C   UNL     1      13.649  21.670   3.130  1.00  0.00     0.003 C 
ATOM     21  C   UNL     1      12.456  19.400   3.503  1.00  0.00     0.031 C 
ATOM     22  C   UNL     1      13.240  21.933   4.649  1.00  0.00    -0.008 C 
ATOM     23  C   UNL     1      12.900  19.474   4.928  1.00  0.00    -0.027 C 
ATOM     24  C   UNL     1      13.294  20.638   5.474  1.00  0.00    -0.065 C 
ATOM     25  C   UNL     1      14.244  22.970   5.245  1.00  0.00     0.014 C 
ATOM     26  C   UNL     1      11.800  22.504   4.772  1.00  0.00     0.016 C 
ATOM     27  C   UNL     1      13.463  20.688   6.984  1.00  0.00     0.063 C 
ATOM     28  C   UNL     1      14.164  23.095   6.770  1.00  0.00     0.033 C 
ATOM     29  C   UNL     1      14.474  21.747   7.426  1.00  0.00     0.118 C 
BRANCH  29  30
ATOM     30  O   UNL     1      14.420  21.873   8.823  1.00  0.00    -0.393 OA
ATOM     31  H   UNL     1      14.161  20.983   9.182  1.00  0.00     0.210 HD
ENDBRANCH  29  30
ENDBRANCH   9  11
ENDBRANCH   1   9
TORSDOF 7
ENDMDL
