MODEL 1
REMARK VINA RESULT:    -8.185      0.000      0.000
REMARK INTER + INTRA:         -12.816
REMARK INTER:                 -11.295
REMARK INTRA:                  -1.521
REMARK UNBOUND:                -1.521
REMARK SMILES CC[C@H](CC[C@@H](C)[C@@H]1CC[C@H]2[C@H]3CC=C4C[C@@H](O)CC[C@]4(C)[C@H]3CC[C@]21C)C(C)C
REMARK SMILES IDX 5 1 4 2 3 3 2 4 1 5 28 6 29 7 30 8 6 9 7 10 8 11 9 12 26 13
REMARK SMILES IDX 10 14 11 15 25 16 27 17 12 18 24 19 23 20 13 21 21 22 14 23
REMARK SMILES IDX 15 24 20 25 22 26 16 27 19 28 17 29 18 30
REMARK H PARENT 18 31
REMARK Flexibility Score: inf
ROOT
ATOM      1  C   UNL     1      28.094 -26.860  36.653  1.00  0.00     0.004 C 
ENDROOT
BRANCH   1   2
ATOM      2  C   UNL     1      26.765 -27.062  37.402  1.00  0.00     0.004 C 
BRANCH   2   3
ATOM      3  C   UNL     1      26.785 -28.172  38.492  1.00  0.00    -0.009 C 
BRANCH   3   4
ATOM      4  C   UNL     1      26.507 -27.654  39.930  1.00  0.00     0.000 C 
ATOM      5  C   UNL     1      26.556 -26.129  40.046  1.00  0.00     0.004 C 
ENDBRANCH   3   4
BRANCH   3   6
ATOM      6  C   UNL     1      25.913 -29.417  38.099  1.00  0.00    -0.014 C 
ATOM      7  C   UNL     1      25.263 -30.053  39.336  1.00  0.00     0.007 C 
ATOM      8  C   UNL     1      24.826 -29.130  37.044  1.00  0.00     0.007 C 
ENDBRANCH   3   6
ENDBRANCH   2   3
ENDBRANCH   1   2
BRANCH   1   9
ATOM      9  C   UNL     1      28.277 -27.726  35.373  1.00  0.00    -0.011 C 
ATOM     10  C   UNL     1      28.830 -29.131  35.701  1.00  0.00     0.008 C 
BRANCH   9  11
ATOM     11  C   UNL     1      27.024 -27.685  34.412  1.00  0.00    -0.002 C 
ATOM     12  C   UNL     1      26.690 -29.036  33.744  1.00  0.00     0.005 C 
ATOM     13  C   UNL     1      27.062 -26.677  33.208  1.00  0.00    -0.026 C 
ATOM     14  C   UNL     1      27.110 -28.947  32.277  1.00  0.00     0.005 C 
ATOM     15  C   UNL     1      27.654 -27.528  32.059  1.00  0.00    -0.001 C 
ATOM     16  C   UNL     1      25.590 -26.191  32.887  1.00  0.00     0.007 C 
ATOM     17  C   UNL     1      27.942 -25.427  33.459  1.00  0.00     0.012 C 
ATOM     18  C   UNL     1      27.480 -26.919  30.634  1.00  0.00     0.000 C 
ATOM     19  C   UNL     1      25.096 -26.462  31.461  1.00  0.00     0.005 C 
ATOM     20  C   UNL     1      26.163 -26.103  30.413  1.00  0.00     0.003 C 
ATOM     21  C   UNL     1      27.759 -27.939  29.513  1.00  0.00     0.031 C 
ATOM     22  C   UNL     1      25.619 -26.097  28.918  1.00  0.00    -0.008 C 
ATOM     23  C   UNL     1      27.725 -27.238  28.189  1.00  0.00    -0.027 C 
ATOM     24  C   UNL     1      26.756 -26.345  27.921  1.00  0.00    -0.065 C 
ATOM     25  C   UNL     1      24.958 -24.714  28.598  1.00  0.00     0.014 C 
ATOM     26  C   UNL     1      24.552 -27.196  28.677  1.00  0.00     0.016 C 
ATOM     27  C   UNL     1      26.807 -25.519  26.656  1.00  0.00     0.063 C 
ATOM     28  C   UNL     1      25.994 -23.635  28.226  1.00  0.00     0.033 C 
ATOM     29  C   UNL     1      26.866 -24.020  27.000  1.00  0.00     0.118 C 
BRANCH  29  30
ATOM     30  O   UNL     1      26.471 -23.280  25.872  1.00  0.00    -0.393 OA
ATOM     31  H   UNL     1      25.665 -23.735  25.506  1.00  0.00     0.210 HD
ENDBRANCH  29  30
ENDBRANCH   9  11
ENDBRANCH   1   9
TORSDOF 7
ENDMDL
MODEL 2
REMARK VINA RESULT:    -8.145      0.556      1.633
REMARK INTER + INTRA:         -12.761
REMARK INTER:                 -11.220
REMARK INTRA:                  -1.541
REMARK UNBOUND:                -1.521
REMARK SMILES CC[C@H](CC[C@@H](C)[C@@H]1CC[C@H]2[C@H]3CC=C4C[C@@H](O)CC[C@]4(C)[C@H]3CC[C@]21C)C(C)C
REMARK SMILES IDX 5 1 4 2 3 3 2 4 1 5 28 6 29 7 30 8 6 9 7 10 8 11 9 12 26 13
REMARK SMILES IDX 10 14 11 15 25 16 27 17 12 18 24 19 23 20 13 21 21 22 14 23
REMARK SMILES IDX 15 24 20 25 22 26 16 27 19 28 17 29 18 30
REMARK H PARENT 18 31
REMARK Flexibility Score: inf
ROOT
ATOM      1  C   UNL     1      28.327 -26.834  36.624  1.00  0.00     0.004 C 
ENDROOT
BRANCH   1   2
ATOM      2  C   UNL     1      26.928 -26.268  36.928  1.00  0.00     0.004 C 
BRANCH   2   3
ATOM      3  C   UNL     1      26.232 -26.869  38.182  1.00  0.00    -0.009 C 
BRANCH   3   4
ATOM      4  C   UNL     1      26.820 -28.231  38.643  1.00  0.00     0.000 C 
ATOM      5  C   UNL     1      26.031 -29.438  38.133  1.00  0.00     0.004 C 
ENDBRANCH   3   4
BRANCH   3   6
ATOM      6  C   UNL     1      26.086 -25.827  39.347  1.00  0.00    -0.014 C 
ATOM      7  C   UNL     1      26.089 -26.519  40.717  1.00  0.00     0.007 C 
ATOM      8  C   UNL     1      27.147 -24.708  39.340  1.00  0.00     0.007 C 
ENDBRANCH   3   6
ENDBRANCH   2   3
ENDBRANCH   1   2
BRANCH   1   9
ATOM      9  C   UNL     1      28.418 -27.748  35.368  1.00  0.00    -0.011 C 
ATOM     10  C   UNL     1      28.915 -29.168  35.723  1.00  0.00     0.008 C 
BRANCH   9  11
ATOM     11  C   UNL     1      27.133 -27.677  34.453  1.00  0.00    -0.002 C 
ATOM     12  C   UNL     1      26.728 -29.025  33.817  1.00  0.00     0.005 C 
ATOM     13  C   UNL     1      27.160 -26.687  33.234  1.00  0.00    -0.026 C 
ATOM     14  C   UNL     1      27.096 -28.968  32.334  1.00  0.00     0.005 C 
ATOM     15  C   UNL     1      27.680 -27.573  32.076  1.00  0.00    -0.001 C 
ATOM     16  C   UNL     1      25.695 -26.154  32.961  1.00  0.00     0.007 C 
ATOM     17  C   UNL     1      28.091 -25.465  33.435  1.00  0.00     0.012 C 
ATOM     18  C   UNL     1      27.474 -26.976  30.650  1.00  0.00     0.000 C 
ATOM     19  C   UNL     1      25.139 -26.426  31.557  1.00  0.00     0.005 C 
ATOM     20  C   UNL     1      26.178 -26.118  30.466  1.00  0.00     0.003 C 
ATOM     21  C   UNL     1      27.676 -28.019  29.534  1.00  0.00     0.031 C 
ATOM     22  C   UNL     1      25.579 -26.113  28.992  1.00  0.00    -0.008 C 
ATOM     23  C   UNL     1      27.618 -27.335  28.202  1.00  0.00    -0.027 C 
ATOM     24  C   UNL     1      26.670 -26.413  27.957  1.00  0.00    -0.065 C 
ATOM     25  C   UNL     1      24.955 -24.712  28.676  1.00  0.00     0.014 C 
ATOM     26  C   UNL     1      24.468 -27.178  28.805  1.00  0.00     0.016 C 
ATOM     27  C   UNL     1      26.701 -25.606  26.680  1.00  0.00     0.063 C 
ATOM     28  C   UNL     1      26.012 -23.674  28.252  1.00  0.00     0.033 C 
ATOM     29  C   UNL     1      26.825 -24.105  27.001  1.00  0.00     0.118 C 
BRANCH  29  30
ATOM     30  O   UNL     1      26.413 -23.366  25.877  1.00  0.00    -0.393 OA
ATOM     31  H   UNL     1      26.591 -22.410  26.089  1.00  0.00     0.210 HD
ENDBRANCH  29  30
ENDBRANCH   9  11
ENDBRANCH   1   9
TORSDOF 7
ENDMDL
MODEL 3
REMARK VINA RESULT:    -8.015      1.755      3.772
REMARK INTER + INTRA:         -12.582
REMARK INTER:                 -10.998
REMARK INTRA:                  -1.584
REMARK UNBOUND:                -1.521
REMARK SMILES CC[C@H](CC[C@@H](C)[C@@H]1CC[C@H]2[C@H]3CC=C4C[C@@H](O)CC[C@]4(C)[C@H]3CC[C@]21C)C(C)C
REMARK SMILES IDX 5 1 4 2 3 3 2 4 1 5 28 6 29 7 30 8 6 9 7 10 8 11 9 12 26 13
REMARK SMILES IDX 10 14 11 15 25 16 27 17 12 18 24 19 23 20 13 21 21 22 14 23
REMARK SMILES IDX 15 24 20 25 22 26 16 27 19 28 17 29 18 30
REMARK H PARENT 18 31
REMARK Flexibility Score: inf
ROOT
ATOM      1  C   UNL     1      26.069 -27.884  33.637  1.00  0.00     0.004 C 
ENDROOT
BRANCH   1   2
ATOM      2  C   UNL     1      26.373 -26.699  34.572  1.00  0.00     0.004 C 
BRANCH   2   3
ATOM      3  C   UNL     1      27.516 -26.946  35.599  1.00  0.00    -0.009 C 
BRANCH   3   4
ATOM      4  C   UNL     1      27.727 -28.440  35.965  1.00  0.00     0.000 C 
ATOM      5  C   UNL     1      27.255 -28.792  37.378  1.00  0.00     0.004 C 
ENDBRANCH   3   4
BRANCH   3   6
ATOM      6  C   UNL     1      28.844 -26.205  35.210  1.00  0.00    -0.014 C 
ATOM      7  C   UNL     1      29.951 -27.204  34.846  1.00  0.00     0.007 C 
ATOM      8  C   UNL     1      28.693 -25.176  34.072  1.00  0.00     0.007 C 
ENDBRANCH   3   6
ENDBRANCH   2   3
ENDBRANCH   1   2
BRANCH   1   9
ATOM      9  C   UNL     1      26.870 -27.903  32.303  1.00  0.00    -0.011 C 
ATOM     10  C   UNL     1      28.028 -28.925  32.340  1.00  0.00     0.008 C 
BRANCH   9  11
ATOM     11  C   UNL     1      25.945 -27.955  31.024  1.00  0.00    -0.002 C 
ATOM     12  C   UNL     1      26.446 -28.904  29.914  1.00  0.00     0.005 C 
ATOM     13  C   UNL     1      25.675 -26.607  30.265  1.00  0.00    -0.026 C 
ATOM     14  C   UNL     1      27.003 -28.041  28.782  1.00  0.00     0.005 C 
ATOM     15  C   UNL     1      26.796 -26.578  29.197  1.00  0.00    -0.001 C 
ATOM     16  C   UNL     1      24.234 -26.655  29.611  1.00  0.00     0.007 C 
ATOM     17  C   UNL     1      25.759 -25.348  31.164  1.00  0.00     0.012 C 
ATOM     18  C   UNL     1      26.582 -25.544  28.049  1.00  0.00     0.000 C 
ATOM     19  C   UNL     1      24.188 -26.464  28.089  1.00  0.00     0.005 C 
ATOM     20  C   UNL     1      25.091 -25.306  27.635  1.00  0.00     0.003 C 
ATOM     21  C   UNL     1      27.515 -25.789  26.847  1.00  0.00     0.031 C 
ATOM     22  C   UNL     1      24.876 -24.880  26.117  1.00  0.00    -0.008 C 
ATOM     23  C   UNL     1      27.358 -24.669  25.864  1.00  0.00    -0.027 C 
ATOM     24  C   UNL     1      26.133 -24.209  25.553  1.00  0.00    -0.065 C 
ATOM     25  C   UNL     1      23.677 -23.876  26.012  1.00  0.00     0.014 C 
ATOM     26  C   UNL     1      24.556 -26.093  25.206  1.00  0.00     0.016 C 
ATOM     27  C   UNL     1      25.975 -22.979  24.689  1.00  0.00     0.063 C 
ATOM     28  C   UNL     1      24.082 -22.431  26.360  1.00  0.00     0.033 C 
ATOM     29  C   UNL     1      25.220 -21.880  25.460  1.00  0.00     0.118 C 
BRANCH  29  30
ATOM     30  O   UNL     1      24.704 -20.953  24.537  1.00  0.00    -0.393 OA
ATOM     31  H   UNL     1      24.655 -20.081  25.013  1.00  0.00     0.210 HD
ENDBRANCH  29  30
ENDBRANCH   9  11
ENDBRANCH   1   9
TORSDOF 7
ENDMDL
MODEL 4
REMARK VINA RESULT:    -7.981      2.953      8.902
REMARK INTER + INTRA:         -12.534
REMARK INTER:                 -10.656
REMARK INTRA:                  -1.879
REMARK UNBOUND:                -1.521
REMARK SMILES CC[C@H](CC[C@@H](C)[C@@H]1CC[C@H]2[C@H]3CC=C4C[C@@H](O)CC[C@]4(C)[C@H]3CC[C@]21C)C(C)C
REMARK SMILES IDX 5 1 4 2 3 3 2 4 1 5 28 6 29 7 30 8 6 9 7 10 8 11 9 12 26 13
REMARK SMILES IDX 10 14 11 15 25 16 27 17 12 18 24 19 23 20 13 21 21 22 14 23
REMARK SMILES IDX 15 24 20 25 22 26 16 27 19 28 17 29 18 30
REMARK H PARENT 18 31
REMARK Flexibility Score: inf
ROOT
ATOM      1  C   UNL     1      23.309 -25.240  28.400  1.00  0.00     0.004 C 
ENDROOT
BRANCH   1   2
ATOM      2  C   UNL     1      23.904 -23.828  28.245  1.00  0.00     0.004 C 
BRANCH   2   3
ATOM      3  C   UNL     1      24.742 -23.604  26.954  1.00  0.00    -0.009 C 
BRANCH   3   4
ATOM      4  C   UNL     1      23.920 -23.074  25.747  1.00  0.00     0.000 C 
ATOM      5  C   UNL     1      23.285 -24.186  24.909  1.00  0.00     0.004 C 
ENDBRANCH   3   4
BRANCH   3   6
ATOM      6  C   UNL     1      26.054 -22.784  27.223  1.00  0.00    -0.014 C 
ATOM      7  C   UNL     1      26.147 -22.352  28.693  1.00  0.00     0.007 C 
ATOM      8  C   UNL     1      27.354 -23.509  26.822  1.00  0.00     0.007 C 
ENDBRANCH   3   6
ENDBRANCH   2   3
ENDBRANCH   1   2
BRANCH   1   9
ATOM      9  C   UNL     1      24.324 -26.350  28.798  1.00  0.00    -0.011 C 
ATOM     10  C   UNL     1      24.776 -27.184  27.578  1.00  0.00     0.008 C 
BRANCH   9  11
ATOM     11  C   UNL     1      25.478 -25.828  29.742  1.00  0.00    -0.002 C 
ATOM     12  C   UNL     1      26.899 -26.236  29.296  1.00  0.00     0.005 C 
ATOM     13  C   UNL     1      25.429 -26.249  31.254  1.00  0.00    -0.026 C 
ATOM     14  C   UNL     1      27.387 -27.331  30.246  1.00  0.00     0.005 C 
ATOM     15  C   UNL     1      26.276 -27.545  31.283  1.00  0.00    -0.001 C 
ATOM     16  C   UNL     1      26.070 -25.103  32.137  1.00  0.00     0.007 C 
ATOM     17  C   UNL     1      24.001 -26.530  31.785  1.00  0.00     0.012 C 
ATOM     18  C   UNL     1      26.720 -28.007  32.705  1.00  0.00     0.000 C 
ATOM     19  C   UNL     1      27.266 -25.519  33.002  1.00  0.00     0.005 C 
ATOM     20  C   UNL     1      27.009 -26.854  33.722  1.00  0.00     0.003 C 
ATOM     21  C   UNL     1      27.832 -29.074  32.663  1.00  0.00     0.031 C 
ATOM     22  C   UNL     1      28.086 -27.198  34.841  1.00  0.00    -0.008 C 
ATOM     23  C   UNL     1      28.087 -29.575  34.052  1.00  0.00    -0.027 C 
ATOM     24  C   UNL     1      28.162 -28.710  35.080  1.00  0.00    -0.065 C 
ATOM     25  C   UNL     1      27.699 -26.494  36.186  1.00  0.00     0.014 C 
ATOM     26  C   UNL     1      29.510 -26.724  34.452  1.00  0.00     0.016 C 
ATOM     27  C   UNL     1      28.259 -29.219  36.500  1.00  0.00     0.063 C 
ATOM     28  C   UNL     1      26.629 -27.271  36.976  1.00  0.00     0.033 C 
ATOM     29  C   UNL     1      27.059 -28.721  37.326  1.00  0.00     0.118 C 
BRANCH  29  30
ATOM     30  O   UNL     1      27.379 -28.815  38.692  1.00  0.00    -0.393 OA
ATOM     31  H   UNL     1      28.143 -28.196  38.845  1.00  0.00     0.210 HD
ENDBRANCH  29  30
ENDBRANCH   9  11
ENDBRANCH   1   9
TORSDOF 7
ENDMDL
MODEL 5
REMARK VINA RESULT:    -7.828      2.134      4.466
REMARK INTER + INTRA:         -12.323
REMARK INTER:                 -10.673
REMARK INTRA:                  -1.650
REMARK UNBOUND:                -1.521
REMARK SMILES CC[C@H](CC[C@@H](C)[C@@H]1CC[C@H]2[C@H]3CC=C4C[C@@H](O)CC[C@]4(C)[C@H]3CC[C@]21C)C(C)C
REMARK SMILES IDX 5 1 4 2 3 3 2 4 1 5 28 6 29 7 30 8 6 9 7 10 8 11 9 12 26 13
REMARK SMILES IDX 10 14 11 15 25 16 27 17 12 18 24 19 23 20 13 21 21 22 14 23
REMARK SMILES IDX 15 24 20 25 22 26 16 27 19 28 17 29 18 30
REMARK H PARENT 18 31
REMARK Flexibility Score: inf
ROOT
ATOM      1  C   UNL     1      27.302 -29.260  32.789  1.00  0.00     0.004 C 
ENDROOT
BRANCH   1   2
ATOM      2  C   UNL     1      28.416 -28.199  32.816  1.00  0.00     0.004 C 
BRANCH   2   3
ATOM      3  C   UNL     1      28.990 -27.881  34.227  1.00  0.00    -0.009 C 
BRANCH   3   4
ATOM      4  C   UNL     1      29.295 -26.377  34.463  1.00  0.00     0.000 C 
ATOM      5  C   UNL     1      28.493 -25.444  33.554  1.00  0.00     0.004 C 
ENDBRANCH   3   4
BRANCH   3   6
ATOM      6  C   UNL     1      28.150 -28.536  35.380  1.00  0.00    -0.014 C 
ATOM      7  C   UNL     1      29.019 -29.460  36.245  1.00  0.00     0.007 C 
ATOM      8  C   UNL     1      27.418 -27.528  36.289  1.00  0.00     0.007 C 
ENDBRANCH   3   6
ENDBRANCH   2   3
ENDBRANCH   1   2
BRANCH   1   9
ATOM      9  C   UNL     1      26.023 -28.863  31.997  1.00  0.00    -0.011 C 
ATOM     10  C   UNL     1      24.733 -29.179  32.788  1.00  0.00     0.008 C 
BRANCH   9  11
ATOM     11  C   UNL     1      26.106 -27.418  31.365  1.00  0.00    -0.002 C 
ATOM     12  C   UNL     1      24.973 -26.465  31.802  1.00  0.00     0.005 C 
ATOM     13  C   UNL     1      26.100 -27.306  29.799  1.00  0.00    -0.026 C 
ATOM     14  C   UNL     1      24.014 -26.312  30.621  1.00  0.00     0.005 C 
ATOM     15  C   UNL     1      24.598 -27.137  29.467  1.00  0.00    -0.001 C 
ATOM     16  C   UNL     1      26.949 -26.044  29.362  1.00  0.00     0.007 C 
ATOM     17  C   UNL     1      26.673 -28.551  29.075  1.00  0.00     0.012 C 
ATOM     18  C   UNL     1      24.298 -26.636  28.021  1.00  0.00     0.000 C 
ATOM     19  C   UNL     1      26.201 -24.995  28.529  1.00  0.00     0.005 C 
ATOM     20  C   UNL     1      25.353 -25.646  27.424  1.00  0.00     0.003 C 
ATOM     21  C   UNL     1      22.844 -26.152  27.849  1.00  0.00     0.031 C 
ATOM     22  C   UNL     1      24.779 -24.612  26.361  1.00  0.00    -0.008 C 
ATOM     23  C   UNL     1      22.596 -25.839  26.405  1.00  0.00    -0.027 C 
ATOM     24  C   UNL     1      23.513 -25.160  25.692  1.00  0.00    -0.065 C 
ATOM     25  C   UNL     1      25.853 -24.333  25.256  1.00  0.00     0.014 C 
ATOM     26  C   UNL     1      24.402 -23.253  27.007  1.00  0.00     0.016 C 
ATOM     27  C   UNL     1      23.343 -24.982  24.201  1.00  0.00     0.063 C 
ATOM     28  C   UNL     1      25.888 -25.428  24.173  1.00  0.00     0.033 C 
ATOM     29  C   UNL     1      24.527 -25.617  23.450  1.00  0.00     0.118 C 
BRANCH  29  30
ATOM     30  O   UNL     1      24.587 -25.073  22.155  1.00  0.00    -0.393 OA
ATOM     31  H   UNL     1      25.392 -24.489  22.132  1.00  0.00     0.210 HD
ENDBRANCH  29  30
ENDBRANCH   9  11
ENDBRANCH   1   9
TORSDOF 7
ENDMDL
MODEL 6
REMARK VINA RESULT:    -7.783      7.111      9.735
REMARK INTER + INTRA:         -12.262
REMARK INTER:                 -10.596
REMARK INTRA:                  -1.667
REMARK UNBOUND:                -1.521
REMARK SMILES CC[C@H](CC[C@@H](C)[C@@H]1CC[C@H]2[C@H]3CC=C4C[C@@H](O)CC[C@]4(C)[C@H]3CC[C@]21C)C(C)C
REMARK SMILES IDX 5 1 4 2 3 3 2 4 1 5 28 6 29 7 30 8 6 9 7 10 8 11 9 12 26 13
REMARK SMILES IDX 10 14 11 15 25 16 27 17 12 18 24 19 23 20 13 21 21 22 14 23
REMARK SMILES IDX 15 24 20 25 22 26 16 27 19 28 17 29 18 30
REMARK H PARENT 18 31
REMARK Flexibility Score: inf
ROOT
ATOM      1  C   UNL     1      24.133 -17.426  30.695  1.00  0.00     0.004 C 
ENDROOT
BRANCH   1   2
ATOM      2  C   UNL     1      23.196 -16.791  29.652  1.00  0.00     0.004 C 
BRANCH   2   3
ATOM      3  C   UNL     1      21.679 -16.895  29.979  1.00  0.00    -0.009 C 
BRANCH   3   4
ATOM      4  C   UNL     1      21.111 -15.671  30.749  1.00  0.00     0.000 C 
ATOM      5  C   UNL     1      19.742 -15.216  30.241  1.00  0.00     0.004 C 
ENDBRANCH   3   4
BRANCH   3   6
ATOM      6  C   UNL     1      20.820 -17.297  28.728  1.00  0.00    -0.014 C 
ATOM      7  C   UNL     1      21.625 -17.147  27.429  1.00  0.00     0.007 C 
ATOM      8  C   UNL     1      20.221 -18.716  28.793  1.00  0.00     0.007 C 
ENDBRANCH   3   6
ENDBRANCH   2   3
ENDBRANCH   1   2
BRANCH   1   9
ATOM      9  C   UNL     1      25.073 -18.543  30.155  1.00  0.00    -0.011 C 
ATOM     10  C   UNL     1      26.406 -18.601  30.933  1.00  0.00     0.008 C 
BRANCH   9  11
ATOM     11  C   UNL     1      24.338 -19.924  29.943  1.00  0.00    -0.002 C 
ATOM     12  C   UNL     1      24.931 -21.093  30.759  1.00  0.00     0.005 C 
ATOM     13  C   UNL     1      24.263 -20.493  28.481  1.00  0.00    -0.026 C 
ATOM     14  C   UNL     1      25.697 -21.995  29.790  1.00  0.00     0.005 C 
ATOM     15  C   UNL     1      25.524 -21.388  28.391  1.00  0.00    -0.001 C 
ATOM     16  C   UNL     1      22.930 -21.330  28.313  1.00  0.00     0.007 C 
ATOM     17  C   UNL     1      24.297 -19.406  27.378  1.00  0.00     0.012 C 
ATOM     18  C   UNL     1      25.540 -22.379  27.187  1.00  0.00     0.000 C 
ATOM     19  C   UNL     1      23.112 -22.795  27.899  1.00  0.00     0.005 C 
ATOM     20  C   UNL     1      24.142 -22.942  26.767  1.00  0.00     0.003 C 
ATOM     21  C   UNL     1      26.617 -23.472  27.330  1.00  0.00     0.031 C 
ATOM     22  C   UNL     1      24.171 -24.390  26.108  1.00  0.00    -0.008 C 
ATOM     23  C   UNL     1      26.672 -24.279  26.070  1.00  0.00    -0.027 C 
ATOM     24  C   UNL     1      25.535 -24.673  25.469  1.00  0.00    -0.065 C 
ATOM     25  C   UNL     1      23.065 -24.494  25.003  1.00  0.00     0.014 C 
ATOM     26  C   UNL     1      23.909 -25.512  27.145  1.00  0.00     0.016 C 
ATOM     27  C   UNL     1      25.579 -25.348  24.117  1.00  0.00     0.063 C 
ATOM     28  C   UNL     1      23.505 -23.874  23.663  1.00  0.00     0.033 C 
ATOM     29  C   UNL     1      24.792 -24.521  23.084  1.00  0.00     0.118 C 
BRANCH  29  30
ATOM     30  O   UNL     1      24.471 -25.347  21.992  1.00  0.00    -0.393 OA
ATOM     31  H   UNL     1      23.929 -24.792  21.370  1.00  0.00     0.210 HD
ENDBRANCH  29  30
ENDBRANCH   9  11
ENDBRANCH   1   9
TORSDOF 7
ENDMDL
MODEL 7
REMARK VINA RESULT:    -7.683      2.455      4.755
REMARK INTER + INTRA:         -12.123
REMARK INTER:                 -10.516
REMARK INTRA:                  -1.608
REMARK UNBOUND:                -1.521
REMARK SMILES CC[C@H](CC[C@@H](C)[C@@H]1CC[C@H]2[C@H]3CC=C4C[C@@H](O)CC[C@]4(C)[C@H]3CC[C@]21C)C(C)C
REMARK SMILES IDX 5 1 4 2 3 3 2 4 1 5 28 6 29 7 30 8 6 9 7 10 8 11 9 12 26 13
REMARK SMILES IDX 10 14 11 15 25 16 27 17 12 18 24 19 23 20 13 21 21 22 14 23
REMARK SMILES IDX 15 24 20 25 22 26 16 27 19 28 17 29 18 30
REMARK H PARENT 18 31
REMARK Flexibility Score: inf
ROOT
ATOM      1  C   UNL     1      26.121 -28.080  32.709  1.00  0.00     0.004 C 
ENDROOT
BRANCH   1   2
ATOM      2  C   UNL     1      26.263 -27.152  33.929  1.00  0.00     0.004 C 
BRANCH   2   3
ATOM      3  C   UNL     1      27.541 -27.381  34.786  1.00  0.00    -0.009 C 
BRANCH   3   4
ATOM      4  C   UNL     1      28.105 -28.826  34.710  1.00  0.00     0.000 C 
ATOM      5  C   UNL     1      28.678 -29.326  36.038  1.00  0.00     0.004 C 
ENDBRANCH   3   4
BRANCH   3   6
ATOM      6  C   UNL     1      28.629 -26.274  34.554  1.00  0.00    -0.014 C 
ATOM      7  C   UNL     1      29.857 -26.845  33.831  1.00  0.00     0.007 C 
ATOM      8  C   UNL     1      28.124 -25.031  33.795  1.00  0.00     0.007 C 
ENDBRANCH   3   6
ENDBRANCH   2   3
ENDBRANCH   1   2
BRANCH   1   9
ATOM      9  C   UNL     1      26.681 -27.515  31.372  1.00  0.00    -0.011 C 
ATOM     10  C   UNL     1      27.950 -28.269  30.915  1.00  0.00     0.008 C 
BRANCH   9  11
ATOM     11  C   UNL     1      25.569 -27.307  30.271  1.00  0.00    -0.002 C 
ATOM     12  C   UNL     1      25.864 -28.007  28.927  1.00  0.00     0.005 C 
ATOM     13  C   UNL     1      25.226 -25.833  29.852  1.00  0.00    -0.026 C 
ATOM     14  C   UNL     1      26.266 -26.930  27.919  1.00  0.00     0.005 C 
ATOM     15  C   UNL     1      26.168 -25.583  28.649  1.00  0.00    -0.001 C 
ATOM     16  C   UNL     1      23.701 -25.749  29.437  1.00  0.00     0.007 C 
ATOM     17  C   UNL     1      25.485 -24.784  30.963  1.00  0.00     0.012 C 
ATOM     18  C   UNL     1      25.811 -24.337  27.783  1.00  0.00     0.000 C 
ATOM     19  C   UNL     1      23.425 -25.251  28.012  1.00  0.00     0.005 C 
ATOM     20  C   UNL     1      24.282 -24.022  27.665  1.00  0.00     0.003 C 
ATOM     21  C   UNL     1      26.539 -24.328  26.425  1.00  0.00     0.031 C 
ATOM     22  C   UNL     1      23.847 -23.295  26.318  1.00  0.00    -0.008 C 
ATOM     23  C   UNL     1      26.266 -23.031  25.727  1.00  0.00    -0.027 C 
ATOM     24  C   UNL     1      25.022 -22.520  25.711  1.00  0.00    -0.065 C 
ATOM     25  C   UNL     1      22.678 -22.294  26.608  1.00  0.00     0.014 C 
ATOM     26  C   UNL     1      23.355 -24.297  25.242  1.00  0.00     0.016 C 
ATOM     27  C   UNL     1      24.770 -21.139  25.150  1.00  0.00     0.063 C 
ATOM     28  C   UNL     1      23.174 -20.950  27.174  1.00  0.00     0.033 C 
ATOM     29  C   UNL     1      24.176 -20.224  26.236  1.00  0.00     0.118 C 
BRANCH  29  30
ATOM     30  O   UNL     1      23.551 -19.129  25.614  1.00  0.00    -0.393 OA
ATOM     31  H   UNL     1      24.269 -18.467  25.421  1.00  0.00     0.210 HD
ENDBRANCH  29  30
ENDBRANCH   9  11
ENDBRANCH   1   9
TORSDOF 7
ENDMDL
MODEL 8
REMARK VINA RESULT:    -7.506      6.988      9.259
REMARK INTER + INTRA:         -11.880
REMARK INTER:                  -9.868
REMARK INTRA:                  -2.011
REMARK UNBOUND:                -1.521
REMARK SMILES CC[C@H](CC[C@@H](C)[C@@H]1CC[C@H]2[C@H]3CC=C4C[C@@H](O)CC[C@]4(C)[C@H]3CC[C@]21C)C(C)C
REMARK SMILES IDX 5 1 4 2 3 3 2 4 1 5 28 6 29 7 30 8 6 9 7 10 8 11 9 12 26 13
REMARK SMILES IDX 10 14 11 15 25 16 27 17 12 18 24 19 23 20 13 21 21 22 14 23
REMARK SMILES IDX 15 24 20 25 22 26 16 27 19 28 17 29 18 30
REMARK H PARENT 18 31
REMARK Flexibility Score: inf
ROOT
ATOM      1  C   UNL     1      24.284 -17.617  31.179  1.00  0.00     0.004 C 
ENDROOT
BRANCH   1   2
ATOM      2  C   UNL     1      23.422 -16.693  30.301  1.00  0.00     0.004 C 
BRANCH   2   3
ATOM      3  C   UNL     1      21.911 -17.060  30.243  1.00  0.00    -0.009 C 
BRANCH   3   4
ATOM      4  C   UNL     1      21.421 -17.514  28.841  1.00  0.00     0.000 C 
ATOM      5  C   UNL     1      20.157 -16.789  28.375  1.00  0.00     0.004 C 
ENDBRANCH   3   4
BRANCH   3   6
ATOM      6  C   UNL     1      21.483 -18.033  31.398  1.00  0.00    -0.014 C 
ATOM      7  C   UNL     1      20.487 -17.359  32.352  1.00  0.00     0.007 C 
ATOM      8  C   UNL     1      20.899 -19.377  30.919  1.00  0.00     0.007 C 
ENDBRANCH   3   6
ENDBRANCH   2   3
ENDBRANCH   1   2
BRANCH   1   9
ATOM      9  C   UNL     1      25.150 -18.654  30.408  1.00  0.00    -0.011 C 
ATOM     10  C   UNL     1      26.576 -18.765  30.993  1.00  0.00     0.008 C 
BRANCH   9  11
ATOM     11  C   UNL     1      24.402 -20.021  30.152  1.00  0.00    -0.002 C 
ATOM     12  C   UNL     1      24.992 -21.223  30.921  1.00  0.00     0.005 C 
ATOM     13  C   UNL     1      24.312 -20.537  28.672  1.00  0.00    -0.026 C 
ATOM     14  C   UNL     1      25.743 -22.095  29.915  1.00  0.00     0.005 C 
ATOM     15  C   UNL     1      25.564 -21.437  28.539  1.00  0.00    -0.001 C 
ATOM     16  C   UNL     1      22.971 -21.356  28.484  1.00  0.00     0.007 C 
ATOM     17  C   UNL     1      24.346 -19.411  27.608  1.00  0.00     0.012 C 
ATOM     18  C   UNL     1      25.563 -22.385  27.300  1.00  0.00     0.000 C 
ATOM     19  C   UNL     1      23.137 -22.807  28.017  1.00  0.00     0.005 C 
ATOM     20  C   UNL     1      24.157 -22.922  26.872  1.00  0.00     0.003 C 
ATOM     21  C   UNL     1      26.633 -23.491  27.397  1.00  0.00     0.031 C 
ATOM     22  C   UNL     1      24.169 -24.345  26.161  1.00  0.00    -0.008 C 
ATOM     23  C   UNL     1      26.671 -24.253  26.108  1.00  0.00    -0.027 C 
ATOM     24  C   UNL     1      25.526 -24.616  25.502  1.00  0.00    -0.065 C 
ATOM     25  C   UNL     1      23.054 -24.400  25.063  1.00  0.00     0.014 C 
ATOM     26  C   UNL     1      23.906 -25.502  27.159  1.00  0.00     0.016 C 
ATOM     27  C   UNL     1      25.554 -25.242  24.127  1.00  0.00     0.063 C 
ATOM     28  C   UNL     1      23.489 -23.737  23.742  1.00  0.00     0.033 C 
ATOM     29  C   UNL     1      24.766 -24.373  23.130  1.00  0.00     0.118 C 
BRANCH  29  30
ATOM     30  O   UNL     1      24.430 -25.157  22.012  1.00  0.00    -0.393 OA
ATOM     31  H   UNL     1      23.859 -24.587  21.430  1.00  0.00     0.210 HD
ENDBRANCH  29  30
ENDBRANCH   9  11
ENDBRANCH   1   9
TORSDOF 7
ENDMDL
MODEL 9
REMARK VINA RESULT:    -7.393      5.801      9.633
REMARK INTER + INTRA:         -11.724
REMARK INTER:                  -9.597
REMARK INTRA:                  -2.127
REMARK UNBOUND:                -1.521
REMARK SMILES CC[C@H](CC[C@@H](C)[C@@H]1CC[C@H]2[C@H]3CC=C4C[C@@H](O)CC[C@]4(C)[C@H]3CC[C@]21C)C(C)C
REMARK SMILES IDX 5 1 4 2 3 3 2 4 1 5 28 6 29 7 30 8 6 9 7 10 8 11 9 12 26 13
REMARK SMILES IDX 10 14 11 15 25 16 27 17 12 18 24 19 23 20 13 21 21 22 14 23
REMARK SMILES IDX 15 24 20 25 22 26 16 27 19 28 17 29 18 30
REMARK H PARENT 18 31
REMARK Flexibility Score: inf
ROOT
ATOM      1  C   UNL     1      25.329 -25.617  25.506  1.00  0.00     0.004 C 
ENDROOT
BRANCH   1   2
ATOM      2  C   UNL     1      24.521 -26.492  26.481  1.00  0.00     0.004 C 
BRANCH   2   3
ATOM      3  C   UNL     1      25.268 -26.888  27.787  1.00  0.00    -0.009 C 
BRANCH   3   4
ATOM      4  C   UNL     1      26.693 -26.282  27.910  1.00  0.00     0.000 C 
ATOM      5  C   UNL     1      27.767 -27.319  28.248  1.00  0.00     0.004 C 
ENDBRANCH   3   4
BRANCH   3   6
ATOM      6  C   UNL     1      24.388 -26.679  29.070  1.00  0.00    -0.014 C 
ATOM      7  C   UNL     1      25.010 -25.634  30.006  1.00  0.00     0.007 C 
ATOM      8  C   UNL     1      22.922 -26.297  28.785  1.00  0.00     0.007 C 
ENDBRANCH   3   6
ENDBRANCH   2   3
ENDBRANCH   1   2
BRANCH   1   9
ATOM      9  C   UNL     1      24.679 -24.251  25.141  1.00  0.00    -0.011 C 
ATOM     10  C   UNL     1      24.162 -24.229  23.685  1.00  0.00     0.008 C 
BRANCH   9  11
ATOM     11  C   UNL     1      23.671 -23.730  26.238  1.00  0.00    -0.002 C 
ATOM     12  C   UNL     1      22.339 -23.189  25.674  1.00  0.00     0.005 C 
ATOM     13  C   UNL     1      24.161 -22.583  27.193  1.00  0.00    -0.026 C 
ATOM     14  C   UNL     1      22.371 -21.665  25.788  1.00  0.00     0.005 C 
ATOM     15  C   UNL     1      23.702 -21.299  26.460  1.00  0.00    -0.001 C 
ATOM     16  C   UNL     1      23.461 -22.743  28.604  1.00  0.00     0.007 C 
ATOM     17  C   UNL     1      25.695 -22.557  27.412  1.00  0.00     0.012 C 
ATOM     18  C   UNL     1      23.719 -20.005  27.330  1.00  0.00     0.000 C 
ATOM     19  C   UNL     1      22.635 -21.540  29.076  1.00  0.00     0.005 C 
ATOM     20  C   UNL     1      23.379 -20.214  28.844  1.00  0.00     0.003 C 
ATOM     21  C   UNL     1      22.936 -18.844  26.686  1.00  0.00     0.031 C 
ATOM     22  C   UNL     1      22.703 -18.964  29.559  1.00  0.00    -0.008 C 
ATOM     23  C   UNL     1      23.133 -17.603  27.501  1.00  0.00    -0.027 C 
ATOM     24  C   UNL     1      23.071 -17.659  28.844  1.00  0.00    -0.065 C 
ATOM     25  C   UNL     1      23.186 -18.878  31.047  1.00  0.00     0.014 C 
ATOM     26  C   UNL     1      21.155 -19.059  29.570  1.00  0.00     0.016 C 
ATOM     27  C   UNL     1      23.426 -16.449  29.676  1.00  0.00     0.063 C 
ATOM     28  C   UNL     1      24.567 -18.210  31.184  1.00  0.00     0.033 C 
ATOM     29  C   UNL     1      24.612 -16.770  30.605  1.00  0.00     0.118 C 
BRANCH  29  30
ATOM     30  O   UNL     1      24.638 -15.828  31.648  1.00  0.00    -0.393 OA
ATOM     31  H   UNL     1      23.796 -15.303  31.574  1.00  0.00     0.210 HD
ENDBRANCH  29  30
ENDBRANCH   9  11
ENDBRANCH   1   9
TORSDOF 7
ENDMDL
