MODEL 1
REMARK VINA RESULT:    -5.717      0.000      0.000
REMARK INTER + INTRA:          -7.033
REMARK INTER:                  -6.720
REMARK INTRA:                  -0.312
REMARK UNBOUND:                -0.312
REMARK SMILES Oc1ccc(-c2[o+]c3cc(O)cc(O)c3cc2O)cc1
REMARK SMILES IDX 6 1 7 2 8 3 9 4 10 5 12 6 13 7 15 8 16 9 17 10 5 11 4 12
REMARK SMILES IDX 3 13 2 14 19 15 20 16 1 17 18 19 11 21 14 23
REMARK H PARENT 1 18 18 20 11 22 14 24
REMARK Flexibility Score: inf
ROOT
ATOM      1  C   UNL     1     -20.335  23.156  34.880  1.00  0.00     0.401 A 
ATOM      2  O   UNL     1     -20.641  24.400  34.523  1.00  0.00    -0.202 OA
ATOM      3  C   UNL     1     -19.865  25.148  33.746  1.00  0.00     0.368 A 
ATOM      4  C   UNL     1     -20.275  26.446  33.424  1.00  0.00     0.162 A 
ATOM      5  C   UNL     1     -19.482  27.253  32.608  1.00  0.00     0.128 A 
ATOM      6  C   UNL     1     -18.271  26.762  32.108  1.00  0.00     0.093 A 
ATOM      7  C   UNL     1     -17.838  25.466  32.416  1.00  0.00     0.136 A 
ATOM      8  C   UNL     1     -18.641  24.643  33.249  1.00  0.00     0.125 A 
ATOM      9  C   UNL     1     -18.281  23.337  33.620  1.00  0.00     0.078 A 
ATOM     10  C   UNL     1     -19.121  22.587  34.448  1.00  0.00     0.223 A 
ENDROOT
BRANCH   1  11
ATOM     11  C   UNL     1     -21.287  22.419  35.742  1.00  0.00     0.084 A 
ATOM     12  C   UNL     1     -22.316  21.668  35.150  1.00  0.00     0.022 A 
ATOM     13  C   UNL     1     -23.214  20.947  35.943  1.00  0.00     0.047 A 
ATOM     14  C   UNL     1     -23.085  20.955  37.335  1.00  0.00     0.115 A 
ATOM     15  C   UNL     1     -21.152  22.407  37.143  1.00  0.00     0.022 A 
ATOM     16  C   UNL     1     -22.050  21.684  37.933  1.00  0.00     0.047 A 
BRANCH  14  17
ATOM     17  O   UNL     1     -23.987  20.232  38.113  1.00  0.00    -0.508 OA
ATOM     18  H   UNL     1     -24.528  19.469  37.725  1.00  0.00     0.293 HD
ENDBRANCH  14  17
ENDBRANCH   1  11
BRANCH  10  19
ATOM     19  O   UNL     1     -18.741  21.309  34.858  1.00  0.00    -0.500 OA
ATOM     20  H   UNL     1     -18.340  21.141  35.773  1.00  0.00     0.294 HD
ENDBRANCH  10  19
BRANCH   5  21
ATOM     21  O   UNL     1     -19.907  28.543  32.298  1.00  0.00    -0.507 OA
ATOM     22  H   UNL     1     -20.242  28.782  31.372  1.00  0.00     0.293 HD
ENDBRANCH   5  21
BRANCH   7  23
ATOM     23  O   UNL     1     -16.618  25.049  31.875  1.00  0.00    -0.507 OA
ATOM     24  H   UNL     1     -16.481  24.796  30.908  1.00  0.00     0.293 HD
ENDBRANCH   7  23
TORSDOF 5
ENDMDL
MODEL 2
REMARK VINA RESULT:    -5.515      7.463     10.769
REMARK INTER + INTRA:          -6.795
REMARK INTER:                  -6.486
REMARK INTRA:                  -0.309
REMARK UNBOUND:                -0.312
REMARK SMILES Oc1ccc(-c2[o+]c3cc(O)cc(O)c3cc2O)cc1
REMARK SMILES IDX 6 1 7 2 8 3 9 4 10 5 12 6 13 7 15 8 16 9 17 10 5 11 4 12
REMARK SMILES IDX 3 13 2 14 19 15 20 16 1 17 18 19 11 21 14 23
REMARK H PARENT 1 18 18 20 11 22 14 24
REMARK Flexibility Score: inf
ROOT
ATOM      1  C   UNL     1     -18.187  19.561  42.279  1.00  0.00     0.401 A 
ATOM      2  O   UNL     1     -17.753  18.709  41.355  1.00  0.00    -0.202 OA
ATOM      3  C   UNL     1     -16.992  17.656  41.632  1.00  0.00     0.368 A 
ATOM      4  C   UNL     1     -16.588  16.815  40.591  1.00  0.00     0.162 A 
ATOM      5  C   UNL     1     -15.791  15.701  40.853  1.00  0.00     0.128 A 
ATOM      6  C   UNL     1     -15.395  15.422  42.166  1.00  0.00     0.093 A 
ATOM      7  C   UNL     1     -15.786  16.248  43.227  1.00  0.00     0.136 A 
ATOM      8  C   UNL     1     -16.595  17.384  42.963  1.00  0.00     0.125 A 
ATOM      9  C   UNL     1     -17.023  18.274  43.961  1.00  0.00     0.078 A 
ATOM     10  C   UNL     1     -17.815  19.377  43.624  1.00  0.00     0.223 A 
ENDROOT
BRANCH   1  11
ATOM     11  C   UNL     1     -19.039  20.692  41.845  1.00  0.00     0.084 A 
ATOM     12  C   UNL     1     -18.446  21.808  41.232  1.00  0.00     0.022 A 
ATOM     13  C   UNL     1     -19.232  22.879  40.795  1.00  0.00     0.047 A 
ATOM     14  C   UNL     1     -20.621  22.840  40.951  1.00  0.00     0.115 A 
ATOM     15  C   UNL     1     -20.440  20.651  41.982  1.00  0.00     0.022 A 
ATOM     16  C   UNL     1     -21.223  21.723  41.542  1.00  0.00     0.047 A 
BRANCH  14  17
ATOM     17  O   UNL     1     -21.393  23.914  40.511  1.00  0.00    -0.508 OA
ATOM     18  H   UNL     1     -22.402  23.912  40.601  1.00  0.00     0.293 HD
ENDBRANCH  14  17
ENDBRANCH   1  11
BRANCH  10  19
ATOM     19  O   UNL     1     -18.200  20.289  44.607  1.00  0.00    -0.500 OA
ATOM     20  H   UNL     1     -19.108  20.238  45.054  1.00  0.00     0.294 HD
ENDBRANCH  10  19
BRANCH   5  21
ATOM     21  O   UNL     1     -15.398  14.875  39.802  1.00  0.00    -0.507 OA
ATOM     22  H   UNL     1     -14.788  15.209  39.066  1.00  0.00     0.293 HD
ENDBRANCH   5  21
BRANCH   7  23
ATOM     23  O   UNL     1     -15.352  15.899  44.509  1.00  0.00    -0.507 OA
ATOM     24  H   UNL     1     -14.821  16.506  45.116  1.00  0.00     0.293 HD
ENDBRANCH   7  23
TORSDOF 5
ENDMDL
MODEL 3
REMARK VINA RESULT:    -5.371      6.168      8.407
REMARK INTER + INTRA:          -6.626
REMARK INTER:                  -6.328
REMARK INTRA:                  -0.298
REMARK UNBOUND:                -0.312
REMARK SMILES Oc1ccc(-c2[o+]c3cc(O)cc(O)c3cc2O)cc1
REMARK SMILES IDX 6 1 7 2 8 3 9 4 10 5 12 6 13 7 15 8 16 9 17 10 5 11 4 12
REMARK SMILES IDX 3 13 2 14 19 15 20 16 1 17 18 19 11 21 14 23
REMARK H PARENT 1 18 18 20 11 22 14 24
REMARK Flexibility Score: inf
ROOT
ATOM      1  C   UNL     1     -18.475  20.909  41.554  1.00  0.00     0.401 A 
ATOM      2  O   UNL     1     -19.789  21.089  41.644  1.00  0.00    -0.202 OA
ATOM      3  C   UNL     1     -20.419  22.141  41.134  1.00  0.00     0.368 A 
ATOM      4  C   UNL     1     -21.807  22.239  41.278  1.00  0.00     0.162 A 
ATOM      5  C   UNL     1     -22.495  23.332  40.749  1.00  0.00     0.128 A 
ATOM      6  C   UNL     1     -21.793  24.334  40.070  1.00  0.00     0.093 A 
ATOM      7  C   UNL     1     -20.403  24.260  39.912  1.00  0.00     0.136 A 
ATOM      8  C   UNL     1     -19.700  23.151  40.451  1.00  0.00     0.125 A 
ATOM      9  C   UNL     1     -18.307  22.999  40.352  1.00  0.00     0.078 A 
ATOM     10  C   UNL     1     -17.682  21.880  40.913  1.00  0.00     0.223 A 
ENDROOT
BRANCH   1  11
ATOM     11  C   UNL     1     -17.891  19.688  42.156  1.00  0.00     0.084 A 
ATOM     12  C   UNL     1     -17.572  18.596  41.331  1.00  0.00     0.022 A 
ATOM     13  C   UNL     1     -17.000  17.442  41.873  1.00  0.00     0.047 A 
ATOM     14  C   UNL     1     -16.725  17.369  43.242  1.00  0.00     0.115 A 
ATOM     15  C   UNL     1     -17.594  19.617  43.530  1.00  0.00     0.022 A 
ATOM     16  C   UNL     1     -17.020  18.461  44.068  1.00  0.00     0.047 A 
BRANCH  14  17
ATOM     17  O   UNL     1     -16.155  16.212  43.769  1.00  0.00    -0.508 OA
ATOM     18  H   UNL     1     -15.227  15.909  43.499  1.00  0.00     0.293 HD
ENDBRANCH  14  17
ENDBRANCH   1  11
BRANCH  10  19
ATOM     19  O   UNL     1     -16.295  21.754  40.859  1.00  0.00    -0.500 OA
ATOM     20  H   UNL     1     -15.847  20.853  40.734  1.00  0.00     0.294 HD
ENDBRANCH  10  19
BRANCH   5  21
ATOM     21  O   UNL     1     -23.877  23.412  40.903  1.00  0.00    -0.507 OA
ATOM     22  H   UNL     1     -24.506  22.874  40.319  1.00  0.00     0.293 HD
ENDBRANCH   5  21
BRANCH   7  23
ATOM     23  O   UNL     1     -19.777  25.299  39.218  1.00  0.00    -0.507 OA
ATOM     24  H   UNL     1     -20.236  26.151  38.932  1.00  0.00     0.293 HD
ENDBRANCH   7  23
TORSDOF 5
ENDMDL
MODEL 4
REMARK VINA RESULT:    -5.279      5.941      8.285
REMARK INTER + INTRA:          -6.518
REMARK INTER:                  -6.263
REMARK INTRA:                  -0.255
REMARK UNBOUND:                -0.312
REMARK SMILES Oc1ccc(-c2[o+]c3cc(O)cc(O)c3cc2O)cc1
REMARK SMILES IDX 6 1 7 2 8 3 9 4 10 5 12 6 13 7 15 8 16 9 17 10 5 11 4 12
REMARK SMILES IDX 3 13 2 14 19 15 20 16 1 17 18 19 11 21 14 23
REMARK H PARENT 1 18 18 20 11 22 14 24
REMARK Flexibility Score: inf
ROOT
ATOM      1  C   UNL     1     -18.937  20.808  41.680  1.00  0.00     0.401 A 
ATOM      2  O   UNL     1     -18.339  21.748  40.955  1.00  0.00    -0.202 OA
ATOM      3  C   UNL     1     -18.961  22.833  40.508  1.00  0.00     0.368 A 
ATOM      4  C   UNL     1     -18.245  23.768  39.755  1.00  0.00     0.162 A 
ATOM      5  C   UNL     1     -18.873  24.917  39.275  1.00  0.00     0.128 A 
ATOM      6  C   UNL     1     -20.227  25.138  39.551  1.00  0.00     0.093 A 
ATOM      7  C   UNL     1     -20.968  24.217  40.303  1.00  0.00     0.136 A 
ATOM      8  C   UNL     1     -20.332  23.044  40.790  1.00  0.00     0.125 A 
ATOM      9  C   UNL     1     -20.998  22.062  41.540  1.00  0.00     0.078 A 
ATOM     10  C   UNL     1     -20.307  20.929  41.982  1.00  0.00     0.223 A 
ENDROOT
BRANCH   1  11
ATOM     11  C   UNL     1     -18.132  19.648  42.128  1.00  0.00     0.084 A 
ATOM     12  C   UNL     1     -17.764  19.544  43.480  1.00  0.00     0.022 A 
ATOM     13  C   UNL     1     -17.022  18.448  43.930  1.00  0.00     0.047 A 
ATOM     14  C   UNL     1     -16.653  17.436  43.040  1.00  0.00     0.115 A 
ATOM     15  C   UNL     1     -17.773  18.616  41.241  1.00  0.00     0.022 A 
ATOM     16  C   UNL     1     -17.033  17.521  41.695  1.00  0.00     0.047 A 
BRANCH  14  17
ATOM     17  O   UNL     1     -15.913  16.349  43.502  1.00  0.00    -0.508 OA
ATOM     18  H   UNL     1     -16.232  15.784  44.281  1.00  0.00     0.293 HD
ENDBRANCH  14  17
ENDBRANCH   1  11
BRANCH  10  19
ATOM     19  O   UNL     1     -20.979  19.929  42.685  1.00  0.00    -0.500 OA
ATOM     20  H   UNL     1     -21.240  19.054  42.246  1.00  0.00     0.294 HD
ENDBRANCH  10  19
BRANCH   5  21
ATOM     21  O   UNL     1     -18.142  25.837  38.527  1.00  0.00    -0.507 OA
ATOM     22  H   UNL     1     -18.196  25.858  37.515  1.00  0.00     0.293 HD
ENDBRANCH   5  21
BRANCH   7  23
ATOM     23  O   UNL     1     -22.314  24.512  40.537  1.00  0.00    -0.507 OA
ATOM     24  H   UNL     1     -22.892  25.063  39.920  1.00  0.00     0.293 HD
ENDBRANCH   7  23
TORSDOF 5
ENDMDL
MODEL 5
REMARK VINA RESULT:    -5.206      5.948      7.989
REMARK INTER + INTRA:          -6.432
REMARK INTER:                  -6.129
REMARK INTRA:                  -0.303
REMARK UNBOUND:                -0.312
REMARK SMILES Oc1ccc(-c2[o+]c3cc(O)cc(O)c3cc2O)cc1
REMARK SMILES IDX 6 1 7 2 8 3 9 4 10 5 12 6 13 7 15 8 16 9 17 10 5 11 4 12
REMARK SMILES IDX 3 13 2 14 19 15 20 16 1 17 18 19 11 21 14 23
REMARK H PARENT 1 18 18 20 11 22 14 24
REMARK Flexibility Score: inf
ROOT
ATOM      1  C   UNL     1     -20.102  23.445  41.010  1.00  0.00     0.401 A 
ATOM      2  O   UNL     1     -20.391  24.244  42.032  1.00  0.00    -0.202 OA
ATOM      3  C   UNL     1     -21.010  25.411  41.895  1.00  0.00     0.368 A 
ATOM      4  C   UNL     1     -21.273  26.180  43.032  1.00  0.00     0.162 A 
ATOM      5  C   UNL     1     -21.925  27.409  42.917  1.00  0.00     0.128 A 
ATOM      6  C   UNL     1     -22.320  27.873  41.657  1.00  0.00     0.093 A 
ATOM      7  C   UNL     1     -22.068  27.121  40.502  1.00  0.00     0.136 A 
ATOM      8  C   UNL     1     -21.402  25.873  40.615  1.00  0.00     0.125 A 
ATOM      9  C   UNL     1     -21.098  25.059  39.512  1.00  0.00     0.078 A 
ATOM     10  C   UNL     1     -20.434  23.842  39.701  1.00  0.00     0.223 A 
ENDROOT
BRANCH   1  11
ATOM     11  C   UNL     1     -19.416  22.163  41.293  1.00  0.00     0.084 A 
ATOM     12  C   UNL     1     -18.016  22.094  41.207  1.00  0.00     0.022 A 
ATOM     13  C   UNL     1     -17.346  20.900  41.491  1.00  0.00     0.047 A 
ATOM     14  C   UNL     1     -18.065  19.766  41.880  1.00  0.00     0.115 A 
ATOM     15  C   UNL     1     -20.133  21.022  41.704  1.00  0.00     0.022 A 
ATOM     16  C   UNL     1     -19.459  19.831  41.989  1.00  0.00     0.047 A 
BRANCH  14  17
ATOM     17  O   UNL     1     -17.384  18.583  42.160  1.00  0.00    -0.508 OA
ATOM     18  H   UNL     1     -17.520  18.089  43.034  1.00  0.00     0.293 HD
ENDBRANCH  14  17
ENDBRANCH   1  11
BRANCH  10  19
ATOM     19  O   UNL     1     -20.087  23.057  38.602  1.00  0.00    -0.500 OA
ATOM     20  H   UNL     1     -19.728  23.466  37.747  1.00  0.00     0.294 HD
ENDBRANCH  10  19
BRANCH   5  21
ATOM     21  O   UNL     1     -22.178  28.160  44.062  1.00  0.00    -0.507 OA
ATOM     22  H   UNL     1     -22.233  29.172  44.030  1.00  0.00     0.293 HD
ENDBRANCH   5  21
BRANCH   7  23
ATOM     23  O   UNL     1     -22.496  27.653  39.283  1.00  0.00    -0.507 OA
ATOM     24  H   UNL     1     -23.026  27.141  38.593  1.00  0.00     0.293 HD
ENDBRANCH   7  23
TORSDOF 5
ENDMDL
MODEL 6
REMARK VINA RESULT:    -5.181     15.839     16.636
REMARK INTER + INTRA:          -6.402
REMARK INTER:                  -6.085
REMARK INTRA:                  -0.317
REMARK UNBOUND:                -0.312
REMARK SMILES Oc1ccc(-c2[o+]c3cc(O)cc(O)c3cc2O)cc1
REMARK SMILES IDX 6 1 7 2 8 3 9 4 10 5 12 6 13 7 15 8 16 9 17 10 5 11 4 12
REMARK SMILES IDX 3 13 2 14 19 15 20 16 1 17 18 19 11 21 14 23
REMARK H PARENT 1 18 18 20 11 22 14 24
REMARK Flexibility Score: inf
ROOT
ATOM      1  C   UNL     1      -8.768  28.253  43.964  1.00  0.00     0.401 A 
ATOM      2  O   UNL     1      -8.761  29.281  44.807  1.00  0.00    -0.202 OA
ATOM      3  C   UNL     1      -7.726  29.579  45.585  1.00  0.00     0.368 A 
ATOM      4  C   UNL     1      -7.812  30.683  46.438  1.00  0.00     0.162 A 
ATOM      5  C   UNL     1      -6.739  31.022  47.264  1.00  0.00     0.128 A 
ATOM      6  C   UNL     1      -5.570  30.254  47.236  1.00  0.00     0.093 A 
ATOM      7  C   UNL     1      -5.458  29.143  46.391  1.00  0.00     0.136 A 
ATOM      8  C   UNL     1      -6.549  28.794  45.552  1.00  0.00     0.125 A 
ATOM      9  C   UNL     1      -6.531  27.691  44.682  1.00  0.00     0.078 A 
ATOM     10  C   UNL     1      -7.646  27.406  43.889  1.00  0.00     0.223 A 
ENDROOT
BRANCH   1  11
ATOM     11  C   UNL     1      -9.980  28.030  43.142  1.00  0.00     0.084 A 
ATOM     12  C   UNL     1     -11.007  27.208  43.635  1.00  0.00     0.022 A 
ATOM     13  C   UNL     1     -12.170  27.000  42.886  1.00  0.00     0.047 A 
ATOM     14  C   UNL     1     -12.327  27.621  41.644  1.00  0.00     0.115 A 
ATOM     15  C   UNL     1     -10.152  28.668  41.899  1.00  0.00     0.022 A 
ATOM     16  C   UNL     1     -11.317  28.458  41.153  1.00  0.00     0.047 A 
BRANCH  14  17
ATOM     17  O   UNL     1     -13.490  27.405  40.908  1.00  0.00    -0.508 OA
ATOM     18  H   UNL     1     -13.684  27.925  40.060  1.00  0.00     0.293 HD
ENDBRANCH  14  17
ENDBRANCH   1  11
BRANCH  10  19
ATOM     19  O   UNL     1      -7.648  26.283  43.062  1.00  0.00    -0.500 OA
ATOM     20  H   UNL     1      -6.832  25.689  42.968  1.00  0.00     0.294 HD
ENDBRANCH  10  19
BRANCH   5  21
ATOM     21  O   UNL     1      -6.844  32.126  48.107  1.00  0.00    -0.507 OA
ATOM     22  H   UNL     1      -6.027  32.544  48.536  1.00  0.00     0.293 HD
ENDBRANCH   5  21
BRANCH   7  23
ATOM     23  O   UNL     1      -4.256  28.429  46.420  1.00  0.00    -0.507 OA
ATOM     24  H   UNL     1      -3.637  28.389  47.216  1.00  0.00     0.293 HD
ENDBRANCH   7  23
TORSDOF 5
ENDMDL
MODEL 7
REMARK VINA RESULT:    -4.965     16.186     16.934
REMARK INTER + INTRA:          -6.149
REMARK INTER:                  -5.829
REMARK INTRA:                  -0.320
REMARK UNBOUND:                -0.312
REMARK SMILES Oc1ccc(-c2[o+]c3cc(O)cc(O)c3cc2O)cc1
REMARK SMILES IDX 6 1 7 2 8 3 9 4 10 5 12 6 13 7 15 8 16 9 17 10 5 11 4 12
REMARK SMILES IDX 3 13 2 14 19 15 20 16 1 17 18 19 11 21 14 23
REMARK H PARENT 1 18 18 20 11 22 14 24
REMARK Flexibility Score: inf
ROOT
ATOM      1  C   UNL     1      -8.674  28.991  44.543  1.00  0.00     0.401 A 
ATOM      2  O   UNL     1      -8.959  30.284  44.427  1.00  0.00    -0.202 OA
ATOM      3  C   UNL     1      -8.441  31.219  45.216  1.00  0.00     0.368 A 
ATOM      4  C   UNL     1      -8.800  32.556  45.014  1.00  0.00     0.162 A 
ATOM      5  C   UNL     1      -8.268  33.559  45.825  1.00  0.00     0.128 A 
ATOM      6  C   UNL     1      -7.370  33.226  46.846  1.00  0.00     0.093 A 
ATOM      7  C   UNL     1      -6.994  31.896  47.069  1.00  0.00     0.136 A 
ATOM      8  C   UNL     1      -7.536  30.872  46.247  1.00  0.00     0.125 A 
ATOM      9  C   UNL     1      -7.226  29.512  46.406  1.00  0.00     0.078 A 
ATOM     10  C   UNL     1      -7.803  28.558  45.560  1.00  0.00     0.223 A 
ENDROOT
BRANCH   1  11
ATOM     11  C   UNL     1      -9.309  28.045  43.595  1.00  0.00     0.084 A 
ATOM     12  C   UNL     1     -10.622  27.607  43.833  1.00  0.00     0.022 A 
ATOM     13  C   UNL     1     -11.250  26.732  42.942  1.00  0.00     0.047 A 
ATOM     14  C   UNL     1     -10.580  26.297  41.795  1.00  0.00     0.115 A 
ATOM     15  C   UNL     1      -8.647  27.619  42.429  1.00  0.00     0.022 A 
ATOM     16  C   UNL     1      -9.278  26.745  41.539  1.00  0.00     0.047 A 
BRANCH  14  17
ATOM     17  O   UNL     1     -11.217  25.424  40.915  1.00  0.00    -0.508 OA
ATOM     18  H   UNL     1     -10.692  24.769  40.347  1.00  0.00     0.293 HD
ENDBRANCH  14  17
ENDBRANCH   1  11
BRANCH  10  19
ATOM     19  O   UNL     1      -7.535  27.203  45.749  1.00  0.00    -0.500 OA
ATOM     20  H   UNL     1      -7.312  26.591  44.972  1.00  0.00     0.294 HD
ENDBRANCH  10  19
BRANCH   5  21
ATOM     21  O   UNL     1      -8.638  34.884  45.608  1.00  0.00    -0.507 OA
ATOM     22  H   UNL     1      -9.548  35.232  45.887  1.00  0.00     0.293 HD
ENDBRANCH   5  21
BRANCH   7  23
ATOM     23  O   UNL     1      -6.091  31.647  48.105  1.00  0.00    -0.507 OA
ATOM     24  H   UNL     1      -6.234  30.965  48.835  1.00  0.00     0.293 HD
ENDBRANCH   7  23
TORSDOF 5
ENDMDL
MODEL 8
REMARK VINA RESULT:    -4.954      7.543      9.637
REMARK INTER + INTRA:          -6.135
REMARK INTER:                  -5.833
REMARK INTRA:                  -0.302
REMARK UNBOUND:                -0.312
REMARK SMILES Oc1ccc(-c2[o+]c3cc(O)cc(O)c3cc2O)cc1
REMARK SMILES IDX 6 1 7 2 8 3 9 4 10 5 12 6 13 7 15 8 16 9 17 10 5 11 4 12
REMARK SMILES IDX 3 13 2 14 19 15 20 16 1 17 18 19 11 21 14 23
REMARK H PARENT 1 18 18 20 11 22 14 24
REMARK Flexibility Score: inf
ROOT
ATOM      1  C   UNL     1     -21.650  25.926  41.995  1.00  0.00     0.401 A 
ATOM      2  O   UNL     1     -22.171  26.234  43.179  1.00  0.00    -0.202 OA
ATOM      3  C   UNL     1     -22.505  27.471  43.530  1.00  0.00     0.368 A 
ATOM      4  C   UNL     1     -23.050  27.695  44.798  1.00  0.00     0.162 A 
ATOM      5  C   UNL     1     -23.411  28.983  45.193  1.00  0.00     0.128 A 
ATOM      6  C   UNL     1     -23.229  30.057  44.315  1.00  0.00     0.093 A 
ATOM      7  C   UNL     1     -22.685  29.860  43.040  1.00  0.00     0.136 A 
ATOM      8  C   UNL     1     -22.313  28.551  42.636  1.00  0.00     0.125 A 
ATOM      9  C   UNL     1     -21.749  28.261  41.383  1.00  0.00     0.078 A 
ATOM     10  C   UNL     1     -21.403  26.946  41.057  1.00  0.00     0.223 A 
ENDROOT
BRANCH   1  11
ATOM     11  C   UNL     1     -21.330  24.506  41.718  1.00  0.00     0.084 A 
ATOM     12  C   UNL     1     -20.026  24.035  41.946  1.00  0.00     0.022 A 
ATOM     13  C   UNL     1     -19.706  22.694  41.712  1.00  0.00     0.047 A 
ATOM     14  C   UNL     1     -20.686  21.806  41.262  1.00  0.00     0.115 A 
ATOM     15  C   UNL     1     -22.317  23.602  41.283  1.00  0.00     0.022 A 
ATOM     16  C   UNL     1     -21.994  22.262  41.051  1.00  0.00     0.047 A 
BRANCH  14  17
ATOM     17  O   UNL     1     -20.354  20.472  41.032  1.00  0.00    -0.508 OA
ATOM     18  H   UNL     1     -20.276  20.101  40.093  1.00  0.00     0.293 HD
ENDBRANCH  14  17
ENDBRANCH   1  11
BRANCH  10  19
ATOM     19  O   UNL     1     -20.797  26.665  39.833  1.00  0.00    -0.500 OA
ATOM     20  H   UNL     1     -21.238  26.906  38.953  1.00  0.00     0.294 HD
ENDBRANCH  10  19
BRANCH   5  21
ATOM     21  O   UNL     1     -23.953  29.186  46.460  1.00  0.00    -0.507 OA
ATOM     22  H   UNL     1     -24.527  29.995  46.667  1.00  0.00     0.293 HD
ENDBRANCH   5  21
BRANCH   7  23
ATOM     23  O   UNL     1     -22.537  30.984  42.222  1.00  0.00    -0.507 OA
ATOM     24  H   UNL     1     -22.533  30.958  41.213  1.00  0.00     0.293 HD
ENDBRANCH   7  23
TORSDOF 5
ENDMDL
MODEL 9
REMARK VINA RESULT:    -4.132      5.459      8.461
REMARK INTER + INTRA:          -5.169
REMARK INTER:                  -4.858
REMARK INTRA:                  -0.311
REMARK UNBOUND:                -0.312
REMARK SMILES Oc1ccc(-c2[o+]c3cc(O)cc(O)c3cc2O)cc1
REMARK SMILES IDX 6 1 7 2 8 3 9 4 10 5 12 6 13 7 15 8 16 9 17 10 5 11 4 12
REMARK SMILES IDX 3 13 2 14 19 15 20 16 1 17 18 19 11 21 14 23
REMARK H PARENT 1 18 18 20 11 22 14 24
REMARK Flexibility Score: inf
ROOT
ATOM      1  C   UNL     1     -13.242  22.627  33.144  1.00  0.00     0.401 A 
ATOM      2  O   UNL     1     -14.384  22.378  33.776  1.00  0.00    -0.202 OA
ATOM      3  C   UNL     1     -15.401  23.233  33.811  1.00  0.00     0.368 A 
ATOM      4  C   UNL     1     -16.565  22.879  34.501  1.00  0.00     0.162 A 
ATOM      5  C   UNL     1     -17.649  23.755  34.552  1.00  0.00     0.128 A 
ATOM      6  C   UNL     1     -17.572  24.996  33.908  1.00  0.00     0.093 A 
ATOM      7  C   UNL     1     -16.418  25.375  33.211  1.00  0.00     0.136 A 
ATOM      8  C   UNL     1     -15.312  24.486  33.160  1.00  0.00     0.125 A 
ATOM      9  C   UNL     1     -14.112  24.786  32.495  1.00  0.00     0.078 A 
ATOM     10  C   UNL     1     -13.062  23.862  32.492  1.00  0.00     0.223 A 
ENDROOT
BRANCH   1  11
ATOM     11  C   UNL     1     -12.186  21.589  33.168  1.00  0.00     0.084 A 
ATOM     12  C   UNL     1     -11.392  21.439  34.317  1.00  0.00     0.022 A 
ATOM     13  C   UNL     1     -10.403  20.451  34.371  1.00  0.00     0.047 A 
ATOM     14  C   UNL     1     -10.207  19.593  33.286  1.00  0.00     0.115 A 
ATOM     15  C   UNL     1     -11.996  20.709  32.086  1.00  0.00     0.022 A 
ATOM     16  C   UNL     1     -11.008  19.721  32.144  1.00  0.00     0.047 A 
BRANCH  14  17
ATOM     17  O   UNL     1      -9.218  18.613  33.353  1.00  0.00    -0.508 OA
ATOM     18  H   UNL     1      -8.299  18.760  32.951  1.00  0.00     0.293 HD
ENDBRANCH  14  17
ENDBRANCH   1  11
BRANCH  10  19
ATOM     19  O   UNL     1     -11.853  24.179  31.875  1.00  0.00    -0.500 OA
ATOM     20  H   UNL     1     -10.964  24.026  32.336  1.00  0.00     0.294 HD
ENDBRANCH  10  19
BRANCH   5  21
ATOM     21  O   UNL     1     -18.799  23.384  35.245  1.00  0.00    -0.507 OA
ATOM     22  H   UNL     1     -19.155  22.436  35.210  1.00  0.00     0.293 HD
ENDBRANCH   5  21
BRANCH   7  23
ATOM     23  O   UNL     1     -16.422  26.628  32.592  1.00  0.00    -0.507 OA
ATOM     24  H   UNL     1     -17.229  27.231  32.532  1.00  0.00     0.293 HD
ENDBRANCH   7  23
TORSDOF 5
ENDMDL
