MODEL 1
REMARK VINA RESULT:    -4.036      0.000      0.000
REMARK INTER + INTRA:         -10.511
REMARK INTER:                  -8.519
REMARK INTRA:                  -1.992
REMARK UNBOUND:                -1.992
REMARK SMILES CCC(=O)CCCCC[C@@H]1NC(=O)[C@@H]2CCCCN2C(=O)[C@@H]([C@@H](C)CC)NC(=O)[C@@H](Cc2cn(OC)c3ccccc23)NC1=O
REMARK SMILES IDX 9 1 10 2 44 3 43 4 45 6 30 7 28 8 27 9 29 11 22 12 23 14
REMARK SMILES IDX 24 15 25 16 26 17 31 18 32 19 33 20 42 21 34 22 37 23 41 24
REMARK SMILES IDX 38 25 40 26 39 27 35 28 36 29 11 30 12 31 13 33 14 34 19 35
REMARK SMILES IDX 15 36 18 37 16 38 17 39 20 40 21 41 8 43 7 44 6 45 5 46 3 47
REMARK SMILES IDX 4 48 2 49 1 50
REMARK H PARENT 43 5 27 10 11 32
REMARK Flexibility Score: 80.00
ROOT
ATOM      1  C   UNL     1      67.603  33.114  55.254  1.00  0.00     0.035 C 
ENDROOT
BRANCH   1   2
ATOM      2  C   UNL     1      67.343  33.486  56.736  1.00  0.00     0.171 C 
BRANCH   2   3
ATOM      3  C   UNL     1      66.571  32.434  57.500  1.00  0.00     0.243 C 
ATOM      4  N   UNL     1      66.690  31.043  57.185  1.00  0.00    -0.342 N 
ATOM      5  H   UNL     1      65.963  30.617  56.569  1.00  0.00     0.164 HD
ATOM      6  O   UNL     1      65.857  32.772  58.482  1.00  0.00    -0.273 OA
BRANCH   4   7
ATOM      7  C   UNL     1      67.789  30.190  57.649  1.00  0.00     0.175 C 
BRANCH   7   8
ATOM      8  C   UNL     1      69.081  30.942  57.523  1.00  0.00     0.243 C 
ATOM      9  N   UNL     1      69.740  31.424  58.703  1.00  0.00    -0.342 N 
ATOM     10  H   UNL     1      69.224  31.399  59.610  1.00  0.00     0.164 HD
ATOM     11  O   UNL     1      69.635  31.058  56.395  1.00  0.00    -0.273 OA
BRANCH   9  12
ATOM     12  C   UNL     1      71.155  31.809  58.741  1.00  0.00     0.174 CG0
ATOM     13  G   UNL     1      71.255  33.286  59.100  1.00  0.00     0.000 G0
BRANCH  12  14
ATOM     14  C   UNL     1      71.969  30.858  59.677  1.00  0.00     0.018 C 
ATOM     15  C   UNL     1      71.022  29.946  60.486  1.00  0.00     0.010 C 
BRANCH  14  16
ATOM     16  C   UNL     1      72.966  30.000  58.856  1.00  0.00     0.002 C 
ATOM     17  C   UNL     1      72.828  30.207  57.345  1.00  0.00     0.004 C 
ENDBRANCH  14  16
ENDBRANCH  12  14
ENDBRANCH   9  12
ENDBRANCH   7   8
BRANCH   7  18
ATOM     18  C   UNL     1      67.549  29.643  59.077  1.00  0.00     0.073 C 
BRANCH  18  19
ATOM     19  C   UNL     1      66.253  28.888  59.156  1.00  0.00    -0.016 A 
ATOM     20  C   UNL     1      66.019  27.622  58.619  1.00  0.00     0.134 A 
ATOM     21  C   UNL     1      65.102  29.219  59.855  1.00  0.00     0.006 A 
ATOM     22  N   UNL     1      64.781  27.197  58.962  1.00  0.00    -0.191 N 
ATOM     23  C   UNL     1      64.230  28.167  59.714  1.00  0.00     0.087 A 
ATOM     24  C   UNL     1      64.765  30.348  60.601  1.00  0.00     0.011 A 
ATOM     25  C   UNL     1      62.969  28.171  60.313  1.00  0.00     0.030 A 
ATOM     26  C   UNL     1      63.503  30.377  61.223  1.00  0.00     0.001 A 
ATOM     27  C   UNL     1      62.609  29.292  61.082  1.00  0.00     0.002 A 
BRANCH  22  28
ATOM     28  O   UNL     1      64.179  25.992  58.634  1.00  0.00    -0.417 OA
ATOM     29  C   UNL     1      64.284  25.423  57.332  1.00  0.00     0.313 C 
ENDBRANCH  22  28
ENDBRANCH  18  19
ENDBRANCH   7  18
ENDBRANCH   4   7
ENDBRANCH   2   3
BRANCH   2  30
ATOM     30  N   UNL     1      68.576  33.913  57.421  1.00  0.00    -0.343 N 
ATOM     31  C   UNL     1      68.955  35.261  57.754  1.00  0.00     0.243 C 
ATOM     32  H   UNL     1      69.266  33.160  57.642  1.00  0.00     0.164 HD
ATOM     33  O   UNL     1      68.164  36.216  57.538  1.00  0.00    -0.273 OA
BRANCH  31  34
ATOM     34  C   UNL     1      70.334  35.524  58.318  1.00  0.00     0.174 C 
ATOM     35  N   UNL     1      71.210  34.353  58.108  1.00  0.00    -0.329 N 
ATOM     36  C   UNL     1      70.981  36.826  57.796  1.00  0.00     0.035 C 
ATOM     37  C   UNL     1      72.018  34.222  56.880  1.00  0.00     0.120 C 
ATOM     38  C   UNL     1      71.712  36.708  56.442  1.00  0.00     0.004 C 
ATOM     39  C   UNL     1      71.708  35.301  55.844  1.00  0.00     0.022 C 
BRANCH  35  40
ATOM     40  C   UNL     1      71.242  33.298  59.104  1.00  0.00     0.246 CG0
ATOM     41  O   UNL     1      71.258  33.606  60.328  1.00  0.00    -0.272 OA
ATOM     42  G   UNL     1      71.140  31.830  58.708  1.00  0.00     0.000 G0
ENDBRANCH  35  40
ENDBRANCH  31  34
ENDBRANCH   2  30
ENDBRANCH   1   2
BRANCH   1  43
ATOM     43  C   UNL     1      67.265  34.223  54.232  1.00  0.00     0.003 C 
BRANCH  43  44
ATOM     44  C   UNL     1      68.515  34.923  53.676  1.00  0.00     0.001 C 
BRANCH  44  45
ATOM     45  C   UNL     1      68.428  35.195  52.168  1.00  0.00     0.008 C 
BRANCH  45  46
ATOM     46  C   UNL     1      69.627  36.035  51.708  1.00  0.00     0.075 C 
BRANCH  46  47
ATOM     47  C   UNL     1      70.462  35.300  50.697  1.00  0.00     0.132 C 
ATOM     48  O   UNL     1      70.082  35.230  49.536  1.00  0.00    -0.300 OA
BRANCH  47  49
ATOM     49  C   UNL     1      71.761  34.668  51.131  1.00  0.00     0.072 C 
ATOM     50  C   UNL     1      72.328  35.274  52.416  1.00  0.00     0.012 C 
ENDBRANCH  47  49
ENDBRANCH  46  47
ENDBRANCH  45  46
ENDBRANCH  44  45
ENDBRANCH  43  44
ENDBRANCH   1  43
TORSDOF 12
ENDMDL
MODEL 2
REMARK VINA RESULT:    -3.965      6.981     11.159
REMARK INTER + INTRA:         -10.362
REMARK INTER:                  -8.095
REMARK INTRA:                  -2.267
REMARK UNBOUND:                -1.992
REMARK SMILES CCC(=O)CCCCC[C@@H]1NC(=O)[C@@H]2CCCCN2C(=O)[C@@H]([C@@H](C)CC)NC(=O)[C@@H](Cc2cn(OC)c3ccccc23)NC1=O
REMARK SMILES IDX 9 1 10 2 44 3 43 4 45 6 30 7 28 8 27 9 29 11 22 12 23 14
REMARK SMILES IDX 24 15 25 16 26 17 31 18 32 19 33 20 42 21 34 22 37 23 41 24
REMARK SMILES IDX 38 25 40 26 39 27 35 28 36 29 11 30 12 31 13 33 14 34 19 35
REMARK SMILES IDX 15 36 18 37 16 38 17 39 20 40 21 41 8 43 7 44 6 45 5 46 3 47
REMARK SMILES IDX 4 48 2 49 1 50
REMARK H PARENT 43 5 27 10 11 32
REMARK Flexibility Score: 80.00
ROOT
ATOM      1  C   UNL     1      62.609  32.964  57.506  1.00  0.00     0.035 C 
ENDROOT
BRANCH   1   2
ATOM      2  C   UNL     1      61.634  31.798  57.204  1.00  0.00     0.171 C 
BRANCH   2   3
ATOM      3  C   UNL     1      62.073  30.921  56.053  1.00  0.00     0.243 C 
ATOM      4  N   UNL     1      61.702  29.540  55.981  1.00  0.00    -0.342 N 
ATOM      5  H   UNL     1      62.391  28.831  56.316  1.00  0.00     0.164 HD
ATOM      6  O   UNL     1      62.721  31.424  55.097  1.00  0.00    -0.273 OA
BRANCH   4   7
ATOM      7  C   UNL     1      60.402  29.066  55.496  1.00  0.00     0.175 C 
BRANCH   7   8
ATOM      8  C   UNL     1      59.748  28.244  56.568  1.00  0.00     0.243 C 
ATOM      9  N   UNL     1      59.211  28.892  57.730  1.00  0.00    -0.342 N 
ATOM     10  H   UNL     1      59.439  29.897  57.894  1.00  0.00     0.164 HD
ATOM     11  O   UNL     1      59.582  27.006  56.398  1.00  0.00    -0.273 OA
BRANCH   9  12
ATOM     12  C   UNL     1      58.231  28.266  58.625  1.00  0.00     0.174 CG0
ATOM     13  G   UNL     1      58.781  28.279  60.046  1.00  0.00     0.000 G0
BRANCH  12  14
ATOM     14  C   UNL     1      56.826  28.934  58.469  1.00  0.00     0.018 C 
ATOM     15  C   UNL     1      56.860  30.033  57.386  1.00  0.00     0.010 C 
BRANCH  14  16
ATOM     16  C   UNL     1      55.749  27.873  58.120  1.00  0.00     0.002 C 
ATOM     17  C   UNL     1      55.264  27.970  56.671  1.00  0.00     0.004 C 
ENDBRANCH  14  16
ENDBRANCH  12  14
ENDBRANCH   9  12
ENDBRANCH   7   8
BRANCH   7  18
ATOM     18  C   UNL     1      59.504  30.221  54.993  1.00  0.00     0.073 C 
BRANCH  18  19
ATOM     19  C   UNL     1      58.667  29.785  53.823  1.00  0.00    -0.016 A 
ATOM     20  C   UNL     1      57.291  29.565  53.850  1.00  0.00     0.134 A 
ATOM     21  C   UNL     1      59.048  29.635  52.498  1.00  0.00     0.006 A 
ATOM     22  N   UNL     1      56.844  29.284  52.602  1.00  0.00    -0.191 N 
ATOM     23  C   UNL     1      57.913  29.331  51.787  1.00  0.00     0.087 A 
ATOM     24  C   UNL     1      60.290  29.750  51.873  1.00  0.00     0.011 A 
ATOM     25  C   UNL     1      57.943  29.127  50.406  1.00  0.00     0.030 A 
ATOM     26  C   UNL     1      60.348  29.559  50.480  1.00  0.00     0.001 A 
ATOM     27  C   UNL     1      59.180  29.251  49.749  1.00  0.00     0.002 A 
BRANCH  22  28
ATOM     28  O   UNL     1      55.543  29.016  52.210  1.00  0.00    -0.417 OA
ATOM     29  C   UNL     1      54.508  29.993  52.299  1.00  0.00     0.313 C 
ENDBRANCH  22  28
ENDBRANCH  18  19
ENDBRANCH   7  18
ENDBRANCH   4   7
ENDBRANCH   2   3
BRANCH   2  30
ATOM     30  N   UNL     1      61.296  31.035  58.419  1.00  0.00    -0.343 N 
ATOM     31  C   UNL     1      60.151  31.229  59.269  1.00  0.00     0.243 C 
ATOM     32  H   UNL     1      61.988  30.311  58.718  1.00  0.00     0.164 HD
ATOM     33  O   UNL     1      59.264  32.067  58.960  1.00  0.00    -0.273 OA
BRANCH  31  34
ATOM     34  C   UNL     1      60.049  30.453  60.564  1.00  0.00     0.174 C 
ATOM     35  N   UNL     1      60.071  28.999  60.297  1.00  0.00    -0.329 N 
ATOM     36  C   UNL     1      61.105  30.858  61.616  1.00  0.00     0.035 C 
ATOM     37  C   UNL     1      61.346  28.256  60.250  1.00  0.00     0.120 C 
ATOM     38  C   UNL     1      62.480  30.173  61.476  1.00  0.00     0.004 C 
ATOM     39  C   UNL     1      62.570  29.167  60.329  1.00  0.00     0.022 C 
BRANCH  35  40
ATOM     40  C   UNL     1      58.825  28.303  60.035  1.00  0.00     0.246 CG0
ATOM     41  O   UNL     1      58.186  27.798  61.000  1.00  0.00    -0.272 OA
ATOM     42  G   UNL     1      58.214  28.268  58.640  1.00  0.00     0.000 G0
ENDBRANCH  35  40
ENDBRANCH  31  34
ENDBRANCH   2  30
ENDBRANCH   1   2
BRANCH   1  43
ATOM     43  C   UNL     1      62.024  34.097  58.379  1.00  0.00     0.003 C 
BRANCH  43  44
ATOM     44  C   UNL     1      62.420  33.975  59.860  1.00  0.00     0.001 C 
BRANCH  44  45
ATOM     45  C   UNL     1      63.842  33.432  60.055  1.00  0.00     0.008 C 
BRANCH  45  46
ATOM     46  C   UNL     1      64.546  34.179  61.196  1.00  0.00     0.075 C 
BRANCH  46  47
ATOM     47  C   UNL     1      64.765  35.626  60.856  1.00  0.00     0.132 C 
ATOM     48  O   UNL     1      64.264  36.494  61.559  1.00  0.00    -0.300 OA
BRANCH  47  49
ATOM     49  C   UNL     1      65.610  35.985  59.659  1.00  0.00     0.072 C 
ATOM     50  C   UNL     1      64.822  36.687  58.553  1.00  0.00     0.012 C 
ENDBRANCH  47  49
ENDBRANCH  46  47
ENDBRANCH  45  46
ENDBRANCH  44  45
ENDBRANCH  43  44
ENDBRANCH   1  43
TORSDOF 12
ENDMDL
MODEL 3
REMARK VINA RESULT:    -3.952      9.911     13.916
REMARK INTER + INTRA:         -10.334
REMARK INTER:                  -7.921
REMARK INTRA:                  -2.412
REMARK UNBOUND:                -1.992
REMARK SMILES CCC(=O)CCCCC[C@@H]1NC(=O)[C@@H]2CCCCN2C(=O)[C@@H]([C@@H](C)CC)NC(=O)[C@@H](Cc2cn(OC)c3ccccc23)NC1=O
REMARK SMILES IDX 9 1 10 2 44 3 43 4 45 6 30 7 28 8 27 9 29 11 22 12 23 14
REMARK SMILES IDX 24 15 25 16 26 17 31 18 32 19 33 20 42 21 34 22 37 23 41 24
REMARK SMILES IDX 38 25 40 26 39 27 35 28 36 29 11 30 12 31 13 33 14 34 19 35
REMARK SMILES IDX 15 36 18 37 16 38 17 39 20 40 21 41 8 43 7 44 6 45 5 46 3 47
REMARK SMILES IDX 4 48 2 49 1 50
REMARK H PARENT 43 5 27 10 11 32
REMARK Flexibility Score: 80.00
ROOT
ATOM      1  C   UNL     1      57.791  27.370  50.829  1.00  0.00     0.035 C 
ENDROOT
BRANCH   1   2
ATOM      2  C   UNL     1      58.373  27.350  52.265  1.00  0.00     0.171 C 
BRANCH   2   3
ATOM      3  C   UNL     1      57.730  26.320  53.167  1.00  0.00     0.243 C 
ATOM      4  N   UNL     1      57.251  25.072  52.655  1.00  0.00    -0.342 N 
ATOM      5  H   UNL     1      56.233  24.993  52.436  1.00  0.00     0.164 HD
ATOM      6  O   UNL     1      57.673  26.526  54.409  1.00  0.00    -0.273 OA
BRANCH   4   7
ATOM      7  C   UNL     1      58.108  23.913  52.390  1.00  0.00     0.175 C 
BRANCH   7   8
ATOM      8  C   UNL     1      59.389  24.381  51.766  1.00  0.00     0.243 C 
ATOM      9  N   UNL     1      60.613  24.296  52.510  1.00  0.00    -0.342 N 
ATOM     10  H   UNL     1      60.566  24.077  53.529  1.00  0.00     0.164 HD
ATOM     11  O   UNL     1      59.404  24.751  50.560  1.00  0.00    -0.273 OA
BRANCH   9  12
ATOM     12  C   UNL     1      61.943  24.348  51.891  1.00  0.00     0.174 CG0
ATOM     13  G   UNL     1      62.655  25.612  52.357  1.00  0.00     0.000 G0
BRANCH  12  14
ATOM     14  C   UNL     1      62.733  23.025  52.153  1.00  0.00     0.018 C 
ATOM     15  C   UNL     1      61.942  22.093  53.095  1.00  0.00     0.010 C 
BRANCH  14  16
ATOM     16  C   UNL     1      63.044  22.298  50.819  1.00  0.00     0.002 C 
ATOM     17  C   UNL     1      64.505  22.446  50.385  1.00  0.00     0.004 C 
ENDBRANCH  14  16
ENDBRANCH  12  14
ENDBRANCH   9  12
ENDBRANCH   7   8
BRANCH   7  18
ATOM     18  C   UNL     1      58.336  23.047  53.653  1.00  0.00     0.073 C 
BRANCH  18  19
ATOM     19  C   UNL     1      57.526  21.783  53.595  1.00  0.00    -0.016 A 
ATOM     20  C   UNL     1      56.207  21.646  54.026  1.00  0.00     0.134 A 
ATOM     21  C   UNL     1      57.861  20.570  53.014  1.00  0.00     0.006 A 
ATOM     22  N   UNL     1      55.753  20.405  53.733  1.00  0.00    -0.191 N 
ATOM     23  C   UNL     1      56.758  19.758  53.116  1.00  0.00     0.087 A 
ATOM     24  C   UNL     1      59.035  20.129  52.404  1.00  0.00     0.011 A 
ATOM     25  C   UNL     1      56.753  18.456  52.612  1.00  0.00     0.030 A 
ATOM     26  C   UNL     1      59.056  18.823  51.878  1.00  0.00     0.001 A 
ATOM     27  C   UNL     1      57.920  17.991  51.979  1.00  0.00     0.002 A 
BRANCH  22  28
ATOM     28  O   UNL     1      54.495  19.882  53.988  1.00  0.00    -0.417 OA
ATOM     29  C   UNL     1      53.440  20.674  54.528  1.00  0.00     0.313 C 
ENDBRANCH  22  28
ENDBRANCH  18  19
ENDBRANCH   7  18
ENDBRANCH   4   7
ENDBRANCH   2   3
BRANCH   2  30
ATOM     30  N   UNL     1      59.845  27.280  52.262  1.00  0.00    -0.343 N 
ATOM     31  C   UNL     1      60.758  28.288  52.734  1.00  0.00     0.243 C 
ATOM     32  H   UNL     1      60.267  26.429  51.825  1.00  0.00     0.164 HD
ATOM     33  O   UNL     1      60.322  29.328  53.292  1.00  0.00    -0.273 OA
BRANCH  31  34
ATOM     34  C   UNL     1      62.243  28.108  52.506  1.00  0.00     0.174 C 
ATOM     35  N   UNL     1      62.498  26.897  51.697  1.00  0.00    -0.329 N 
ATOM     36  C   UNL     1      62.936  29.352  51.909  1.00  0.00     0.035 C 
ATOM     37  C   UNL     1      62.541  26.965  50.224  1.00  0.00     0.120 C 
ATOM     38  C   UNL     1      62.859  29.483  50.374  1.00  0.00     0.004 C 
ATOM     39  C   UNL     1      62.132  28.332  49.678  1.00  0.00     0.022 C 
BRANCH  35  40
ATOM     40  C   UNL     1      62.665  25.617  52.362  1.00  0.00     0.246 CG0
ATOM     41  O   UNL     1      63.365  25.555  53.411  1.00  0.00    -0.272 OA
ATOM     42  G   UNL     1      61.923  24.374  51.887  1.00  0.00     0.000 G0
ENDBRANCH  35  40
ENDBRANCH  31  34
ENDBRANCH   2  30
ENDBRANCH   1   2
BRANCH   1  43
ATOM     43  C   UNL     1      57.103  28.691  50.420  1.00  0.00     0.003 C 
BRANCH  43  44
ATOM     44  C   UNL     1      55.803  28.953  51.198  1.00  0.00     0.001 C 
BRANCH  44  45
ATOM     45  C   UNL     1      54.545  28.569  50.407  1.00  0.00     0.008 C 
BRANCH  45  46
ATOM     46  C   UNL     1      53.640  27.662  51.252  1.00  0.00     0.075 C 
BRANCH  46  47
ATOM     47  C   UNL     1      54.214  26.280  51.387  1.00  0.00     0.132 C 
ATOM     48  O   UNL     1      54.314  25.773  52.497  1.00  0.00    -0.300 OA
BRANCH  47  49
ATOM     49  C   UNL     1      54.649  25.536  50.149  1.00  0.00     0.072 C 
ATOM     50  C   UNL     1      53.481  25.130  49.248  1.00  0.00     0.012 C 
ENDBRANCH  47  49
ENDBRANCH  46  47
ENDBRANCH  45  46
ENDBRANCH  44  45
ENDBRANCH  43  44
ENDBRANCH   1  43
TORSDOF 12
ENDMDL
MODEL 4
REMARK VINA RESULT:    -3.939      1.869      2.977
REMARK INTER + INTRA:         -10.307
REMARK INTER:                  -7.913
REMARK INTRA:                  -2.395
REMARK UNBOUND:                -1.992
REMARK SMILES CCC(=O)CCCCC[C@@H]1NC(=O)[C@@H]2CCCCN2C(=O)[C@@H]([C@@H](C)CC)NC(=O)[C@@H](Cc2cn(OC)c3ccccc23)NC1=O
REMARK SMILES IDX 9 1 10 2 44 3 43 4 45 6 30 7 28 8 27 9 29 11 22 12 23 14
REMARK SMILES IDX 24 15 25 16 26 17 31 18 32 19 33 20 42 21 34 22 37 23 41 24
REMARK SMILES IDX 38 25 40 26 39 27 35 28 36 29 11 30 12 31 13 33 14 34 19 35
REMARK SMILES IDX 15 36 18 37 16 38 17 39 20 40 21 41 8 43 7 44 6 45 5 46 3 47
REMARK SMILES IDX 4 48 2 49 1 50
REMARK H PARENT 43 5 27 10 11 32
REMARK Flexibility Score: 80.00
ROOT
ATOM      1  C   UNL     1      67.518  33.133  55.124  1.00  0.00     0.035 C 
ENDROOT
BRANCH   1   2
ATOM      2  C   UNL     1      67.299  33.606  56.584  1.00  0.00     0.171 C 
BRANCH   2   3
ATOM      3  C   UNL     1      66.451  32.664  57.408  1.00  0.00     0.243 C 
ATOM      4  N   UNL     1      66.498  31.247  57.208  1.00  0.00    -0.342 N 
ATOM      5  H   UNL     1      65.761  30.814  56.608  1.00  0.00     0.164 HD
ATOM      6  O   UNL     1      65.736  33.119  58.340  1.00  0.00    -0.273 OA
BRANCH   4   7
ATOM      7  C   UNL     1      67.535  30.375  57.767  1.00  0.00     0.175 C 
BRANCH   7   8
ATOM      8  C   UNL     1      68.872  31.040  57.614  1.00  0.00     0.243 C 
ATOM      9  N   UNL     1      69.586  31.474  58.780  1.00  0.00    -0.342 N 
ATOM     10  H   UNL     1      69.090  31.480  59.698  1.00  0.00     0.164 HD
ATOM     11  O   UNL     1      69.406  31.123  56.474  1.00  0.00    -0.273 OA
BRANCH   9  12
ATOM     12  C   UNL     1      71.024  31.764  58.786  1.00  0.00     0.174 CG0
ATOM     13  G   UNL     1      71.230  33.231  59.145  1.00  0.00     0.000 G0
BRANCH  12  14
ATOM     14  C   UNL     1      71.794  30.759  59.704  1.00  0.00     0.018 C 
ATOM     15  C   UNL     1      70.826  29.718  60.306  1.00  0.00     0.010 C 
BRANCH  14  16
ATOM     16  C   UNL     1      72.922  30.047  58.914  1.00  0.00     0.002 C 
ATOM     17  C   UNL     1      72.603  29.897  57.423  1.00  0.00     0.004 C 
ENDBRANCH  14  16
ENDBRANCH  12  14
ENDBRANCH   9  12
ENDBRANCH   7   8
BRANCH   7  18
ATOM     18  C   UNL     1      67.234  29.962  59.228  1.00  0.00     0.073 C 
BRANCH  18  19
ATOM     19  C   UNL     1      65.965  29.162  59.313  1.00  0.00    -0.016 A 
ATOM     20  C   UNL     1      65.786  27.874  58.812  1.00  0.00     0.134 A 
ATOM     21  C   UNL     1      64.794  29.472  59.987  1.00  0.00     0.006 A 
ATOM     22  N   UNL     1      64.558  27.413  59.152  1.00  0.00    -0.191 N 
ATOM     23  C   UNL     1      63.963  28.385  59.867  1.00  0.00     0.087 A 
ATOM     24  C   UNL     1      64.405  30.610  60.694  1.00  0.00     0.011 A 
ATOM     25  C   UNL     1      62.694  28.360  60.449  1.00  0.00     0.030 A 
ATOM     26  C   UNL     1      63.134  30.610  61.299  1.00  0.00     0.001 A 
ATOM     27  C   UNL     1      62.283  29.490  61.179  1.00  0.00     0.002 A 
BRANCH  22  28
ATOM     28  O   UNL     1      64.005  26.178  58.853  1.00  0.00    -0.417 OA
ATOM     29  C   UNL     1      64.744  24.966  58.981  1.00  0.00     0.313 C 
ENDBRANCH  22  28
ENDBRANCH  18  19
ENDBRANCH   7  18
ENDBRANCH   4   7
ENDBRANCH   2   3
BRANCH   2  30
ATOM     30  N   UNL     1      68.567  33.971  57.240  1.00  0.00    -0.343 N 
ATOM     31  C   UNL     1      68.852  35.191  57.949  1.00  0.00     0.243 C 
ATOM     32  H   UNL     1      69.354  33.291  57.135  1.00  0.00     0.164 HD
ATOM     33  O   UNL     1      67.946  36.044  58.135  1.00  0.00    -0.273 OA
BRANCH  31  34
ATOM     34  C   UNL     1      70.263  35.458  58.425  1.00  0.00     0.174 C 
ATOM     35  N   UNL     1      71.129  34.292  58.153  1.00  0.00    -0.329 N 
ATOM     36  C   UNL     1      70.869  36.765  57.867  1.00  0.00     0.035 C 
ATOM     37  C   UNL     1      71.857  34.170  56.875  1.00  0.00     0.120 C 
ATOM     38  C   UNL     1      71.511  36.656  56.469  1.00  0.00     0.004 C 
ATOM     39  C   UNL     1      71.475  35.252  55.865  1.00  0.00     0.022 C 
BRANCH  35  40
ATOM     40  C   UNL     1      71.230  33.233  59.140  1.00  0.00     0.246 CG0
ATOM     41  O   UNL     1      71.402  33.536  60.354  1.00  0.00    -0.272 OA
ATOM     42  G   UNL     1      71.019  31.772  58.760  1.00  0.00     0.000 G0
ENDBRANCH  35  40
ENDBRANCH  31  34
ENDBRANCH   2  30
ENDBRANCH   1   2
BRANCH   1  43
ATOM     43  C   UNL     1      66.780  33.963  54.049  1.00  0.00     0.003 C 
BRANCH  43  44
ATOM     44  C   UNL     1      65.643  34.818  54.631  1.00  0.00     0.001 C 
BRANCH  44  45
ATOM     45  C   UNL     1      64.366  34.773  53.782  1.00  0.00     0.008 C 
BRANCH  45  46
ATOM     46  C   UNL     1      64.014  33.322  53.425  1.00  0.00     0.075 C 
BRANCH  46  47
ATOM     47  C   UNL     1      63.333  32.622  54.567  1.00  0.00     0.132 C 
ATOM     48  O   UNL     1      62.529  33.235  55.258  1.00  0.00    -0.300 OA
BRANCH  47  49
ATOM     49  C   UNL     1      63.644  31.171  54.836  1.00  0.00     0.072 C 
ATOM     50  C   UNL     1      64.809  30.639  54.000  1.00  0.00     0.012 C 
ENDBRANCH  47  49
ENDBRANCH  46  47
ENDBRANCH  45  46
ENDBRANCH  44  45
ENDBRANCH  43  44
ENDBRANCH   1  43
TORSDOF 12
ENDMDL
MODEL 5
REMARK VINA RESULT:    -3.931      7.699     11.443
REMARK INTER + INTRA:         -10.289
REMARK INTER:                  -8.005
REMARK INTRA:                  -2.284
REMARK UNBOUND:                -1.992
REMARK SMILES CCC(=O)CCCCC[C@@H]1NC(=O)[C@@H]2CCCCN2C(=O)[C@@H]([C@@H](C)CC)NC(=O)[C@@H](Cc2cn(OC)c3ccccc23)NC1=O
REMARK SMILES IDX 9 1 10 2 44 3 43 4 45 6 30 7 28 8 27 9 29 11 22 12 23 14
REMARK SMILES IDX 24 15 25 16 26 17 31 18 32 19 33 20 42 21 34 22 37 23 41 24
REMARK SMILES IDX 38 25 40 26 39 27 35 28 36 29 11 30 12 31 13 33 14 34 19 35
REMARK SMILES IDX 15 36 18 37 16 38 17 39 20 40 21 41 8 43 7 44 6 45 5 46 3 47
REMARK SMILES IDX 4 48 2 49 1 50
REMARK H PARENT 43 5 27 10 11 32
REMARK Flexibility Score: 80.00
ROOT
ATOM      1  C   UNL     1      60.088  30.380  58.373  1.00  0.00     0.035 C 
ENDROOT
BRANCH   1   2
ATOM      2  C   UNL     1      61.007  31.019  57.301  1.00  0.00     0.171 C 
BRANCH   2   3
ATOM      3  C   UNL     1      60.707  30.561  55.892  1.00  0.00     0.243 C 
ATOM      4  N   UNL     1      59.375  30.239  55.477  1.00  0.00    -0.342 N 
ATOM      5  H   UNL     1      59.092  29.234  55.482  1.00  0.00     0.164 HD
ATOM      6  O   UNL     1      61.632  30.525  55.036  1.00  0.00    -0.273 OA
BRANCH   4   7
ATOM      7  C   UNL     1      58.378  31.237  55.079  1.00  0.00     0.175 C 
BRANCH   7   8
ATOM      8  C   UNL     1      58.379  32.358  56.076  1.00  0.00     0.243 C 
ATOM      9  N   UNL     1      58.877  33.648  55.693  1.00  0.00    -0.342 N 
ATOM     10  H   UNL     1      59.390  33.739  54.789  1.00  0.00     0.164 HD
ATOM     11  O   UNL     1      57.851  32.193  57.209  1.00  0.00    -0.273 OA
BRANCH   9  12
ATOM     12  C   UNL     1      58.574  34.883  56.425  1.00  0.00     0.174 CG0
ATOM     13  G   UNL     1      59.881  35.586  56.771  1.00  0.00     0.000 G0
BRANCH  12  14
ATOM     14  C   UNL     1      57.555  35.766  55.633  1.00  0.00     0.018 C 
ATOM     15  C   UNL     1      57.433  35.284  54.172  1.00  0.00     0.010 C 
BRANCH  14  16
ATOM     16  C   UNL     1      56.164  35.749  56.320  1.00  0.00     0.002 C 
ATOM     17  C   UNL     1      55.014  36.012  55.344  1.00  0.00     0.004 C 
ENDBRANCH  14  16
ENDBRANCH  12  14
ENDBRANCH   9  12
ENDBRANCH   7   8
BRANCH   7  18
ATOM     18  C   UNL     1      58.582  31.727  53.625  1.00  0.00     0.073 C 
BRANCH  18  19
ATOM     19  C   UNL     1      58.125  30.691  52.637  1.00  0.00    -0.016 A 
ATOM     20  C   UNL     1      56.798  30.376  52.350  1.00  0.00     0.134 A 
ATOM     21  C   UNL     1      58.890  29.949  51.749  1.00  0.00     0.006 A 
ATOM     22  N   UNL     1      56.746  29.475  51.340  1.00  0.00    -0.191 N 
ATOM     23  C   UNL     1      58.017  29.223  50.977  1.00  0.00     0.087 A 
ATOM     24  C   UNL     1      60.269  29.867  51.560  1.00  0.00     0.011 A 
ATOM     25  C   UNL     1      58.462  28.372  49.964  1.00  0.00     0.030 A 
ATOM     26  C   UNL     1      60.747  29.023  50.539  1.00  0.00     0.001 A 
ATOM     27  C   UNL     1      59.848  28.281  49.743  1.00  0.00     0.002 A 
BRANCH  22  28
ATOM     28  O   UNL     1      55.617  28.920  50.759  1.00  0.00    -0.417 OA
ATOM     29  C   UNL     1      54.324  29.043  51.347  1.00  0.00     0.313 C 
ENDBRANCH  22  28
ENDBRANCH  18  19
ENDBRANCH   7  18
ENDBRANCH   4   7
ENDBRANCH   2   3
BRANCH   2  30
ATOM     30  N   UNL     1      61.070  32.486  57.434  1.00  0.00    -0.343 N 
ATOM     31  C   UNL     1      62.232  33.318  57.266  1.00  0.00     0.243 C 
ATOM     32  H   UNL     1      60.187  32.961  57.729  1.00  0.00     0.164 HD
ATOM     33  O   UNL     1      63.324  32.818  56.889  1.00  0.00    -0.273 OA
BRANCH  31  34
ATOM     34  C   UNL     1      62.141  34.792  57.596  1.00  0.00     0.174 C 
ATOM     35  N   UNL     1      60.740  35.174  57.869  1.00  0.00    -0.329 N 
ATOM     36  C   UNL     1      63.088  35.233  58.735  1.00  0.00     0.035 C 
ATOM     37  C   UNL     1      60.185  35.097  59.234  1.00  0.00     0.120 C 
ATOM     38  C   UNL     1      62.550  35.023  60.165  1.00  0.00     0.004 C 
ATOM     39  C   UNL     1      61.139  34.438  60.229  1.00  0.00     0.022 C 
BRANCH  35  40
ATOM     40  C   UNL     1      59.888  35.591  56.770  1.00  0.00     0.246 CG0
ATOM     41  O   UNL     1      60.275  36.520  56.007  1.00  0.00    -0.272 OA
ATOM     42  G   UNL     1      58.592  34.856  56.449  1.00  0.00     0.000 G0
ENDBRANCH  35  40
ENDBRANCH  31  34
ENDBRANCH   2  30
ENDBRANCH   1   2
BRANCH   1  43
ATOM     43  C   UNL     1      59.982  31.167  59.698  1.00  0.00     0.003 C 
BRANCH  43  44
ATOM     44  C   UNL     1      61.008  30.710  60.748  1.00  0.00     0.001 C 
BRANCH  44  45
ATOM     45  C   UNL     1      61.164  29.184  60.807  1.00  0.00     0.008 C 
BRANCH  45  46
ATOM     46  C   UNL     1      62.624  28.808  61.089  1.00  0.00     0.075 C 
BRANCH  46  47
ATOM     47  C   UNL     1      63.574  29.601  60.236  1.00  0.00     0.132 C 
ATOM     48  O   UNL     1      63.557  29.457  59.020  1.00  0.00    -0.300 OA
BRANCH  47  49
ATOM     49  C   UNL     1      64.526  30.569  60.893  1.00  0.00     0.072 C 
ATOM     50  C   UNL     1      64.349  32.010  60.411  1.00  0.00     0.012 C 
ENDBRANCH  47  49
ENDBRANCH  46  47
ENDBRANCH  45  46
ENDBRANCH  44  45
ENDBRANCH  43  44
ENDBRANCH   1  43
TORSDOF 12
ENDMDL
MODEL 6
REMARK VINA RESULT:    -3.904      7.971     12.371
REMARK INTER + INTRA:         -10.233
REMARK INTER:                  -7.986
REMARK INTRA:                  -2.247
REMARK UNBOUND:                -1.992
REMARK SMILES CCC(=O)CCCCC[C@@H]1NC(=O)[C@@H]2CCCCN2C(=O)[C@@H]([C@@H](C)CC)NC(=O)[C@@H](Cc2cn(OC)c3ccccc23)NC1=O
REMARK SMILES IDX 9 1 10 2 44 3 43 4 45 6 30 7 28 8 27 9 29 11 22 12 23 14
REMARK SMILES IDX 24 15 25 16 26 17 31 18 32 19 33 20 42 21 34 22 37 23 41 24
REMARK SMILES IDX 38 25 40 26 39 27 35 28 36 29 11 30 12 31 13 33 14 34 19 35
REMARK SMILES IDX 15 36 18 37 16 38 17 39 20 40 21 41 8 43 7 44 6 45 5 46 3 47
REMARK SMILES IDX 4 48 2 49 1 50
REMARK H PARENT 43 5 27 10 11 32
REMARK Flexibility Score: 80.00
ROOT
ATOM      1  C   UNL     1      58.837  28.145  55.797  1.00  0.00     0.035 C 
ENDROOT
BRANCH   1   2
ATOM      2  C   UNL     1      57.937  28.561  56.988  1.00  0.00     0.171 C 
BRANCH   2   3
ATOM      3  C   UNL     1      58.700  28.802  58.271  1.00  0.00     0.243 C 
ATOM      4  N   UNL     1      60.033  29.324  58.262  1.00  0.00    -0.342 N 
ATOM      5  H   UNL     1      60.824  28.645  58.339  1.00  0.00     0.164 HD
ATOM      6  O   UNL     1      58.135  28.607  59.380  1.00  0.00    -0.273 OA
BRANCH   4   7
ATOM      7  C   UNL     1      60.355  30.747  58.119  1.00  0.00     0.175 C 
BRANCH   7   8
ATOM      8  C   UNL     1      59.447  31.354  57.090  1.00  0.00     0.243 C 
ATOM      9  N   UNL     1      58.442  32.294  57.498  1.00  0.00    -0.342 N 
ATOM     10  H   UNL     1      58.243  32.405  58.516  1.00  0.00     0.164 HD
ATOM     11  O   UNL     1      59.635  31.117  55.866  1.00  0.00    -0.273 OA
BRANCH   9  12
ATOM     12  C   UNL     1      57.781  33.224  56.575  1.00  0.00     0.174 CG0
ATOM     13  G   UNL     1      56.302  32.867  56.490  1.00  0.00     0.000 G0
BRANCH  12  14
ATOM     14  C   UNL     1      58.067  34.707  56.976  1.00  0.00     0.018 C 
ATOM     15  C   UNL     1      58.656  34.785  58.401  1.00  0.00     0.010 C 
BRANCH  14  16
ATOM     16  C   UNL     1      59.034  35.374  55.962  1.00  0.00     0.002 C 
ATOM     17  C   UNL     1      58.391  35.610  54.592  1.00  0.00     0.004 C 
ENDBRANCH  14  16
ENDBRANCH  12  14
ENDBRANCH   9  12
ENDBRANCH   7   8
BRANCH   7  18
ATOM     18  C   UNL     1      60.319  31.498  59.471  1.00  0.00     0.073 C 
BRANCH  18  19
ATOM     19  C   UNL     1      61.705  31.847  59.933  1.00  0.00    -0.016 A 
ATOM     20  C   UNL     1      62.787  30.969  59.982  1.00  0.00     0.134 A 
ATOM     21  C   UNL     1      62.212  33.091  60.278  1.00  0.00     0.006 A 
ATOM     22  N   UNL     1      63.907  31.638  60.347  1.00  0.00    -0.191 N 
ATOM     23  C   UNL     1      63.553  32.924  60.522  1.00  0.00     0.087 A 
ATOM     24  C   UNL     1      61.603  34.341  60.385  1.00  0.00     0.011 A 
ATOM     25  C   UNL     1      64.374  33.993  60.884  1.00  0.00     0.030 A 
ATOM     26  C   UNL     1      62.408  35.440  60.739  1.00  0.00     0.001 A 
ATOM     27  C   UNL     1      63.788  35.268  60.985  1.00  0.00     0.002 A 
BRANCH  22  28
ATOM     28  O   UNL     1      65.186  31.126  60.499  1.00  0.00    -0.417 OA
ATOM     29  C   UNL     1      65.644  30.000  59.755  1.00  0.00     0.313 C 
ENDBRANCH  22  28
ENDBRANCH  18  19
ENDBRANCH   7  18
ENDBRANCH   4   7
ENDBRANCH   2   3
BRANCH   2  30
ATOM     30  N   UNL     1      57.033  29.670  56.634  1.00  0.00    -0.343 N 
ATOM     31  C   UNL     1      55.595  29.634  56.601  1.00  0.00     0.243 C 
ATOM     32  H   UNL     1      57.491  30.559  56.328  1.00  0.00     0.164 HD
ATOM     33  O   UNL     1      54.976  28.605  56.977  1.00  0.00    -0.273 OA
BRANCH  31  34
ATOM     34  C   UNL     1      54.837  30.826  56.060  1.00  0.00     0.174 C 
ATOM     35  N   UNL     1      55.776  31.854  55.565  1.00  0.00    -0.329 N 
ATOM     36  C   UNL     1      53.776  30.460  54.998  1.00  0.00     0.035 C 
ATOM     37  C   UNL     1      56.244  31.842  54.165  1.00  0.00     0.120 C 
ATOM     38  C   UNL     1      54.302  30.318  53.555  1.00  0.00     0.004 C 
ATOM     39  C   UNL     1      55.797  30.599  53.398  1.00  0.00     0.022 C 
BRANCH  35  40
ATOM     40  C   UNL     1      56.277  32.863  56.481  1.00  0.00     0.246 CG0
ATOM     41  O   UNL     1      55.482  33.400  57.302  1.00  0.00    -0.272 OA
ATOM     42  G   UNL     1      57.761  33.205  56.550  1.00  0.00     0.000 G0
ENDBRANCH  35  40
ENDBRANCH  31  34
ENDBRANCH   2  30
ENDBRANCH   1   2
BRANCH   1  43
ATOM     43  C   UNL     1      58.381  26.873  55.046  1.00  0.00     0.003 C 
BRANCH  43  44
ATOM     44  C   UNL     1      57.733  27.184  53.687  1.00  0.00     0.001 C 
BRANCH  44  45
ATOM     45  C   UNL     1      58.760  27.530  52.600  1.00  0.00     0.008 C 
BRANCH  45  46
ATOM     46  C   UNL     1      58.149  27.329  51.207  1.00  0.00     0.075 C 
BRANCH  46  47
ATOM     47  C   UNL     1      57.388  28.544  50.757  1.00  0.00     0.132 C 
ATOM     48  O   UNL     1      57.958  29.626  50.696  1.00  0.00    -0.300 OA
BRANCH  47  49
ATOM     49  C   UNL     1      55.935  28.407  50.376  1.00  0.00     0.072 C 
ATOM     50  C   UNL     1      55.316  27.082  50.824  1.00  0.00     0.012 C 
ENDBRANCH  47  49
ENDBRANCH  46  47
ENDBRANCH  45  46
ENDBRANCH  44  45
ENDBRANCH  43  44
ENDBRANCH   1  43
TORSDOF 12
ENDMDL
MODEL 7
REMARK VINA RESULT:    -3.890      9.028     12.759
REMARK INTER + INTRA:         -10.203
REMARK INTER:                  -7.846
REMARK INTRA:                  -2.357
REMARK UNBOUND:                -1.992
REMARK SMILES CCC(=O)CCCCC[C@@H]1NC(=O)[C@@H]2CCCCN2C(=O)[C@@H]([C@@H](C)CC)NC(=O)[C@@H](Cc2cn(OC)c3ccccc23)NC1=O
REMARK SMILES IDX 9 1 10 2 44 3 43 4 45 6 30 7 28 8 27 9 29 11 22 12 23 14
REMARK SMILES IDX 24 15 25 16 26 17 31 18 32 19 33 20 42 21 34 22 37 23 41 24
REMARK SMILES IDX 38 25 40 26 39 27 35 28 36 29 11 30 12 31 13 33 14 34 19 35
REMARK SMILES IDX 15 36 18 37 16 38 17 39 20 40 21 41 8 43 7 44 6 45 5 46 3 47
REMARK SMILES IDX 4 48 2 49 1 50
REMARK H PARENT 43 5 27 10 11 32
REMARK Flexibility Score: 80.00
ROOT
ATOM      1  C   UNL     1      60.974  31.117  56.194  1.00  0.00     0.035 C 
ENDROOT
BRANCH   1   2
ATOM      2  C   UNL     1      60.737  32.143  55.057  1.00  0.00     0.171 C 
BRANCH   2   3
ATOM      3  C   UNL     1      60.498  31.509  53.705  1.00  0.00     0.243 C 
ATOM      4  N   UNL     1      59.819  30.255  53.577  1.00  0.00    -0.342 N 
ATOM      5  H   UNL     1      60.401  29.392  53.481  1.00  0.00     0.164 HD
ATOM      6  O   UNL     1      60.838  32.122  52.658  1.00  0.00    -0.273 OA
BRANCH   4   7
ATOM      7  C   UNL     1      58.361  30.106  53.607  1.00  0.00     0.175 C 
BRANCH   7   8
ATOM      8  C   UNL     1      57.801  30.968  54.700  1.00  0.00     0.243 C 
ATOM      9  N   UNL     1      57.016  32.121  54.363  1.00  0.00    -0.342 N 
ATOM     10  H   UNL     1      56.995  32.440  53.370  1.00  0.00     0.164 HD
ATOM     11  O   UNL     1      57.935  30.622  55.905  1.00  0.00    -0.273 OA
BRANCH   9  12
ATOM     12  C   UNL     1      56.114  32.790  55.307  1.00  0.00     0.174 CG0
ATOM     13  G   UNL     1      56.575  34.231  55.492  1.00  0.00     0.000 G0
BRANCH  12  14
ATOM     14  C   UNL     1      54.624  32.639  54.860  1.00  0.00     0.018 C 
ATOM     15  C   UNL     1      54.533  31.932  53.491  1.00  0.00     0.010 C 
BRANCH  14  16
ATOM     16  C   UNL     1      53.809  31.855  55.922  1.00  0.00     0.002 C 
ATOM     17  C   UNL     1      54.181  30.371  55.984  1.00  0.00     0.004 C 
ENDBRANCH  14  16
ENDBRANCH  12  14
ENDBRANCH   9  12
ENDBRANCH   7   8
BRANCH   7  18
ATOM     18  C   UNL     1      57.712  30.386  52.230  1.00  0.00     0.073 C 
BRANCH  18  19
ATOM     19  C   UNL     1      57.330  29.106  51.542  1.00  0.00    -0.016 A 
ATOM     20  C   UNL     1      58.166  28.006  51.356  1.00  0.00     0.134 A 
ATOM     21  C   UNL     1      56.084  28.716  51.076  1.00  0.00     0.006 A 
ATOM     22  N   UNL     1      57.472  26.989  50.794  1.00  0.00    -0.191 N 
ATOM     23  C   UNL     1      56.209  27.424  50.629  1.00  0.00     0.087 A 
ATOM     24  C   UNL     1      54.864  29.390  51.020  1.00  0.00     0.011 A 
ATOM     25  C   UNL     1      55.125  26.718  50.103  1.00  0.00     0.030 A 
ATOM     26  C   UNL     1      53.751  28.701  50.503  1.00  0.00     0.001 A 
ATOM     27  C   UNL     1      53.880  27.370  50.049  1.00  0.00     0.002 A 
BRANCH  22  28
ATOM     28  O   UNL     1      57.939  25.727  50.461  1.00  0.00    -0.417 OA
ATOM     29  C   UNL     1      59.270  25.510  50.001  1.00  0.00     0.313 C 
ENDBRANCH  22  28
ENDBRANCH  18  19
ENDBRANCH   7  18
ENDBRANCH   4   7
ENDBRANCH   2   3
BRANCH   2  30
ATOM     30  N   UNL     1      59.714  33.140  55.419  1.00  0.00    -0.343 N 
ATOM     31  C   UNL     1      59.866  34.571  55.416  1.00  0.00     0.243 C 
ATOM     32  H   UNL     1      58.801  32.762  55.761  1.00  0.00     0.164 HD
ATOM     33  O   UNL     1      60.929  35.098  54.996  1.00  0.00    -0.273 OA
BRANCH  31  34
ATOM     34  C   UNL     1      58.753  35.434  55.970  1.00  0.00     0.174 C 
ATOM     35  N   UNL     1      57.624  34.595  56.423  1.00  0.00    -0.329 N 
ATOM     36  C   UNL     1      59.217  36.414  57.072  1.00  0.00     0.035 C 
ATOM     37  C   UNL     1      57.568  34.082  57.806  1.00  0.00     0.120 C 
ATOM     38  C   UNL     1      59.282  35.828  58.497  1.00  0.00     0.004 C 
ATOM     39  C   UNL     1      58.841  34.367  58.600  1.00  0.00     0.022 C 
BRANCH  35  40
ATOM     40  C   UNL     1      56.581  34.235  55.480  1.00  0.00     0.246 CG0
ATOM     41  O   UNL     1      56.098  35.125  54.726  1.00  0.00    -0.272 OA
ATOM     42  G   UNL     1      56.137  32.788  55.302  1.00  0.00     0.000 G0
ENDBRANCH  35  40
ENDBRANCH  31  34
ENDBRANCH   2  30
ENDBRANCH   1   2
BRANCH   1  43
ATOM     43  C   UNL     1      62.335  31.241  56.915  1.00  0.00     0.003 C 
BRANCH  43  44
ATOM     44  C   UNL     1      62.566  32.637  57.516  1.00  0.00     0.001 C 
BRANCH  44  45
ATOM     45  C   UNL     1      62.148  32.730  58.990  1.00  0.00     0.008 C 
BRANCH  45  46
ATOM     46  C   UNL     1      62.828  31.624  59.808  1.00  0.00     0.075 C 
BRANCH  46  47
ATOM     47  C   UNL     1      61.820  30.726  60.468  1.00  0.00     0.132 C 
ATOM     48  O   UNL     1      62.200  29.865  61.251  1.00  0.00    -0.300 OA
BRANCH  47  49
ATOM     49  C   UNL     1      60.354  30.909  60.162  1.00  0.00     0.072 C 
ATOM     50  C   UNL     1      59.541  29.624  60.317  1.00  0.00     0.012 C 
ENDBRANCH  47  49
ENDBRANCH  46  47
ENDBRANCH  45  46
ENDBRANCH  44  45
ENDBRANCH  43  44
ENDBRANCH   1  43
TORSDOF 12
ENDMDL
MODEL 8
REMARK VINA RESULT:    -3.750      9.653     13.710
REMARK INTER + INTRA:          -9.908
REMARK INTER:                  -7.862
REMARK INTRA:                  -2.046
REMARK UNBOUND:                -1.992
REMARK SMILES CCC(=O)CCCCC[C@@H]1NC(=O)[C@@H]2CCCCN2C(=O)[C@@H]([C@@H](C)CC)NC(=O)[C@@H](Cc2cn(OC)c3ccccc23)NC1=O
REMARK SMILES IDX 9 1 10 2 44 3 43 4 45 6 30 7 28 8 27 9 29 11 22 12 23 14
REMARK SMILES IDX 24 15 25 16 26 17 31 18 32 19 33 20 42 21 34 22 37 23 41 24
REMARK SMILES IDX 38 25 40 26 39 27 35 28 36 29 11 30 12 31 13 33 14 34 19 35
REMARK SMILES IDX 15 36 18 37 16 38 17 39 20 40 21 41 8 43 7 44 6 45 5 46 3 47
REMARK SMILES IDX 4 48 2 49 1 50
REMARK H PARENT 43 5 27 10 11 32
REMARK Flexibility Score: 80.00
ROOT
ATOM      1  C   UNL     1      59.100  32.487  56.878  1.00  0.00     0.035 C 
ENDROOT
BRANCH   1   2
ATOM      2  C   UNL     1      58.796  33.396  55.660  1.00  0.00     0.171 C 
BRANCH   2   3
ATOM      3  C   UNL     1      59.260  32.821  54.341  1.00  0.00     0.243 C 
ATOM      4  N   UNL     1      59.276  31.408  54.106  1.00  0.00    -0.342 N 
ATOM      5  H   UNL     1      60.180  30.902  54.237  1.00  0.00     0.164 HD
ATOM      6  O   UNL     1      59.575  33.594  53.398  1.00  0.00    -0.273 OA
BRANCH   4   7
ATOM      7  C   UNL     1      58.095  30.628  53.726  1.00  0.00     0.175 C 
BRANCH   7   8
ATOM      8  C   UNL     1      56.944  31.019  54.605  1.00  0.00     0.243 C 
ATOM      9  N   UNL     1      55.884  31.825  54.070  1.00  0.00    -0.342 N 
ATOM     10  H   UNL     1      56.016  32.271  53.136  1.00  0.00     0.164 HD
ATOM     11  O   UNL     1      56.860  30.555  55.775  1.00  0.00    -0.273 OA
BRANCH   9  12
ATOM     12  C   UNL     1      54.559  31.935  54.690  1.00  0.00     0.174 CG0
ATOM     13  G   UNL     1      54.212  33.410  54.855  1.00  0.00     0.000 G0
BRANCH  12  14
ATOM     14  C   UNL     1      53.499  31.106  53.894  1.00  0.00     0.018 C 
ATOM     15  C   UNL     1      54.091  30.594  52.564  1.00  0.00     0.010 C 
BRANCH  14  16
ATOM     16  C   UNL     1      52.984  29.914  54.744  1.00  0.00     0.002 C 
ATOM     17  C   UNL     1      53.426  29.990  56.208  1.00  0.00     0.004 C 
ENDBRANCH  14  16
ENDBRANCH  12  14
ENDBRANCH   9  12
ENDBRANCH   7   8
BRANCH   7  18
ATOM     18  C   UNL     1      57.768  30.751  52.218  1.00  0.00     0.073 C 
BRANCH  18  19
ATOM     19  C   UNL     1      58.225  29.534  51.464  1.00  0.00    -0.016 A 
ATOM     20  C   UNL     1      59.461  29.388  50.835  1.00  0.00     0.134 A 
ATOM     21  C   UNL     1      57.593  28.306  51.345  1.00  0.00     0.006 A 
ATOM     22  N   UNL     1      59.582  28.133  50.343  1.00  0.00    -0.191 N 
ATOM     23  C   UNL     1      58.449  27.480  50.657  1.00  0.00     0.087 A 
ATOM     24  C   UNL     1      56.350  27.857  51.790  1.00  0.00     0.011 A 
ATOM     25  C   UNL     1      58.122  26.152  50.375  1.00  0.00     0.030 A 
ATOM     26  C   UNL     1      55.997  26.520  51.527  1.00  0.00     0.001 A 
ATOM     27  C   UNL     1      56.880  25.670  50.825  1.00  0.00     0.002 A 
BRANCH  22  28
ATOM     28  O   UNL     1      60.661  27.592  49.662  1.00  0.00    -0.417 OA
ATOM     29  C   UNL     1      61.774  27.016  50.340  1.00  0.00     0.313 C 
ENDBRANCH  22  28
ENDBRANCH  18  19
ENDBRANCH   7  18
ENDBRANCH   4   7
ENDBRANCH   2   3
BRANCH   2  30
ATOM     30  N   UNL     1      57.389  33.836  55.639  1.00  0.00    -0.343 N 
ATOM     31  C   UNL     1      56.909  35.184  55.482  1.00  0.00     0.243 C 
ATOM     32  H   UNL     1      56.671  33.095  55.806  1.00  0.00     0.164 HD
ATOM     33  O   UNL     1      57.715  36.123  55.255  1.00  0.00    -0.273 OA
BRANCH  31  34
ATOM     34  C   UNL     1      55.431  35.466  55.643  1.00  0.00     0.174 C 
ATOM     35  N   UNL     1      54.696  34.219  55.936  1.00  0.00    -0.329 N 
ATOM     36  C   UNL     1      55.119  36.572  56.675  1.00  0.00     0.035 C 
ATOM     37  C   UNL     1      54.498  33.764  57.326  1.00  0.00     0.120 C 
ATOM     38  C   UNL     1      55.046  36.108  58.144  1.00  0.00     0.004 C 
ATOM     39  C   UNL     1      55.263  34.608  58.344  1.00  0.00     0.022 C 
BRANCH  35  40
ATOM     40  C   UNL     1      54.199  33.408  54.839  1.00  0.00     0.246 CG0
ATOM     41  O   UNL     1      53.524  33.957  53.924  1.00  0.00    -0.272 OA
ATOM     42  G   UNL     1      54.572  31.937  54.708  1.00  0.00     0.000 G0
ENDBRANCH  35  40
ENDBRANCH  31  34
ENDBRANCH   2  30
ENDBRANCH   1   2
BRANCH   1  43
ATOM     43  C   UNL     1      58.981  33.177  58.256  1.00  0.00     0.003 C 
BRANCH  43  44
ATOM     44  C   UNL     1      60.268  33.909  58.669  1.00  0.00     0.001 C 
BRANCH  44  45
ATOM     45  C   UNL     1      60.793  33.468  60.043  1.00  0.00     0.008 C 
BRANCH  45  46
ATOM     46  C   UNL     1      62.141  32.752  59.892  1.00  0.00     0.075 C 
BRANCH  46  47
ATOM     47  C   UNL     1      62.159  31.445  60.634  1.00  0.00     0.132 C 
ATOM     48  O   UNL     1      63.219  30.855  60.792  1.00  0.00    -0.300 OA
BRANCH  47  49
ATOM     49  C   UNL     1      60.868  30.888  61.182  1.00  0.00     0.072 C 
ATOM     50  C   UNL     1      60.138  29.975  60.195  1.00  0.00     0.012 C 
ENDBRANCH  47  49
ENDBRANCH  46  47
ENDBRANCH  45  46
ENDBRANCH  44  45
ENDBRANCH  43  44
ENDBRANCH   1  43
TORSDOF 12
ENDMDL
MODEL 9
REMARK VINA RESULT:    -3.718      8.732     12.235
REMARK INTER + INTRA:          -9.839
REMARK INTER:                  -7.946
REMARK INTRA:                  -1.893
REMARK UNBOUND:                -1.992
REMARK SMILES CCC(=O)CCCCC[C@@H]1NC(=O)[C@@H]2CCCCN2C(=O)[C@@H]([C@@H](C)CC)NC(=O)[C@@H](Cc2cn(OC)c3ccccc23)NC1=O
REMARK SMILES IDX 9 1 10 2 44 3 43 4 45 6 30 7 28 8 27 9 29 11 22 12 23 14
REMARK SMILES IDX 24 15 25 16 26 17 31 18 32 19 33 20 42 21 34 22 37 23 41 24
REMARK SMILES IDX 38 25 40 26 39 27 35 28 36 29 11 30 12 31 13 33 14 34 19 35
REMARK SMILES IDX 15 36 18 37 16 38 17 39 20 40 21 41 8 43 7 44 6 45 5 46 3 47
REMARK SMILES IDX 4 48 2 49 1 50
REMARK H PARENT 43 5 27 10 11 32
REMARK Flexibility Score: 80.00
ROOT
ATOM      1  C   UNL     1      57.495  30.972  53.999  1.00  0.00     0.035 C 
ENDROOT
BRANCH   1   2
ATOM      2  C   UNL     1      56.604  31.308  55.222  1.00  0.00     0.171 C 
BRANCH   2   3
ATOM      3  C   UNL     1      57.112  30.728  56.523  1.00  0.00     0.243 C 
ATOM      4  N   UNL     1      58.512  30.561  56.770  1.00  0.00    -0.342 N 
ATOM      5  H   UNL     1      58.930  29.619  56.601  1.00  0.00     0.164 HD
ATOM      6  O   UNL     1      56.298  30.446  57.442  1.00  0.00    -0.273 OA
BRANCH   4   7
ATOM      7  C   UNL     1      59.399  31.641  57.215  1.00  0.00     0.175 C 
BRANCH   7   8
ATOM      8  C   UNL     1      59.065  32.894  56.461  1.00  0.00     0.243 C 
ATOM      9  N   UNL     1      58.411  33.976  57.138  1.00  0.00    -0.342 N 
ATOM     10  H   UNL     1      58.022  33.809  58.092  1.00  0.00     0.164 HD
ATOM     11  O   UNL     1      59.449  33.032  55.267  1.00  0.00    -0.273 OA
BRANCH   9  12
ATOM     12  C   UNL     1      58.390  35.354  56.633  1.00  0.00     0.174 CG0
ATOM     13  G   UNL     1      56.944  35.770  56.391  1.00  0.00     0.000 G0
BRANCH  12  14
ATOM     14  C   UNL     1      59.189  36.308  57.579  1.00  0.00     0.018 C 
ATOM     15  C   UNL     1      59.385  35.663  58.967  1.00  0.00     0.010 C 
BRANCH  14  16
ATOM     16  C   UNL     1      60.563  36.672  56.959  1.00  0.00     0.002 C 
ATOM     17  C   UNL     1      61.644  35.626  57.248  1.00  0.00     0.004 C 
ENDBRANCH  14  16
ENDBRANCH  12  14
ENDBRANCH   9  12
ENDBRANCH   7   8
BRANCH   7  18
ATOM     18  C   UNL     1      59.366  31.836  58.750  1.00  0.00     0.073 C 
BRANCH  18  19
ATOM     19  C   UNL     1      60.598  31.267  59.394  1.00  0.00    -0.016 A 
ATOM     20  C   UNL     1      60.899  29.911  59.507  1.00  0.00     0.134 A 
ATOM     21  C   UNL     1      61.706  31.942  59.882  1.00  0.00     0.006 A 
ATOM     22  N   UNL     1      62.131  29.755  60.047  1.00  0.00    -0.191 N 
ATOM     23  C   UNL     1      62.617  30.990  60.270  1.00  0.00     0.087 A 
ATOM     24  C   UNL     1      61.981  33.304  60.005  1.00  0.00     0.011 A 
ATOM     25  C   UNL     1      63.863  31.335  60.799  1.00  0.00     0.030 A 
ATOM     26  C   UNL     1      63.233  33.681  60.527  1.00  0.00     0.001 A 
ATOM     27  C   UNL     1      64.170  32.702  60.920  1.00  0.00     0.002 A 
BRANCH  22  28
ATOM     28  O   UNL     1      62.796  28.568  60.312  1.00  0.00    -0.417 OA
ATOM     29  C   UNL     1      62.099  27.350  60.561  1.00  0.00     0.313 C 
ENDBRANCH  22  28
ENDBRANCH  18  19
ENDBRANCH   7  18
ENDBRANCH   4   7
ENDBRANCH   2   3
BRANCH   2  30
ATOM     30  N   UNL     1      56.306  32.749  55.306  1.00  0.00    -0.343 N 
ATOM     31  C   UNL     1      55.009  33.367  55.222  1.00  0.00     0.243 C 
ATOM     32  H   UNL     1      57.129  33.387  55.385  1.00  0.00     0.164 HD
ATOM     33  O   UNL     1      53.970  32.660  55.149  1.00  0.00    -0.273 OA
BRANCH  31  34
ATOM     34  C   UNL     1      54.911  34.876  55.172  1.00  0.00     0.174 C 
ATOM     35  N   UNL     1      56.259  35.481  55.136  1.00  0.00    -0.329 N 
ATOM     36  C   UNL     1      54.016  35.403  54.028  1.00  0.00     0.035 C 
ATOM     37  C   UNL     1      56.940  35.739  53.852  1.00  0.00     0.120 C 
ATOM     38  C   UNL     1      54.705  35.543  52.656  1.00  0.00     0.004 C 
ATOM     39  C   UNL     1      56.187  35.167  52.652  1.00  0.00     0.022 C 
BRANCH  35  40
ATOM     40  C   UNL     1      56.938  35.784  56.383  1.00  0.00     0.246 CG0
ATOM     41  O   UNL     1      56.293  36.333  57.319  1.00  0.00    -0.272 OA
ATOM     42  G   UNL     1      58.379  35.352  56.626  1.00  0.00     0.000 G0
ENDBRANCH  35  40
ENDBRANCH  31  34
ENDBRANCH   2  30
ENDBRANCH   1   2
BRANCH   1  43
ATOM     43  C   UNL     1      57.164  29.636  53.295  1.00  0.00     0.003 C 
BRANCH  43  44
ATOM     44  C   UNL     1      58.412  28.782  53.019  1.00  0.00     0.001 C 
BRANCH  44  45
ATOM     45  C   UNL     1      58.133  27.600  52.081  1.00  0.00     0.008 C 
BRANCH  45  46
ATOM     46  C   UNL     1      57.190  28.030  50.949  1.00  0.00     0.075 C 
BRANCH  46  47
ATOM     47  C   UNL     1      56.012  27.104  50.829  1.00  0.00     0.132 C 
ATOM     48  O   UNL     1      56.170  25.985  50.359  1.00  0.00    -0.300 OA
BRANCH  47  49
ATOM     49  C   UNL     1      54.656  27.567  51.301  1.00  0.00     0.072 C 
ATOM     50  C   UNL     1      54.007  28.587  50.365  1.00  0.00     0.012 C 
ENDBRANCH  47  49
ENDBRANCH  46  47
ENDBRANCH  45  46
ENDBRANCH  44  45
ENDBRANCH  43  44
ENDBRANCH   1  43
TORSDOF 12
ENDMDL
