MODEL 1
REMARK VINA RESULT:    -2.371      0.000      0.000
REMARK INTER + INTRA:          -4.149
REMARK INTER:                  -3.273
REMARK INTRA:                  -0.876
REMARK UNBOUND:                -0.876
REMARK SMILES CC[C@@H](CC[C@H](C)[C@H]1CC[C@H]2[C@@H]3CC=C4C[C@@H](O)CC[C@]4(C)[C@@H]3CC[C@]12C)C(C)C
REMARK SMILES IDX 5 1 4 2 3 3 2 4 1 5 28 6 29 7 30 8 6 9 7 10 8 11 9 12 26 13
REMARK SMILES IDX 10 14 11 15 25 16 27 17 12 18 24 19 23 20 13 21 21 22 14 23
REMARK SMILES IDX 15 24 20 25 22 26 16 27 19 28 17 29 18 30
REMARK H PARENT 18 31
REMARK Flexibility Score: inf
ROOT
ATOM      1  C   UNL     1     -28.610   0.744  30.967  1.00  0.00     0.004 C 
ENDROOT
BRANCH   1   2
ATOM      2  C   UNL     1     -29.419   0.589  32.289  1.00  0.00     0.004 C 
BRANCH   2   3
ATOM      3  C   UNL     1     -29.125   1.623  33.417  1.00  0.00    -0.009 C 
BRANCH   3   4
ATOM      4  C   UNL     1     -30.450   2.034  34.125  1.00  0.00     0.000 C 
ATOM      5  C   UNL     1     -31.639   1.147  33.735  1.00  0.00     0.004 C 
ENDBRANCH   3   4
BRANCH   3   6
ATOM      6  C   UNL     1     -28.265   2.839  32.927  1.00  0.00    -0.014 C 
ATOM      7  C   UNL     1     -26.751   2.567  33.053  1.00  0.00     0.007 C 
ATOM      8  C   UNL     1     -28.567   4.129  33.718  1.00  0.00     0.007 C 
ENDBRANCH   3   6
ENDBRANCH   2   3
ENDBRANCH   1   2
BRANCH   1   9
ATOM      9  C   UNL     1     -29.389   1.402  29.783  1.00  0.00    -0.011 C 
ATOM     10  C   UNL     1     -30.524   2.301  30.300  1.00  0.00     0.008 C 
BRANCH   9  11
ATOM     11  C   UNL     1     -29.881   0.451  28.632  1.00  0.00    -0.002 C 
ATOM     12  C   UNL     1     -31.351  -0.006  28.768  1.00  0.00     0.005 C 
ATOM     13  C   UNL     1     -29.717   0.811  27.115  1.00  0.00    -0.026 C 
ATOM     14  C   UNL     1     -31.799  -0.454  27.374  1.00  0.00     0.005 C 
ATOM     15  C   UNL     1     -30.550  -0.325  26.495  1.00  0.00    -0.001 C 
ATOM     16  C   UNL     1     -28.275   0.681  26.548  1.00  0.00     0.007 C 
ATOM     17  C   UNL     1     -30.287   2.229  26.823  1.00  0.00     0.012 C 
ATOM     18  C   UNL     1     -30.783  -0.208  24.967  1.00  0.00     0.000 C 
ATOM     19  C   UNL     1     -28.211   0.165  25.078  1.00  0.00     0.005 C 
ATOM     20  C   UNL     1     -29.504   0.363  24.220  1.00  0.00     0.003 C 
ATOM     21  C   UNL     1     -31.279  -1.584  24.417  1.00  0.00     0.031 C 
ATOM     22  C   UNL     1     -29.349  -0.201  22.754  1.00  0.00    -0.008 C 
ATOM     23  C   UNL     1     -30.234  -2.345  23.658  1.00  0.00    -0.027 C 
ATOM     24  C   UNL     1     -29.344  -1.737  22.848  1.00  0.00    -0.065 C 
ATOM     25  C   UNL     1     -28.080   0.394  22.038  1.00  0.00     0.014 C 
ATOM     26  C   UNL     1     -30.558   0.253  21.890  1.00  0.00     0.016 C 
ATOM     27  C   UNL     1     -28.268  -2.620  22.242  1.00  0.00     0.063 C 
ATOM     28  C   UNL     1     -26.879  -0.552  21.980  1.00  0.00     0.033 C 
ATOM     29  C   UNL     1     -27.273  -1.886  21.346  1.00  0.00     0.118 C 
BRANCH  29  30
ATOM     30  O   UNL     1     -27.842  -1.709  20.073  1.00  0.00    -0.393 OA
ATOM     31  H   UNL     1     -27.145  -1.955  19.407  1.00  0.00     0.210 HD
ENDBRANCH  29  30
ENDBRANCH   9  11
ENDBRANCH   1   9
TORSDOF 7
ENDMDL
MODEL 2
REMARK VINA RESULT:    -2.271      0.479      1.556
REMARK INTER + INTRA:          -4.010
REMARK INTER:                  -3.385
REMARK INTRA:                  -0.625
REMARK UNBOUND:                -0.876
REMARK SMILES CC[C@@H](CC[C@H](C)[C@H]1CC[C@H]2[C@@H]3CC=C4C[C@@H](O)CC[C@]4(C)[C@@H]3CC[C@]12C)C(C)C
REMARK SMILES IDX 5 1 4 2 3 3 2 4 1 5 28 6 29 7 30 8 6 9 7 10 8 11 9 12 26 13
REMARK SMILES IDX 10 14 11 15 25 16 27 17 12 18 24 19 23 20 13 21 21 22 14 23
REMARK SMILES IDX 15 24 20 25 22 26 16 27 19 28 17 29 18 30
REMARK H PARENT 18 31
REMARK Flexibility Score: inf
ROOT
ATOM      1  C   UNL     1     -28.595   0.583  30.927  1.00  0.00     0.004 C 
ENDROOT
BRANCH   1   2
ATOM      2  C   UNL     1     -29.247   0.693  32.337  1.00  0.00     0.004 C 
BRANCH   2   3
ATOM      3  C   UNL     1     -29.124   2.067  33.063  1.00  0.00    -0.009 C 
BRANCH   3   4
ATOM      4  C   UNL     1     -27.682   2.247  33.625  1.00  0.00     0.000 C 
ATOM      5  C   UNL     1     -26.755   3.009  32.671  1.00  0.00     0.004 C 
ENDBRANCH   3   4
BRANCH   3   6
ATOM      6  C   UNL     1     -30.252   2.304  34.125  1.00  0.00    -0.014 C 
ATOM      7  C   UNL     1     -31.363   1.235  34.039  1.00  0.00     0.007 C 
ATOM      8  C   UNL     1     -30.928   3.681  33.967  1.00  0.00     0.007 C 
ENDBRANCH   3   6
ENDBRANCH   2   3
ENDBRANCH   1   2
BRANCH   1   9
ATOM      9  C   UNL     1     -29.375   1.292  29.775  1.00  0.00    -0.011 C 
ATOM     10  C   UNL     1     -30.503   2.177  30.334  1.00  0.00     0.008 C 
BRANCH   9  11
ATOM     11  C   UNL     1     -29.879   0.392  28.589  1.00  0.00    -0.002 C 
ATOM     12  C   UNL     1     -31.369  -0.006  28.679  1.00  0.00     0.005 C 
ATOM     13  C   UNL     1     -29.663   0.782  27.086  1.00  0.00    -0.026 C 
ATOM     14  C   UNL     1     -31.802  -0.401  27.265  1.00  0.00     0.005 C 
ATOM     15  C   UNL     1     -30.528  -0.302  26.417  1.00  0.00    -0.001 C 
ATOM     16  C   UNL     1     -28.215   0.607  26.548  1.00  0.00     0.007 C 
ATOM     17  C   UNL     1     -30.168   2.230  26.817  1.00  0.00     0.012 C 
ATOM     18  C   UNL     1     -30.720  -0.138  24.889  1.00  0.00     0.000 C 
ATOM     19  C   UNL     1     -28.137   0.125  25.068  1.00  0.00     0.005 C 
ATOM     20  C   UNL     1     -29.401   0.399  24.185  1.00  0.00     0.003 C 
ATOM     21  C   UNL     1     -31.259  -1.477  24.292  1.00  0.00     0.031 C 
ATOM     22  C   UNL     1     -29.234  -0.135  22.709  1.00  0.00    -0.008 C 
ATOM     23  C   UNL     1     -30.227  -2.263  23.537  1.00  0.00    -0.027 C 
ATOM     24  C   UNL     1     -29.294  -1.672  22.763  1.00  0.00    -0.065 C 
ATOM     25  C   UNL     1     -27.925   0.424  22.038  1.00  0.00     0.014 C 
ATOM     26  C   UNL     1     -30.402   0.391  21.830  1.00  0.00     0.016 C 
ATOM     27  C   UNL     1     -28.242  -2.583  22.159  1.00  0.00     0.063 C 
ATOM     28  C   UNL     1     -26.763  -0.569  21.983  1.00  0.00     0.033 C 
ATOM     29  C   UNL     1     -27.196  -1.870  21.306  1.00  0.00     0.118 C 
BRANCH  29  30
ATOM     30  O   UNL     1     -27.726  -1.637  20.025  1.00  0.00    -0.393 OA
ATOM     31  H   UNL     1     -27.499  -0.700  19.783  1.00  0.00     0.210 HD
ENDBRANCH  29  30
ENDBRANCH   9  11
ENDBRANCH   1   9
TORSDOF 7
ENDMDL
MODEL 3
REMARK VINA RESULT:    -2.154      1.176      2.338
REMARK INTER + INTRA:          -3.849
REMARK INTER:                  -3.030
REMARK INTRA:                  -0.819
REMARK UNBOUND:                -0.876
REMARK SMILES CC[C@@H](CC[C@H](C)[C@H]1CC[C@H]2[C@@H]3CC=C4C[C@@H](O)CC[C@]4(C)[C@@H]3CC[C@]12C)C(C)C
REMARK SMILES IDX 5 1 4 2 3 3 2 4 1 5 28 6 29 7 30 8 6 9 7 10 8 11 9 12 26 13
REMARK SMILES IDX 10 14 11 15 25 16 27 17 12 18 24 19 23 20 13 21 21 22 14 23
REMARK SMILES IDX 15 24 20 25 22 26 16 27 19 28 17 29 18 30
REMARK H PARENT 18 31
REMARK Flexibility Score: inf
ROOT
ATOM      1  C   UNL     1     -30.173   3.268  30.820  1.00  0.00     0.004 C 
ENDROOT
BRANCH   1   2
ATOM      2  C   UNL     1     -30.405   3.008  32.338  1.00  0.00     0.004 C 
BRANCH   2   3
ATOM      3  C   UNL     1     -29.470   1.967  33.023  1.00  0.00    -0.009 C 
BRANCH   3   4
ATOM      4  C   UNL     1     -30.251   1.190  34.125  1.00  0.00     0.000 C 
ATOM      5  C   UNL     1     -31.759   1.470  34.103  1.00  0.00     0.004 C 
ENDBRANCH   3   4
BRANCH   3   6
ATOM      6  C   UNL     1     -28.121   2.589  33.523  1.00  0.00    -0.014 C 
ATOM      7  C   UNL     1     -28.232   4.113  33.746  1.00  0.00     0.007 C 
ATOM      8  C   UNL     1     -26.962   2.354  32.533  1.00  0.00     0.007 C 
ENDBRANCH   3   6
ENDBRANCH   2   3
ENDBRANCH   1   2
BRANCH   1   9
ATOM      9  C   UNL     1     -30.741   2.174  29.862  1.00  0.00    -0.011 C 
ATOM     10  C   UNL     1     -31.693   1.224  30.609  1.00  0.00     0.008 C 
BRANCH   9  11
ATOM     11  C   UNL     1     -29.706   1.383  28.981  1.00  0.00    -0.002 C 
ATOM     12  C   UNL     1     -28.864   0.350  29.761  1.00  0.00     0.005 C 
ATOM     13  C   UNL     1     -30.116   0.645  27.660  1.00  0.00    -0.026 C 
ATOM     14  C   UNL     1     -28.327  -0.645  28.728  1.00  0.00     0.005 C 
ATOM     15  C   UNL     1     -28.803  -0.107  27.374  1.00  0.00    -0.001 C 
ATOM     16  C   UNL     1     -30.391   1.563  26.436  1.00  0.00     0.007 C 
ATOM     17  C   UNL     1     -31.328  -0.298  27.912  1.00  0.00     0.012 C 
ATOM     18  C   UNL     1     -28.871  -1.123  26.206  1.00  0.00     0.000 C 
ATOM     19  C   UNL     1     -29.931   0.965  25.072  1.00  0.00     0.005 C 
ATOM     20  C   UNL     1     -29.779  -0.591  25.017  1.00  0.00     0.003 C 
ATOM     21  C   UNL     1     -27.419  -1.506  25.775  1.00  0.00     0.031 C 
ATOM     22  C   UNL     1     -29.296  -1.101  23.603  1.00  0.00    -0.008 C 
ATOM     23  C   UNL     1     -26.981  -0.871  24.488  1.00  0.00    -0.027 C 
ATOM     24  C   UNL     1     -27.819  -0.700  23.446  1.00  0.00    -0.065 C 
ATOM     25  C   UNL     1     -30.223  -0.567  22.450  1.00  0.00     0.014 C 
ATOM     26  C   UNL     1     -29.414  -2.650  23.540  1.00  0.00     0.016 C 
ATOM     27  C   UNL     1     -27.271   0.067  22.257  1.00  0.00     0.063 C 
ATOM     28  C   UNL     1     -29.643   0.604  21.656  1.00  0.00     0.033 C 
ATOM     29  C   UNL     1     -28.259   0.252  21.108  1.00  0.00     0.118 C 
BRANCH  29  30
ATOM     30  O   UNL     1     -28.290  -0.921  20.334  1.00  0.00    -0.393 OA
ATOM     31  H   UNL     1     -27.952  -1.658  20.910  1.00  0.00     0.210 HD
ENDBRANCH  29  30
ENDBRANCH   9  11
ENDBRANCH   1   9
TORSDOF 7
ENDMDL
MODEL 4
REMARK VINA RESULT:    -2.076      4.528     11.739
REMARK INTER + INTRA:          -3.740
REMARK INTER:                  -3.681
REMARK INTRA:                  -0.059
REMARK UNBOUND:                -0.876
REMARK SMILES CC[C@@H](CC[C@H](C)[C@H]1CC[C@H]2[C@@H]3CC=C4C[C@@H](O)CC[C@]4(C)[C@@H]3CC[C@]12C)C(C)C
REMARK SMILES IDX 5 1 4 2 3 3 2 4 1 5 28 6 29 7 30 8 6 9 7 10 8 11 9 12 26 13
REMARK SMILES IDX 10 14 11 15 25 16 27 17 12 18 24 19 23 20 13 21 21 22 14 23
REMARK SMILES IDX 15 24 20 25 22 26 16 27 19 28 17 29 18 30
REMARK H PARENT 18 31
REMARK Flexibility Score: inf
ROOT
ATOM      1  C   UNL     1     -28.182  -1.618  15.981  1.00  0.00     0.004 C 
ENDROOT
BRANCH   1   2
ATOM      2  C   UNL     1     -28.646  -2.433  14.737  1.00  0.00     0.004 C 
BRANCH   2   3
ATOM      3  C   UNL     1     -27.580  -3.345  14.058  1.00  0.00    -0.009 C 
BRANCH   3   4
ATOM      4  C   UNL     1     -28.140  -4.789  13.893  1.00  0.00     0.000 C 
ATOM      5  C   UNL     1     -29.670  -4.853  13.977  1.00  0.00     0.004 C 
ENDBRANCH   3   4
BRANCH   3   6
ATOM      6  C   UNL     1     -26.181  -3.286  14.763  1.00  0.00    -0.014 C 
ATOM      7  C   UNL     1     -25.315  -2.122  14.236  1.00  0.00     0.007 C 
ATOM      8  C   UNL     1     -25.370  -4.584  14.572  1.00  0.00     0.007 C 
ENDBRANCH   3   6
ENDBRANCH   2   3
ENDBRANCH   1   2
BRANCH   1   9
ATOM      9  C   UNL     1     -28.249  -2.384  17.341  1.00  0.00    -0.011 C 
ATOM     10  C   UNL     1     -28.595  -3.866  17.125  1.00  0.00     0.008 C 
BRANCH   9  11
ATOM     11  C   UNL     1     -29.122  -1.745  18.482  1.00  0.00    -0.002 C 
ATOM     12  C   UNL     1     -30.646  -1.833  18.242  1.00  0.00     0.005 C 
ATOM     13  C   UNL     1     -28.936  -2.118  19.993  1.00  0.00    -0.026 C 
ATOM     14  C   UNL     1     -31.313  -1.662  19.610  1.00  0.00     0.005 C 
ATOM     15  C   UNL     1     -30.160  -1.395  20.584  1.00  0.00    -0.001 C 
ATOM     16  C   UNL     1     -27.677  -1.521  20.681  1.00  0.00     0.007 C 
ATOM     17  C   UNL     1     -28.977  -3.662  20.186  1.00  0.00     0.012 C 
ATOM     18  C   UNL     1     -30.432  -1.683  22.082  1.00  0.00     0.000 C 
ATOM     19  C   UNL     1     -27.896  -1.110  22.169  1.00  0.00     0.005 C 
ATOM     20  C   UNL     1     -29.083  -1.809  22.911  1.00  0.00     0.003 C 
ATOM     21  C   UNL     1     -31.423  -0.611  22.639  1.00  0.00     0.031 C 
ATOM     22  C   UNL     1     -29.235  -1.320  24.404  1.00  0.00    -0.008 C 
ATOM     23  C   UNL     1     -30.771   0.422  23.509  1.00  0.00    -0.027 C 
ATOM     24  C   UNL     1     -29.776   0.120  24.367  1.00  0.00    -0.065 C 
ATOM     25  C   UNL     1     -27.885  -1.469  25.199  1.00  0.00     0.014 C 
ATOM     26  C   UNL     1     -30.252  -2.229  25.148  1.00  0.00     0.016 C 
ATOM     27  C   UNL     1     -29.130   1.287  25.091  1.00  0.00     0.063 C 
ATOM     28  C   UNL     1     -27.110  -0.165  25.390  1.00  0.00     0.033 C 
ATOM     29  C   UNL     1     -27.997   0.900  26.038  1.00  0.00     0.118 C 
BRANCH  29  30
ATOM     30  O   UNL     1     -28.543   0.452  27.253  1.00  0.00    -0.393 OA
ATOM     31  H   UNL     1     -28.024   0.885  27.981  1.00  0.00     0.210 HD
ENDBRANCH  29  30
ENDBRANCH   9  11
ENDBRANCH   1   9
TORSDOF 7
ENDMDL
MODEL 5
REMARK VINA RESULT:    -1.970      1.202      2.739
REMARK INTER + INTRA:          -3.595
REMARK INTER:                  -2.895
REMARK INTRA:                  -0.700
REMARK UNBOUND:                -0.876
REMARK SMILES CC[C@@H](CC[C@H](C)[C@H]1CC[C@H]2[C@@H]3CC=C4C[C@@H](O)CC[C@]4(C)[C@@H]3CC[C@]12C)C(C)C
REMARK SMILES IDX 5 1 4 2 3 3 2 4 1 5 28 6 29 7 30 8 6 9 7 10 8 11 9 12 26 13
REMARK SMILES IDX 10 14 11 15 25 16 27 17 12 18 24 19 23 20 13 21 21 22 14 23
REMARK SMILES IDX 15 24 20 25 22 26 16 27 19 28 17 29 18 30
REMARK H PARENT 18 31
REMARK Flexibility Score: inf
ROOT
ATOM      1  C   UNL     1     -30.326   3.294  30.738  1.00  0.00     0.004 C 
ENDROOT
BRANCH   1   2
ATOM      2  C   UNL     1     -29.171   2.944  31.723  1.00  0.00     0.004 C 
BRANCH   2   3
ATOM      3  C   UNL     1     -29.256   3.560  33.152  1.00  0.00    -0.009 C 
BRANCH   3   4
ATOM      4  C   UNL     1     -27.824   3.829  33.704  1.00  0.00     0.000 C 
ATOM      5  C   UNL     1     -26.748   2.970  33.028  1.00  0.00     0.004 C 
ENDBRANCH   3   4
BRANCH   3   6
ATOM      6  C   UNL     1     -30.164   2.731  34.125  1.00  0.00    -0.014 C 
ATOM      7  C   UNL     1     -30.054   1.213  33.868  1.00  0.00     0.007 C 
ATOM      8  C   UNL     1     -31.654   3.110  34.005  1.00  0.00     0.007 C 
ENDBRANCH   3   6
ENDBRANCH   2   3
ENDBRANCH   1   2
BRANCH   1   9
ATOM      9  C   UNL     1     -30.829   2.109  29.853  1.00  0.00    -0.011 C 
ATOM     10  C   UNL     1     -31.657   1.112  30.682  1.00  0.00     0.008 C 
BRANCH   9  11
ATOM     11  C   UNL     1     -29.761   1.376  28.962  1.00  0.00    -0.002 C 
ATOM     12  C   UNL     1     -28.860   0.385  29.732  1.00  0.00     0.005 C 
ATOM     13  C   UNL     1     -30.143   0.621  27.642  1.00  0.00    -0.026 C 
ATOM     14  C   UNL     1     -28.281  -0.577  28.692  1.00  0.00     0.005 C 
ATOM     15  C   UNL     1     -28.795  -0.061  27.344  1.00  0.00    -0.001 C 
ATOM     16  C   UNL     1     -30.475   1.527  26.423  1.00  0.00     0.007 C 
ATOM     17  C   UNL     1     -31.302  -0.385  27.901  1.00  0.00     0.012 C 
ATOM     18  C   UNL     1     -28.819  -1.075  26.173  1.00  0.00     0.000 C 
ATOM     19  C   UNL     1     -29.995   0.958  25.054  1.00  0.00     0.005 C 
ATOM     20  C   UNL     1     -29.763  -0.589  24.992  1.00  0.00     0.003 C 
ATOM     21  C   UNL     1     -27.352  -1.382  25.729  1.00  0.00     0.031 C 
ATOM     22  C   UNL     1     -29.265  -1.069  23.573  1.00  0.00    -0.008 C 
ATOM     23  C   UNL     1     -26.959  -0.720  24.441  1.00  0.00    -0.027 C 
ATOM     24  C   UNL     1     -27.813  -0.591  23.406  1.00  0.00    -0.065 C 
ATOM     25  C   UNL     1     -30.229  -0.580  22.429  1.00  0.00     0.014 C 
ATOM     26  C   UNL     1     -29.303  -2.621  23.506  1.00  0.00     0.016 C 
ATOM     27  C   UNL     1     -27.315   0.208  22.215  1.00  0.00     0.063 C 
ATOM     28  C   UNL     1     -29.716   0.622  21.634  1.00  0.00     0.033 C 
ATOM     29  C   UNL     1     -28.321   0.343  21.074  1.00  0.00     0.118 C 
BRANCH  29  30
ATOM     30  O   UNL     1     -28.297  -0.827  20.297  1.00  0.00    -0.393 OA
ATOM     31  H   UNL     1     -29.055  -0.765  19.657  1.00  0.00     0.210 HD
ENDBRANCH  29  30
ENDBRANCH   9  11
ENDBRANCH   1   9
TORSDOF 7
ENDMDL
MODEL 6
REMARK VINA RESULT:    -1.636      4.310     11.681
REMARK INTER + INTRA:          -3.133
REMARK INTER:                  -2.704
REMARK INTRA:                  -0.430
REMARK UNBOUND:                -0.876
REMARK SMILES CC[C@@H](CC[C@H](C)[C@H]1CC[C@H]2[C@@H]3CC=C4C[C@@H](O)CC[C@]4(C)[C@@H]3CC[C@]12C)C(C)C
REMARK SMILES IDX 5 1 4 2 3 3 2 4 1 5 28 6 29 7 30 8 6 9 7 10 8 11 9 12 26 13
REMARK SMILES IDX 10 14 11 15 25 16 27 17 12 18 24 19 23 20 13 21 21 22 14 23
REMARK SMILES IDX 15 24 20 25 22 26 16 27 19 28 17 29 18 30
REMARK H PARENT 18 31
REMARK Flexibility Score: inf
ROOT
ATOM      1  C   UNL     1     -28.489  -2.554  16.779  1.00  0.00     0.004 C 
ENDROOT
BRANCH   1   2
ATOM      2  C   UNL     1     -27.923  -3.796  16.028  1.00  0.00     0.004 C 
BRANCH   2   3
ATOM      3  C   UNL     1     -28.088  -3.815  14.478  1.00  0.00    -0.009 C 
BRANCH   3   4
ATOM      4  C   UNL     1     -27.626  -2.455  13.875  1.00  0.00     0.000 C 
ATOM      5  C   UNL     1     -26.104  -2.274  13.897  1.00  0.00     0.004 C 
ENDBRANCH   3   4
BRANCH   3   6
ATOM      6  C   UNL     1     -29.520  -4.258  14.018  1.00  0.00    -0.014 C 
ATOM      7  C   UNL     1     -30.484  -3.060  13.889  1.00  0.00     0.007 C 
ATOM      8  C   UNL     1     -30.166  -5.264  14.993  1.00  0.00     0.007 C 
ENDBRANCH   3   6
ENDBRANCH   2   3
ENDBRANCH   1   2
BRANCH   1   9
ATOM      9  C   UNL     1     -29.166  -2.858  18.153  1.00  0.00    -0.011 C 
ATOM     10  C   UNL     1     -30.581  -2.259  18.217  1.00  0.00     0.008 C 
BRANCH   9  11
ATOM     11  C   UNL     1     -28.338  -2.530  19.449  1.00  0.00    -0.002 C 
ATOM     12  C   UNL     1     -26.837  -2.267  19.196  1.00  0.00     0.005 C 
ATOM     13  C   UNL     1     -28.770  -1.417  20.464  1.00  0.00    -0.026 C 
ATOM     14  C   UNL     1     -26.322  -1.484  20.406  1.00  0.00     0.005 C 
ATOM     15  C   UNL     1     -27.518  -1.392  21.360  1.00  0.00    -0.001 C 
ATOM     16  C   UNL     1     -29.977  -1.773  21.377  1.00  0.00     0.007 C 
ATOM     17  C   UNL     1     -29.030  -0.072  19.725  1.00  0.00     0.012 C 
ATOM     18  C   UNL     1     -27.486  -0.255  22.411  1.00  0.00     0.000 C 
ATOM     19  C   UNL     1     -29.871  -1.209  22.826  1.00  0.00     0.005 C 
ATOM     20  C   UNL     1     -28.926   0.024  23.019  1.00  0.00     0.003 C 
ATOM     21  C   UNL     1     -26.395  -0.577  23.483  1.00  0.00     0.031 C 
ATOM     22  C   UNL     1     -28.873   0.515  24.519  1.00  0.00    -0.008 C 
ATOM     23  C   UNL     1     -26.953  -1.046  24.794  1.00  0.00    -0.027 C 
ATOM     24  C   UNL     1     -28.083  -0.534  25.321  1.00  0.00    -0.065 C 
ATOM     25  C   UNL     1     -30.314   0.793  25.086  1.00  0.00     0.014 C 
ATOM     26  C   UNL     1     -28.132   1.879  24.594  1.00  0.00     0.016 C 
ATOM     27  C   UNL     1     -28.594  -1.190  26.591  1.00  0.00     0.063 C 
ATOM     28  C   UNL     1     -30.862  -0.303  26.002  1.00  0.00     0.033 C 
ATOM     29  C   UNL     1     -29.885  -0.590  27.143  1.00  0.00     0.118 C 
BRANCH  29  30
ATOM     30  O   UNL     1     -29.578   0.573  27.870  1.00  0.00    -0.393 OA
ATOM     31  H   UNL     1     -30.379   1.161  27.827  1.00  0.00     0.210 HD
ENDBRANCH  29  30
ENDBRANCH   9  11
ENDBRANCH   1   9
TORSDOF 7
ENDMDL
MODEL 7
REMARK VINA RESULT:    -1.563      3.122      9.198
REMARK INTER + INTRA:          -3.033
REMARK INTER:                  -1.867
REMARK INTRA:                  -1.166
REMARK UNBOUND:                -0.876
REMARK SMILES CC[C@@H](CC[C@H](C)[C@H]1CC[C@H]2[C@@H]3CC=C4C[C@@H](O)CC[C@]4(C)[C@@H]3CC[C@]12C)C(C)C
REMARK SMILES IDX 5 1 4 2 3 3 2 4 1 5 28 6 29 7 30 8 6 9 7 10 8 11 9 12 26 13
REMARK SMILES IDX 10 14 11 15 25 16 27 17 12 18 24 19 23 20 13 21 21 22 14 23
REMARK SMILES IDX 15 24 20 25 22 26 16 27 19 28 17 29 18 30
REMARK H PARENT 18 31
REMARK Flexibility Score: inf
ROOT
ATOM      1  C   UNL     1     -30.710   0.132  23.667  1.00  0.00     0.004 C 
ENDROOT
BRANCH   1   2
ATOM      2  C   UNL     1     -29.630   0.627  22.659  1.00  0.00     0.004 C 
BRANCH   2   3
ATOM      3  C   UNL     1     -28.680  -0.454  22.061  1.00  0.00    -0.009 C 
BRANCH   3   4
ATOM      4  C   UNL     1     -27.197  -0.095  22.374  1.00  0.00     0.000 C 
ATOM      5  C   UNL     1     -27.043   1.254  23.088  1.00  0.00     0.004 C 
ENDBRANCH   3   4
BRANCH   3   6
ATOM      6  C   UNL     1     -28.955  -0.741  20.544  1.00  0.00    -0.014 C 
ATOM      7  C   UNL     1     -30.245  -1.564  20.335  1.00  0.00     0.007 C 
ATOM      8  C   UNL     1     -27.803  -1.517  19.874  1.00  0.00     0.007 C 
ENDBRANCH   3   6
ENDBRANCH   2   3
ENDBRANCH   1   2
BRANCH   1   9
ATOM      9  C   UNL     1     -30.332  -1.154  24.470  1.00  0.00    -0.011 C 
ATOM     10  C   UNL     1     -31.516  -2.132  24.537  1.00  0.00     0.008 C 
BRANCH   9  11
ATOM     11  C   UNL     1     -29.668  -0.950  25.880  1.00  0.00    -0.002 C 
ATOM     12  C   UNL     1     -28.124  -0.881  25.853  1.00  0.00     0.005 C 
ATOM     13  C   UNL     1     -30.099   0.200  26.855  1.00  0.00    -0.026 C 
ATOM     14  C   UNL     1     -27.696  -0.183  27.148  1.00  0.00     0.005 C 
ATOM     15  C   UNL     1     -28.998   0.052  27.921  1.00  0.00    -0.001 C 
ATOM     16  C   UNL     1     -31.461  -0.006  27.574  1.00  0.00     0.007 C 
ATOM     17  C   UNL     1     -30.075   1.575  26.126  1.00  0.00     0.012 C 
ATOM     18  C   UNL     1     -28.976   1.165  28.999  1.00  0.00     0.000 C 
ATOM     19  C   UNL     1     -31.498   0.525  29.039  1.00  0.00     0.005 C 
ATOM     20  C   UNL     1     -30.443   1.622  29.403  1.00  0.00     0.003 C 
ATOM     21  C   UNL     1     -28.103   0.693  30.207  1.00  0.00     0.031 C 
ATOM     22  C   UNL     1     -30.547   2.086  30.908  1.00  0.00    -0.008 C 
ATOM     23  C   UNL     1     -28.902   0.287  31.410  1.00  0.00    -0.027 C 
ATOM     24  C   UNL     1     -30.023   0.935  31.784  1.00  0.00    -0.065 C 
ATOM     25  C   UNL     1     -32.009   2.543  31.270  1.00  0.00     0.014 C 
ATOM     26  C   UNL     1     -29.658   3.342  31.128  1.00  0.00     0.016 C 
ATOM     27  C   UNL     1     -30.793   0.338  32.947  1.00  0.00     0.063 C 
ATOM     28  C   UNL     1     -32.819   1.518  32.065  1.00  0.00     0.033 C 
ATOM     29  C   UNL     1     -32.063   1.094  33.326  1.00  0.00     0.118 C 
BRANCH  29  30
ATOM     30  O   UNL     1     -31.722   2.200  34.123  1.00  0.00    -0.393 OA
ATOM     31  H   UNL     1     -32.416   2.272  34.831  1.00  0.00     0.210 HD
ENDBRANCH  29  30
ENDBRANCH   9  11
ENDBRANCH   1   9
TORSDOF 7
ENDMDL
MODEL 8
REMARK VINA RESULT:    -1.543      4.286     11.582
REMARK INTER + INTRA:          -3.006
REMARK INTER:                  -2.836
REMARK INTRA:                  -0.170
REMARK UNBOUND:                -0.876
REMARK SMILES CC[C@@H](CC[C@H](C)[C@H]1CC[C@H]2[C@@H]3CC=C4C[C@@H](O)CC[C@]4(C)[C@@H]3CC[C@]12C)C(C)C
REMARK SMILES IDX 5 1 4 2 3 3 2 4 1 5 28 6 29 7 30 8 6 9 7 10 8 11 9 12 26 13
REMARK SMILES IDX 10 14 11 15 25 16 27 17 12 18 24 19 23 20 13 21 21 22 14 23
REMARK SMILES IDX 15 24 20 25 22 26 16 27 19 28 17 29 18 30
REMARK H PARENT 18 31
REMARK Flexibility Score: inf
ROOT
ATOM      1  C   UNL     1     -28.594  -3.493  16.895  1.00  0.00     0.004 C 
ENDROOT
BRANCH   1   2
ATOM      2  C   UNL     1     -28.895  -2.537  15.702  1.00  0.00     0.004 C 
BRANCH   2   3
ATOM      3  C   UNL     1     -28.505  -3.044  14.280  1.00  0.00    -0.009 C 
BRANCH   3   4
ATOM      4  C   UNL     1     -28.853  -4.556  14.138  1.00  0.00     0.000 C 
ATOM      5  C   UNL     1     -30.358  -4.815  13.993  1.00  0.00     0.004 C 
ENDBRANCH   3   4
BRANCH   3   6
ATOM      6  C   UNL     1     -27.029  -2.694  13.887  1.00  0.00    -0.014 C 
ATOM      7  C   UNL     1     -26.022  -3.727  14.437  1.00  0.00     0.007 C 
ATOM      8  C   UNL     1     -26.594  -1.309  14.406  1.00  0.00     0.007 C 
ENDBRANCH   3   6
ENDBRANCH   2   3
ENDBRANCH   1   2
BRANCH   1   9
ATOM      9  C   UNL     1     -29.368  -3.176  18.213  1.00  0.00    -0.011 C 
ATOM     10  C   UNL     1     -30.542  -2.217  17.949  1.00  0.00     0.008 C 
BRANCH   9  11
ATOM     11  C   UNL     1     -28.516  -2.721  19.454  1.00  0.00    -0.002 C 
ATOM     12  C   UNL     1     -27.055  -2.346  19.120  1.00  0.00     0.005 C 
ATOM     13  C   UNL     1     -28.997  -1.602  20.441  1.00  0.00    -0.026 C 
ATOM     14  C   UNL     1     -26.557  -1.468  20.271  1.00  0.00     0.005 C 
ATOM     15  C   UNL     1     -27.714  -1.433  21.275  1.00  0.00    -0.001 C 
ATOM     16  C   UNL     1     -30.129  -2.016  21.424  1.00  0.00     0.007 C 
ATOM     17  C   UNL     1     -29.402  -0.319  19.659  1.00  0.00     0.012 C 
ATOM     18  C   UNL     1     -27.734  -0.250  22.275  1.00  0.00     0.000 C 
ATOM     19  C   UNL     1     -30.009  -1.379  22.841  1.00  0.00     0.005 C 
ATOM     20  C   UNL     1     -29.165  -0.064  22.938  1.00  0.00     0.003 C 
ATOM     21  C   UNL     1     -26.574  -0.430  23.307  1.00  0.00     0.031 C 
ATOM     22  C   UNL     1     -29.089   0.498  24.412  1.00  0.00    -0.008 C 
ATOM     23  C   UNL     1     -27.033  -0.884  24.661  1.00  0.00    -0.027 C 
ATOM     24  C   UNL     1     -28.179  -0.444  25.219  1.00  0.00    -0.065 C 
ATOM     25  C   UNL     1     -30.523   0.680  25.033  1.00  0.00     0.014 C 
ATOM     26  C   UNL     1     -28.464   1.920  24.394  1.00  0.00     0.016 C 
ATOM     27  C   UNL     1     -28.576  -1.082  26.538  1.00  0.00     0.063 C 
ATOM     28  C   UNL     1     -30.934  -0.414  26.019  1.00  0.00     0.033 C 
ATOM     29  C   UNL     1     -29.888  -0.567  27.124  1.00  0.00     0.118 C 
BRANCH  29  30
ATOM     30  O   UNL     1     -29.651   0.650  27.787  1.00  0.00    -0.393 OA
ATOM     31  H   UNL     1     -29.409   0.426  28.725  1.00  0.00     0.210 HD
ENDBRANCH  29  30
ENDBRANCH   9  11
ENDBRANCH   1   9
TORSDOF 7
ENDMDL
MODEL 9
REMARK VINA RESULT:    -1.174      3.038      8.983
REMARK INTER + INTRA:          -2.496
REMARK INTER:                  -1.353
REMARK INTRA:                  -1.143
REMARK UNBOUND:                -0.876
REMARK SMILES CC[C@@H](CC[C@H](C)[C@H]1CC[C@H]2[C@@H]3CC=C4C[C@@H](O)CC[C@]4(C)[C@@H]3CC[C@]12C)C(C)C
REMARK SMILES IDX 5 1 4 2 3 3 2 4 1 5 28 6 29 7 30 8 6 9 7 10 8 11 9 12 26 13
REMARK SMILES IDX 10 14 11 15 25 16 27 17 12 18 24 19 23 20 13 21 21 22 14 23
REMARK SMILES IDX 15 24 20 25 22 26 16 27 19 28 17 29 18 30
REMARK H PARENT 18 31
REMARK Flexibility Score: inf
ROOT
ATOM      1  C   UNL     1     -27.389  -1.301  24.321  1.00  0.00     0.004 C 
ENDROOT
BRANCH   1   2
ATOM      2  C   UNL     1     -28.255  -2.313  23.512  1.00  0.00     0.004 C 
BRANCH   2   3
ATOM      3  C   UNL     1     -29.101  -1.733  22.339  1.00  0.00    -0.009 C 
BRANCH   3   4
ATOM      4  C   UNL     1     -30.616  -1.987  22.596  1.00  0.00     0.000 C 
ATOM      5  C   UNL     1     -30.901  -2.566  23.988  1.00  0.00     0.004 C 
ENDBRANCH   3   4
BRANCH   3   6
ATOM      6  C   UNL     1     -28.609  -2.213  20.930  1.00  0.00    -0.014 C 
ATOM      7  C   UNL     1     -27.315  -1.493  20.492  1.00  0.00     0.007 C 
ATOM      8  C   UNL     1     -29.661  -1.977  19.828  1.00  0.00     0.007 C 
ENDBRANCH   3   6
ENDBRANCH   2   3
ENDBRANCH   1   2
BRANCH   1   9
ATOM      9  C   UNL     1     -27.816   0.195  24.188  1.00  0.00    -0.011 C 
ATOM     10  C   UNL     1     -26.600   1.096  23.916  1.00  0.00     0.008 C 
BRANCH   9  11
ATOM     11  C   UNL     1     -28.731   0.783  25.324  1.00  0.00    -0.002 C 
ATOM     12  C   UNL     1     -30.246   0.631  25.064  1.00  0.00     0.005 C 
ATOM     13  C   UNL     1     -28.548   0.403  26.834  1.00  0.00    -0.026 C 
ATOM     14  C   UNL     1     -30.937   0.759  26.425  1.00  0.00     0.005 C 
ATOM     15  C   UNL     1     -29.809   1.066  27.416  1.00  0.00    -0.001 C 
ATOM     16  C   UNL     1     -27.324   1.048  27.544  1.00  0.00     0.007 C 
ATOM     17  C   UNL     1     -28.523  -1.143  27.011  1.00  0.00     0.012 C 
ATOM     18  C   UNL     1     -30.087   0.750  28.907  1.00  0.00     0.000 C 
ATOM     19  C   UNL     1     -27.580   1.433  29.033  1.00  0.00     0.005 C 
ATOM     20  C   UNL     1     -28.745   0.675  29.752  1.00  0.00     0.003 C 
ATOM     21  C   UNL     1     -31.131   1.772  29.462  1.00  0.00     0.031 C 
ATOM     22  C   UNL     1     -28.936   1.142  31.248  1.00  0.00    -0.008 C 
ATOM     23  C   UNL     1     -30.536   2.824  30.351  1.00  0.00    -0.027 C 
ATOM     24  C   UNL     1     -29.539   2.557  31.218  1.00  0.00    -0.065 C 
ATOM     25  C   UNL     1     -27.591   1.043  32.059  1.00  0.00     0.014 C 
ATOM     26  C   UNL     1     -29.922   0.182  31.971  1.00  0.00     0.016 C 
ATOM     27  C   UNL     1     -28.954   3.743  31.962  1.00  0.00     0.063 C 
ATOM     28  C   UNL     1     -26.876   2.379  32.273  1.00  0.00     0.033 C 
ATOM     29  C   UNL     1     -27.817   3.396  32.920  1.00  0.00     0.118 C 
BRANCH  29  30
ATOM     30  O   UNL     1     -28.359   2.912  34.123  1.00  0.00    -0.393 OA
ATOM     31  H   UNL     1     -28.400   1.922  34.044  1.00  0.00     0.210 HD
ENDBRANCH  29  30
ENDBRANCH   9  11
ENDBRANCH   1   9
TORSDOF 7
ENDMDL
