MODEL 1
REMARK VINA RESULT:    -4.275      0.000      0.000
REMARK INTER + INTRA:         -12.003
REMARK INTER:                  -9.024
REMARK INTRA:                  -2.980
REMARK UNBOUND:                -2.980
REMARK SMILES CCC(=O)CCCCC[C@@H]1NC(=O)[C@H]2CCCCN2C(=O)[C@@H]([C@@H](C)CC)NC(=O)[C@@H](Cc2cn(OC)c3ccccc23)NC1=O
REMARK SMILES IDX 9 1 10 2 44 3 43 4 45 6 30 7 28 8 27 9 29 11 22 12 23 14
REMARK SMILES IDX 24 15 25 16 26 17 31 18 32 19 33 20 42 21 34 22 37 23 41 24
REMARK SMILES IDX 38 25 40 26 39 27 35 28 36 29 11 30 12 31 13 33 14 34 19 35
REMARK SMILES IDX 15 36 18 37 16 38 17 39 20 40 21 41 8 43 7 44 6 45 5 46 3 47
REMARK SMILES IDX 4 48 2 49 1 50
REMARK H PARENT 43 5 27 10 11 32
REMARK Flexibility Score: 80.00
ROOT
ATOM      1  C   UNL     1      53.035  48.657  51.064  1.00  0.00     0.035 C 
ENDROOT
BRANCH   1   2
ATOM      2  C   UNL     1      53.932  49.902  51.231  1.00  0.00     0.171 C 
BRANCH   2   3
ATOM      3  C   UNL     1      53.257  51.147  50.733  1.00  0.00     0.243 C 
ATOM      4  N   UNL     1      54.047  52.164  50.097  1.00  0.00    -0.342 N 
ATOM      5  H   UNL     1      55.044  51.954  49.847  1.00  0.00     0.164 HD
ATOM      6  O   UNL     1      52.032  51.345  50.988  1.00  0.00    -0.273 OA
BRANCH   4   7
ATOM      7  C   UNL     1      53.547  53.519  49.856  1.00  0.00     0.175 C 
BRANCH   7   8
ATOM      8  C   UNL     1      53.451  54.311  51.141  1.00  0.00     0.243 C 
ATOM      9  N   UNL     1      54.617  54.727  51.881  1.00  0.00    -0.342 N 
ATOM     10  H   UNL     1      55.547  54.659  51.418  1.00  0.00     0.164 HD
ATOM     11  O   UNL     1      52.298  54.629  51.558  1.00  0.00    -0.273 OA
BRANCH   9  12
ATOM     12  C   UNL     1      54.516  55.494  53.128  1.00  0.00     0.174 CG0
ATOM     13  G   UNL     1      54.741  54.666  54.382  1.00  0.00     0.000 G0
BRANCH  12  14
ATOM     14  C   UNL     1      55.428  56.770  53.061  1.00  0.00     0.018 C 
ATOM     15  C   UNL     1      56.386  56.675  51.861  1.00  0.00     0.010 C 
BRANCH  14  16
ATOM     16  C   UNL     1      54.679  58.130  53.016  1.00  0.00     0.002 C 
ATOM     17  C   UNL     1      55.470  59.270  52.369  1.00  0.00     0.004 C 
ENDBRANCH  14  16
ENDBRANCH  12  14
ENDBRANCH   9  12
ENDBRANCH   7   8
BRANCH   7  18
ATOM     18  C   UNL     1      54.450  54.213  48.815  1.00  0.00     0.073 C 
BRANCH  18  19
ATOM     19  C   UNL     1      53.701  55.214  47.974  1.00  0.00    -0.016 A 
ATOM     20  C   UNL     1      53.068  54.971  46.753  1.00  0.00     0.134 A 
ATOM     21  C   UNL     1      53.444  56.541  48.276  1.00  0.00     0.006 A 
ATOM     22  N   UNL     1      52.453  56.099  46.327  1.00  0.00    -0.191 N 
ATOM     23  C   UNL     1      52.693  57.045  47.248  1.00  0.00     0.087 A 
ATOM     24  C   UNL     1      53.767  57.315  49.396  1.00  0.00     0.011 A 
ATOM     25  C   UNL     1      52.218  58.357  47.260  1.00  0.00     0.030 A 
ATOM     26  C   UNL     1      53.323  58.648  49.423  1.00  0.00     0.001 A 
ATOM     27  C   UNL     1      52.556  59.169  48.358  1.00  0.00     0.002 A 
BRANCH  22  28
ATOM     28  O   UNL     1      51.607  56.256  45.253  1.00  0.00    -0.417 OA
ATOM     29  C   UNL     1      52.088  56.377  43.918  1.00  0.00     0.313 C 
ENDBRANCH  22  28
ENDBRANCH  18  19
ENDBRANCH   7  18
ENDBRANCH   4   7
ENDBRANCH   2   3
BRANCH   2  30
ATOM     30  N   UNL     1      54.322  50.134  52.622  1.00  0.00    -0.343 N 
ATOM     31  C   UNL     1      54.933  51.380  52.982  1.00  0.00     0.243 C 
ATOM     32  H   UNL     1      54.281  49.374  53.344  1.00  0.00     0.164 HD
ATOM     33  O   UNL     1      55.875  51.824  52.273  1.00  0.00    -0.273 OA
BRANCH  31  34
ATOM     34  C   UNL     1      54.397  52.195  54.136  1.00  0.00     0.174 C 
ATOM     35  N   UNL     1      55.286  53.332  54.434  1.00  0.00    -0.329 N 
ATOM     36  C   UNL     1      54.237  51.362  55.421  1.00  0.00     0.035 C 
ATOM     37  C   UNL     1      56.534  53.102  55.197  1.00  0.00     0.120 C 
ATOM     38  C   UNL     1      55.583  50.840  55.969  1.00  0.00     0.004 C 
ATOM     39  C   UNL     1      56.815  51.617  55.459  1.00  0.00     0.022 C 
BRANCH  35  40
ATOM     40  C   UNL     1      54.759  54.680  54.403  1.00  0.00     0.246 CG0
ATOM     41  O   UNL     1      54.520  55.252  55.498  1.00  0.00    -0.272 OA
ATOM     42  G   UNL     1      54.510  55.466  53.126  1.00  0.00     0.000 G0
ENDBRANCH  35  40
ENDBRANCH  31  34
ENDBRANCH   2  30
ENDBRANCH   1   2
BRANCH   1  43
ATOM     43  C   UNL     1      53.765  47.389  50.596  1.00  0.00     0.003 C 
BRANCH  43  44
ATOM     44  C   UNL     1      54.319  46.518  51.740  1.00  0.00     0.001 C 
BRANCH  44  45
ATOM     45  C   UNL     1      54.343  45.036  51.358  1.00  0.00     0.008 C 
BRANCH  45  46
ATOM     46  C   UNL     1      52.930  44.527  51.034  1.00  0.00     0.075 C 
BRANCH  46  47
ATOM     47  C   UNL     1      52.121  44.408  52.297  1.00  0.00     0.132 C 
ATOM     48  O   UNL     1      51.003  44.902  52.346  1.00  0.00    -0.300 OA
BRANCH  47  49
ATOM     49  C   UNL     1      52.677  43.635  53.465  1.00  0.00     0.072 C 
ATOM     50  C   UNL     1      51.812  43.781  54.724  1.00  0.00     0.012 C 
ENDBRANCH  47  49
ENDBRANCH  46  47
ENDBRANCH  45  46
ENDBRANCH  44  45
ENDBRANCH  43  44
ENDBRANCH   1  43
TORSDOF 12
ENDMDL
MODEL 2
REMARK VINA RESULT:    -4.125      3.121      5.552
REMARK INTER + INTRA:         -11.686
REMARK INTER:                  -8.181
REMARK INTRA:                  -3.505
REMARK UNBOUND:                -2.980
REMARK SMILES CCC(=O)CCCCC[C@@H]1NC(=O)[C@H]2CCCCN2C(=O)[C@@H]([C@@H](C)CC)NC(=O)[C@@H](Cc2cn(OC)c3ccccc23)NC1=O
REMARK SMILES IDX 9 1 10 2 44 3 43 4 45 6 30 7 28 8 27 9 29 11 22 12 23 14
REMARK SMILES IDX 24 15 25 16 26 17 31 18 32 19 33 20 42 21 34 22 37 23 41 24
REMARK SMILES IDX 38 25 40 26 39 27 35 28 36 29 11 30 12 31 13 33 14 34 19 35
REMARK SMILES IDX 15 36 18 37 16 38 17 39 20 40 21 41 8 43 7 44 6 45 5 46 3 47
REMARK SMILES IDX 4 48 2 49 1 50
REMARK H PARENT 43 5 27 10 11 32
REMARK Flexibility Score: 80.00
ROOT
ATOM      1  C   UNL     1      52.659  46.027  52.844  1.00  0.00     0.035 C 
ENDROOT
BRANCH   1   2
ATOM      2  C   UNL     1      53.125  46.928  51.681  1.00  0.00     0.171 C 
BRANCH   2   3
ATOM      3  C   UNL     1      53.183  48.373  52.083  1.00  0.00     0.243 C 
ATOM      4  N   UNL     1      52.799  49.379  51.133  1.00  0.00    -0.342 N 
ATOM      5  H   UNL     1      52.335  49.087  50.239  1.00  0.00     0.164 HD
ATOM      6  O   UNL     1      53.685  48.697  53.201  1.00  0.00    -0.273 OA
BRANCH   4   7
ATOM      7  C   UNL     1      53.104  50.800  51.319  1.00  0.00     0.175 C 
BRANCH   7   8
ATOM      8  C   UNL     1      54.547  51.104  50.985  1.00  0.00     0.243 C 
ATOM      9  N   UNL     1      55.097  50.892  49.669  1.00  0.00    -0.342 N 
ATOM     10  H   UNL     1      54.441  50.719  48.881  1.00  0.00     0.164 HD
ATOM     11  O   UNL     1      55.280  51.582  51.902  1.00  0.00    -0.273 OA
BRANCH   9  12
ATOM     12  C   UNL     1      56.500  51.190  49.353  1.00  0.00     0.174 CG0
ATOM     13  G   UNL     1      57.405  49.969  49.355  1.00  0.00     0.000 G0
BRANCH  12  14
ATOM     14  C   UNL     1      56.597  52.026  48.030  1.00  0.00     0.018 C 
ATOM     15  C   UNL     1      55.532  51.555  47.024  1.00  0.00     0.010 C 
BRANCH  14  16
ATOM     16  C   UNL     1      56.497  53.567  48.200  1.00  0.00     0.002 C 
ATOM     17  C   UNL     1      57.008  54.373  47.002  1.00  0.00     0.004 C 
ENDBRANCH  14  16
ENDBRANCH  12  14
ENDBRANCH   9  12
ENDBRANCH   7   8
BRANCH   7  18
ATOM     18  C   UNL     1      52.125  51.641  50.473  1.00  0.00     0.073 C 
BRANCH  18  19
ATOM     19  C   UNL     1      52.525  53.091  50.396  1.00  0.00    -0.016 A 
ATOM     20  C   UNL     1      52.771  53.948  51.471  1.00  0.00     0.134 A 
ATOM     21  C   UNL     1      52.785  53.832  49.255  1.00  0.00     0.006 A 
ATOM     22  N   UNL     1      53.163  55.158  51.008  1.00  0.00    -0.191 N 
ATOM     23  C   UNL     1      53.159  55.083  49.668  1.00  0.00     0.087 A 
ATOM     24  C   UNL     1      52.772  53.481  47.900  1.00  0.00     0.011 A 
ATOM     25  C   UNL     1      53.538  56.073  48.762  1.00  0.00     0.030 A 
ATOM     26  C   UNL     1      53.125  54.467  46.963  1.00  0.00     0.001 A 
ATOM     27  C   UNL     1      53.503  55.759  47.391  1.00  0.00     0.002 A 
BRANCH  22  28
ATOM     28  O   UNL     1      53.633  56.235  51.725  1.00  0.00    -0.417 OA
ATOM     29  C   UNL     1      53.115  56.580  53.005  1.00  0.00     0.313 C 
ENDBRANCH  22  28
ENDBRANCH  18  19
ENDBRANCH   7  18
ENDBRANCH   4   7
ENDBRANCH   2   3
BRANCH   2  30
ATOM     30  N   UNL     1      54.445  46.555  51.172  1.00  0.00    -0.343 N 
ATOM     31  C   UNL     1      55.080  47.384  50.189  1.00  0.00     0.243 C 
ATOM     32  H   UNL     1      54.894  45.638  51.412  1.00  0.00     0.164 HD
ATOM     33  O   UNL     1      54.413  47.764  49.191  1.00  0.00    -0.273 OA
BRANCH  31  34
ATOM     34  C   UNL     1      56.496  47.871  50.392  1.00  0.00     0.174 C 
ATOM     35  N   UNL     1      56.975  48.602  49.206  1.00  0.00    -0.329 N 
ATOM     36  C   UNL     1      57.479  46.721  50.676  1.00  0.00     0.035 C 
ATOM     37  C   UNL     1      57.423  47.845  48.014  1.00  0.00     0.120 C 
ATOM     38  C   UNL     1      57.622  45.746  49.486  1.00  0.00     0.004 C 
ATOM     39  C   UNL     1      57.178  46.336  48.131  1.00  0.00     0.022 C 
BRANCH  35  40
ATOM     40  C   UNL     1      57.436  49.968  49.343  1.00  0.00     0.246 CG0
ATOM     41  O   UNL     1      58.674  50.174  49.419  1.00  0.00    -0.272 OA
ATOM     42  G   UNL     1      56.515  51.176  49.364  1.00  0.00     0.000 G0
ENDBRANCH  35  40
ENDBRANCH  31  34
ENDBRANCH   2  30
ENDBRANCH   1   2
BRANCH   1  43
ATOM     43  C   UNL     1      51.775  44.839  52.431  1.00  0.00     0.003 C 
BRANCH  43  44
ATOM     44  C   UNL     1      51.149  44.075  53.614  1.00  0.00     0.001 C 
BRANCH  44  45
ATOM     45  C   UNL     1      52.177  43.801  54.714  1.00  0.00     0.008 C 
BRANCH  45  46
ATOM     46  C   UNL     1      52.408  42.292  54.891  1.00  0.00     0.075 C 
BRANCH  46  47
ATOM     47  C   UNL     1      53.848  41.954  54.620  1.00  0.00     0.132 C 
ATOM     48  O   UNL     1      54.499  41.363  55.471  1.00  0.00    -0.300 OA
BRANCH  47  49
ATOM     49  C   UNL     1      54.453  42.299  53.283  1.00  0.00     0.072 C 
ATOM     50  C   UNL     1      53.651  41.712  52.113  1.00  0.00     0.012 C 
ENDBRANCH  47  49
ENDBRANCH  46  47
ENDBRANCH  45  46
ENDBRANCH  44  45
ENDBRANCH  43  44
ENDBRANCH   1  43
TORSDOF 12
ENDMDL
MODEL 3
REMARK VINA RESULT:    -4.033      3.203      5.570
REMARK INTER + INTRA:         -11.492
REMARK INTER:                  -7.839
REMARK INTRA:                  -3.653
REMARK UNBOUND:                -2.980
REMARK SMILES CCC(=O)CCCCC[C@@H]1NC(=O)[C@H]2CCCCN2C(=O)[C@@H]([C@@H](C)CC)NC(=O)[C@@H](Cc2cn(OC)c3ccccc23)NC1=O
REMARK SMILES IDX 9 1 10 2 44 3 43 4 45 6 30 7 28 8 27 9 29 11 22 12 23 14
REMARK SMILES IDX 24 15 25 16 26 17 31 18 32 19 33 20 42 21 34 22 37 23 41 24
REMARK SMILES IDX 38 25 40 26 39 27 35 28 36 29 11 30 12 31 13 33 14 34 19 35
REMARK SMILES IDX 15 36 18 37 16 38 17 39 20 40 21 41 8 43 7 44 6 45 5 46 3 47
REMARK SMILES IDX 4 48 2 49 1 50
REMARK H PARENT 43 5 27 10 11 32
REMARK Flexibility Score: 80.00
ROOT
ATOM      1  C   UNL     1      52.991  46.831  52.594  1.00  0.00     0.035 C 
ENDROOT
BRANCH   1   2
ATOM      2  C   UNL     1      53.421  47.607  51.332  1.00  0.00     0.171 C 
BRANCH   2   3
ATOM      3  C   UNL     1      53.485  49.086  51.580  1.00  0.00     0.243 C 
ATOM      4  N   UNL     1      53.116  49.989  50.526  1.00  0.00    -0.342 N 
ATOM      5  H   UNL     1      52.657  49.606  49.664  1.00  0.00     0.164 HD
ATOM      6  O   UNL     1      53.980  49.523  52.662  1.00  0.00    -0.273 OA
BRANCH   4   7
ATOM      7  C   UNL     1      53.428  51.420  50.564  1.00  0.00     0.175 C 
BRANCH   7   8
ATOM      8  C   UNL     1      54.872  51.680  50.198  1.00  0.00     0.243 C 
ATOM      9  N   UNL     1      55.397  51.406  48.883  1.00  0.00    -0.342 N 
ATOM     10  H   UNL     1      54.726  51.217  48.112  1.00  0.00     0.164 HD
ATOM     11  O   UNL     1      55.628  52.177  51.085  1.00  0.00    -0.273 OA
BRANCH   9  12
ATOM     12  C   UNL     1      56.801  51.662  48.536  1.00  0.00     0.174 CG0
ATOM     13  G   UNL     1      57.711  50.460  48.723  1.00  0.00     0.000 G0
BRANCH  12  14
ATOM     14  C   UNL     1      56.904  52.296  47.105  1.00  0.00     0.018 C 
ATOM     15  C   UNL     1      55.709  51.857  46.242  1.00  0.00     0.010 C 
BRANCH  14  16
ATOM     16  C   UNL     1      57.027  53.844  47.063  1.00  0.00     0.002 C 
ATOM     17  C   UNL     1      57.215  54.429  45.661  1.00  0.00     0.004 C 
ENDBRANCH  14  16
ENDBRANCH  12  14
ENDBRANCH   9  12
ENDBRANCH   7   8
BRANCH   7  18
ATOM     18  C   UNL     1      52.451  52.174  49.637  1.00  0.00     0.073 C 
BRANCH  18  19
ATOM     19  C   UNL     1      52.658  53.665  49.668  1.00  0.00    -0.016 A 
ATOM     20  C   UNL     1      52.608  54.492  50.793  1.00  0.00     0.134 A 
ATOM     21  C   UNL     1      52.999  54.489  48.608  1.00  0.00     0.006 A 
ATOM     22  N   UNL     1      52.903  55.764  50.436  1.00  0.00    -0.191 N 
ATOM     23  C   UNL     1      53.128  55.756  49.113  1.00  0.00     0.087 A 
ATOM     24  C   UNL     1      53.255  54.207  47.261  1.00  0.00     0.011 A 
ATOM     25  C   UNL     1      53.513  56.830  48.311  1.00  0.00     0.030 A 
ATOM     26  C   UNL     1      53.621  55.276  46.425  1.00  0.00     0.001 A 
ATOM     27  C   UNL     1      53.745  56.583  46.946  1.00  0.00     0.002 A 
BRANCH  22  28
ATOM     28  O   UNL     1      53.099  56.855  51.251  1.00  0.00    -0.417 OA
ATOM     29  C   UNL     1      53.750  56.753  52.514  1.00  0.00     0.313 C 
ENDBRANCH  22  28
ENDBRANCH  18  19
ENDBRANCH   7  18
ENDBRANCH   4   7
ENDBRANCH   2   3
BRANCH   2  30
ATOM     30  N   UNL     1      54.728  47.185  50.828  1.00  0.00    -0.343 N 
ATOM     31  C   UNL     1      55.353  47.934  49.777  1.00  0.00     0.243 C 
ATOM     32  H   UNL     1      55.172  46.282  51.126  1.00  0.00     0.164 HD
ATOM     33  O   UNL     1      54.671  48.248  48.766  1.00  0.00    -0.273 OA
BRANCH  31  34
ATOM     34  C   UNL     1      56.777  48.419  49.919  1.00  0.00     0.174 C 
ATOM     35  N   UNL     1      57.241  49.056  48.674  1.00  0.00    -0.329 N 
ATOM     36  C   UNL     1      57.754  47.282  50.269  1.00  0.00     0.035 C 
ATOM     37  C   UNL     1      57.660  48.210  47.533  1.00  0.00     0.120 C 
ATOM     38  C   UNL     1      57.866  46.222  49.151  1.00  0.00     0.004 C 
ATOM     39  C   UNL     1      57.403  46.716  47.764  1.00  0.00     0.022 C 
BRANCH  35  40
ATOM     40  C   UNL     1      57.717  50.423  48.704  1.00  0.00     0.246 CG0
ATOM     41  O   UNL     1      58.951  50.622  48.850  1.00  0.00    -0.272 OA
ATOM     42  G   UNL     1      56.821  51.638  48.532  1.00  0.00     0.000 G0
ENDBRANCH  35  40
ENDBRANCH  31  34
ENDBRANCH   2  30
ENDBRANCH   1   2
BRANCH   1  43
ATOM     43  C   UNL     1      51.995  45.688  52.346  1.00  0.00     0.003 C 
BRANCH  43  44
ATOM     44  C   UNL     1      52.273  44.873  51.068  1.00  0.00     0.001 C 
BRANCH  44  45
ATOM     45  C   UNL     1      53.300  43.766  51.319  1.00  0.00     0.008 C 
BRANCH  45  46
ATOM     46  C   UNL     1      53.507  42.908  50.061  1.00  0.00     0.075 C 
BRANCH  46  47
ATOM     47  C   UNL     1      54.564  43.523  49.185  1.00  0.00     0.132 C 
ATOM     48  O   UNL     1      54.462  44.695  48.848  1.00  0.00    -0.300 OA
BRANCH  47  49
ATOM     49  C   UNL     1      55.762  42.703  48.780  1.00  0.00     0.072 C 
ATOM     50  C   UNL     1      56.390  43.199  47.469  1.00  0.00     0.012 C 
ENDBRANCH  47  49
ENDBRANCH  46  47
ENDBRANCH  45  46
ENDBRANCH  44  45
ENDBRANCH  43  44
ENDBRANCH   1  43
TORSDOF 12
ENDMDL
MODEL 4
REMARK VINA RESULT:    -3.980      2.311      3.209
REMARK INTER + INTRA:         -11.380
REMARK INTER:                  -8.207
REMARK INTRA:                  -3.173
REMARK UNBOUND:                -2.980
REMARK SMILES CCC(=O)CCCCC[C@@H]1NC(=O)[C@H]2CCCCN2C(=O)[C@@H]([C@@H](C)CC)NC(=O)[C@@H](Cc2cn(OC)c3ccccc23)NC1=O
REMARK SMILES IDX 9 1 10 2 44 3 43 4 45 6 30 7 28 8 27 9 29 11 22 12 23 14
REMARK SMILES IDX 24 15 25 16 26 17 31 18 32 19 33 20 42 21 34 22 37 23 41 24
REMARK SMILES IDX 38 25 40 26 39 27 35 28 36 29 11 30 12 31 13 33 14 34 19 35
REMARK SMILES IDX 15 36 18 37 16 38 17 39 20 40 21 41 8 43 7 44 6 45 5 46 3 47
REMARK SMILES IDX 4 48 2 49 1 50
REMARK H PARENT 43 5 27 10 11 32
REMARK Flexibility Score: 80.00
ROOT
ATOM      1  C   UNL     1      56.063  49.458  50.039  1.00  0.00     0.035 C 
ENDROOT
BRANCH   1   2
ATOM      2  C   UNL     1      56.039  51.000  50.110  1.00  0.00     0.171 C 
BRANCH   2   3
ATOM      3  C   UNL     1      55.329  51.602  48.932  1.00  0.00     0.243 C 
ATOM      4  N   UNL     1      55.837  52.815  48.355  1.00  0.00    -0.342 N 
ATOM      5  H   UNL     1      56.777  53.169  48.656  1.00  0.00     0.164 HD
ATOM      6  O   UNL     1      54.228  51.112  48.542  1.00  0.00    -0.273 OA
BRANCH   4   7
ATOM      7  C   UNL     1      55.060  53.631  47.418  1.00  0.00     0.175 C 
BRANCH   7   8
ATOM      8  C   UNL     1      54.041  54.484  48.141  1.00  0.00     0.243 C 
ATOM      9  N   UNL     1      54.418  55.482  49.112  1.00  0.00    -0.342 N 
ATOM     10  H   UNL     1      55.418  55.764  49.169  1.00  0.00     0.164 HD
ATOM     11  O   UNL     1      52.818  54.316  47.856  1.00  0.00    -0.273 OA
BRANCH   9  12
ATOM     12  C   UNL     1      53.423  56.305  49.810  1.00  0.00     0.174 CG0
ATOM     13  G   UNL     1      53.046  55.783  51.186  1.00  0.00     0.000 G0
BRANCH  12  14
ATOM     14  C   UNL     1      53.869  57.809  49.823  1.00  0.00     0.018 C 
ATOM     15  C   UNL     1      55.389  57.914  49.608  1.00  0.00     0.010 C 
BRANCH  14  16
ATOM     16  C   UNL     1      53.141  58.735  48.810  1.00  0.00     0.002 C 
ATOM     17  C   UNL     1      52.424  57.997  47.677  1.00  0.00     0.004 C 
ENDBRANCH  14  16
ENDBRANCH  12  14
ENDBRANCH   9  12
ENDBRANCH   7   8
BRANCH   7  18
ATOM     18  C   UNL     1      56.027  54.482  46.568  1.00  0.00     0.073 C 
BRANCH  18  19
ATOM     19  C   UNL     1      55.323  55.579  45.814  1.00  0.00    -0.016 A 
ATOM     20  C   UNL     1      54.173  55.450  45.033  1.00  0.00     0.134 A 
ATOM     21  C   UNL     1      55.640  56.927  45.801  1.00  0.00     0.006 A 
ATOM     22  N   UNL     1      53.804  56.665  44.562  1.00  0.00    -0.191 N 
ATOM     23  C   UNL     1      54.701  57.550  45.023  1.00  0.00     0.087 A 
ATOM     24  C   UNL     1      56.644  57.649  46.456  1.00  0.00     0.011 A 
ATOM     25  C   UNL     1      54.701  58.933  44.836  1.00  0.00     0.030 A 
ATOM     26  C   UNL     1      56.683  59.041  46.265  1.00  0.00     0.001 A 
ATOM     27  C   UNL     1      55.719  59.680  45.456  1.00  0.00     0.002 A 
BRANCH  22  28
ATOM     28  O   UNL     1      52.659  57.002  43.876  1.00  0.00    -0.417 OA
ATOM     29  C   UNL     1      51.413  56.356  44.112  1.00  0.00     0.313 C 
ENDBRANCH  22  28
ENDBRANCH  18  19
ENDBRANCH   7  18
ENDBRANCH   4   7
ENDBRANCH   2   3
BRANCH   2  30
ATOM     30  N   UNL     1      55.391  51.499  51.322  1.00  0.00    -0.343 N 
ATOM     31  C   UNL     1      55.194  52.910  51.484  1.00  0.00     0.243 C 
ATOM     32  H   UNL     1      55.172  50.871  52.133  1.00  0.00     0.164 HD
ATOM     33  O   UNL     1      56.156  53.690  51.254  1.00  0.00    -0.273 OA
BRANCH  31  34
ATOM     34  C   UNL     1      53.832  53.461  51.836  1.00  0.00     0.174 C 
ATOM     35  N   UNL     1      53.887  54.923  52.012  1.00  0.00    -0.329 N 
ATOM     36  C   UNL     1      53.261  52.844  53.126  1.00  0.00     0.035 C 
ATOM     37  C   UNL     1      54.422  55.487  53.272  1.00  0.00     0.120 C 
ATOM     38  C   UNL     1      54.100  53.187  54.377  1.00  0.00     0.004 C 
ATOM     39  C   UNL     1      55.009  54.423  54.207  1.00  0.00     0.022 C 
BRANCH  35  40
ATOM     40  C   UNL     1      53.035  55.775  51.207  1.00  0.00     0.246 CG0
ATOM     41  O   UNL     1      51.930  56.136  51.686  1.00  0.00    -0.272 OA
ATOM     42  G   UNL     1      53.412  56.291  49.828  1.00  0.00     0.000 G0
ENDBRANCH  35  40
ENDBRANCH  31  34
ENDBRANCH   2  30
ENDBRANCH   1   2
BRANCH   1  43
ATOM     43  C   UNL     1      56.292  48.750  51.383  1.00  0.00     0.003 C 
BRANCH  43  44
ATOM     44  C   UNL     1      55.791  47.293  51.424  1.00  0.00     0.001 C 
BRANCH  44  45
ATOM     45  C   UNL     1      54.291  47.223  51.721  1.00  0.00     0.008 C 
BRANCH  45  46
ATOM     46  C   UNL     1      53.507  46.732  50.494  1.00  0.00     0.075 C 
BRANCH  46  47
ATOM     47  C   UNL     1      53.392  45.233  50.519  1.00  0.00     0.132 C 
ATOM     48  O   UNL     1      53.693  44.588  49.524  1.00  0.00    -0.300 OA
BRANCH  47  49
ATOM     49  C   UNL     1      52.960  44.543  51.788  1.00  0.00     0.072 C 
ATOM     50  C   UNL     1      51.577  45.010  52.262  1.00  0.00     0.012 C 
ENDBRANCH  47  49
ENDBRANCH  46  47
ENDBRANCH  45  46
ENDBRANCH  44  45
ENDBRANCH  43  44
ENDBRANCH   1  43
TORSDOF 12
ENDMDL
MODEL 5
REMARK VINA RESULT:    -3.972      1.335      1.681
REMARK INTER + INTRA:         -11.364
REMARK INTER:                  -7.961
REMARK INTRA:                  -3.403
REMARK UNBOUND:                -2.980
REMARK SMILES CCC(=O)CCCCC[C@@H]1NC(=O)[C@H]2CCCCN2C(=O)[C@@H]([C@@H](C)CC)NC(=O)[C@@H](Cc2cn(OC)c3ccccc23)NC1=O
REMARK SMILES IDX 9 1 10 2 44 3 43 4 45 6 30 7 28 8 27 9 29 11 22 12 23 14
REMARK SMILES IDX 24 15 25 16 26 17 31 18 32 19 33 20 42 21 34 22 37 23 41 24
REMARK SMILES IDX 38 25 40 26 39 27 35 28 36 29 11 30 12 31 13 33 14 34 19 35
REMARK SMILES IDX 15 36 18 37 16 38 17 39 20 40 21 41 8 43 7 44 6 45 5 46 3 47
REMARK SMILES IDX 4 48 2 49 1 50
REMARK H PARENT 43 5 27 10 11 32
REMARK Flexibility Score: 80.00
ROOT
ATOM      1  C   UNL     1      53.107  48.229  51.320  1.00  0.00     0.035 C 
ENDROOT
BRANCH   1   2
ATOM      2  C   UNL     1      53.965  49.511  51.272  1.00  0.00     0.171 C 
BRANCH   2   3
ATOM      3  C   UNL     1      53.286  50.608  50.504  1.00  0.00     0.243 C 
ATOM      4  N   UNL     1      54.073  51.462  49.661  1.00  0.00    -0.342 N 
ATOM      5  H   UNL     1      55.073  51.209  49.469  1.00  0.00     0.164 HD
ATOM      6  O   UNL     1      52.057  50.849  50.703  1.00  0.00    -0.273 OA
BRANCH   4   7
ATOM      7  C   UNL     1      53.566  52.726  49.120  1.00  0.00     0.175 C 
BRANCH   7   8
ATOM      8  C   UNL     1      53.542  53.809  50.175  1.00  0.00     0.243 C 
ATOM      9  N   UNL     1      54.744  54.307  50.798  1.00  0.00    -0.342 N 
ATOM     10  H   UNL     1      55.661  54.063  50.370  1.00  0.00     0.164 HD
ATOM     11  O   UNL     1      52.420  54.301  50.495  1.00  0.00    -0.273 OA
BRANCH   9  12
ATOM     12  C   UNL     1      54.713  55.359  51.821  1.00  0.00     0.174 CG0
ATOM     13  G   UNL     1      54.781  54.836  53.246  1.00  0.00     0.000 G0
BRANCH  12  14
ATOM     14  C   UNL     1      55.796  56.452  51.515  1.00  0.00     0.018 C 
ATOM     15  C   UNL     1      57.070  55.796  50.956  1.00  0.00     0.010 C 
BRANCH  14  16
ATOM     16  C   UNL     1      55.347  57.596  50.564  1.00  0.00     0.002 C 
ATOM     17  C   UNL     1      53.833  57.697  50.362  1.00  0.00     0.004 C 
ENDBRANCH  14  16
ENDBRANCH  12  14
ENDBRANCH   9  12
ENDBRANCH   7   8
BRANCH   7  18
ATOM     18  C   UNL     1      54.415  53.128  47.896  1.00  0.00     0.073 C 
BRANCH  18  19
ATOM     19  C   UNL     1      54.055  54.490  47.364  1.00  0.00    -0.016 A 
ATOM     20  C   UNL     1      52.784  54.929  46.985  1.00  0.00     0.134 A 
ATOM     21  C   UNL     1      54.894  55.581  47.207  1.00  0.00     0.006 A 
ATOM     22  N   UNL     1      52.844  56.230  46.613  1.00  0.00    -0.191 N 
ATOM     23  C   UNL     1      54.124  56.613  46.741  1.00  0.00     0.087 A 
ATOM     24  C   UNL     1      56.253  55.751  47.492  1.00  0.00     0.011 A 
ATOM     25  C   UNL     1      54.655  57.883  46.518  1.00  0.00     0.030 A 
ATOM     26  C   UNL     1      56.821  57.014  47.253  1.00  0.00     0.001 A 
ATOM     27  C   UNL     1      56.027  58.075  46.764  1.00  0.00     0.002 A 
BRANCH  22  28
ATOM     28  O   UNL     1      51.805  57.079  46.307  1.00  0.00    -0.417 OA
ATOM     29  C   UNL     1      50.819  56.753  45.334  1.00  0.00     0.313 C 
ENDBRANCH  22  28
ENDBRANCH  18  19
ENDBRANCH   7  18
ENDBRANCH   4   7
ENDBRANCH   2   3
BRANCH   2  30
ATOM     30  N   UNL     1      54.280  50.029  52.603  1.00  0.00    -0.343 N 
ATOM     31  C   UNL     1      54.953  51.290  52.725  1.00  0.00     0.243 C 
ATOM     32  H   UNL     1      54.140  49.456  53.470  1.00  0.00     0.164 HD
ATOM     33  O   UNL     1      55.967  51.511  52.012  1.00  0.00    -0.273 OA
BRANCH  31  34
ATOM     34  C   UNL     1      54.401  52.371  53.625  1.00  0.00     0.174 C 
ATOM     35  N   UNL     1      55.293  53.545  53.642  1.00  0.00    -0.329 N 
ATOM     36  C   UNL     1      54.213  51.892  55.076  1.00  0.00     0.035 C 
ATOM     37  C   UNL     1      56.526  53.513  54.462  1.00  0.00     0.120 C 
ATOM     38  C   UNL     1      55.546  51.523  55.764  1.00  0.00     0.004 C 
ATOM     39  C   UNL     1      56.792  52.143  55.096  1.00  0.00     0.022 C 
BRANCH  35  40
ATOM     40  C   UNL     1      54.776  54.843  53.261  1.00  0.00     0.246 CG0
ATOM     41  O   UNL     1      54.385  55.619  54.170  1.00  0.00    -0.272 OA
ATOM     42  G   UNL     1      54.711  55.343  51.827  1.00  0.00     0.000 G0
ENDBRANCH  35  40
ENDBRANCH  31  34
ENDBRANCH   2  30
ENDBRANCH   1   2
BRANCH   1  43
ATOM     43  C   UNL     1      53.663  47.044  50.514  1.00  0.00     0.003 C 
BRANCH  43  44
ATOM     44  C   UNL     1      53.881  45.762  51.341  1.00  0.00     0.001 C 
BRANCH  44  45
ATOM     45  C   UNL     1      52.572  45.258  51.953  1.00  0.00     0.008 C 
BRANCH  45  46
ATOM     46  C   UNL     1      52.692  45.119  53.478  1.00  0.00     0.075 C 
BRANCH  46  47
ATOM     47  C   UNL     1      51.718  44.089  53.981  1.00  0.00     0.132 C 
ATOM     48  O   UNL     1      50.594  44.036  53.501  1.00  0.00    -0.300 OA
BRANCH  47  49
ATOM     49  C   UNL     1      52.159  43.101  55.031  1.00  0.00     0.072 C 
ATOM     50  C   UNL     1      53.379  42.284  54.585  1.00  0.00     0.012 C 
ENDBRANCH  47  49
ENDBRANCH  46  47
ENDBRANCH  45  46
ENDBRANCH  44  45
ENDBRANCH  43  44
ENDBRANCH   1  43
TORSDOF 12
ENDMDL
MODEL 6
REMARK VINA RESULT:    -3.922      1.617      2.480
REMARK INTER + INTRA:         -11.257
REMARK INTER:                  -7.954
REMARK INTRA:                  -3.303
REMARK UNBOUND:                -2.980
REMARK SMILES CCC(=O)CCCCC[C@@H]1NC(=O)[C@H]2CCCCN2C(=O)[C@@H]([C@@H](C)CC)NC(=O)[C@@H](Cc2cn(OC)c3ccccc23)NC1=O
REMARK SMILES IDX 9 1 10 2 44 3 43 4 45 6 30 7 28 8 27 9 29 11 22 12 23 14
REMARK SMILES IDX 24 15 25 16 26 17 31 18 32 19 33 20 42 21 34 22 37 23 41 24
REMARK SMILES IDX 38 25 40 26 39 27 35 28 36 29 11 30 12 31 13 33 14 34 19 35
REMARK SMILES IDX 15 36 18 37 16 38 17 39 20 40 21 41 8 43 7 44 6 45 5 46 3 47
REMARK SMILES IDX 4 48 2 49 1 50
REMARK H PARENT 43 5 27 10 11 32
REMARK Flexibility Score: 80.00
ROOT
ATOM      1  C   UNL     1      53.009  48.331  50.976  1.00  0.00     0.035 C 
ENDROOT
BRANCH   1   2
ATOM      2  C   UNL     1      53.924  49.559  51.163  1.00  0.00     0.171 C 
BRANCH   2   3
ATOM      3  C   UNL     1      53.254  50.827  50.716  1.00  0.00     0.243 C 
ATOM      4  N   UNL     1      54.038  51.840  50.068  1.00  0.00    -0.342 N 
ATOM      5  H   UNL     1      55.019  51.616  49.773  1.00  0.00     0.164 HD
ATOM      6  O   UNL     1      52.045  51.044  51.026  1.00  0.00    -0.273 OA
BRANCH   4   7
ATOM      7  C   UNL     1      53.555  53.210  49.872  1.00  0.00     0.175 C 
BRANCH   7   8
ATOM      8  C   UNL     1      53.434  53.946  51.187  1.00  0.00     0.243 C 
ATOM      9  N   UNL     1      54.586  54.375  51.942  1.00  0.00    -0.342 N 
ATOM     10  H   UNL     1      55.516  54.359  51.476  1.00  0.00     0.164 HD
ATOM     11  O   UNL     1      52.271  54.206  51.617  1.00  0.00    -0.273 OA
BRANCH   9  12
ATOM     12  C   UNL     1      54.460  55.089  53.218  1.00  0.00     0.174 CG0
ATOM     13  G   UNL     1      54.744  54.228  54.438  1.00  0.00     0.000 G0
BRANCH  12  14
ATOM     14  C   UNL     1      55.302  56.413  53.190  1.00  0.00     0.018 C 
ATOM     15  C   UNL     1      56.122  56.493  51.890  1.00  0.00     0.010 C 
BRANCH  14  16
ATOM     16  C   UNL     1      54.494  57.727  53.370  1.00  0.00     0.002 C 
ATOM     17  C   UNL     1      53.031  57.640  52.928  1.00  0.00     0.004 C 
ENDBRANCH  14  16
ENDBRANCH  12  14
ENDBRANCH   9  12
ENDBRANCH   7   8
BRANCH   7  18
ATOM     18  C   UNL     1      54.490  53.939  48.885  1.00  0.00     0.073 C 
BRANCH  18  19
ATOM     19  C   UNL     1      53.761  54.943  48.031  1.00  0.00    -0.016 A 
ATOM     20  C   UNL     1      53.090  54.690  46.833  1.00  0.00     0.134 A 
ATOM     21  C   UNL     1      53.563  56.288  48.299  1.00  0.00     0.006 A 
ATOM     22  N   UNL     1      52.509  55.829  46.388  1.00  0.00    -0.191 N 
ATOM     23  C   UNL     1      52.808  56.791  47.274  1.00  0.00     0.087 A 
ATOM     24  C   UNL     1      53.943  57.081  49.388  1.00  0.00     0.011 A 
ATOM     25  C   UNL     1      52.386  58.121  47.257  1.00  0.00     0.030 A 
ATOM     26  C   UNL     1      53.553  58.430  49.385  1.00  0.00     0.001 A 
ATOM     27  C   UNL     1      52.781  58.950  48.323  1.00  0.00     0.002 A 
BRANCH  22  28
ATOM     28  O   UNL     1      51.644  55.988  45.329  1.00  0.00    -0.417 OA
ATOM     29  C   UNL     1      52.093  56.362  44.031  1.00  0.00     0.313 C 
ENDBRANCH  22  28
ENDBRANCH  18  19
ENDBRANCH   7  18
ENDBRANCH   4   7
ENDBRANCH   2   3
BRANCH   2  30
ATOM     30  N   UNL     1      54.343  49.745  52.552  1.00  0.00    -0.343 N 
ATOM     31  C   UNL     1      54.952  50.983  52.944  1.00  0.00     0.243 C 
ATOM     32  H   UNL     1      54.325  48.959  53.247  1.00  0.00     0.164 HD
ATOM     33  O   UNL     1      55.874  51.461  52.232  1.00  0.00    -0.273 OA
BRANCH  31  34
ATOM     34  C   UNL     1      54.434  51.750  54.139  1.00  0.00     0.174 C 
ATOM     35  N   UNL     1      55.304  52.900  54.441  1.00  0.00    -0.329 N 
ATOM     36  C   UNL     1      54.339  50.876  55.403  1.00  0.00     0.035 C 
ATOM     37  C   UNL     1      56.583  52.681  55.155  1.00  0.00     0.120 C 
ATOM     38  C   UNL     1      55.715  50.374  55.891  1.00  0.00     0.004 C 
ATOM     39  C   UNL     1      56.910  51.198  55.364  1.00  0.00     0.022 C 
BRANCH  35  40
ATOM     40  C   UNL     1      54.743  54.235  54.467  1.00  0.00     0.246 CG0
ATOM     41  O   UNL     1      54.505  54.759  55.586  1.00  0.00    -0.272 OA
ATOM     42  G   UNL     1      54.457  55.061  53.224  1.00  0.00     0.000 G0
ENDBRANCH  35  40
ENDBRANCH  31  34
ENDBRANCH   2  30
ENDBRANCH   1   2
BRANCH   1  43
ATOM     43  C   UNL     1      53.745  46.990  50.828  1.00  0.00     0.003 C 
BRANCH  43  44
ATOM     44  C   UNL     1      53.690  46.391  49.409  1.00  0.00     0.001 C 
BRANCH  44  45
ATOM     45  C   UNL     1      55.065  46.405  48.739  1.00  0.00     0.008 C 
BRANCH  45  46
ATOM     46  C   UNL     1      55.513  47.842  48.428  1.00  0.00     0.075 C 
BRANCH  46  47
ATOM     47  C   UNL     1      56.880  48.092  49.003  1.00  0.00     0.132 C 
ATOM     48  O   UNL     1      57.743  48.608  48.305  1.00  0.00    -0.300 OA
BRANCH  47  49
ATOM     49  C   UNL     1      57.152  47.756  50.447  1.00  0.00     0.072 C 
ATOM     50  C   UNL     1      58.224  46.668  50.599  1.00  0.00     0.012 C 
ENDBRANCH  47  49
ENDBRANCH  46  47
ENDBRANCH  45  46
ENDBRANCH  44  45
ENDBRANCH  43  44
ENDBRANCH   1  43
TORSDOF 12
ENDMDL
MODEL 7
REMARK VINA RESULT:    -3.915      2.562      7.308
REMARK INTER + INTRA:         -11.242
REMARK INTER:                  -8.394
REMARK INTRA:                  -2.848
REMARK UNBOUND:                -2.980
REMARK SMILES CCC(=O)CCCCC[C@@H]1NC(=O)[C@H]2CCCCN2C(=O)[C@@H]([C@@H](C)CC)NC(=O)[C@@H](Cc2cn(OC)c3ccccc23)NC1=O
REMARK SMILES IDX 9 1 10 2 44 3 43 4 45 6 30 7 28 8 27 9 29 11 22 12 23 14
REMARK SMILES IDX 24 15 25 16 26 17 31 18 32 19 33 20 42 21 34 22 37 23 41 24
REMARK SMILES IDX 38 25 40 26 39 27 35 28 36 29 11 30 12 31 13 33 14 34 19 35
REMARK SMILES IDX 15 36 18 37 16 38 17 39 20 40 21 41 8 43 7 44 6 45 5 46 3 47
REMARK SMILES IDX 4 48 2 49 1 50
REMARK H PARENT 43 5 27 10 11 32
REMARK Flexibility Score: 80.00
ROOT
ATOM      1  C   UNL     1      52.375  52.289  48.422  1.00  0.00     0.035 C 
ENDROOT
BRANCH   1   2
ATOM      2  C   UNL     1      53.432  51.892  49.475  1.00  0.00     0.171 C 
BRANCH   2   3
ATOM      3  C   UNL     1      53.258  52.655  50.756  1.00  0.00     0.243 C 
ATOM      4  N   UNL     1      54.422  53.065  51.489  1.00  0.00    -0.342 N 
ATOM      5  H   UNL     1      55.366  52.970  51.042  1.00  0.00     0.164 HD
ATOM      6  O   UNL     1      52.098  52.818  51.240  1.00  0.00    -0.273 OA
BRANCH   4   7
ATOM      7  C   UNL     1      54.359  53.536  52.875  1.00  0.00     0.175 C 
BRANCH   7   8
ATOM      8  C   UNL     1      54.553  52.401  53.854  1.00  0.00     0.243 C 
ATOM      9  N   UNL     1      55.447  51.300  53.594  1.00  0.00    -0.342 N 
ATOM     10  H   UNL     1      56.126  51.388  52.810  1.00  0.00     0.164 HD
ATOM     11  O   UNL     1      53.914  52.445  54.948  1.00  0.00    -0.273 OA
BRANCH   9  12
ATOM     12  C   UNL     1      55.629  50.201  54.550  1.00  0.00     0.174 CG0
ATOM     13  G   UNL     1      55.372  48.823  53.963  1.00  0.00     0.000 G0
BRANCH  12  14
ATOM     14  C   UNL     1      57.024  50.317  55.259  1.00  0.00     0.018 C 
ATOM     15  C   UNL     1      58.064  50.906  54.290  1.00  0.00     0.010 C 
BRANCH  14  16
ATOM     16  C   UNL     1      57.039  51.126  56.584  1.00  0.00     0.002 C 
ATOM     17  C   UNL     1      55.852  50.852  57.511  1.00  0.00     0.004 C 
ENDBRANCH  14  16
ENDBRANCH  12  14
ENDBRANCH   9  12
ENDBRANCH   7   8
BRANCH   7  18
ATOM     18  C   UNL     1      55.402  54.657  53.074  1.00  0.00     0.073 C 
BRANCH  18  19
ATOM     19  C   UNL     1      54.800  56.033  52.964  1.00  0.00    -0.016 A 
ATOM     20  C   UNL     1      54.625  56.777  51.795  1.00  0.00     0.134 A 
ATOM     21  C   UNL     1      54.251  56.795  53.982  1.00  0.00     0.006 A 
ATOM     22  N   UNL     1      53.998  57.942  52.086  1.00  0.00    -0.191 N 
ATOM     23  C   UNL     1      53.785  57.949  53.410  1.00  0.00     0.087 A 
ATOM     24  C   UNL     1      54.081  56.533  55.347  1.00  0.00     0.011 A 
ATOM     25  C   UNL     1      53.125  58.925  54.158  1.00  0.00     0.030 A 
ATOM     26  C   UNL     1      53.441  57.510  56.128  1.00  0.00     0.001 A 
ATOM     27  C   UNL     1      52.969  58.703  55.538  1.00  0.00     0.002 A 
BRANCH  22  28
ATOM     28  O   UNL     1      53.515  58.891  51.215  1.00  0.00    -0.417 OA
ATOM     29  C   UNL     1      52.380  58.655  50.388  1.00  0.00     0.313 C 
ENDBRANCH  22  28
ENDBRANCH  18  19
ENDBRANCH   7  18
ENDBRANCH   4   7
ENDBRANCH   2   3
BRANCH   2  30
ATOM     30  N   UNL     1      53.397  50.465  49.799  1.00  0.00    -0.343 N 
ATOM     31  C   UNL     1      54.375  49.924  50.696  1.00  0.00     0.243 C 
ATOM     32  H   UNL     1      52.754  49.800  49.305  1.00  0.00     0.164 HD
ATOM     33  O   UNL     1      55.588  50.216  50.523  1.00  0.00    -0.273 OA
BRANCH  31  34
ATOM     34  C   UNL     1      53.952  49.094  51.886  1.00  0.00     0.174 C 
ATOM     35  N   UNL     1      55.125  48.521  52.569  1.00  0.00    -0.329 N 
ATOM     36  C   UNL     1      53.014  47.938  51.493  1.00  0.00     0.035 C 
ATOM     37  C   UNL     1      55.794  47.330  51.997  1.00  0.00     0.120 C 
ATOM     38  C   UNL     1      53.694  46.898  50.577  1.00  0.00     0.004 C 
ATOM     39  C   UNL     1      55.237  46.926  50.627  1.00  0.00     0.022 C 
BRANCH  35  40
ATOM     40  C   UNL     1      55.343  48.800  53.974  1.00  0.00     0.246 CG0
ATOM     41  O   UNL     1      55.329  47.836  54.782  1.00  0.00    -0.272 OA
ATOM     42  G   UNL     1      55.626  50.186  54.530  1.00  0.00     0.000 G0
ENDBRANCH  35  40
ENDBRANCH  31  34
ENDBRANCH   2  30
ENDBRANCH   1   2
BRANCH   1  43
ATOM     43  C   UNL     1      52.815  53.390  47.444  1.00  0.00     0.003 C 
BRANCH  43  44
ATOM     44  C   UNL     1      54.277  53.271  46.973  1.00  0.00     0.001 C 
BRANCH  44  45
ATOM     45  C   UNL     1      54.770  54.572  46.336  1.00  0.00     0.008 C 
BRANCH  45  46
ATOM     46  C   UNL     1      54.236  55.796  47.096  1.00  0.00     0.075 C 
BRANCH  46  47
ATOM     47  C   UNL     1      53.677  56.802  46.128  1.00  0.00     0.132 C 
ATOM     48  O   UNL     1      53.761  57.996  46.382  1.00  0.00    -0.300 OA
BRANCH  47  49
ATOM     49  C   UNL     1      53.072  56.328  44.831  1.00  0.00     0.072 C 
ATOM     50  C   UNL     1      51.538  56.375  44.854  1.00  0.00     0.012 C 
ENDBRANCH  47  49
ENDBRANCH  46  47
ENDBRANCH  45  46
ENDBRANCH  44  45
ENDBRANCH  43  44
ENDBRANCH   1  43
TORSDOF 12
ENDMDL
MODEL 8
REMARK VINA RESULT:    -3.896      2.201      9.175
REMARK INTER + INTRA:         -11.203
REMARK INTER:                  -7.895
REMARK INTRA:                  -3.308
REMARK UNBOUND:                -2.980
REMARK SMILES CCC(=O)CCCCC[C@@H]1NC(=O)[C@H]2CCCCN2C(=O)[C@@H]([C@@H](C)CC)NC(=O)[C@@H](Cc2cn(OC)c3ccccc23)NC1=O
REMARK SMILES IDX 9 1 10 2 44 3 43 4 45 6 30 7 28 8 27 9 29 11 22 12 23 14
REMARK SMILES IDX 24 15 25 16 26 17 31 18 32 19 33 20 42 21 34 22 37 23 41 24
REMARK SMILES IDX 38 25 40 26 39 27 35 28 36 29 11 30 12 31 13 33 14 34 19 35
REMARK SMILES IDX 15 36 18 37 16 38 17 39 20 40 21 41 8 43 7 44 6 45 5 46 3 47
REMARK SMILES IDX 4 48 2 49 1 50
REMARK H PARENT 43 5 27 10 11 32
REMARK Flexibility Score: 80.00
ROOT
ATOM      1  C   UNL     1      52.626  53.199  47.827  1.00  0.00     0.035 C 
ENDROOT
BRANCH   1   2
ATOM      2  C   UNL     1      52.838  52.769  49.293  1.00  0.00     0.171 C 
BRANCH   2   3
ATOM      3  C   UNL     1      53.529  51.439  49.390  1.00  0.00     0.243 C 
ATOM      4  N   UNL     1      53.026  50.455  50.307  1.00  0.00    -0.342 N 
ATOM      5  H   UNL     1      52.098  50.616  50.770  1.00  0.00     0.164 HD
ATOM      6  O   UNL     1      54.613  51.245  48.764  1.00  0.00    -0.273 OA
BRANCH   4   7
ATOM      7  C   UNL     1      53.792  49.267  50.691  1.00  0.00     0.175 C 
BRANCH   7   8
ATOM      8  C   UNL     1      55.025  49.637  51.485  1.00  0.00     0.243 C 
ATOM      9  N   UNL     1      54.950  50.196  52.812  1.00  0.00    -0.342 N 
ATOM     10  H   UNL     1      54.041  50.155  53.316  1.00  0.00     0.164 HD
ATOM     11  O   UNL     1      56.156  49.422  50.957  1.00  0.00    -0.273 OA
BRANCH   9  12
ATOM     12  C   UNL     1      56.152  50.553  53.576  1.00  0.00     0.174 CG0
ATOM     13  G   UNL     1      56.476  52.038  53.558  1.00  0.00     0.000 G0
BRANCH  12  14
ATOM     14  C   UNL     1      56.077  49.956  55.025  1.00  0.00     0.018 C 
ATOM     15  C   UNL     1      54.628  49.570  55.366  1.00  0.00     0.010 C 
BRANCH  14  16
ATOM     16  C   UNL     1      57.011  48.746  55.303  1.00  0.00     0.002 C 
ATOM     17  C   UNL     1      58.147  48.574  54.291  1.00  0.00     0.004 C 
ENDBRANCH  14  16
ENDBRANCH  12  14
ENDBRANCH   9  12
ENDBRANCH   7   8
BRANCH   7  18
ATOM     18  C   UNL     1      52.871  48.303  51.469  1.00  0.00     0.073 C 
BRANCH  18  19
ATOM     19  C   UNL     1      53.178  46.855  51.186  1.00  0.00    -0.016 A 
ATOM     20  C   UNL     1      53.884  46.350  50.092  1.00  0.00     0.134 A 
ATOM     21  C   UNL     1      52.877  45.761  51.980  1.00  0.00     0.006 A 
ATOM     22  N   UNL     1      54.008  45.007  50.212  1.00  0.00    -0.191 N 
ATOM     23  C   UNL     1      53.389  44.658  51.349  1.00  0.00     0.087 A 
ATOM     24  C   UNL     1      52.245  45.666  53.225  1.00  0.00     0.011 A 
ATOM     25  C   UNL     1      53.300  43.384  51.911  1.00  0.00     0.030 A 
ATOM     26  C   UNL     1      52.119  44.391  53.802  1.00  0.00     0.001 A 
ATOM     27  C   UNL     1      52.640  43.254  53.147  1.00  0.00     0.002 A 
BRANCH  22  28
ATOM     28  O   UNL     1      54.746  44.145  49.432  1.00  0.00    -0.417 OA
ATOM     29  C   UNL     1      54.262  43.637  48.194  1.00  0.00     0.313 C 
ENDBRANCH  22  28
ENDBRANCH  18  19
ENDBRANCH   7  18
ENDBRANCH   4   7
ENDBRANCH   2   3
BRANCH   2  30
ATOM     30  N   UNL     1      53.627  53.736  50.057  1.00  0.00    -0.343 N 
ATOM     31  C   UNL     1      54.000  53.429  51.407  1.00  0.00     0.243 C 
ATOM     32  H   UNL     1      53.828  54.699  49.693  1.00  0.00     0.164 HD
ATOM     33  O   UNL     1      53.123  52.989  52.196  1.00  0.00    -0.273 OA
BRANCH  31  34
ATOM     34  C   UNL     1      55.440  53.543  51.851  1.00  0.00     0.174 C 
ATOM     35  N   UNL     1      55.592  53.113  53.252  1.00  0.00    -0.329 N 
ATOM     36  C   UNL     1      55.983  54.978  51.728  1.00  0.00     0.035 C 
ATOM     37  C   UNL     1      55.200  54.032  54.345  1.00  0.00     0.120 C 
ATOM     38  C   UNL     1      55.260  55.975  52.661  1.00  0.00     0.004 C 
ATOM     39  C   UNL     1      54.519  55.311  53.841  1.00  0.00     0.022 C 
BRANCH  35  40
ATOM     40  C   UNL     1      56.511  52.041  53.577  1.00  0.00     0.246 CG0
ATOM     41  O   UNL     1      57.684  52.345  53.916  1.00  0.00    -0.272 OA
ATOM     42  G   UNL     1      56.135  50.569  53.570  1.00  0.00     0.000 G0
ENDBRANCH  35  40
ENDBRANCH  31  34
ENDBRANCH   2  30
ENDBRANCH   1   2
BRANCH   1  43
ATOM     43  C   UNL     1      53.599  54.274  47.318  1.00  0.00     0.003 C 
BRANCH  43  44
ATOM     44  C   UNL     1      52.923  55.430  46.555  1.00  0.00     0.001 C 
BRANCH  44  45
ATOM     45  C   UNL     1      53.346  56.792  47.109  1.00  0.00     0.008 C 
BRANCH  45  46
ATOM     46  C   UNL     1      54.468  56.642  48.148  1.00  0.00     0.075 C 
BRANCH  46  47
ATOM     47  C   UNL     1      54.210  57.546  49.322  1.00  0.00     0.132 C 
ATOM     48  O   UNL     1      55.145  58.130  49.851  1.00  0.00    -0.300 OA
BRANCH  47  49
ATOM     49  C   UNL     1      52.795  57.764  49.794  1.00  0.00     0.072 C 
ATOM     50  C   UNL     1      52.735  58.233  51.254  1.00  0.00     0.012 C 
ENDBRANCH  47  49
ENDBRANCH  46  47
ENDBRANCH  45  46
ENDBRANCH  44  45
ENDBRANCH  43  44
ENDBRANCH   1  43
TORSDOF 12
ENDMDL
MODEL 9
REMARK VINA RESULT:    -3.707      2.341      3.055
REMARK INTER + INTRA:         -10.803
REMARK INTER:                  -7.768
REMARK INTRA:                  -3.035
REMARK UNBOUND:                -2.980
REMARK SMILES CCC(=O)CCCCC[C@@H]1NC(=O)[C@H]2CCCCN2C(=O)[C@@H]([C@@H](C)CC)NC(=O)[C@@H](Cc2cn(OC)c3ccccc23)NC1=O
REMARK SMILES IDX 9 1 10 2 44 3 43 4 45 6 30 7 28 8 27 9 29 11 22 12 23 14
REMARK SMILES IDX 24 15 25 16 26 17 31 18 32 19 33 20 42 21 34 22 37 23 41 24
REMARK SMILES IDX 38 25 40 26 39 27 35 28 36 29 11 30 12 31 13 33 14 34 19 35
REMARK SMILES IDX 15 36 18 37 16 38 17 39 20 40 21 41 8 43 7 44 6 45 5 46 3 47
REMARK SMILES IDX 4 48 2 49 1 50
REMARK H PARENT 43 5 27 10 11 32
REMARK Flexibility Score: 80.00
ROOT
ATOM      1  C   UNL     1      52.750  49.300  51.048  1.00  0.00     0.035 C 
ENDROOT
BRANCH   1   2
ATOM      2  C   UNL     1      53.741  50.351  50.504  1.00  0.00     0.171 C 
BRANCH   2   3
ATOM      3  C   UNL     1      53.052  51.635  50.145  1.00  0.00     0.243 C 
ATOM      4  N   UNL     1      53.477  52.354  48.977  1.00  0.00    -0.342 N 
ATOM      5  H   UNL     1      54.143  51.895  48.310  1.00  0.00     0.164 HD
ATOM      6  O   UNL     1      52.197  52.134  50.936  1.00  0.00    -0.273 OA
BRANCH   4   7
ATOM      7  C   UNL     1      53.085  53.741  48.715  1.00  0.00     0.175 C 
BRANCH   7   8
ATOM      8  C   UNL     1      53.945  54.715  49.490  1.00  0.00     0.243 C 
ATOM      9  N   UNL     1      55.383  54.739  49.371  1.00  0.00    -0.342 N 
ATOM     10  H   UNL     1      55.823  54.216  48.586  1.00  0.00     0.164 HD
ATOM     11  O   UNL     1      53.364  55.545  50.250  1.00  0.00    -0.273 OA
BRANCH   9  12
ATOM     12  C   UNL     1      56.211  55.687  50.126  1.00  0.00     0.174 CG0
ATOM     13  G   UNL     1      56.851  55.092  51.369  1.00  0.00     0.000 G0
BRANCH  12  14
ATOM     14  C   UNL     1      57.244  56.388  49.177  1.00  0.00     0.018 C 
ATOM     15  C   UNL     1      57.603  55.460  48.003  1.00  0.00     0.010 C 
BRANCH  14  16
ATOM     16  C   UNL     1      56.815  57.775  48.623  1.00  0.00     0.002 C 
ATOM     17  C   UNL     1      55.532  58.337  49.240  1.00  0.00     0.004 C 
ENDBRANCH  14  16
ENDBRANCH  12  14
ENDBRANCH   9  12
ENDBRANCH   7   8
BRANCH   7  18
ATOM     18  C   UNL     1      53.139  54.003  47.195  1.00  0.00     0.073 C 
BRANCH  18  19
ATOM     19  C   UNL     1      53.262  55.467  46.864  1.00  0.00    -0.016 A 
ATOM     20  C   UNL     1      52.478  56.506  47.370  1.00  0.00     0.134 A 
ATOM     21  C   UNL     1      54.208  56.069  46.051  1.00  0.00     0.006 A 
ATOM     22  N   UNL     1      52.924  57.690  46.886  1.00  0.00    -0.191 N 
ATOM     23  C   UNL     1      53.963  57.416  46.083  1.00  0.00     0.087 A 
ATOM     24  C   UNL     1      55.289  55.537  45.338  1.00  0.00     0.011 A 
ATOM     25  C   UNL     1      54.771  58.326  45.401  1.00  0.00     0.030 A 
ATOM     26  C   UNL     1      56.105  56.429  44.621  1.00  0.00     0.001 A 
ATOM     27  C   UNL     1      55.846  57.817  44.649  1.00  0.00     0.002 A 
BRANCH  22  28
ATOM     28  O   UNL     1      52.527  58.960  47.239  1.00  0.00    -0.417 OA
ATOM     29  C   UNL     1      52.096  59.283  48.556  1.00  0.00     0.313 C 
ENDBRANCH  22  28
ENDBRANCH  18  19
ENDBRANCH   7  18
ENDBRANCH   4   7
ENDBRANCH   2   3
BRANCH   2  30
ATOM     30  N   UNL     1      54.805  50.669  51.456  1.00  0.00    -0.343 N 
ATOM     31  C   UNL     1      55.767  51.679  51.125  1.00  0.00     0.243 C 
ATOM     32  H   UNL     1      54.962  50.100  52.324  1.00  0.00     0.164 HD
ATOM     33  O   UNL     1      56.308  51.655  49.988  1.00  0.00    -0.273 OA
BRANCH  31  34
ATOM     34  C   UNL     1      56.059  52.808  52.086  1.00  0.00     0.174 C 
ATOM     35  N   UNL     1      57.123  53.682  51.561  1.00  0.00    -0.329 N 
ATOM     36  C   UNL     1      56.493  52.303  53.474  1.00  0.00     0.035 C 
ATOM     37  C   UNL     1      58.537  53.252  51.663  1.00  0.00     0.120 C 
ATOM     38  C   UNL     1      57.830  51.531  53.440  1.00  0.00     0.004 C 
ATOM     39  C   UNL     1      58.695  51.822  52.194  1.00  0.00     0.022 C 
BRANCH  35  40
ATOM     40  C   UNL     1      56.866  55.095  51.379  1.00  0.00     0.246 CG0
ATOM     41  O   UNL     1      57.227  55.889  52.286  1.00  0.00    -0.272 OA
ATOM     42  G   UNL     1      56.217  55.687  50.139  1.00  0.00     0.000 G0
ENDBRANCH  35  40
ENDBRANCH  31  34
ENDBRANCH   2  30
ENDBRANCH   1   2
BRANCH   1  43
ATOM     43  C   UNL     1      53.314  47.875  51.165  1.00  0.00     0.003 C 
BRANCH  43  44
ATOM     44  C   UNL     1      53.154  47.245  52.562  1.00  0.00     0.001 C 
BRANCH  44  45
ATOM     45  C   UNL     1      52.375  45.929  52.499  1.00  0.00     0.008 C 
BRANCH  45  46
ATOM     46  C   UNL     1      52.354  45.368  51.069  1.00  0.00     0.075 C 
BRANCH  46  47
ATOM     47  C   UNL     1      53.289  44.196  50.959  1.00  0.00     0.132 C 
ATOM     48  O   UNL     1      53.455  43.655  49.875  1.00  0.00    -0.300 OA
BRANCH  47  49
ATOM     49  C   UNL     1      54.053  43.739  52.176  1.00  0.00     0.072 C 
ATOM     50  C   UNL     1      53.426  42.496  52.823  1.00  0.00     0.012 C 
ENDBRANCH  47  49
ENDBRANCH  46  47
ENDBRANCH  45  46
ENDBRANCH  44  45
ENDBRANCH  43  44
ENDBRANCH   1  43
TORSDOF 12
ENDMDL
