MODEL 1
REMARK VINA RESULT:    -6.313      0.000      0.000
REMARK INTER + INTRA:          -7.732
REMARK INTER:                  -7.420
REMARK INTRA:                  -0.312
REMARK UNBOUND:                -0.312
REMARK SMILES Oc1ccc(-c2[o+]c3cc(O)cc(O)c3cc2O)cc1
REMARK SMILES IDX 6 1 7 2 8 3 9 4 10 5 12 6 13 7 15 8 16 9 17 10 5 11 4 12
REMARK SMILES IDX 3 13 2 14 19 15 20 16 1 17 18 19 11 21 14 23
REMARK H PARENT 1 18 18 20 11 22 14 24
REMARK Flexibility Score: inf
ROOT
ATOM      1  C   UNL     1      -7.317  28.188  56.075  1.00  0.00     0.401 A 
ATOM      2  O   UNL     1      -6.306  28.510  56.877  1.00  0.00    -0.202 OA
ATOM      3  C   UNL     1      -6.319  29.572  57.676  1.00  0.00     0.368 A 
ATOM      4  C   UNL     1      -5.207  29.831  58.482  1.00  0.00     0.162 A 
ATOM      5  C   UNL     1      -5.191  30.939  59.328  1.00  0.00     0.128 A 
ATOM      6  C   UNL     1      -6.295  31.799  59.370  1.00  0.00     0.093 A 
ATOM      7  C   UNL     1      -7.422  31.562  58.573  1.00  0.00     0.136 A 
ATOM      8  C   UNL     1      -7.442  30.435  57.713  1.00  0.00     0.125 A 
ATOM      9  C   UNL     1      -8.533  30.111  56.888  1.00  0.00     0.078 A 
ATOM     10  C   UNL     1      -8.481  28.979  56.071  1.00  0.00     0.223 A 
ENDROOT
BRANCH   1  11
ATOM     11  C   UNL     1      -7.179  26.984  55.223  1.00  0.00     0.084 A 
ATOM     12  C   UNL     1      -7.667  25.731  55.639  1.00  0.00     0.022 A 
ATOM     13  C   UNL     1      -7.546  24.614  54.808  1.00  0.00     0.047 A 
ATOM     14  C   UNL     1      -6.949  24.736  53.546  1.00  0.00     0.115 A 
ATOM     15  C   UNL     1      -6.601  27.102  53.948  1.00  0.00     0.022 A 
ATOM     16  C   UNL     1      -6.481  25.983  53.119  1.00  0.00     0.047 A 
BRANCH  14  17
ATOM     17  O   UNL     1      -6.822  23.630  52.709  1.00  0.00    -0.508 OA
ATOM     18  H   UNL     1      -6.140  23.607  51.961  1.00  0.00     0.293 HD
ENDBRANCH  14  17
ENDBRANCH   1  11
BRANCH  10  19
ATOM     19  O   UNL     1      -9.583  28.630  55.289  1.00  0.00    -0.500 OA
ATOM     20  H   UNL     1      -9.799  29.116  54.427  1.00  0.00     0.294 HD
ENDBRANCH  10  19
BRANCH   5  21
ATOM     21  O   UNL     1      -4.073  31.180  60.124  1.00  0.00    -0.507 OA
ATOM     22  H   UNL     1      -3.235  31.605  59.746  1.00  0.00     0.293 HD
ENDBRANCH   5  21
BRANCH   7  23
ATOM     23  O   UNL     1      -8.481  32.469  58.670  1.00  0.00    -0.507 OA
ATOM     24  H   UNL     1      -8.459  33.315  59.221  1.00  0.00     0.293 HD
ENDBRANCH   7  23
TORSDOF 5
ENDMDL
MODEL 2
REMARK VINA RESULT:    -5.395      3.519      7.390
REMARK INTER + INTRA:          -6.653
REMARK INTER:                  -6.350
REMARK INTRA:                  -0.303
REMARK UNBOUND:                -0.312
REMARK SMILES Oc1ccc(-c2[o+]c3cc(O)cc(O)c3cc2O)cc1
REMARK SMILES IDX 6 1 7 2 8 3 9 4 10 5 12 6 13 7 15 8 16 9 17 10 5 11 4 12
REMARK SMILES IDX 3 13 2 14 19 15 20 16 1 17 18 19 11 21 14 23
REMARK H PARENT 1 18 18 20 11 22 14 24
REMARK Flexibility Score: inf
ROOT
ATOM      1  C   UNL     1      -9.910  32.293  58.341  1.00  0.00     0.401 A 
ATOM      2  O   UNL     1      -8.786  32.275  59.051  1.00  0.00    -0.202 OA
ATOM      3  C   UNL     1      -7.759  31.479  58.771  1.00  0.00     0.368 A 
ATOM      4  C   UNL     1      -6.619  31.529  59.577  1.00  0.00     0.162 A 
ATOM      5  C   UNL     1      -5.528  30.703  59.309  1.00  0.00     0.128 A 
ATOM      6  C   UNL     1      -5.574  29.817  58.226  1.00  0.00     0.093 A 
ATOM      7  C   UNL     1      -6.704  29.748  57.402  1.00  0.00     0.136 A 
ATOM      8  C   UNL     1      -7.815  30.588  57.671  1.00  0.00     0.125 A 
ATOM      9  C   UNL     1      -8.984  30.596  56.891  1.00  0.00     0.078 A 
ATOM     10  C   UNL     1     -10.036  31.458  57.216  1.00  0.00     0.223 A 
ENDROOT
BRANCH   1  11
ATOM     11  C   UNL     1     -10.988  33.220  58.759  1.00  0.00     0.084 A 
ATOM     12  C   UNL     1     -12.105  32.766  59.485  1.00  0.00     0.022 A 
ATOM     13  C   UNL     1     -13.097  33.663  59.890  1.00  0.00     0.047 A 
ATOM     14  C   UNL     1     -12.980  35.027  59.588  1.00  0.00     0.115 A 
ATOM     15  C   UNL     1     -10.868  34.591  58.480  1.00  0.00     0.022 A 
ATOM     16  C   UNL     1     -11.862  35.486  58.885  1.00  0.00     0.047 A 
BRANCH  14  17
ATOM     17  O   UNL     1     -13.963  35.930  59.985  1.00  0.00    -0.508 OA
ATOM     18  H   UNL     1     -14.093  36.176  60.959  1.00  0.00     0.293 HD
ENDBRANCH  14  17
ENDBRANCH   1  11
BRANCH  10  19
ATOM     19  O   UNL     1     -11.177  31.501  56.413  1.00  0.00    -0.500 OA
ATOM     20  H   UNL     1     -12.051  31.081  56.706  1.00  0.00     0.294 HD
ENDBRANCH  10  19
BRANCH   5  21
ATOM     21  O   UNL     1      -4.400  30.768  60.125  1.00  0.00    -0.507 OA
ATOM     22  H   UNL     1      -4.464  31.054  61.095  1.00  0.00     0.293 HD
ENDBRANCH   5  21
BRANCH   7  23
ATOM     23  O   UNL     1      -6.674  28.836  56.343  1.00  0.00    -0.507 OA
ATOM     24  H   UNL     1      -7.479  28.570  55.796  1.00  0.00     0.293 HD
ENDBRANCH   7  23
TORSDOF 5
ENDMDL
MODEL 3
REMARK VINA RESULT:    -5.223      3.848      6.406
REMARK INTER + INTRA:          -6.451
REMARK INTER:                  -6.146
REMARK INTRA:                  -0.305
REMARK UNBOUND:                -0.312
REMARK SMILES Oc1ccc(-c2[o+]c3cc(O)cc(O)c3cc2O)cc1
REMARK SMILES IDX 6 1 7 2 8 3 9 4 10 5 12 6 13 7 15 8 16 9 17 10 5 11 4 12
REMARK SMILES IDX 3 13 2 14 19 15 20 16 1 17 18 19 11 21 14 23
REMARK H PARENT 1 18 18 20 11 22 14 24
REMARK Flexibility Score: inf
ROOT
ATOM      1  C   UNL     1      -8.346  32.858  57.881  1.00  0.00     0.401 A 
ATOM      2  O   UNL     1      -7.899  33.894  57.176  1.00  0.00    -0.202 OA
ATOM      3  C   UNL     1      -8.624  34.981  56.937  1.00  0.00     0.368 A 
ATOM      4  C   UNL     1      -8.069  36.017  56.182  1.00  0.00     0.162 A 
ATOM      5  C   UNL     1      -8.808  37.169  55.912  1.00  0.00     0.128 A 
ATOM      6  C   UNL     1     -10.116  37.288  56.400  1.00  0.00     0.093 A 
ATOM      7  C   UNL     1     -10.695  36.264  57.159  1.00  0.00     0.136 A 
ATOM      8  C   UNL     1      -9.946  35.092  57.436  1.00  0.00     0.125 A 
ATOM      9  C   UNL     1     -10.440  34.021  58.199  1.00  0.00     0.078 A 
ATOM     10  C   UNL     1      -9.638  32.900  58.435  1.00  0.00     0.223 A 
ENDROOT
BRANCH   1  11
ATOM     11  C   UNL     1      -7.444  31.699  58.071  1.00  0.00     0.084 A 
ATOM     12  C   UNL     1      -7.575  30.533  57.294  1.00  0.00     0.022 A 
ATOM     13  C   UNL     1      -6.696  29.461  57.476  1.00  0.00     0.047 A 
ATOM     14  C   UNL     1      -5.668  29.545  58.424  1.00  0.00     0.115 A 
ATOM     15  C   UNL     1      -6.397  31.783  59.004  1.00  0.00     0.022 A 
ATOM     16  C   UNL     1      -5.520  30.709  59.184  1.00  0.00     0.047 A 
BRANCH  14  17
ATOM     17  O   UNL     1      -4.787  28.482  58.614  1.00  0.00    -0.508 OA
ATOM     18  H   UNL     1      -4.514  28.180  59.541  1.00  0.00     0.293 HD
ENDBRANCH  14  17
ENDBRANCH   1  11
BRANCH  10  19
ATOM     19  O   UNL     1     -10.111  31.858  59.234  1.00  0.00    -0.500 OA
ATOM     20  H   UNL     1     -11.100  31.735  59.419  1.00  0.00     0.294 HD
ENDBRANCH  10  19
BRANCH   5  21
ATOM     21  O   UNL     1      -8.237  38.192  55.158  1.00  0.00    -0.507 OA
ATOM     22  H   UNL     1      -8.633  39.124  55.144  1.00  0.00     0.293 HD
ENDBRANCH   5  21
BRANCH   7  23
ATOM     23  O   UNL     1     -12.006  36.457  57.605  1.00  0.00    -0.507 OA
ATOM     24  H   UNL     1     -12.673  35.714  57.754  1.00  0.00     0.293 HD
ENDBRANCH   7  23
TORSDOF 5
ENDMDL
MODEL 4
REMARK VINA RESULT:    -5.214      3.707      6.536
REMARK INTER + INTRA:          -6.440
REMARK INTER:                  -6.118
REMARK INTRA:                  -0.322
REMARK UNBOUND:                -0.312
REMARK SMILES Oc1ccc(-c2[o+]c3cc(O)cc(O)c3cc2O)cc1
REMARK SMILES IDX 6 1 7 2 8 3 9 4 10 5 12 6 13 7 15 8 16 9 17 10 5 11 4 12
REMARK SMILES IDX 3 13 2 14 19 15 20 16 1 17 18 19 11 21 14 23
REMARK H PARENT 1 18 18 20 11 22 14 24
REMARK Flexibility Score: inf
ROOT
ATOM      1  C   UNL     1      -8.484  32.683  57.992  1.00  0.00     0.401 A 
ATOM      2  O   UNL     1      -9.615  32.570  58.685  1.00  0.00    -0.202 OA
ATOM      3  C   UNL     1     -10.598  33.461  58.625  1.00  0.00     0.368 A 
ATOM      4  C   UNL     1     -11.748  33.259  59.393  1.00  0.00     0.162 A 
ATOM      5  C   UNL     1     -12.796  34.179  59.352  1.00  0.00     0.128 A 
ATOM      6  C   UNL     1     -12.695  35.314  58.539  1.00  0.00     0.093 A 
ATOM      7  C   UNL     1     -11.553  35.540  57.759  1.00  0.00     0.136 A 
ATOM      8  C   UNL     1     -10.487  34.606  57.797  1.00  0.00     0.125 A 
ATOM      9  C   UNL     1      -9.311  34.743  57.040  1.00  0.00     0.078 A 
ATOM     10  C   UNL     1      -8.306  33.776  57.126  1.00  0.00     0.223 A 
ENDROOT
BRANCH   1  11
ATOM     11  C   UNL     1      -7.458  31.627  58.152  1.00  0.00     0.084 A 
ATOM     12  C   UNL     1      -6.399  31.765  59.069  1.00  0.00     0.022 A 
ATOM     13  C   UNL     1      -5.456  30.745  59.219  1.00  0.00     0.047 A 
ATOM     14  C   UNL     1      -5.565  29.568  58.466  1.00  0.00     0.115 A 
ATOM     15  C   UNL     1      -7.571  30.435  57.417  1.00  0.00     0.022 A 
ATOM     16  C   UNL     1      -6.627  29.417  57.568  1.00  0.00     0.047 A 
BRANCH  14  17
ATOM     17  O   UNL     1      -4.630  28.545  58.606  1.00  0.00    -0.508 OA
ATOM     18  H   UNL     1      -4.643  27.923  59.405  1.00  0.00     0.293 HD
ENDBRANCH  14  17
ENDBRANCH   1  11
BRANCH  10  19
ATOM     19  O   UNL     1      -7.160  33.888  56.337  1.00  0.00    -0.500 OA
ATOM     20  H   UNL     1      -7.190  33.758  55.333  1.00  0.00     0.294 HD
ENDBRANCH  10  19
BRANCH   5  21
ATOM     21  O   UNL     1     -13.934  33.959  60.125  1.00  0.00    -0.507 OA
ATOM     22  H   UNL     1     -14.825  34.378  59.886  1.00  0.00     0.293 HD
ENDBRANCH   5  21
BRANCH   7  23
ATOM     23  O   UNL     1     -11.528  36.698  56.977  1.00  0.00    -0.507 OA
ATOM     24  H   UNL     1     -10.812  37.407  57.030  1.00  0.00     0.293 HD
ENDBRANCH   7  23
TORSDOF 5
ENDMDL
MODEL 5
REMARK VINA RESULT:    -5.165     10.133     11.714
REMARK INTER + INTRA:          -6.383
REMARK INTER:                  -6.070
REMARK INTRA:                  -0.313
REMARK UNBOUND:                -0.312
REMARK SMILES Oc1ccc(-c2[o+]c3cc(O)cc(O)c3cc2O)cc1
REMARK SMILES IDX 6 1 7 2 8 3 9 4 10 5 12 6 13 7 15 8 16 9 17 10 5 11 4 12
REMARK SMILES IDX 3 13 2 14 19 15 20 16 1 17 18 19 11 21 14 23
REMARK H PARENT 1 18 18 20 11 22 14 24
REMARK Flexibility Score: inf
ROOT
ATOM      1  C   UNL     1       3.799  29.799  53.646  1.00  0.00     0.401 A 
ATOM      2  O   UNL     1       2.525  29.832  54.028  1.00  0.00    -0.202 OA
ATOM      3  C   UNL     1       2.095  29.324  55.178  1.00  0.00     0.368 A 
ATOM      4  C   UNL     1       0.736  29.404  55.491  1.00  0.00     0.162 A 
ATOM      5  C   UNL     1       0.255  28.877  56.690  1.00  0.00     0.128 A 
ATOM      6  C   UNL     1       1.140  28.263  57.586  1.00  0.00     0.093 A 
ATOM      7  C   UNL     1       2.507  28.172  57.296  1.00  0.00     0.136 A 
ATOM      8  C   UNL     1       2.999  28.708  56.078  1.00  0.00     0.125 A 
ATOM      9  C   UNL     1       4.355  28.673  55.710  1.00  0.00     0.078 A 
ATOM     10  C   UNL     1       4.765  29.228  54.495  1.00  0.00     0.223 A 
ENDROOT
BRANCH   1  11
ATOM     11  C   UNL     1       4.152  30.391  52.335  1.00  0.00     0.084 A 
ATOM     12  C   UNL     1       4.441  31.762  52.202  1.00  0.00     0.022 A 
ATOM     13  C   UNL     1       4.795  32.293  50.959  1.00  0.00     0.047 A 
ATOM     14  C   UNL     1       4.879  31.460  49.835  1.00  0.00     0.115 A 
ATOM     15  C   UNL     1       4.260  29.560  51.208  1.00  0.00     0.022 A 
ATOM     16  C   UNL     1       4.613  30.093  49.965  1.00  0.00     0.047 A 
BRANCH  14  17
ATOM     17  O   UNL     1       5.230  31.978  48.591  1.00  0.00    -0.508 OA
ATOM     18  H   UNL     1       4.655  31.823  47.771  1.00  0.00     0.293 HD
ENDBRANCH  14  17
ENDBRANCH   1  11
BRANCH  10  19
ATOM     19  O   UNL     1       6.118  29.238  54.152  1.00  0.00    -0.500 OA
ATOM     20  H   UNL     1       6.540  28.478  53.632  1.00  0.00     0.294 HD
ENDBRANCH  10  19
BRANCH   5  21
ATOM     21  O   UNL     1      -1.104  28.966  56.984  1.00  0.00    -0.507 OA
ATOM     22  H   UNL     1      -1.447  28.881  57.934  1.00  0.00     0.293 HD
ENDBRANCH   5  21
BRANCH   7  23
ATOM     23  O   UNL     1       3.324  27.542  58.239  1.00  0.00    -0.507 OA
ATOM     24  H   UNL     1       3.541  26.556  58.238  1.00  0.00     0.293 HD
ENDBRANCH   7  23
TORSDOF 5
ENDMDL
MODEL 6
REMARK VINA RESULT:    -5.130     11.720     13.663
REMARK INTER + INTRA:          -6.341
REMARK INTER:                  -6.188
REMARK INTRA:                  -0.153
REMARK UNBOUND:                -0.312
REMARK SMILES Oc1ccc(-c2[o+]c3cc(O)cc(O)c3cc2O)cc1
REMARK SMILES IDX 6 1 7 2 8 3 9 4 10 5 12 6 13 7 15 8 16 9 17 10 5 11 4 12
REMARK SMILES IDX 3 13 2 14 19 15 20 16 1 17 18 19 11 21 14 23
REMARK H PARENT 1 18 18 20 11 22 14 24
REMARK Flexibility Score: inf
ROOT
ATOM      1  C   UNL     1       4.166  29.731  52.050  1.00  0.00     0.401 A 
ATOM      2  O   UNL     1       4.205  28.763  51.138  1.00  0.00    -0.202 OA
ATOM      3  C   UNL     1       3.880  28.949  49.863  1.00  0.00     0.368 A 
ATOM      4  C   UNL     1       3.949  27.870  48.978  1.00  0.00     0.162 A 
ATOM      5  C   UNL     1       3.611  28.034  47.635  1.00  0.00     0.128 A 
ATOM      6  C   UNL     1       3.199  29.289  47.169  1.00  0.00     0.093 A 
ATOM      7  C   UNL     1       3.122  30.387  48.035  1.00  0.00     0.136 A 
ATOM      8  C   UNL     1       3.466  30.223  49.401  1.00  0.00     0.125 A 
ATOM      9  C   UNL     1       3.432  31.270  50.338  1.00  0.00     0.078 A 
ATOM     10  C   UNL     1       3.791  31.032  51.668  1.00  0.00     0.223 A 
ENDROOT
BRANCH   1  11
ATOM     11  C   UNL     1       4.543  29.395  53.443  1.00  0.00     0.084 A 
ATOM     12  C   UNL     1       3.796  28.477  54.204  1.00  0.00     0.022 A 
ATOM     13  C   UNL     1       4.185  28.159  55.508  1.00  0.00     0.047 A 
ATOM     14  C   UNL     1       5.332  28.742  56.063  1.00  0.00     0.115 A 
ATOM     15  C   UNL     1       5.703  29.958  53.999  1.00  0.00     0.022 A 
ATOM     16  C   UNL     1       6.089  29.639  55.304  1.00  0.00     0.047 A 
BRANCH  14  17
ATOM     17  O   UNL     1       5.729  28.433  57.362  1.00  0.00    -0.508 OA
ATOM     18  H   UNL     1       5.759  27.476  57.693  1.00  0.00     0.293 HD
ENDBRANCH  14  17
ENDBRANCH   1  11
BRANCH  10  19
ATOM     19  O   UNL     1       3.804  32.082  52.587  1.00  0.00    -0.500 OA
ATOM     20  H   UNL     1       4.585  32.724  52.651  1.00  0.00     0.294 HD
ENDBRANCH  10  19
BRANCH   5  21
ATOM     21  O   UNL     1       3.687  26.946  46.769  1.00  0.00    -0.507 OA
ATOM     22  H   UNL     1       3.088  26.874  45.954  1.00  0.00     0.293 HD
ENDBRANCH   5  21
BRANCH   7  23
ATOM     23  O   UNL     1       2.699  31.604  47.494  1.00  0.00    -0.507 OA
ATOM     24  H   UNL     1       2.285  32.353  48.029  1.00  0.00     0.293 HD
ENDBRANCH   7  23
TORSDOF 5
ENDMDL
MODEL 7
REMARK VINA RESULT:    -5.038      1.465      3.232
REMARK INTER + INTRA:          -6.233
REMARK INTER:                  -5.916
REMARK INTRA:                  -0.317
REMARK UNBOUND:                -0.312
REMARK SMILES Oc1ccc(-c2[o+]c3cc(O)cc(O)c3cc2O)cc1
REMARK SMILES IDX 6 1 7 2 8 3 9 4 10 5 12 6 13 7 15 8 16 9 17 10 5 11 4 12
REMARK SMILES IDX 3 13 2 14 19 15 20 16 1 17 18 19 11 21 14 23
REMARK H PARENT 1 18 18 20 11 22 14 24
REMARK Flexibility Score: inf
ROOT
ATOM      1  C   UNL     1      -7.624  28.219  55.846  1.00  0.00     0.401 A 
ATOM      2  O   UNL     1      -8.795  28.836  55.715  1.00  0.00    -0.202 OA
ATOM      3  C   UNL     1      -9.138  29.908  56.422  1.00  0.00     0.368 A 
ATOM      4  C   UNL     1     -10.394  30.484  56.218  1.00  0.00     0.162 A 
ATOM      5  C   UNL     1     -10.782  31.608  56.947  1.00  0.00     0.128 A 
ATOM      6  C   UNL     1      -9.909  32.162  57.891  1.00  0.00     0.093 A 
ATOM      7  C   UNL     1      -8.644  31.603  58.115  1.00  0.00     0.136 A 
ATOM      8  C   UNL     1      -8.246  30.461  57.373  1.00  0.00     0.125 A 
ATOM      9  C   UNL     1      -6.993  29.842  57.521  1.00  0.00     0.078 A 
ATOM     10  C   UNL     1      -6.670  28.722  56.750  1.00  0.00     0.223 A 
ENDROOT
BRANCH   1  11
ATOM     11  C   UNL     1      -7.363  27.026  55.007  1.00  0.00     0.084 A 
ATOM     12  C   UNL     1      -7.752  25.739  55.421  1.00  0.00     0.022 A 
ATOM     13  C   UNL     1      -7.517  24.632  54.601  1.00  0.00     0.047 A 
ATOM     14  C   UNL     1      -6.903  24.797  53.352  1.00  0.00     0.115 A 
ATOM     15  C   UNL     1      -6.768  27.186  53.744  1.00  0.00     0.022 A 
ATOM     16  C   UNL     1      -6.533  26.077  52.927  1.00  0.00     0.047 A 
BRANCH  14  17
ATOM     17  O   UNL     1      -6.663  23.701  52.528  1.00  0.00    -0.508 OA
ATOM     18  H   UNL     1      -5.879  23.682  51.887  1.00  0.00     0.293 HD
ENDBRANCH  14  17
ENDBRANCH   1  11
BRANCH  10  19
ATOM     19  O   UNL     1      -5.408  28.137  56.861  1.00  0.00    -0.500 OA
ATOM     20  H   UNL     1      -4.651  28.595  57.355  1.00  0.00     0.294 HD
ENDBRANCH  10  19
BRANCH   5  21
ATOM     21  O   UNL     1     -12.039  32.169  56.729  1.00  0.00    -0.507 OA
ATOM     22  H   UNL     1     -12.749  31.685  56.192  1.00  0.00     0.293 HD
ENDBRANCH   5  21
BRANCH   7  23
ATOM     23  O   UNL     1      -7.833  32.212  59.076  1.00  0.00    -0.507 OA
ATOM     24  H   UNL     1      -7.563  33.184  59.062  1.00  0.00     0.293 HD
ENDBRANCH   7  23
TORSDOF 5
ENDMDL
MODEL 8
REMARK VINA RESULT:    -4.939      1.618      6.738
REMARK INTER + INTRA:          -6.117
REMARK INTER:                  -6.263
REMARK INTRA:                   0.147
REMARK UNBOUND:                -0.312
REMARK SMILES Oc1ccc(-c2[o+]c3cc(O)cc(O)c3cc2O)cc1
REMARK SMILES IDX 6 1 7 2 8 3 9 4 10 5 12 6 13 7 15 8 16 9 17 10 5 11 4 12
REMARK SMILES IDX 3 13 2 14 19 15 20 16 1 17 18 19 11 21 14 23
REMARK H PARENT 1 18 18 20 11 22 14 24
REMARK Flexibility Score: inf
ROOT
ATOM      1  C   UNL     1      -7.868  28.229  56.182  1.00  0.00     0.401 A 
ATOM      2  O   UNL     1      -7.161  27.341  55.487  1.00  0.00    -0.202 OA
ATOM      3  C   UNL     1      -7.714  26.429  54.695  1.00  0.00     0.368 A 
ATOM      4  C   UNL     1      -6.889  25.535  54.007  1.00  0.00     0.162 A 
ATOM      5  C   UNL     1      -7.440  24.565  53.170  1.00  0.00     0.128 A 
ATOM      6  C   UNL     1      -8.830  24.485  53.018  1.00  0.00     0.093 A 
ATOM      7  C   UNL     1      -9.679  25.369  53.696  1.00  0.00     0.136 A 
ATOM      8  C   UNL     1      -9.121  26.358  54.546  1.00  0.00     0.125 A 
ATOM      9  C   UNL     1      -9.893  27.294  55.254  1.00  0.00     0.078 A 
ATOM     10  C   UNL     1      -9.270  28.243  56.070  1.00  0.00     0.223 A 
ENDROOT
BRANCH   1  11
ATOM     11  C   UNL     1      -7.136  29.190  57.039  1.00  0.00     0.084 A 
ATOM     12  C   UNL     1      -7.529  30.538  57.132  1.00  0.00     0.022 A 
ATOM     13  C   UNL     1      -6.837  31.420  57.967  1.00  0.00     0.047 A 
ATOM     14  C   UNL     1      -5.753  30.964  58.729  1.00  0.00     0.115 A 
ATOM     15  C   UNL     1      -6.062  28.737  57.824  1.00  0.00     0.022 A 
ATOM     16  C   UNL     1      -5.371  29.621  58.657  1.00  0.00     0.047 A 
BRANCH  14  17
ATOM     17  O   UNL     1      -5.055  31.835  59.563  1.00  0.00    -0.508 OA
ATOM     18  H   UNL     1      -5.537  32.500  60.156  1.00  0.00     0.293 HD
ENDBRANCH  14  17
ENDBRANCH   1  11
BRANCH  10  19
ATOM     19  O   UNL     1     -10.035  29.203  56.734  1.00  0.00    -0.500 OA
ATOM     20  H   UNL     1      -9.832  30.193  56.655  1.00  0.00     0.294 HD
ENDBRANCH  10  19
BRANCH   5  21
ATOM     21  O   UNL     1      -6.601  23.684  52.493  1.00  0.00    -0.507 OA
ATOM     22  H   UNL     1      -5.756  24.004  52.034  1.00  0.00     0.293 HD
ENDBRANCH   5  21
BRANCH   7  23
ATOM     23  O   UNL     1     -11.054  25.222  53.494  1.00  0.00    -0.507 OA
ATOM     24  H   UNL     1     -11.609  25.811  52.891  1.00  0.00     0.293 HD
ENDBRANCH   7  23
TORSDOF 5
ENDMDL
MODEL 9
REMARK VINA RESULT:    -4.926     12.589     14.885
REMARK INTER + INTRA:          -6.102
REMARK INTER:                  -5.855
REMARK INTRA:                  -0.247
REMARK UNBOUND:                -0.312
REMARK SMILES Oc1ccc(-c2[o+]c3cc(O)cc(O)c3cc2O)cc1
REMARK SMILES IDX 6 1 7 2 8 3 9 4 10 5 12 6 13 7 15 8 16 9 17 10 5 11 4 12
REMARK SMILES IDX 3 13 2 14 19 15 20 16 1 17 18 19 11 21 14 23
REMARK H PARENT 1 18 18 20 11 22 14 24
REMARK Flexibility Score: inf
ROOT
ATOM      1  C   UNL     1      -7.654  35.016  44.743  1.00  0.00     0.401 A 
ATOM      2  O   UNL     1      -8.120  34.209  43.794  1.00  0.00    -0.202 OA
ATOM      3  C   UNL     1      -8.579  32.986  44.037  1.00  0.00     0.368 A 
ATOM      4  C   UNL     1      -9.046  32.210  42.973  1.00  0.00     0.162 A 
ATOM      5  C   UNL     1      -9.531  30.921  43.198  1.00  0.00     0.128 A 
ATOM      6  C   UNL     1      -9.549  30.401  44.498  1.00  0.00     0.093 A 
ATOM      7  C   UNL     1      -9.088  31.158  45.582  1.00  0.00     0.136 A 
ATOM      8  C   UNL     1      -8.595  32.470  45.356  1.00  0.00     0.125 A 
ATOM      9  C   UNL     1      -8.125  33.306  46.383  1.00  0.00     0.078 A 
ATOM     10  C   UNL     1      -7.660  34.589  46.083  1.00  0.00     0.223 A 
ENDROOT
BRANCH   1  11
ATOM     11  C   UNL     1      -7.160  36.354  44.343  1.00  0.00     0.084 A 
ATOM     12  C   UNL     1      -7.902  37.520  44.610  1.00  0.00     0.022 A 
ATOM     13  C   UNL     1      -7.404  38.774  44.244  1.00  0.00     0.047 A 
ATOM     14  C   UNL     1      -6.153  38.881  43.621  1.00  0.00     0.115 A 
ATOM     15  C   UNL     1      -5.898  36.473  43.738  1.00  0.00     0.022 A 
ATOM     16  C   UNL     1      -5.402  37.728  43.373  1.00  0.00     0.047 A 
BRANCH  14  17
ATOM     17  O   UNL     1      -5.648  40.125  43.252  1.00  0.00    -0.508 OA
ATOM     18  H   UNL     1      -5.970  40.979  43.691  1.00  0.00     0.293 HD
ENDBRANCH  14  17
ENDBRANCH   1  11
BRANCH  10  19
ATOM     19  O   UNL     1      -7.239  35.437  47.109  1.00  0.00    -0.500 OA
ATOM     20  H   UNL     1      -6.352  35.926  47.066  1.00  0.00     0.294 HD
ENDBRANCH  10  19
BRANCH   5  21
ATOM     21  O   UNL     1      -9.992  30.163  42.124  1.00  0.00    -0.507 OA
ATOM     22  H   UNL     1     -10.939  29.803  42.098  1.00  0.00     0.293 HD
ENDBRANCH   5  21
BRANCH   7  23
ATOM     23  O   UNL     1      -9.136  30.567  46.847  1.00  0.00    -0.507 OA
ATOM     24  H   UNL     1      -8.813  31.008  47.695  1.00  0.00     0.293 HD
ENDBRANCH   7  23
TORSDOF 5
ENDMDL
