MODEL 1
REMARK VINA RESULT:    -5.885      0.000      0.000
REMARK INTER + INTRA:          -9.987
REMARK INTER:                  -8.121
REMARK INTRA:                  -1.866
REMARK UNBOUND:                -1.866
REMARK SMILES CC[C@@H](CC[C@H](C)[C@H]1CC[C@H]2[C@H]3CC=C4C[C@H](O)CC[C@@]4(C)[C@@H]3CC[C@]12C)C(C)C
REMARK SMILES IDX 5 1 4 2 3 3 2 4 1 5 28 6 29 7 30 8 6 9 7 10 8 11 9 12 26 13
REMARK SMILES IDX 10 14 11 15 25 16 27 17 12 18 24 19 23 20 13 21 21 22 14 23
REMARK SMILES IDX 15 24 20 25 22 26 16 27 19 28 17 29 18 30
REMARK H PARENT 18 31
REMARK Flexibility Score: inf
ROOT
ATOM      1  C   UNL     1      -4.923  -4.924  33.264  1.00  0.00     0.004 C 
ENDROOT
BRANCH   1   2
ATOM      2  C   UNL     1      -3.368  -5.020  33.319  1.00  0.00     0.004 C 
BRANCH   2   3
ATOM      3  C   UNL     1      -2.635  -5.906  32.259  1.00  0.00    -0.009 C 
BRANCH   3   4
ATOM      4  C   UNL     1      -3.687  -6.408  31.216  1.00  0.00     0.000 C 
ATOM      5  C   UNL     1      -3.258  -6.230  29.754  1.00  0.00     0.004 C 
ENDBRANCH   3   4
BRANCH   3   6
ATOM      6  C   UNL     1      -1.783  -7.099  32.812  1.00  0.00    -0.014 C 
ATOM      7  C   UNL     1      -0.465  -7.396  32.074  1.00  0.00     0.007 C 
ATOM      8  C   UNL     1      -2.628  -8.396  32.860  1.00  0.00     0.007 C 
ENDBRANCH   3   6
ENDBRANCH   2   3
ENDBRANCH   1   2
BRANCH   1   9
ATOM      9  C   UNL     1      -5.677  -6.024  34.040  1.00  0.00    -0.011 C 
ATOM     10  C   UNL     1      -7.220  -5.997  33.798  1.00  0.00     0.008 C 
BRANCH   9  11
ATOM     11  C   UNL     1      -5.432  -5.992  35.595  1.00  0.00    -0.002 C 
ATOM     12  C   UNL     1      -6.787  -6.055  36.365  1.00  0.00     0.005 C 
ATOM     13  C   UNL     1      -4.581  -7.116  36.304  1.00  0.00    -0.026 C 
ATOM     14  C   UNL     1      -6.572  -6.887  37.634  1.00  0.00     0.005 C 
ATOM     15  C   UNL     1      -5.047  -6.911  37.745  1.00  0.00    -0.001 C 
ATOM     16  C   UNL     1      -3.046  -6.857  36.329  1.00  0.00     0.007 C 
ATOM     17  C   UNL     1      -4.941  -8.543  35.739  1.00  0.00     0.012 C 
ATOM     18  C   UNL     1      -4.340  -7.760  38.857  1.00  0.00     0.000 C 
ATOM     19  C   UNL     1      -2.309  -7.948  37.141  1.00  0.00     0.005 C 
ATOM     20  C   UNL     1      -3.096  -8.553  38.345  1.00  0.00     0.003 C 
ATOM     21  C   UNL     1      -5.238  -8.746  39.581  1.00  0.00     0.031 C 
ATOM     22  C   UNL     1      -2.214  -9.017  39.548  1.00  0.00    -0.008 C 
ATOM     23  C   UNL     1      -4.474  -9.515  40.630  1.00  0.00    -0.027 C 
ATOM     24  C   UNL     1      -3.129  -9.601  40.668  1.00  0.00    -0.065 C 
ATOM     25  C   UNL     1      -1.237 -10.140  39.081  1.00  0.00     0.014 C 
ATOM     26  C   UNL     1      -1.387  -7.846  40.154  1.00  0.00     0.016 C 
ATOM     27  C   UNL     1      -2.470 -10.407  41.761  1.00  0.00     0.063 C 
ATOM     28  C   UNL     1      -0.511 -10.847  40.244  1.00  0.00     0.033 C 
ATOM     29  C   UNL     1      -1.550 -11.472  41.174  1.00  0.00     0.118 C 
BRANCH  29  30
ATOM     30  O   UNL     1      -0.894 -12.155  42.239  1.00  0.00    -0.393 OA
ATOM     31  H   UNL     1      -1.054 -11.584  43.056  1.00  0.00     0.210 HD
ENDBRANCH  29  30
ENDBRANCH   9  11
ENDBRANCH   1   9
TORSDOF 7
ENDMDL
MODEL 2
REMARK VINA RESULT:    -5.666      3.075      8.243
REMARK INTER + INTRA:          -9.685
REMARK INTER:                  -7.427
REMARK INTRA:                  -2.259
REMARK UNBOUND:                -1.866
REMARK SMILES CC[C@@H](CC[C@H](C)[C@H]1CC[C@H]2[C@H]3CC=C4C[C@H](O)CC[C@@]4(C)[C@@H]3CC[C@]12C)C(C)C
REMARK SMILES IDX 5 1 4 2 3 3 2 4 1 5 28 6 29 7 30 8 6 9 7 10 8 11 9 12 26 13
REMARK SMILES IDX 10 14 11 15 25 16 27 17 12 18 24 19 23 20 13 21 21 22 14 23
REMARK SMILES IDX 15 24 20 25 22 26 16 27 19 28 17 29 18 30
REMARK H PARENT 18 31
REMARK Flexibility Score: inf
ROOT
ATOM      1  C   UNL     1      -5.114 -10.179  43.001  1.00  0.00     0.004 C 
ENDROOT
BRANCH   1   2
ATOM      2  C   UNL     1      -6.609 -10.526  42.731  1.00  0.00     0.004 C 
BRANCH   2   3
ATOM      3  C   UNL     1      -7.249 -10.076  41.377  1.00  0.00    -0.009 C 
BRANCH   3   4
ATOM      4  C   UNL     1      -8.458  -9.133  41.687  1.00  0.00     0.000 C 
ATOM      5  C   UNL     1      -8.155  -7.640  41.506  1.00  0.00     0.004 C 
ENDBRANCH   3   4
BRANCH   3   6
ATOM      6  C   UNL     1      -7.669 -11.216  40.388  1.00  0.00    -0.014 C 
ATOM      7  C   UNL     1      -6.797 -12.485  40.400  1.00  0.00     0.007 C 
ATOM      8  C   UNL     1      -7.742 -10.679  38.937  1.00  0.00     0.007 C 
ENDBRANCH   3   6
ENDBRANCH   2   3
ENDBRANCH   1   2
BRANCH   1   9
ATOM      9  C   UNL     1      -4.136 -10.562  41.870  1.00  0.00    -0.011 C 
ATOM     10  C   UNL     1      -2.973 -11.488  42.352  1.00  0.00     0.008 C 
BRANCH   9  11
ATOM     11  C   UNL     1      -3.495  -9.328  41.132  1.00  0.00    -0.002 C 
ATOM     12  C   UNL     1      -1.945  -9.480  41.053  1.00  0.00     0.005 C 
ATOM     13  C   UNL     1      -3.883  -8.985  39.641  1.00  0.00    -0.026 C 
ATOM     14  C   UNL     1      -1.480  -8.904  39.711  1.00  0.00     0.005 C 
ATOM     15  C   UNL     1      -2.699  -8.092  39.274  1.00  0.00    -0.001 C 
ATOM     16  C   UNL     1      -5.142  -8.084  39.482  1.00  0.00     0.007 C 
ATOM     17  C   UNL     1      -3.964 -10.291  38.760  1.00  0.00     0.012 C 
ATOM     18  C   UNL     1      -2.732  -7.395  37.870  1.00  0.00     0.000 C 
ATOM     19  C   UNL     1      -5.377  -7.708  38.001  1.00  0.00     0.005 C 
ATOM     20  C   UNL     1      -4.096  -7.553  37.123  1.00  0.00     0.003 C 
ATOM     21  C   UNL     1      -1.639  -7.828  36.911  1.00  0.00     0.031 C 
ATOM     22  C   UNL     1      -4.206  -6.508  35.966  1.00  0.00    -0.008 C 
ATOM     23  C   UNL     1      -1.751  -7.106  35.591  1.00  0.00    -0.027 C 
ATOM     24  C   UNL     1      -2.861  -6.465  35.176  1.00  0.00    -0.065 C 
ATOM     25  C   UNL     1      -5.337  -6.934  34.981  1.00  0.00     0.014 C 
ATOM     26  C   UNL     1      -4.508  -5.077  36.496  1.00  0.00     0.016 C 
ATOM     27  C   UNL     1      -2.862  -5.782  33.830  1.00  0.00     0.063 C 
ATOM     28  C   UNL     1      -5.351  -6.119  33.671  1.00  0.00     0.033 C 
ATOM     29  C   UNL     1      -4.008  -6.291  32.962  1.00  0.00     0.118 C 
BRANCH  29  30
ATOM     30  O   UNL     1      -4.016  -5.568  31.735  1.00  0.00    -0.393 OA
ATOM     31  H   UNL     1      -4.926  -5.130  31.693  1.00  0.00     0.210 HD
ENDBRANCH  29  30
ENDBRANCH   9  11
ENDBRANCH   1   9
TORSDOF 7
ENDMDL
MODEL 3
REMARK VINA RESULT:    -5.625      1.104      2.036
REMARK INTER + INTRA:          -9.628
REMARK INTER:                  -7.864
REMARK INTRA:                  -1.764
REMARK UNBOUND:                -1.866
REMARK SMILES CC[C@@H](CC[C@H](C)[C@H]1CC[C@H]2[C@H]3CC=C4C[C@H](O)CC[C@@]4(C)[C@@H]3CC[C@]12C)C(C)C
REMARK SMILES IDX 5 1 4 2 3 3 2 4 1 5 28 6 29 7 30 8 6 9 7 10 8 11 9 12 26 13
REMARK SMILES IDX 10 14 11 15 25 16 27 17 12 18 24 19 23 20 13 21 21 22 14 23
REMARK SMILES IDX 15 24 20 25 22 26 16 27 19 28 17 29 18 30
REMARK H PARENT 18 31
REMARK Flexibility Score: inf
ROOT
ATOM      1  C   UNL     1      -6.453  -7.147  32.778  1.00  0.00     0.004 C 
ENDROOT
BRANCH   1   2
ATOM      2  C   UNL     1      -5.854  -5.710  32.698  1.00  0.00     0.004 C 
BRANCH   2   3
ATOM      3  C   UNL     1      -4.481  -5.431  33.393  1.00  0.00    -0.009 C 
BRANCH   3   4
ATOM      4  C   UNL     1      -4.558  -4.043  34.110  1.00  0.00     0.000 C 
ATOM      5  C   UNL     1      -4.961  -4.119  35.589  1.00  0.00     0.004 C 
ENDBRANCH   3   4
BRANCH   3   6
ATOM      6  C   UNL     1      -3.207  -5.523  32.487  1.00  0.00    -0.014 C 
ATOM      7  C   UNL     1      -3.400  -6.159  31.099  1.00  0.00     0.007 C 
ATOM      8  C   UNL     1      -2.069  -6.274  33.222  1.00  0.00     0.007 C 
ENDBRANCH   3   6
ENDBRANCH   2   3
ENDBRANCH   1   2
BRANCH   1   9
ATOM      9  C   UNL     1      -7.377  -7.407  33.985  1.00  0.00    -0.011 C 
ATOM     10  C   UNL     1      -8.761  -6.693  33.864  1.00  0.00     0.008 C 
BRANCH   9  11
ATOM     11  C   UNL     1      -6.748  -7.004  35.371  1.00  0.00    -0.002 C 
ATOM     12  C   UNL     1      -7.864  -6.778  36.436  1.00  0.00     0.005 C 
ATOM     13  C   UNL     1      -5.750  -7.971  36.120  1.00  0.00    -0.026 C 
ATOM     14  C   UNL     1      -7.340  -7.278  37.787  1.00  0.00     0.005 C 
ATOM     15  C   UNL     1      -5.837  -7.380  37.526  1.00  0.00    -0.001 C 
ATOM     16  C   UNL     1      -4.257  -7.823  35.704  1.00  0.00     0.007 C 
ATOM     17  C   UNL     1      -6.248  -9.466  36.050  1.00  0.00     0.012 C 
ATOM     18  C   UNL     1      -4.876  -7.971  38.615  1.00  0.00     0.000 C 
ATOM     19  C   UNL     1      -3.345  -8.725  36.567  1.00  0.00     0.005 C 
ATOM     20  C   UNL     1      -3.805  -8.952  38.041  1.00  0.00     0.003 C 
ATOM     21  C   UNL     1      -5.567  -8.680  39.766  1.00  0.00     0.031 C 
ATOM     22  C   UNL     1      -2.650  -9.161  39.072  1.00  0.00    -0.008 C 
ATOM     23  C   UNL     1      -4.566  -9.213  40.761  1.00  0.00    -0.027 C 
ATOM     24  C   UNL     1      -3.256  -9.381  40.493  1.00  0.00    -0.065 C 
ATOM     25  C   UNL     1      -1.828 -10.430  38.691  1.00  0.00     0.014 C 
ATOM     26  C   UNL     1      -1.691  -7.936  39.134  1.00  0.00     0.016 C 
ATOM     27  C   UNL     1      -2.346  -9.931  41.564  1.00  0.00     0.063 C 
ATOM     28  C   UNL     1      -0.836 -10.873  39.786  1.00  0.00     0.033 C 
ATOM     29  C   UNL     1      -1.609 -11.171  41.069  1.00  0.00     0.118 C 
BRANCH  29  30
ATOM     30  O   UNL     1      -0.709 -11.610  42.083  1.00  0.00    -0.393 OA
ATOM     31  H   UNL     1       0.185 -11.698  41.620  1.00  0.00     0.210 HD
ENDBRANCH  29  30
ENDBRANCH   9  11
ENDBRANCH   1   9
TORSDOF 7
ENDMDL
MODEL 4
REMARK VINA RESULT:    -5.624      3.289      8.983
REMARK INTER + INTRA:          -9.628
REMARK INTER:                  -8.291
REMARK INTRA:                  -1.337
REMARK UNBOUND:                -1.866
REMARK SMILES CC[C@@H](CC[C@H](C)[C@H]1CC[C@H]2[C@H]3CC=C4C[C@H](O)CC[C@@]4(C)[C@@H]3CC[C@]12C)C(C)C
REMARK SMILES IDX 5 1 4 2 3 3 2 4 1 5 28 6 29 7 30 8 6 9 7 10 8 11 9 12 26 13
REMARK SMILES IDX 10 14 11 15 25 16 27 17 12 18 24 19 23 20 13 21 21 22 14 23
REMARK SMILES IDX 15 24 20 25 22 26 16 27 19 28 17 29 18 30
REMARK H PARENT 18 31
REMARK Flexibility Score: inf
ROOT
ATOM      1  C   UNL     1      -3.523 -11.315  42.106  1.00  0.00     0.004 C 
ENDROOT
BRANCH   1   2
ATOM      2  C   UNL     1      -4.352 -12.634  42.164  1.00  0.00     0.004 C 
BRANCH   2   3
ATOM      3  C   UNL     1      -3.656 -13.974  41.756  1.00  0.00    -0.009 C 
BRANCH   3   4
ATOM      4  C   UNL     1      -4.302 -14.487  40.427  1.00  0.00     0.000 C 
ATOM      5  C   UNL     1      -3.666 -15.767  39.870  1.00  0.00     0.004 C 
ENDBRANCH   3   4
BRANCH   3   6
ATOM      6  C   UNL     1      -3.629 -15.106  42.838  1.00  0.00    -0.014 C 
ATOM      7  C   UNL     1      -4.602 -14.944  44.020  1.00  0.00     0.007 C 
ATOM      8  C   UNL     1      -2.196 -15.292  43.397  1.00  0.00     0.007 C 
ENDBRANCH   3   6
ENDBRANCH   2   3
ENDBRANCH   1   2
BRANCH   1   9
ATOM      9  C   UNL     1      -2.125 -11.446  41.466  1.00  0.00    -0.011 C 
ATOM     10  C   UNL     1      -0.999 -11.744  42.508  1.00  0.00     0.008 C 
BRANCH   9  11
ATOM     11  C   UNL     1      -1.685 -10.189  40.627  1.00  0.00    -0.002 C 
ATOM     12  C   UNL     1      -0.292 -10.429  39.968  1.00  0.00     0.005 C 
ATOM     13  C   UNL     1      -2.556  -9.681  39.412  1.00  0.00    -0.026 C 
ATOM     14  C   UNL     1      -0.296  -9.756  38.591  1.00  0.00     0.005 C 
ATOM     15  C   UNL     1      -1.509  -8.831  38.692  1.00  0.00    -0.001 C 
ATOM     16  C   UNL     1      -3.696  -8.692  39.792  1.00  0.00     0.007 C 
ATOM     17  C   UNL     1      -3.073 -10.889  38.539  1.00  0.00     0.012 C 
ATOM     18  C   UNL     1      -1.987  -8.002  37.451  1.00  0.00     0.000 C 
ATOM     19  C   UNL     1      -4.418  -8.161  38.532  1.00  0.00     0.005 C 
ATOM     20  C   UNL     1      -3.537  -8.002  37.254  1.00  0.00     0.003 C 
ATOM     21  C   UNL     1      -1.364  -8.408  36.128  1.00  0.00     0.031 C 
ATOM     22  C   UNL     1      -3.963  -6.846  36.293  1.00  0.00    -0.008 C 
ATOM     23  C   UNL     1      -1.881  -7.556  34.995  1.00  0.00    -0.027 C 
ATOM     24  C   UNL     1      -3.001  -6.811  35.066  1.00  0.00    -0.065 C 
ATOM     25  C   UNL     1      -5.410  -7.104  35.772  1.00  0.00     0.014 C 
ATOM     26  C   UNL     1      -3.916  -5.456  36.992  1.00  0.00     0.016 C 
ATOM     27  C   UNL     1      -3.429  -6.003  33.865  1.00  0.00     0.063 C 
ATOM     28  C   UNL     1      -5.824  -6.168  34.618  1.00  0.00     0.033 C 
ATOM     29  C   UNL     1      -4.855  -6.353  33.452  1.00  0.00     0.118 C 
BRANCH  29  30
ATOM     30  O   UNL     1      -5.242  -5.517  32.366  1.00  0.00    -0.393 OA
ATOM     31  H   UNL     1      -4.732  -5.869  31.567  1.00  0.00     0.210 HD
ENDBRANCH  29  30
ENDBRANCH   9  11
ENDBRANCH   1   9
TORSDOF 7
ENDMDL
MODEL 5
REMARK VINA RESULT:    -5.592      3.022      8.556
REMARK INTER + INTRA:          -9.582
REMARK INTER:                  -7.858
REMARK INTRA:                  -1.724
REMARK UNBOUND:                -1.866
REMARK SMILES CC[C@@H](CC[C@H](C)[C@H]1CC[C@H]2[C@H]3CC=C4C[C@H](O)CC[C@@]4(C)[C@@H]3CC[C@]12C)C(C)C
REMARK SMILES IDX 5 1 4 2 3 3 2 4 1 5 28 6 29 7 30 8 6 9 7 10 8 11 9 12 26 13
REMARK SMILES IDX 10 14 11 15 25 16 27 17 12 18 24 19 23 20 13 21 21 22 14 23
REMARK SMILES IDX 15 24 20 25 22 26 16 27 19 28 17 29 18 30
REMARK H PARENT 18 31
REMARK Flexibility Score: inf
ROOT
ATOM      1  C   UNL     1      -2.432  -9.241  41.280  1.00  0.00     0.004 C 
ENDROOT
BRANCH   1   2
ATOM      2  C   UNL     1      -3.620 -10.017  41.924  1.00  0.00     0.004 C 
BRANCH   2   3
ATOM      3  C   UNL     1      -5.060  -9.421  41.795  1.00  0.00    -0.009 C 
BRANCH   3   4
ATOM      4  C   UNL     1      -6.080 -10.452  42.382  1.00  0.00     0.000 C 
ATOM      5  C   UNL     1      -5.482 -11.405  43.425  1.00  0.00     0.004 C 
ENDBRANCH   3   4
BRANCH   3   6
ATOM      6  C   UNL     1      -5.499  -8.954  40.366  1.00  0.00    -0.014 C 
ATOM      7  C   UNL     1      -6.696  -7.988  40.301  1.00  0.00     0.007 C 
ATOM      8  C   UNL     1      -5.797 -10.174  39.460  1.00  0.00     0.007 C 
ENDBRANCH   3   6
ENDBRANCH   2   3
ENDBRANCH   1   2
BRANCH   1   9
ATOM      9  C   UNL     1      -1.891  -9.841  39.966  1.00  0.00    -0.011 C 
ATOM     10  C   UNL     1      -0.651 -10.768  40.180  1.00  0.00     0.008 C 
BRANCH   9  11
ATOM     11  C   UNL     1      -1.507  -8.767  38.881  1.00  0.00    -0.002 C 
ATOM     12  C   UNL     1      -0.137  -9.116  38.223  1.00  0.00     0.005 C 
ATOM     13  C   UNL     1      -2.435  -8.512  37.630  1.00  0.00    -0.026 C 
ATOM     14  C   UNL     1      -0.209  -8.724  36.743  1.00  0.00     0.005 C 
ATOM     15  C   UNL     1      -1.433  -7.808  36.715  1.00  0.00    -0.001 C 
ATOM     16  C   UNL     1      -3.577  -7.480  37.860  1.00  0.00     0.007 C 
ATOM     17  C   UNL     1      -2.965  -9.871  37.030  1.00  0.00     0.012 C 
ATOM     18  C   UNL     1      -1.974  -7.240  35.358  1.00  0.00     0.000 C 
ATOM     19  C   UNL     1      -4.358  -7.211  36.552  1.00  0.00     0.005 C 
ATOM     20  C   UNL     1      -3.531  -7.294  35.232  1.00  0.00     0.003 C 
ATOM     21  C   UNL     1      -1.398  -7.889  34.113  1.00  0.00     0.031 C 
ATOM     22  C   UNL     1      -4.016  -6.351  34.084  1.00  0.00    -0.008 C 
ATOM     23  C   UNL     1      -1.975  -7.279  32.860  1.00  0.00    -0.027 C 
ATOM     24  C   UNL     1      -3.105  -6.545  32.833  1.00  0.00    -0.065 C 
ATOM     25  C   UNL     1      -5.478  -6.719  33.685  1.00  0.00     0.014 C 
ATOM     26  C   UNL     1      -3.966  -4.851  34.498  1.00  0.00     0.016 C 
ATOM     27  C   UNL     1      -3.595  -5.989  31.518  1.00  0.00     0.063 C 
ATOM     28  C   UNL     1      -5.954  -6.028  32.390  1.00  0.00     0.033 C 
ATOM     29  C   UNL     1      -5.029  -6.428  31.242  1.00  0.00     0.118 C 
BRANCH  29  30
ATOM     30  O   UNL     1      -5.474  -5.821  30.032  1.00  0.00    -0.393 OA
ATOM     31  H   UNL     1      -4.631  -5.630  29.508  1.00  0.00     0.210 HD
ENDBRANCH  29  30
ENDBRANCH   9  11
ENDBRANCH   1   9
TORSDOF 7
ENDMDL
MODEL 6
REMARK VINA RESULT:    -5.548      3.152      8.789
REMARK INTER + INTRA:          -9.522
REMARK INTER:                  -8.003
REMARK INTRA:                  -1.519
REMARK UNBOUND:                -1.866
REMARK SMILES CC[C@@H](CC[C@H](C)[C@H]1CC[C@H]2[C@H]3CC=C4C[C@H](O)CC[C@@]4(C)[C@@H]3CC[C@]12C)C(C)C
REMARK SMILES IDX 5 1 4 2 3 3 2 4 1 5 28 6 29 7 30 8 6 9 7 10 8 11 9 12 26 13
REMARK SMILES IDX 10 14 11 15 25 16 27 17 12 18 24 19 23 20 13 21 21 22 14 23
REMARK SMILES IDX 15 24 20 25 22 26 16 27 19 28 17 29 18 30
REMARK H PARENT 18 31
REMARK Flexibility Score: inf
ROOT
ATOM      1  C   UNL     1      -3.480 -10.800  42.183  1.00  0.00     0.004 C 
ENDROOT
BRANCH   1   2
ATOM      2  C   UNL     1      -4.845 -11.360  41.682  1.00  0.00     0.004 C 
BRANCH   2   3
ATOM      3  C   UNL     1      -6.160 -10.816  42.331  1.00  0.00    -0.009 C 
BRANCH   3   4
ATOM      4  C   UNL     1      -6.104  -9.253  42.337  1.00  0.00     0.000 C 
ATOM      5  C   UNL     1      -7.151  -8.581  41.439  1.00  0.00     0.004 C 
ENDBRANCH   3   4
BRANCH   3   6
ATOM      6  C   UNL     1      -6.520 -11.368  43.752  1.00  0.00    -0.014 C 
ATOM      7  C   UNL     1      -6.173 -12.845  44.018  1.00  0.00     0.007 C 
ATOM      8  C   UNL     1      -8.022 -11.149  44.058  1.00  0.00     0.007 C 
ENDBRANCH   3   6
ENDBRANCH   2   3
ENDBRANCH   1   2
BRANCH   1   9
ATOM      9  C   UNL     1      -2.294 -10.997  41.216  1.00  0.00    -0.011 C 
ATOM     10  C   UNL     1      -0.995 -11.491  41.930  1.00  0.00     0.008 C 
BRANCH   9  11
ATOM     11  C   UNL     1      -1.928  -9.713  40.382  1.00  0.00    -0.002 C 
ATOM     12  C   UNL     1      -0.505  -9.851  39.759  1.00  0.00     0.005 C 
ATOM     13  C   UNL     1      -2.803  -9.274  39.144  1.00  0.00    -0.026 C 
ATOM     14  C   UNL     1      -0.525  -9.184  38.379  1.00  0.00     0.005 C 
ATOM     15  C   UNL     1      -1.805  -8.351  38.447  1.00  0.00    -0.001 C 
ATOM     16  C   UNL     1      -4.023  -8.372  39.492  1.00  0.00     0.007 C 
ATOM     17  C   UNL     1      -3.208 -10.519  38.264  1.00  0.00     0.012 C 
ATOM     18  C   UNL     1      -2.312  -7.562  37.190  1.00  0.00     0.000 C 
ATOM     19  C   UNL     1      -4.751  -7.899  38.212  1.00  0.00     0.005 C 
ATOM     20  C   UNL     1      -3.852  -7.678  36.956  1.00  0.00     0.003 C 
ATOM     21  C   UNL     1      -1.628  -7.924  35.885  1.00  0.00     0.031 C 
ATOM     22  C   UNL     1      -4.339  -6.560  35.979  1.00  0.00    -0.008 C 
ATOM     23  C   UNL     1      -2.178  -7.117  34.735  1.00  0.00    -0.027 C 
ATOM     24  C   UNL     1      -3.352  -6.456  34.775  1.00  0.00    -0.065 C 
ATOM     25  C   UNL     1      -5.750  -6.925  35.424  1.00  0.00     0.014 C 
ATOM     26  C   UNL     1      -4.412  -5.168  36.672  1.00  0.00     0.016 C 
ATOM     27  C   UNL     1      -3.809  -5.685  33.561  1.00  0.00     0.063 C 
ATOM     28  C   UNL     1      -6.203  -6.025  34.256  1.00  0.00     0.033 C 
ATOM     29  C   UNL     1      -5.194  -6.142  33.115  1.00  0.00     0.118 C 
BRANCH  29  30
ATOM     30  O   UNL     1      -5.615  -5.339  32.016  1.00  0.00    -0.393 OA
ATOM     31  H   UNL     1      -6.194  -5.946  31.453  1.00  0.00     0.210 HD
ENDBRANCH  29  30
ENDBRANCH   9  11
ENDBRANCH   1   9
TORSDOF 7
ENDMDL
MODEL 7
REMARK VINA RESULT:    -5.517      3.114      8.553
REMARK INTER + INTRA:          -9.479
REMARK INTER:                  -7.357
REMARK INTRA:                  -2.122
REMARK UNBOUND:                -1.866
REMARK SMILES CC[C@@H](CC[C@H](C)[C@H]1CC[C@H]2[C@H]3CC=C4C[C@H](O)CC[C@@]4(C)[C@@H]3CC[C@]12C)C(C)C
REMARK SMILES IDX 5 1 4 2 3 3 2 4 1 5 28 6 29 7 30 8 6 9 7 10 8 11 9 12 26 13
REMARK SMILES IDX 10 14 11 15 25 16 27 17 12 18 24 19 23 20 13 21 21 22 14 23
REMARK SMILES IDX 15 24 20 25 22 26 16 27 19 28 17 29 18 30
REMARK H PARENT 18 31
REMARK Flexibility Score: inf
ROOT
ATOM      1  C   UNL     1      -3.708 -10.787  42.554  1.00  0.00     0.004 C 
ENDROOT
BRANCH   1   2
ATOM      2  C   UNL     1      -5.014 -11.611  42.342  1.00  0.00     0.004 C 
BRANCH   2   3
ATOM      3  C   UNL     1      -5.051 -12.674  41.196  1.00  0.00    -0.009 C 
BRANCH   3   4
ATOM      4  C   UNL     1      -6.398 -12.518  40.415  1.00  0.00     0.000 C 
ATOM      5  C   UNL     1      -6.751 -11.070  40.052  1.00  0.00     0.004 C 
ENDBRANCH   3   4
BRANCH   3   6
ATOM      6  C   UNL     1      -4.818 -14.165  41.616  1.00  0.00    -0.014 C 
ATOM      7  C   UNL     1      -4.778 -14.450  43.129  1.00  0.00     0.007 C 
ATOM      8  C   UNL     1      -3.521 -14.715  40.973  1.00  0.00     0.007 C 
ENDBRANCH   3   6
ENDBRANCH   2   3
ENDBRANCH   1   2
BRANCH   1   9
ATOM      9  C   UNL     1      -2.568 -11.098  41.562  1.00  0.00    -0.011 C 
ATOM     10  C   UNL     1      -1.319 -11.742  42.246  1.00  0.00     0.008 C 
BRANCH   9  11
ATOM     11  C   UNL     1      -2.076  -9.849  40.739  1.00  0.00    -0.002 C 
ATOM     12  C   UNL     1      -0.621 -10.071  40.222  1.00  0.00     0.005 C 
ATOM     13  C   UNL     1      -2.837  -9.388  39.436  1.00  0.00    -0.026 C 
ATOM     14  C   UNL     1      -0.508  -9.428  38.836  1.00  0.00     0.005 C 
ATOM     15  C   UNL     1      -1.745  -8.529  38.799  1.00  0.00    -0.001 C 
ATOM     16  C   UNL     1      -4.030  -8.418  39.682  1.00  0.00     0.007 C 
ATOM     17  C   UNL     1      -3.243 -10.625  38.546  1.00  0.00     0.012 C 
ATOM     18  C   UNL     1      -2.119  -7.738  37.499  1.00  0.00     0.000 C 
ATOM     19  C   UNL     1      -4.639  -7.931  38.347  1.00  0.00     0.005 C 
ATOM     20  C   UNL     1      -3.643  -7.778  37.156  1.00  0.00     0.003 C 
ATOM     21  C   UNL     1      -1.364  -8.157  36.251  1.00  0.00     0.031 C 
ATOM     22  C   UNL     1      -3.999  -6.654  36.131  1.00  0.00    -0.008 C 
ATOM     23  C   UNL     1      -1.788  -7.342  35.054  1.00  0.00    -0.027 C 
ATOM     24  C   UNL     1      -2.925  -6.622  35.001  1.00  0.00    -0.065 C 
ATOM     25  C   UNL     1      -5.384  -6.956  35.481  1.00  0.00     0.014 C 
ATOM     26  C   UNL     1      -4.049  -5.248  36.799  1.00  0.00     0.016 C 
ATOM     27  C   UNL     1      -3.253  -5.849  33.746  1.00  0.00     0.063 C 
ATOM     28  C   UNL     1      -5.706  -6.054  34.272  1.00  0.00     0.033 C 
ATOM     29  C   UNL     1      -4.625  -6.242  33.208  1.00  0.00     0.118 C 
BRANCH  29  30
ATOM     30  O   UNL     1      -4.924  -5.438  32.070  1.00  0.00    -0.393 OA
ATOM     31  H   UNL     1      -4.275  -5.739  31.357  1.00  0.00     0.210 HD
ENDBRANCH  29  30
ENDBRANCH   9  11
ENDBRANCH   1   9
TORSDOF 7
ENDMDL
MODEL 8
REMARK VINA RESULT:    -5.494      2.999      8.425
REMARK INTER + INTRA:          -9.447
REMARK INTER:                  -7.260
REMARK INTRA:                  -2.187
REMARK UNBOUND:                -1.866
REMARK SMILES CC[C@@H](CC[C@H](C)[C@H]1CC[C@H]2[C@H]3CC=C4C[C@H](O)CC[C@@]4(C)[C@@H]3CC[C@]12C)C(C)C
REMARK SMILES IDX 5 1 4 2 3 3 2 4 1 5 28 6 29 7 30 8 6 9 7 10 8 11 9 12 26 13
REMARK SMILES IDX 10 14 11 15 25 16 27 17 12 18 24 19 23 20 13 21 21 22 14 23
REMARK SMILES IDX 15 24 20 25 22 26 16 27 19 28 17 29 18 30
REMARK H PARENT 18 31
REMARK Flexibility Score: inf
ROOT
ATOM      1  C   UNL     1      -3.510 -10.960  42.240  1.00  0.00     0.004 C 
ENDROOT
BRANCH   1   2
ATOM      2  C   UNL     1      -4.452 -12.196  42.356  1.00  0.00     0.004 C 
BRANCH   2   3
ATOM      3  C   UNL     1      -5.594 -12.368  41.302  1.00  0.00    -0.009 C 
BRANCH   3   4
ATOM      4  C   UNL     1      -5.107 -13.362  40.197  1.00  0.00     0.000 C 
ATOM      5  C   UNL     1      -4.034 -14.352  40.669  1.00  0.00     0.004 C 
ENDBRANCH   3   4
BRANCH   3   6
ATOM      6  C   UNL     1      -6.160 -11.055  40.662  1.00  0.00    -0.014 C 
ATOM      7  C   UNL     1      -7.223 -10.299  41.481  1.00  0.00     0.007 C 
ATOM      8  C   UNL     1      -6.731 -11.338  39.251  1.00  0.00     0.007 C 
ENDBRANCH   3   6
ENDBRANCH   2   3
ENDBRANCH   1   2
BRANCH   1   9
ATOM      9  C   UNL     1      -2.238 -11.182  41.396  1.00  0.00    -0.011 C 
ATOM     10  C   UNL     1      -1.001 -11.609  42.250  1.00  0.00     0.008 C 
BRANCH   9  11
ATOM     11  C   UNL     1      -1.818  -9.934  40.531  1.00  0.00    -0.002 C 
ATOM     12  C   UNL     1      -0.412 -10.157  39.893  1.00  0.00     0.005 C 
ATOM     13  C   UNL     1      -2.687  -9.476  39.296  1.00  0.00    -0.026 C 
ATOM     14  C   UNL     1      -0.417  -9.517  38.501  1.00  0.00     0.005 C 
ATOM     15  C   UNL     1      -1.653  -8.619  38.567  1.00  0.00    -0.001 C 
ATOM     16  C   UNL     1      -3.855  -8.506  39.640  1.00  0.00     0.007 C 
ATOM     17  C   UNL     1      -3.166 -10.716  38.447  1.00  0.00     0.012 C 
ATOM     18  C   UNL     1      -2.136  -7.830  37.301  1.00  0.00     0.000 C 
ATOM     19  C   UNL     1      -4.575  -8.022  38.360  1.00  0.00     0.005 C 
ATOM     20  C   UNL     1      -3.683  -7.872  37.088  1.00  0.00     0.003 C 
ATOM     21  C   UNL     1      -1.489  -8.252  35.995  1.00  0.00     0.031 C 
ATOM     22  C   UNL     1      -4.126  -6.750  36.095  1.00  0.00    -0.008 C 
ATOM     23  C   UNL     1      -2.013  -7.441  34.836  1.00  0.00    -0.027 C 
ATOM     24  C   UNL     1      -3.151  -6.720  34.878  1.00  0.00    -0.065 C 
ATOM     25  C   UNL     1      -5.560  -7.054  35.565  1.00  0.00     0.014 C 
ATOM     26  C   UNL     1      -4.119  -5.343  36.761  1.00  0.00     0.016 C 
ATOM     27  C   UNL     1      -3.584  -5.951  33.653  1.00  0.00     0.063 C 
ATOM     28  C   UNL     1      -5.983  -6.155  34.385  1.00  0.00     0.033 C 
ATOM     29  C   UNL     1      -4.997  -6.345  33.234  1.00  0.00     0.118 C 
BRANCH  29  30
ATOM     30  O   UNL     1      -5.391  -5.544  32.124  1.00  0.00    -0.393 OA
ATOM     31  H   UNL     1      -4.894  -4.672  32.240  1.00  0.00     0.210 HD
ENDBRANCH  29  30
ENDBRANCH   9  11
ENDBRANCH   1   9
TORSDOF 7
ENDMDL
MODEL 9
REMARK VINA RESULT:    -5.383      3.070      8.661
REMARK INTER + INTRA:          -9.295
REMARK INTER:                  -7.720
REMARK INTRA:                  -1.574
REMARK UNBOUND:                -1.866
REMARK SMILES CC[C@@H](CC[C@H](C)[C@H]1CC[C@H]2[C@H]3CC=C4C[C@H](O)CC[C@@]4(C)[C@@H]3CC[C@]12C)C(C)C
REMARK SMILES IDX 5 1 4 2 3 3 2 4 1 5 28 6 29 7 30 8 6 9 7 10 8 11 9 12 26 13
REMARK SMILES IDX 10 14 11 15 25 16 27 17 12 18 24 19 23 20 13 21 21 22 14 23
REMARK SMILES IDX 15 24 20 25 22 26 16 27 19 28 17 29 18 30
REMARK H PARENT 18 31
REMARK Flexibility Score: inf
ROOT
ATOM      1  C   UNL     1      -1.171 -10.751  40.203  1.00  0.00     0.004 C 
ENDROOT
BRANCH   1   2
ATOM      2  C   UNL     1      -1.604 -10.842  41.698  1.00  0.00     0.004 C 
BRANCH   2   3
ATOM      3  C   UNL     1      -2.985 -11.491  42.040  1.00  0.00    -0.009 C 
BRANCH   3   4
ATOM      4  C   UNL     1      -2.935 -13.004  41.646  1.00  0.00     0.000 C 
ATOM      5  C   UNL     1      -2.132 -13.881  42.615  1.00  0.00     0.004 C 
ENDBRANCH   3   4
BRANCH   3   6
ATOM      6  C   UNL     1      -4.253 -10.798  41.435  1.00  0.00    -0.014 C 
ATOM      7  C   UNL     1      -4.857  -9.644  42.257  1.00  0.00     0.007 C 
ATOM      8  C   UNL     1      -5.363 -11.841  41.156  1.00  0.00     0.007 C 
ENDBRANCH   3   6
ENDBRANCH   2   3
ENDBRANCH   1   2
BRANCH   1   9
ATOM      9  C   UNL     1      -1.250  -9.341  39.582  1.00  0.00    -0.011 C 
ATOM     10  C   UNL     1      -1.341  -8.204  40.650  1.00  0.00     0.008 C 
BRANCH   9  11
ATOM     11  C   UNL     1      -2.445  -9.152  38.574  1.00  0.00    -0.002 C 
ATOM     12  C   UNL     1      -3.457  -8.096  39.114  1.00  0.00     0.005 C 
ATOM     13  C   UNL     1      -2.187  -8.657  37.097  1.00  0.00    -0.026 C 
ATOM     14  C   UNL     1      -3.997  -7.302  37.920  1.00  0.00     0.005 C 
ATOM     15  C   UNL     1      -3.598  -8.190  36.741  1.00  0.00    -0.001 C 
ATOM     16  C   UNL     1      -1.857  -9.784  36.076  1.00  0.00     0.007 C 
ATOM     17  C   UNL     1      -1.127  -7.489  37.066  1.00  0.00     0.012 C 
ATOM     18  C   UNL     1      -3.849  -7.720  35.266  1.00  0.00     0.000 C 
ATOM     19  C   UNL     1      -1.736  -9.220  34.641  1.00  0.00     0.005 C 
ATOM     20  C   UNL     1      -2.649  -8.001  34.306  1.00  0.00     0.003 C 
ATOM     21  C   UNL     1      -4.218  -6.257  35.112  1.00  0.00     0.031 C 
ATOM     22  C   UNL     1      -3.112  -7.908  32.816  1.00  0.00    -0.008 C 
ATOM     23  C   UNL     1      -4.441  -5.897  33.663  1.00  0.00    -0.027 C 
ATOM     24  C   UNL     1      -4.009  -6.645  32.629  1.00  0.00    -0.065 C 
ATOM     25  C   UNL     1      -1.868  -7.765  31.887  1.00  0.00     0.014 C 
ATOM     26  C   UNL     1      -3.930  -9.157  32.378  1.00  0.00     0.016 C 
ATOM     27  C   UNL     1      -4.281  -6.184  31.218  1.00  0.00     0.063 C 
ATOM     28  C   UNL     1      -2.225  -7.402  30.431  1.00  0.00     0.033 C 
ATOM     29  C   UNL     1      -2.986  -6.077  30.420  1.00  0.00     0.118 C 
BRANCH  29  30
ATOM     30  O   UNL     1      -3.297  -5.713  29.078  1.00  0.00    -0.393 OA
ATOM     31  H   UNL     1      -3.690  -6.547  28.663  1.00  0.00     0.210 HD
ENDBRANCH  29  30
ENDBRANCH   9  11
ENDBRANCH   1   9
TORSDOF 7
ENDMDL
