MODEL 1
REMARK VINA RESULT:    -7.142      0.000      0.000
REMARK INTER + INTRA:         -11.413
REMARK INTER:                  -9.855
REMARK INTRA:                  -1.557
REMARK UNBOUND:                -1.557
REMARK SMILES CC[C@@H](CC[C@H](C)[C@H]1CC[C@H]2[C@@H]3CC=C4C[C@@H](O)CC[C@@]4(C)[C@@H]3CC[C@]12C)C(C)C
REMARK SMILES IDX 5 1 4 2 3 3 2 4 1 5 28 6 29 7 30 8 6 9 7 10 8 11 9 12 26 13
REMARK SMILES IDX 10 14 11 15 25 16 27 17 12 18 24 19 23 20 13 21 21 22 14 23
REMARK SMILES IDX 15 24 20 25 22 26 16 27 19 28 17 29 18 30
REMARK H PARENT 18 31
REMARK Flexibility Score: inf
ROOT
ATOM      1  C   UNL     1      75.524 -27.513  83.400  1.00  0.00     0.004 C 
ENDROOT
BRANCH   1   2
ATOM      2  C   UNL     1      75.264 -25.986  83.472  1.00  0.00     0.004 C 
BRANCH   2   3
ATOM      3  C   UNL     1      75.322 -25.401  84.919  1.00  0.00    -0.009 C 
BRANCH   3   4
ATOM      4  C   UNL     1      74.122 -25.932  85.755  1.00  0.00     0.000 C 
ATOM      5  C   UNL     1      74.476 -26.303  87.198  1.00  0.00     0.004 C 
ENDBRANCH   3   4
BRANCH   3   6
ATOM      6  C   UNL     1      75.429 -23.835  84.932  1.00  0.00    -0.014 C 
ATOM      7  C   UNL     1      75.281 -23.227  83.527  1.00  0.00     0.007 C 
ATOM      8  C   UNL     1      76.761 -23.352  85.536  1.00  0.00     0.007 C 
ENDBRANCH   3   6
ENDBRANCH   2   3
ENDBRANCH   1   2
BRANCH   1   9
ATOM      9  C   UNL     1      76.817 -27.904  82.636  1.00  0.00    -0.011 C 
ATOM     10  C   UNL     1      76.499 -29.009  81.607  1.00  0.00     0.008 C 
BRANCH   9  11
ATOM     11  C   UNL     1      77.948 -28.388  83.610  1.00  0.00    -0.002 C 
ATOM     12  C   UNL     1      78.950 -29.351  82.916  1.00  0.00     0.005 C 
ATOM     13  C   UNL     1      78.870 -27.317  84.277  1.00  0.00    -0.026 C 
ATOM     14  C   UNL     1      80.319 -29.146  83.573  1.00  0.00     0.005 C 
ATOM     15  C   UNL     1      80.039 -28.211  84.737  1.00  0.00    -0.001 C 
ATOM     16  C   UNL     1      78.268 -26.600  85.530  1.00  0.00     0.007 C 
ATOM     17  C   UNL     1      79.320 -26.254  83.224  1.00  0.00     0.012 C 
ATOM     18  C   UNL     1      81.228 -27.404  85.308  1.00  0.00     0.000 C 
ATOM     19  C   UNL     1      79.233 -26.519  86.742  1.00  0.00     0.005 C 
ATOM     20  C   UNL     1      80.729 -26.321  86.343  1.00  0.00     0.003 C 
ATOM     21  C   UNL     1      82.290 -28.337  85.897  1.00  0.00     0.031 C 
ATOM     22  C   UNL     1      81.686 -26.078  87.596  1.00  0.00    -0.008 C 
ATOM     23  C   UNL     1      83.398 -27.529  86.498  1.00  0.00    -0.027 C 
ATOM     24  C   UNL     1      83.139 -26.444  87.254  1.00  0.00    -0.065 C 
ATOM     25  C   UNL     1      81.594 -24.568  87.995  1.00  0.00     0.014 C 
ATOM     26  C   UNL     1      81.272 -26.938  88.822  1.00  0.00     0.016 C 
ATOM     27  C   UNL     1      84.298 -25.822  88.012  1.00  0.00     0.063 C 
ATOM     28  C   UNL     1      82.707 -24.107  88.942  1.00  0.00     0.033 C 
ATOM     29  C   UNL     1      84.085 -24.337  88.310  1.00  0.00     0.118 C 
BRANCH  29  30
ATOM     30  O   UNL     1      84.219 -23.596  87.122  1.00  0.00    -0.393 OA
ATOM     31  H   UNL     1      83.659 -22.782  87.228  1.00  0.00     0.210 HD
ENDBRANCH  29  30
ENDBRANCH   9  11
ENDBRANCH   1   9
TORSDOF 7
ENDMDL
MODEL 2
REMARK VINA RESULT:    -6.738      1.663      4.655
REMARK INTER + INTRA:         -10.856
REMARK INTER:                  -9.554
REMARK INTRA:                  -1.302
REMARK UNBOUND:                -1.557
REMARK SMILES CC[C@@H](CC[C@H](C)[C@H]1CC[C@H]2[C@@H]3CC=C4C[C@@H](O)CC[C@@]4(C)[C@@H]3CC[C@]12C)C(C)C
REMARK SMILES IDX 5 1 4 2 3 3 2 4 1 5 28 6 29 7 30 8 6 9 7 10 8 11 9 12 26 13
REMARK SMILES IDX 10 14 11 15 25 16 27 17 12 18 24 19 23 20 13 21 21 22 14 23
REMARK SMILES IDX 15 24 20 25 22 26 16 27 19 28 17 29 18 30
REMARK H PARENT 18 31
REMARK Flexibility Score: inf
ROOT
ATOM      1  C   UNL     1      75.971 -27.280  82.902  1.00  0.00     0.004 C 
ENDROOT
BRANCH   1   2
ATOM      2  C   UNL     1      76.749 -28.604  83.126  1.00  0.00     0.004 C 
BRANCH   2   3
ATOM      3  C   UNL     1      78.175 -28.614  82.492  1.00  0.00    -0.009 C 
BRANCH   3   4
ATOM      4  C   UNL     1      78.068 -28.561  80.940  1.00  0.00     0.000 C 
ATOM      5  C   UNL     1      79.260 -27.892  80.250  1.00  0.00     0.004 C 
ENDBRANCH   3   4
BRANCH   3   6
ATOM      6  C   UNL     1      79.052 -29.813  83.001  1.00  0.00    -0.014 C 
ATOM      7  C   UNL     1      78.200 -30.952  83.587  1.00  0.00     0.007 C 
ATOM      8  C   UNL     1      80.075 -29.370  84.064  1.00  0.00     0.007 C 
ENDBRANCH   3   6
ENDBRANCH   2   3
ENDBRANCH   1   2
BRANCH   1   9
ATOM      9  C   UNL     1      75.577 -26.543  84.210  1.00  0.00    -0.011 C 
ATOM     10  C   UNL     1      74.130 -26.020  84.097  1.00  0.00     0.008 C 
BRANCH   9  11
ATOM     11  C   UNL     1      76.554 -25.358  84.530  1.00  0.00    -0.002 C 
ATOM     12  C   UNL     1      75.911 -24.306  85.476  1.00  0.00     0.005 C 
ATOM     13  C   UNL     1      77.923 -25.678  85.213  1.00  0.00    -0.026 C 
ATOM     14  C   UNL     1      77.035 -23.697  86.322  1.00  0.00     0.005 C 
ATOM     15  C   UNL     1      78.307 -24.275  85.725  1.00  0.00    -0.001 C 
ATOM     16  C   UNL     1      79.049 -26.183  84.251  1.00  0.00     0.007 C 
ATOM     17  C   UNL     1      77.724 -26.698  86.379  1.00  0.00     0.012 C 
ATOM     18  C   UNL     1      79.574 -24.283  86.612  1.00  0.00     0.000 C 
ATOM     19  C   UNL     1      80.418 -25.481  84.450  1.00  0.00     0.005 C 
ATOM     20  C   UNL     1      80.730 -25.120  85.936  1.00  0.00     0.003 C 
ATOM     21  C   UNL     1      80.006 -22.856  86.962  1.00  0.00     0.031 C 
ATOM     22  C   UNL     1      82.204 -24.548  86.147  1.00  0.00    -0.008 C 
ATOM     23  C   UNL     1      81.268 -22.891  87.766  1.00  0.00    -0.027 C 
ATOM     24  C   UNL     1      82.286 -23.707  87.432  1.00  0.00    -0.065 C 
ATOM     25  C   UNL     1      83.190 -25.759  86.235  1.00  0.00     0.014 C 
ATOM     26  C   UNL     1      82.649 -23.635  84.971  1.00  0.00     0.016 C 
ATOM     27  C   UNL     1      83.609 -23.516  88.153  1.00  0.00     0.063 C 
ATOM     28  C   UNL     1      84.574 -25.394  86.784  1.00  0.00     0.033 C 
ATOM     29  C   UNL     1      84.457 -24.788  88.187  1.00  0.00     0.118 C 
BRANCH  29  30
ATOM     30  O   UNL     1      83.886 -25.709  89.083  1.00  0.00    -0.393 OA
ATOM     31  H   UNL     1      83.080 -26.080  88.637  1.00  0.00     0.210 HD
ENDBRANCH  29  30
ENDBRANCH   9  11
ENDBRANCH   1   9
TORSDOF 7
ENDMDL
MODEL 3
REMARK VINA RESULT:    -5.537      2.449      7.158
REMARK INTER + INTRA:          -9.199
REMARK INTER:                  -7.371
REMARK INTRA:                  -1.828
REMARK UNBOUND:                -1.557
REMARK SMILES CC[C@@H](CC[C@H](C)[C@H]1CC[C@H]2[C@@H]3CC=C4C[C@@H](O)CC[C@@]4(C)[C@@H]3CC[C@]12C)C(C)C
REMARK SMILES IDX 5 1 4 2 3 3 2 4 1 5 28 6 29 7 30 8 6 9 7 10 8 11 9 12 26 13
REMARK SMILES IDX 10 14 11 15 25 16 27 17 12 18 24 19 23 20 13 21 21 22 14 23
REMARK SMILES IDX 15 24 20 25 22 26 16 27 19 28 17 29 18 30
REMARK H PARENT 18 31
REMARK Flexibility Score: inf
ROOT
ATOM      1  C   UNL     1      84.498 -26.669  86.818  1.00  0.00     0.004 C 
ENDROOT
BRANCH   1   2
ATOM      2  C   UNL     1      84.153 -25.281  86.218  1.00  0.00     0.004 C 
BRANCH   2   3
ATOM      3  C   UNL     1      84.010 -24.149  87.283  1.00  0.00    -0.009 C 
BRANCH   3   4
ATOM      4  C   UNL     1      83.781 -24.770  88.691  1.00  0.00     0.000 C 
ATOM      5  C   UNL     1      84.962 -24.603  89.652  1.00  0.00     0.004 C 
ENDBRANCH   3   4
BRANCH   3   6
ATOM      6  C   UNL     1      82.913 -23.093  86.897  1.00  0.00    -0.014 C 
ATOM      7  C   UNL     1      81.762 -23.048  87.917  1.00  0.00     0.007 C 
ATOM      8  C   UNL     1      82.319 -23.362  85.502  1.00  0.00     0.007 C 
ENDBRANCH   3   6
ENDBRANCH   2   3
ENDBRANCH   1   2
BRANCH   1   9
ATOM      9  C   UNL     1      83.476 -27.785  86.473  1.00  0.00    -0.011 C 
ATOM     10  C   UNL     1      84.218 -29.015  85.911  1.00  0.00     0.008 C 
BRANCH   9  11
ATOM     11  C   UNL     1      82.397 -27.293  85.445  1.00  0.00    -0.002 C 
ATOM     12  C   UNL     1      82.331 -28.199  84.185  1.00  0.00     0.005 C 
ATOM     13  C   UNL     1      80.908 -27.198  85.909  1.00  0.00    -0.026 C 
ATOM     14  C   UNL     1      80.884 -28.180  83.678  1.00  0.00     0.005 C 
ATOM     15  C   UNL     1      80.200 -27.133  84.541  1.00  0.00    -0.001 C 
ATOM     16  C   UNL     1      80.540 -25.914  86.722  1.00  0.00     0.007 C 
ATOM     17  C   UNL     1      80.509 -28.472  86.720  1.00  0.00     0.012 C 
ATOM     18  C   UNL     1      78.659 -27.198  84.656  1.00  0.00     0.000 C 
ATOM     19  C   UNL     1      79.239 -25.212  86.250  1.00  0.00     0.005 C 
ATOM     20  C   UNL     1      78.134 -26.201  85.761  1.00  0.00     0.003 C 
ATOM     21  C   UNL     1      77.998 -26.969  83.293  1.00  0.00     0.031 C 
ATOM     22  C   UNL     1      76.749 -25.481  85.433  1.00  0.00    -0.008 C 
ATOM     23  C   UNL     1      76.509 -26.974  83.445  1.00  0.00    -0.027 C 
ATOM     24  C   UNL     1      75.909 -26.327  84.462  1.00  0.00    -0.065 C 
ATOM     25  C   UNL     1      75.972 -25.279  86.776  1.00  0.00     0.014 C 
ATOM     26  C   UNL     1      76.957 -24.091  84.770  1.00  0.00     0.016 C 
ATOM     27  C   UNL     1      74.398 -26.185  84.413  1.00  0.00     0.063 C 
ATOM     28  C   UNL     1      74.492 -24.928  86.591  1.00  0.00     0.033 C 
ATOM     29  C   UNL     1      73.771 -26.023  85.798  1.00  0.00     0.118 C 
BRANCH  29  30
ATOM     30  O   UNL     1      73.822 -27.250  86.483  1.00  0.00    -0.393 OA
ATOM     31  H   UNL     1      74.550 -27.172  87.155  1.00  0.00     0.210 HD
ENDBRANCH  29  30
ENDBRANCH   9  11
ENDBRANCH   1   9
TORSDOF 7
ENDMDL
MODEL 4
REMARK VINA RESULT:    -5.364      2.527      8.056
REMARK INTER + INTRA:          -8.960
REMARK INTER:                  -7.637
REMARK INTRA:                  -1.323
REMARK UNBOUND:                -1.557
REMARK SMILES CC[C@@H](CC[C@H](C)[C@H]1CC[C@H]2[C@@H]3CC=C4C[C@@H](O)CC[C@@]4(C)[C@@H]3CC[C@]12C)C(C)C
REMARK SMILES IDX 5 1 4 2 3 3 2 4 1 5 28 6 29 7 30 8 6 9 7 10 8 11 9 12 26 13
REMARK SMILES IDX 10 14 11 15 25 16 27 17 12 18 24 19 23 20 13 21 21 22 14 23
REMARK SMILES IDX 15 24 20 25 22 26 16 27 19 28 17 29 18 30
REMARK H PARENT 18 31
REMARK Flexibility Score: inf
ROOT
ATOM      1  C   UNL     1      82.151 -23.715  89.023  1.00  0.00     0.004 C 
ENDROOT
BRANCH   1   2
ATOM      2  C   UNL     1      83.142 -24.856  88.675  1.00  0.00     0.004 C 
BRANCH   2   3
ATOM      3  C   UNL     1      84.393 -24.385  87.870  1.00  0.00    -0.009 C 
BRANCH   3   4
ATOM      4  C   UNL     1      84.456 -25.127  86.504  1.00  0.00     0.000 C 
ATOM      5  C   UNL     1      83.976 -26.581  86.555  1.00  0.00     0.004 C 
ENDBRANCH   3   4
BRANCH   3   6
ATOM      6  C   UNL     1      85.723 -24.511  88.694  1.00  0.00    -0.014 C 
ATOM      7  C   UNL     1      85.475 -24.476  90.212  1.00  0.00     0.007 C 
ATOM      8  C   UNL     1      86.731 -23.401  88.338  1.00  0.00     0.007 C 
ENDBRANCH   3   6
ENDBRANCH   2   3
ENDBRANCH   1   2
BRANCH   1   9
ATOM      9  C   UNL     1      81.298 -23.223  87.823  1.00  0.00    -0.011 C 
ATOM     10  C   UNL     1      80.794 -21.790  88.095  1.00  0.00     0.008 C 
BRANCH   9  11
ATOM     11  C   UNL     1      80.083 -24.175  87.541  1.00  0.00    -0.002 C 
ATOM     12  C   UNL     1      78.719 -23.443  87.678  1.00  0.00     0.005 C 
ATOM     13  C   UNL     1      79.986 -24.873  86.146  1.00  0.00    -0.026 C 
ATOM     14  C   UNL     1      77.741 -24.100  86.697  1.00  0.00     0.005 C 
ATOM     15  C   UNL     1      78.504 -25.297  86.155  1.00  0.00    -0.001 C 
ATOM     16  C   UNL     1      80.870 -26.153  85.975  1.00  0.00     0.007 C 
ATOM     17  C   UNL     1      80.302 -23.855  85.005  1.00  0.00     0.012 C 
ATOM     18  C   UNL     1      78.038 -25.890  84.804  1.00  0.00     0.000 C 
ATOM     19  C   UNL     1      80.124 -27.362  85.352  1.00  0.00     0.005 C 
ATOM     20  C   UNL     1      79.068 -26.963  84.275  1.00  0.00     0.003 C 
ATOM     21  C   UNL     1      76.613 -26.442  84.911  1.00  0.00     0.031 C 
ATOM     22  C   UNL     1      78.426 -28.219  83.529  1.00  0.00    -0.008 C 
ATOM     23  C   UNL     1      76.212 -27.065  83.610  1.00  0.00    -0.027 C 
ATOM     24  C   UNL     1      77.058 -27.858  82.926  1.00  0.00    -0.065 C 
ATOM     25  C   UNL     1      79.408 -28.670  82.398  1.00  0.00     0.014 C 
ATOM     26  C   UNL     1      78.201 -29.417  84.493  1.00  0.00     0.016 C 
ATOM     27  C   UNL     1      76.500 -28.631  81.745  1.00  0.00     0.063 C 
ATOM     28  C   UNL     1      78.782 -29.626  81.377  1.00  0.00     0.033 C 
ATOM     29  C   UNL     1      77.565 -28.980  80.705  1.00  0.00     0.118 C 
BRANCH  29  30
ATOM     30  O   UNL     1      77.939 -27.818  80.008  1.00  0.00    -0.393 OA
ATOM     31  H   UNL     1      78.843 -27.567  80.334  1.00  0.00     0.210 HD
ENDBRANCH  29  30
ENDBRANCH   9  11
ENDBRANCH   1   9
TORSDOF 7
ENDMDL
MODEL 5
REMARK VINA RESULT:    -5.260      2.555      7.757
REMARK INTER + INTRA:          -8.816
REMARK INTER:                  -7.102
REMARK INTRA:                  -1.715
REMARK UNBOUND:                -1.557
REMARK SMILES CC[C@@H](CC[C@H](C)[C@H]1CC[C@H]2[C@@H]3CC=C4C[C@@H](O)CC[C@@]4(C)[C@@H]3CC[C@]12C)C(C)C
REMARK SMILES IDX 5 1 4 2 3 3 2 4 1 5 28 6 29 7 30 8 6 9 7 10 8 11 9 12 26 13
REMARK SMILES IDX 10 14 11 15 25 16 27 17 12 18 24 19 23 20 13 21 21 22 14 23
REMARK SMILES IDX 15 24 20 25 22 26 16 27 19 28 17 29 18 30
REMARK H PARENT 18 31
REMARK Flexibility Score: inf
ROOT
ATOM      1  C   UNL     1      82.447 -23.003  88.524  1.00  0.00     0.004 C 
ENDROOT
BRANCH   1   2
ATOM      2  C   UNL     1      82.463 -24.485  88.982  1.00  0.00     0.004 C 
BRANCH   2   3
ATOM      3  C   UNL     1      83.713 -25.284  88.496  1.00  0.00    -0.009 C 
BRANCH   3   4
ATOM      4  C   UNL     1      84.393 -24.539  87.312  1.00  0.00     0.000 C 
ATOM      5  C   UNL     1      85.740 -23.899  87.662  1.00  0.00     0.004 C 
ENDBRANCH   3   4
BRANCH   3   6
ATOM      6  C   UNL     1      83.378 -26.782  88.162  1.00  0.00    -0.014 C 
ATOM      7  C   UNL     1      83.782 -27.164  86.728  1.00  0.00     0.007 C 
ATOM      8  C   UNL     1      81.881 -27.094  88.348  1.00  0.00     0.007 C 
ENDBRANCH   3   6
ENDBRANCH   2   3
ENDBRANCH   1   2
BRANCH   1   9
ATOM      9  C   UNL     1      81.290 -22.647  87.553  1.00  0.00    -0.011 C 
ATOM     10  C   UNL     1      80.542 -21.400  88.069  1.00  0.00     0.008 C 
BRANCH   9  11
ATOM     11  C   UNL     1      80.285 -23.840  87.379  1.00  0.00    -0.002 C 
ATOM     12  C   UNL     1      78.833 -23.448  87.767  1.00  0.00     0.005 C 
ATOM     13  C   UNL     1      80.126 -24.484  85.964  1.00  0.00    -0.026 C 
ATOM     14  C   UNL     1      77.882 -24.271  86.890  1.00  0.00     0.005 C 
ATOM     15  C   UNL     1      78.795 -25.237  86.155  1.00  0.00    -0.001 C 
ATOM     16  C   UNL     1      81.232 -25.519  85.570  1.00  0.00     0.007 C 
ATOM     17  C   UNL     1      80.025 -23.375  84.869  1.00  0.00     0.012 C 
ATOM     18  C   UNL     1      78.264 -25.866  84.845  1.00  0.00     0.000 C 
ATOM     19  C   UNL     1      80.683 -26.841  84.972  1.00  0.00     0.005 C 
ATOM     20  C   UNL     1      79.407 -26.651  84.092  1.00  0.00     0.003 C 
ATOM     21  C   UNL     1      77.031 -26.734  85.115  1.00  0.00     0.031 C 
ATOM     22  C   UNL     1      78.949 -27.989  83.355  1.00  0.00    -0.008 C 
ATOM     23  C   UNL     1      76.576 -27.378  83.842  1.00  0.00    -0.027 C 
ATOM     24  C   UNL     1      77.458 -27.927  82.985  1.00  0.00    -0.065 C 
ATOM     25  C   UNL     1      79.815 -28.156  82.062  1.00  0.00     0.014 C 
ATOM     26  C   UNL     1      79.149 -29.245  84.247  1.00  0.00     0.016 C 
ATOM     27  C   UNL     1      76.904 -28.760  81.842  1.00  0.00     0.063 C 
ATOM     28  C   UNL     1      79.262 -29.188  81.073  1.00  0.00     0.033 C 
ATOM     29  C   UNL     1      77.842 -28.812  80.635  1.00  0.00     0.118 C 
BRANCH  29  30
ATOM     30  O   UNL     1      77.835 -27.567  79.981  1.00  0.00    -0.393 OA
ATOM     31  H   UNL     1      77.887 -26.872  80.689  1.00  0.00     0.210 HD
ENDBRANCH  29  30
ENDBRANCH   9  11
ENDBRANCH   1   9
TORSDOF 7
ENDMDL
MODEL 6
REMARK VINA RESULT:    -4.974      1.497      3.017
REMARK INTER + INTRA:          -8.421
REMARK INTER:                 -10.069
REMARK INTRA:                   1.647
REMARK UNBOUND:                -1.557
REMARK SMILES CC[C@@H](CC[C@H](C)[C@H]1CC[C@H]2[C@@H]3CC=C4C[C@@H](O)CC[C@@]4(C)[C@@H]3CC[C@]12C)C(C)C
REMARK SMILES IDX 5 1 4 2 3 3 2 4 1 5 28 6 29 7 30 8 6 9 7 10 8 11 9 12 26 13
REMARK SMILES IDX 10 14 11 15 25 16 27 17 12 18 24 19 23 20 13 21 21 22 14 23
REMARK SMILES IDX 15 24 20 25 22 26 16 27 19 28 17 29 18 30
REMARK H PARENT 18 31
REMARK Flexibility Score: inf
ROOT
ATOM      1  C   UNL     1      74.928 -24.323  84.639  1.00  0.00     0.004 C 
ENDROOT
BRANCH   1   2
ATOM      2  C   UNL     1      74.689 -23.967  83.149  1.00  0.00     0.004 C 
BRANCH   2   3
ATOM      3  C   UNL     1      75.544 -22.764  82.640  1.00  0.00    -0.009 C 
BRANCH   3   4
ATOM      4  C   UNL     1      75.706 -21.711  83.775  1.00  0.00     0.000 C 
ATOM      5  C   UNL     1      74.392 -21.075  84.236  1.00  0.00     0.004 C 
ENDBRANCH   3   4
BRANCH   3   6
ATOM      6  C   UNL     1      74.983 -22.145  81.311  1.00  0.00    -0.014 C 
ATOM      7  C   UNL     1      76.101 -21.775  80.322  1.00  0.00     0.007 C 
ATOM      8  C   UNL     1      74.127 -20.891  81.573  1.00  0.00     0.007 C 
ENDBRANCH   3   6
ENDBRANCH   2   3
ENDBRANCH   1   2
BRANCH   1   9
ATOM      9  C   UNL     1      74.771 -25.832  84.967  1.00  0.00    -0.011 C 
ATOM     10  C   UNL     1      74.090 -25.998  86.341  1.00  0.00     0.008 C 
BRANCH   9  11
ATOM     11  C   UNL     1      76.151 -26.579  84.959  1.00  0.00    -0.002 C 
ATOM     12  C   UNL     1      76.579 -27.008  83.528  1.00  0.00     0.005 C 
ATOM     13  C   UNL     1      77.409 -25.834  85.510  1.00  0.00    -0.026 C 
ATOM     14  C   UNL     1      78.111 -26.976  83.475  1.00  0.00     0.005 C 
ATOM     15  C   UNL     1      78.529 -26.708  84.910  1.00  0.00    -0.001 C 
ATOM     16  C   UNL     1      77.559 -25.834  87.068  1.00  0.00     0.007 C 
ATOM     17  C   UNL     1      77.453 -24.368  84.973  1.00  0.00     0.012 C 
ATOM     18  C   UNL     1      79.941 -26.124  85.146  1.00  0.00     0.000 C 
ATOM     19  C   UNL     1      78.977 -26.207  87.572  1.00  0.00     0.005 C 
ATOM     20  C   UNL     1      80.128 -25.689  86.652  1.00  0.00     0.003 C 
ATOM     21  C   UNL     1      81.023 -27.102  84.676  1.00  0.00     0.031 C 
ATOM     22  C   UNL     1      81.580 -25.939  87.263  1.00  0.00    -0.008 C 
ATOM     23  C   UNL     1      82.378 -26.539  84.973  1.00  0.00    -0.027 C 
ATOM     24  C   UNL     1      82.646 -25.951  86.155  1.00  0.00    -0.065 C 
ATOM     25  C   UNL     1      81.883 -24.794  88.285  1.00  0.00     0.014 C 
ATOM     26  C   UNL     1      81.675 -27.300  88.006  1.00  0.00     0.016 C 
ATOM     27  C   UNL     1      84.095 -25.618  86.464  1.00  0.00     0.063 C 
ATOM     28  C   UNL     1      83.359 -24.695  88.687  1.00  0.00     0.033 C 
ATOM     29  C   UNL     1      84.241 -24.463  87.455  1.00  0.00     0.118 C 
BRANCH  29  30
ATOM     30  O   UNL     1      83.903 -23.255  86.821  1.00  0.00    -0.393 OA
ATOM     31  H   UNL     1      83.311 -23.488  86.058  1.00  0.00     0.210 HD
ENDBRANCH  29  30
ENDBRANCH   9  11
ENDBRANCH   1   9
TORSDOF 7
ENDMDL
MODEL 7
REMARK VINA RESULT:    -4.268      2.597      7.843
REMARK INTER + INTRA:          -7.448
REMARK INTER:                  -6.572
REMARK INTRA:                  -0.875
REMARK UNBOUND:                -1.557
REMARK SMILES CC[C@@H](CC[C@H](C)[C@H]1CC[C@H]2[C@@H]3CC=C4C[C@@H](O)CC[C@@]4(C)[C@@H]3CC[C@]12C)C(C)C
REMARK SMILES IDX 5 1 4 2 3 3 2 4 1 5 28 6 29 7 30 8 6 9 7 10 8 11 9 12 26 13
REMARK SMILES IDX 10 14 11 15 25 16 27 17 12 18 24 19 23 20 13 21 21 22 14 23
REMARK SMILES IDX 15 24 20 25 22 26 16 27 19 28 17 29 18 30
REMARK H PARENT 18 31
REMARK Flexibility Score: inf
ROOT
ATOM      1  C   UNL     1      84.049 -25.134  85.800  1.00  0.00     0.004 C 
ENDROOT
BRANCH   1   2
ATOM      2  C   UNL     1      84.306 -26.452  86.577  1.00  0.00     0.004 C 
BRANCH   2   3
ATOM      3  C   UNL     1      83.019 -27.298  86.829  1.00  0.00    -0.009 C 
BRANCH   3   4
ATOM      4  C   UNL     1      82.764 -27.435  88.358  1.00  0.00     0.000 C 
ATOM      5  C   UNL     1      81.327 -27.123  88.787  1.00  0.00     0.004 C 
ENDBRANCH   3   4
BRANCH   3   6
ATOM      6  C   UNL     1      83.055 -28.684  86.091  1.00  0.00    -0.014 C 
ATOM      7  C   UNL     1      84.441 -29.347  86.160  1.00  0.00     0.007 C 
ATOM      8  C   UNL     1      82.645 -28.561  84.611  1.00  0.00     0.007 C 
ENDBRANCH   3   6
ENDBRANCH   2   3
ENDBRANCH   1   2
BRANCH   1   9
ATOM      9  C   UNL     1      83.656 -23.931  86.699  1.00  0.00    -0.011 C 
ATOM     10  C   UNL     1      84.659 -23.802  87.864  1.00  0.00     0.008 C 
BRANCH   9  11
ATOM     11  C   UNL     1      82.197 -24.071  87.259  1.00  0.00    -0.002 C 
ATOM     12  C   UNL     1      81.749 -22.813  88.052  1.00  0.00     0.005 C 
ATOM     13  C   UNL     1      81.027 -24.306  86.250  1.00  0.00    -0.026 C 
ATOM     14  C   UNL     1      80.233 -22.669  87.872  1.00  0.00     0.005 C 
ATOM     15  C   UNL     1      79.822 -23.935  87.138  1.00  0.00    -0.001 C 
ATOM     16  C   UNL     1      80.849 -25.782  85.762  1.00  0.00     0.007 C 
ATOM     17  C   UNL     1      81.169 -23.354  85.020  1.00  0.00     0.012 C 
ATOM     18  C   UNL     1      78.486 -23.908  86.361  1.00  0.00     0.000 C 
ATOM     19  C   UNL     1      79.386 -26.297  85.810  1.00  0.00     0.005 C 
ATOM     20  C   UNL     1      78.324 -25.203  85.473  1.00  0.00     0.003 C 
ATOM     21  C   UNL     1      77.304 -23.694  87.312  1.00  0.00     0.031 C 
ATOM     22  C   UNL     1      76.841 -25.781  85.367  1.00  0.00    -0.008 C 
ATOM     23  C   UNL     1      76.020 -23.736  86.543  1.00  0.00    -0.027 C 
ATOM     24  C   UNL     1      75.803 -24.671  85.599  1.00  0.00    -0.065 C 
ATOM     25  C   UNL     1      76.657 -26.397  83.941  1.00  0.00     0.014 C 
ATOM     26  C   UNL     1      76.570 -26.890  86.421  1.00  0.00     0.016 C 
ATOM     27  C   UNL     1      74.398 -24.788  85.033  1.00  0.00     0.063 C 
ATOM     28  C   UNL     1      75.197 -26.671  83.565  1.00  0.00     0.033 C 
ATOM     29  C   UNL     1      74.372 -25.380  83.623  1.00  0.00     0.118 C 
BRANCH  29  30
ATOM     30  O   UNL     1      74.864 -24.433  82.708  1.00  0.00    -0.393 OA
ATOM     31  H   UNL     1      74.129 -24.247  82.065  1.00  0.00     0.210 HD
ENDBRANCH  29  30
ENDBRANCH   9  11
ENDBRANCH   1   9
TORSDOF 7
ENDMDL
MODEL 8
REMARK VINA RESULT:    -4.214      2.197      3.895
REMARK INTER + INTRA:          -7.373
REMARK INTER:                  -7.160
REMARK INTRA:                  -0.212
REMARK UNBOUND:                -1.557
REMARK SMILES CC[C@@H](CC[C@H](C)[C@H]1CC[C@H]2[C@@H]3CC=C4C[C@@H](O)CC[C@@]4(C)[C@@H]3CC[C@]12C)C(C)C
REMARK SMILES IDX 5 1 4 2 3 3 2 4 1 5 28 6 29 7 30 8 6 9 7 10 8 11 9 12 26 13
REMARK SMILES IDX 10 14 11 15 25 16 27 17 12 18 24 19 23 20 13 21 21 22 14 23
REMARK SMILES IDX 15 24 20 25 22 26 16 27 19 28 17 29 18 30
REMARK H PARENT 18 31
REMARK Flexibility Score: inf
ROOT
ATOM      1  C   UNL     1      75.227 -23.432  83.914  1.00  0.00     0.004 C 
ENDROOT
BRANCH   1   2
ATOM      2  C   UNL     1      75.026 -23.263  82.386  1.00  0.00     0.004 C 
BRANCH   2   3
ATOM      3  C   UNL     1      75.249 -21.805  81.875  1.00  0.00    -0.009 C 
BRANCH   3   4
ATOM      4  C   UNL     1      74.150 -20.866  82.450  1.00  0.00     0.000 C 
ATOM      5  C   UNL     1      74.185 -20.715  83.974  1.00  0.00     0.004 C 
ENDBRANCH   3   4
BRANCH   3   6
ATOM      6  C   UNL     1      75.362 -21.725  80.311  1.00  0.00    -0.014 C 
ATOM      7  C   UNL     1      76.814 -21.546  79.838  1.00  0.00     0.007 C 
ATOM      8  C   UNL     1      74.513 -20.579  79.729  1.00  0.00     0.007 C 
ENDBRANCH   3   6
ENDBRANCH   2   3
ENDBRANCH   1   2
BRANCH   1   9
ATOM      9  C   UNL     1      75.303 -24.908  84.389  1.00  0.00    -0.011 C 
ATOM     10  C   UNL     1      73.881 -25.445  84.650  1.00  0.00     0.008 C 
BRANCH   9  11
ATOM     11  C   UNL     1      76.181 -25.062  85.680  1.00  0.00    -0.002 C 
ATOM     12  C   UNL     1      75.944 -26.422  86.393  1.00  0.00     0.005 C 
ATOM     13  C   UNL     1      77.736 -24.986  85.542  1.00  0.00    -0.026 C 
ATOM     14  C   UNL     1      77.260 -26.825  87.069  1.00  0.00     0.005 C 
ATOM     15  C   UNL     1      78.160 -25.615  86.884  1.00  0.00    -0.001 C 
ATOM     16  C   UNL     1      78.331 -23.541  85.459  1.00  0.00     0.007 C 
ATOM     17  C   UNL     1      78.216 -25.827  84.317  1.00  0.00     0.012 C 
ATOM     18  C   UNL     1      79.687 -25.838  86.989  1.00  0.00     0.000 C 
ATOM     19  C   UNL     1      79.550 -23.301  86.389  1.00  0.00     0.005 C 
ATOM     20  C   UNL     1      80.478 -24.547  86.544  1.00  0.00     0.003 C 
ATOM     21  C   UNL     1      80.075 -26.313  88.393  1.00  0.00     0.031 C 
ATOM     22  C   UNL     1      81.808 -24.239  87.369  1.00  0.00    -0.008 C 
ATOM     23  C   UNL     1      81.562 -26.460  88.486  1.00  0.00    -0.027 C 
ATOM     24  C   UNL     1      82.388 -25.528  87.973  1.00  0.00    -0.065 C 
ATOM     25  C   UNL     1      82.847 -23.589  86.396  1.00  0.00     0.014 C 
ATOM     26  C   UNL     1      81.552 -23.256  88.545  1.00  0.00     0.016 C 
ATOM     27  C   UNL     1      83.865 -25.634  88.311  1.00  0.00     0.063 C 
ATOM     28  C   UNL     1      84.278 -23.561  86.943  1.00  0.00     0.033 C 
ATOM     29  C   UNL     1      84.764 -24.981  87.260  1.00  0.00     0.118 C 
BRANCH  29  30
ATOM     30  O   UNL     1      84.780 -25.772  86.098  1.00  0.00    -0.393 OA
ATOM     31  H   UNL     1      85.103 -26.672  86.369  1.00  0.00     0.210 HD
ENDBRANCH  29  30
ENDBRANCH   9  11
ENDBRANCH   1   9
TORSDOF 7
ENDMDL
