MODEL 1
REMARK VINA RESULT:    -5.932      0.000      0.000
REMARK INTER + INTRA:          -9.824
REMARK INTER:                  -8.185
REMARK INTRA:                  -1.639
REMARK UNBOUND:                -1.639
REMARK SMILES CC[C@@H](CC[C@H](C)[C@H]1CC[C@H]2[C@H]3CC=C4C[C@H](O)CC[C@]4(C)[C@H]3CC[C@]12C)C(C)C
REMARK SMILES IDX 5 1 4 2 3 3 2 4 1 5 28 6 29 7 30 8 6 9 7 10 8 11 9 12 26 13
REMARK SMILES IDX 10 14 11 15 25 16 27 17 12 18 24 19 23 20 13 21 21 22 14 23
REMARK SMILES IDX 15 24 20 25 22 26 16 27 19 28 17 29 18 30
REMARK H PARENT 18 31
REMARK Flexibility Score: inf
ROOT
ATOM      1  C   UNL     1      -1.514   1.210   8.751  1.00  0.00     0.004 C 
ENDROOT
BRANCH   1   2
ATOM      2  C   UNL     1      -0.699   0.147   7.986  1.00  0.00     0.004 C 
BRANCH   2   3
ATOM      3  C   UNL     1      -0.615  -1.220   8.737  1.00  0.00    -0.009 C 
BRANCH   3   4
ATOM      4  C   UNL     1      -0.592  -1.002  10.281  1.00  0.00     0.000 C 
ATOM      5  C   UNL     1      -1.375  -2.038  11.101  1.00  0.00     0.004 C 
ENDBRANCH   3   4
BRANCH   3   6
ATOM      6  C   UNL     1       0.551  -2.117   8.194  1.00  0.00    -0.014 C 
ATOM      7  C   UNL     1       0.104  -3.587   8.044  1.00  0.00     0.007 C 
ATOM      8  C   UNL     1       1.799  -2.102   9.099  1.00  0.00     0.007 C 
ENDBRANCH   3   6
ENDBRANCH   2   3
ENDBRANCH   1   2
BRANCH   1   9
ATOM      9  C   UNL     1      -0.684   2.494   9.062  1.00  0.00    -0.011 C 
ATOM     10  C   UNL     1      -1.598   3.730   9.126  1.00  0.00     0.008 C 
BRANCH   9  11
ATOM     11  C   UNL     1       0.589   2.755   8.183  1.00  0.00    -0.002 C 
ATOM     12  C   UNL     1       0.505   4.044   7.318  1.00  0.00     0.005 C 
ATOM     13  C   UNL     1       2.032   2.765   8.787  1.00  0.00    -0.026 C 
ATOM     14  C   UNL     1       1.950   4.521   7.090  1.00  0.00     0.005 C 
ATOM     15  C   UNL     1       2.795   3.360   7.586  1.00  0.00    -0.001 C 
ATOM     16  C   UNL     1       2.654   1.378   9.065  1.00  0.00     0.007 C 
ATOM     17  C   UNL     1       2.086   3.621  10.081  1.00  0.00     0.012 C 
ATOM     18  C   UNL     1       4.325   3.531   7.731  1.00  0.00     0.000 C 
ATOM     19  C   UNL     1       4.180   1.475   9.311  1.00  0.00     0.005 C 
ATOM     20  C   UNL     1       4.968   2.172   8.152  1.00  0.00     0.003 C 
ATOM     21  C   UNL     1       4.769   4.760   8.556  1.00  0.00     0.031 C 
ATOM     22  C   UNL     1       6.523   2.300   8.407  1.00  0.00    -0.008 C 
ATOM     23  C   UNL     1       6.032   4.585   9.350  1.00  0.00    -0.027 C 
ATOM     24  C   UNL     1       6.860   3.525   9.250  1.00  0.00    -0.065 C 
ATOM     25  C   UNL     1       7.290   2.473   7.061  1.00  0.00     0.014 C 
ATOM     26  C   UNL     1       7.043   1.009   9.107  1.00  0.00     0.016 C 
ATOM     27  C   UNL     1       8.323   3.742   9.573  1.00  0.00     0.063 C 
ATOM     28  C   UNL     1       8.806   2.750   7.239  1.00  0.00     0.033 C 
ATOM     29  C   UNL     1       9.125   3.873   8.259  1.00  0.00     0.118 C 
BRANCH  29  30
ATOM     30  O   UNL     1       8.945   5.143   7.681  1.00  0.00    -0.393 OA
ATOM     31  H   UNL     1       9.480   5.183   6.847  1.00  0.00     0.210 HD
ENDBRANCH  29  30
ENDBRANCH   9  11
ENDBRANCH   1   9
TORSDOF 7
ENDMDL
MODEL 2
REMARK VINA RESULT:    -5.508      4.408      7.939
REMARK INTER + INTRA:          -9.239
REMARK INTER:                  -7.577
REMARK INTRA:                  -1.662
REMARK UNBOUND:                -1.639
REMARK SMILES CC[C@@H](CC[C@H](C)[C@H]1CC[C@H]2[C@H]3CC=C4C[C@H](O)CC[C@]4(C)[C@H]3CC[C@]12C)C(C)C
REMARK SMILES IDX 5 1 4 2 3 3 2 4 1 5 28 6 29 7 30 8 6 9 7 10 8 11 9 12 26 13
REMARK SMILES IDX 10 14 11 15 25 16 27 17 12 18 24 19 23 20 13 21 21 22 14 23
REMARK SMILES IDX 15 24 20 25 22 26 16 27 19 28 17 29 18 30
REMARK H PARENT 18 31
REMARK Flexibility Score: inf
ROOT
ATOM      1  C   UNL     1      -1.094   1.021   8.092  1.00  0.00     0.004 C 
ENDROOT
BRANCH   1   2
ATOM      2  C   UNL     1      -2.241   0.934   9.120  1.00  0.00     0.004 C 
BRANCH   2   3
ATOM      3  C   UNL     1      -3.415   0.016   8.653  1.00  0.00    -0.009 C 
BRANCH   3   4
ATOM      4  C   UNL     1      -4.776   0.773   8.738  1.00  0.00     0.000 C 
ATOM      5  C   UNL     1      -4.745   2.091   9.528  1.00  0.00     0.004 C 
ENDBRANCH   3   4
BRANCH   3   6
ATOM      6  C   UNL     1      -3.402  -1.372   9.383  1.00  0.00    -0.014 C 
ATOM      7  C   UNL     1      -4.641  -2.213   9.010  1.00  0.00     0.007 C 
ATOM      8  C   UNL     1      -3.371  -1.248  10.919  1.00  0.00     0.007 C 
ENDBRANCH   3   6
ENDBRANCH   2   3
ENDBRANCH   1   2
BRANCH   1   9
ATOM      9  C   UNL     1       0.305   1.183   8.764  1.00  0.00    -0.011 C 
ATOM     10  C   UNL     1       0.969   2.500   8.328  1.00  0.00     0.008 C 
BRANCH   9  11
ATOM     11  C   UNL     1       1.294  -0.031   8.660  1.00  0.00    -0.002 C 
ATOM     12  C   UNL     1       2.676   0.222   9.325  1.00  0.00     0.005 C 
ATOM     13  C   UNL     1       0.890  -1.476   9.101  1.00  0.00    -0.026 C 
ATOM     14  C   UNL     1       3.223  -1.151   9.750  1.00  0.00     0.005 C 
ATOM     15  C   UNL     1       2.283  -2.137   9.077  1.00  0.00    -0.001 C 
ATOM     16  C   UNL     1       0.008  -2.262   8.106  1.00  0.00     0.007 C 
ATOM     17  C   UNL     1       0.202  -1.459  10.493  1.00  0.00     0.012 C 
ATOM     18  C   UNL     1       2.362  -3.640   9.434  1.00  0.00     0.000 C 
ATOM     19  C   UNL     1      -0.037  -3.771   8.450  1.00  0.00     0.005 C 
ATOM     20  C   UNL     1       1.372  -4.447   8.536  1.00  0.00     0.003 C 
ATOM     21  C   UNL     1       2.296  -3.955  10.946  1.00  0.00     0.031 C 
ATOM     22  C   UNL     1       1.337  -5.982   8.914  1.00  0.00    -0.008 C 
ATOM     23  C   UNL     1       1.621  -5.248  11.309  1.00  0.00    -0.027 C 
ATOM     24  C   UNL     1       1.245  -6.192  10.422  1.00  0.00    -0.065 C 
ATOM     25  C   UNL     1       2.646  -6.692   8.455  1.00  0.00     0.014 C 
ATOM     26  C   UNL     1       0.131  -6.664   8.203  1.00  0.00     0.016 C 
ATOM     27  C   UNL     1       1.189  -7.626  10.902  1.00  0.00     0.063 C 
ATOM     28  C   UNL     1       2.749  -8.169   8.918  1.00  0.00     0.033 C 
ATOM     29  C   UNL     1       2.452  -8.378  10.426  1.00  0.00     0.118 C 
BRANCH  29  30
ATOM     30  O   UNL     1       3.569  -8.037  11.210  1.00  0.00    -0.393 OA
ATOM     31  H   UNL     1       3.673  -8.726  11.916  1.00  0.00     0.210 HD
ENDBRANCH  29  30
ENDBRANCH   9  11
ENDBRANCH   1   9
TORSDOF 7
ENDMDL
MODEL 3
REMARK VINA RESULT:    -5.499      2.920      6.774
REMARK INTER + INTRA:          -9.227
REMARK INTER:                  -7.654
REMARK INTRA:                  -1.573
REMARK UNBOUND:                -1.639
REMARK SMILES CC[C@@H](CC[C@H](C)[C@H]1CC[C@H]2[C@H]3CC=C4C[C@H](O)CC[C@]4(C)[C@H]3CC[C@]12C)C(C)C
REMARK SMILES IDX 5 1 4 2 3 3 2 4 1 5 28 6 29 7 30 8 6 9 7 10 8 11 9 12 26 13
REMARK SMILES IDX 10 14 11 15 25 16 27 17 12 18 24 19 23 20 13 21 21 22 14 23
REMARK SMILES IDX 15 24 20 25 22 26 16 27 19 28 17 29 18 30
REMARK H PARENT 18 31
REMARK Flexibility Score: inf
ROOT
ATOM      1  C   UNL     1       3.934  -2.192   9.891  1.00  0.00     0.004 C 
ENDROOT
BRANCH   1   2
ATOM      2  C   UNL     1       4.334  -1.339  11.113  1.00  0.00     0.004 C 
BRANCH   2   3
ATOM      3  C   UNL     1       5.665  -0.550  10.900  1.00  0.00    -0.009 C 
BRANCH   3   4
ATOM      4  C   UNL     1       6.095  -0.584   9.401  1.00  0.00     0.000 C 
ATOM      5  C   UNL     1       6.384   0.787   8.771  1.00  0.00     0.004 C 
ENDBRANCH   3   4
BRANCH   3   6
ATOM      6  C   UNL     1       6.783  -1.006  11.902  1.00  0.00    -0.014 C 
ATOM      7  C   UNL     1       7.832   0.107  12.114  1.00  0.00     0.007 C 
ATOM      8  C   UNL     1       7.535  -2.269  11.438  1.00  0.00     0.007 C 
ENDBRANCH   3   6
ENDBRANCH   2   3
ENDBRANCH   1   2
BRANCH   1   9
ATOM      9  C   UNL     1       2.387  -2.339   9.742  1.00  0.00    -0.011 C 
ATOM     10  C   UNL     1       2.006  -3.800   9.446  1.00  0.00     0.008 C 
BRANCH   9  11
ATOM     11  C   UNL     1       1.663  -1.340   8.773  1.00  0.00    -0.002 C 
ATOM     12  C   UNL     1       0.239  -1.796   8.346  1.00  0.00     0.005 C 
ATOM     13  C   UNL     1       1.520   0.183   9.100  1.00  0.00    -0.026 C 
ATOM     14  C   UNL     1      -0.558  -0.520   8.025  1.00  0.00     0.005 C 
ATOM     15  C   UNL     1       0.498   0.571   8.012  1.00  0.00    -0.001 C 
ATOM     16  C   UNL     1       2.779   1.044   8.855  1.00  0.00     0.007 C 
ATOM     17  C   UNL     1       1.030   0.394  10.558  1.00  0.00     0.012 C 
ATOM     18  C   UNL     1       0.069   2.055   7.938  1.00  0.00     0.000 C 
ATOM     19  C   UNL     1       2.446   2.556   8.856  1.00  0.00     0.005 C 
ATOM     20  C   UNL     1       1.334   2.964   7.832  1.00  0.00     0.003 C 
ATOM     21  C   UNL     1      -0.972   2.486   8.996  1.00  0.00     0.031 C 
ATOM     22  C   UNL     1       0.968   4.502   7.846  1.00  0.00    -0.008 C 
ATOM     23  C   UNL     1      -0.855   3.904   9.479  1.00  0.00    -0.027 C 
ATOM     24  C   UNL     1      -0.043   4.834   8.937  1.00  0.00    -0.065 C 
ATOM     25  C   UNL     1       0.308   4.924   6.498  1.00  0.00     0.014 C 
ATOM     26  C   UNL     1       2.265   5.343   8.043  1.00  0.00     0.016 C 
ATOM     27  C   UNL     1      -0.458   6.285   9.057  1.00  0.00     0.063 C 
ATOM     28  C   UNL     1      -0.210   6.385   6.489  1.00  0.00     0.033 C 
ATOM     29  C   UNL     1      -1.077   6.754   7.721  1.00  0.00     0.118 C 
BRANCH  29  30
ATOM     30  O   UNL     1      -2.390   6.271   7.575  1.00  0.00    -0.393 OA
ATOM     31  H   UNL     1      -3.017   7.007   7.794  1.00  0.00     0.210 HD
ENDBRANCH  29  30
ENDBRANCH   9  11
ENDBRANCH   1   9
TORSDOF 7
ENDMDL
MODEL 4
REMARK VINA RESULT:    -5.475      2.290      5.266
REMARK INTER + INTRA:          -9.194
REMARK INTER:                  -7.269
REMARK INTRA:                  -1.925
REMARK UNBOUND:                -1.639
REMARK SMILES CC[C@@H](CC[C@H](C)[C@H]1CC[C@H]2[C@H]3CC=C4C[C@H](O)CC[C@]4(C)[C@H]3CC[C@]12C)C(C)C
REMARK SMILES IDX 5 1 4 2 3 3 2 4 1 5 28 6 29 7 30 8 6 9 7 10 8 11 9 12 26 13
REMARK SMILES IDX 10 14 11 15 25 16 27 17 12 18 24 19 23 20 13 21 21 22 14 23
REMARK SMILES IDX 15 24 20 25 22 26 16 27 19 28 17 29 18 30
REMARK H PARENT 18 31
REMARK Flexibility Score: inf
ROOT
ATOM      1  C   UNL     1      -4.400  -1.212   8.774  1.00  0.00     0.004 C 
ENDROOT
BRANCH   1   2
ATOM      2  C   UNL     1      -4.415   0.312   8.532  1.00  0.00     0.004 C 
BRANCH   2   3
ATOM      3  C   UNL     1      -4.330   1.143   9.852  1.00  0.00    -0.009 C 
BRANCH   3   4
ATOM      4  C   UNL     1      -5.672   1.062  10.643  1.00  0.00     0.000 C 
ATOM      5  C   UNL     1      -5.597   0.322  11.987  1.00  0.00     0.004 C 
ENDBRANCH   3   4
BRANCH   3   6
ATOM      6  C   UNL     1      -3.820   2.604   9.594  1.00  0.00    -0.014 C 
ATOM      7  C   UNL     1      -2.768   3.022  10.642  1.00  0.00     0.007 C 
ATOM      8  C   UNL     1      -4.948   3.653   9.624  1.00  0.00     0.007 C 
ENDBRANCH   3   6
ENDBRANCH   2   3
ENDBRANCH   1   2
BRANCH   1   9
ATOM      9  C   UNL     1      -2.991  -1.742   9.182  1.00  0.00    -0.011 C 
ATOM     10  C   UNL     1      -3.112  -3.054   9.975  1.00  0.00     0.008 C 
BRANCH   9  11
ATOM     11  C   UNL     1      -2.017  -0.727   9.878  1.00  0.00    -0.002 C 
ATOM     12  C   UNL     1      -1.553  -1.169  11.295  1.00  0.00     0.005 C 
ATOM     13  C   UNL     1      -0.725  -0.195   9.175  1.00  0.00    -0.026 C 
ATOM     14  C   UNL     1      -0.180  -0.519  11.535  1.00  0.00     0.005 C 
ATOM     15  C   UNL     1      -0.044   0.469  10.389  1.00  0.00    -0.001 C 
ATOM     16  C   UNL     1      -0.941   0.916   8.124  1.00  0.00     0.007 C 
ATOM     17  C   UNL     1       0.078  -1.359   8.535  1.00  0.00     0.012 C 
ATOM     18  C   UNL     1       1.308   1.179  10.144  1.00  0.00     0.000 C 
ATOM     19  C   UNL     1       0.388   1.620   7.756  1.00  0.00     0.005 C 
ATOM     20  C   UNL     1       1.156   2.213   8.984  1.00  0.00     0.003 C 
ATOM     21  C   UNL     1       2.529   0.238  10.039  1.00  0.00     0.031 C 
ATOM     22  C   UNL     1       2.528   2.910   8.621  1.00  0.00    -0.008 C 
ATOM     23  C   UNL     1       3.616   0.689   9.104  1.00  0.00    -0.027 C 
ATOM     24  C   UNL     1       3.665   1.900   8.514  1.00  0.00    -0.065 C 
ATOM     25  C   UNL     1       2.945   3.919   9.733  1.00  0.00     0.014 C 
ATOM     26  C   UNL     1       2.376   3.690   7.281  1.00  0.00     0.016 C 
ATOM     27  C   UNL     1       5.028   2.452   8.153  1.00  0.00     0.063 C 
ATOM     28  C   UNL     1       4.352   4.536   9.518  1.00  0.00     0.033 C 
ATOM     29  C   UNL     1       5.457   3.493   9.211  1.00  0.00     0.118 C 
BRANCH  29  30
ATOM     30  O   UNL     1       5.896   2.864  10.390  1.00  0.00    -0.393 OA
ATOM     31  H   UNL     1       6.656   3.386  10.756  1.00  0.00     0.210 HD
ENDBRANCH  29  30
ENDBRANCH   9  11
ENDBRANCH   1   9
TORSDOF 7
ENDMDL
MODEL 5
REMARK VINA RESULT:    -5.450     12.545     15.546
REMARK INTER + INTRA:          -9.160
REMARK INTER:                  -7.517
REMARK INTRA:                  -1.643
REMARK UNBOUND:                -1.639
REMARK SMILES CC[C@@H](CC[C@H](C)[C@H]1CC[C@H]2[C@H]3CC=C4C[C@H](O)CC[C@]4(C)[C@H]3CC[C@]12C)C(C)C
REMARK SMILES IDX 5 1 4 2 3 3 2 4 1 5 28 6 29 7 30 8 6 9 7 10 8 11 9 12 26 13
REMARK SMILES IDX 10 14 11 15 25 16 27 17 12 18 24 19 23 20 13 21 21 22 14 23
REMARK SMILES IDX 15 24 20 25 22 26 16 27 19 28 17 29 18 30
REMARK H PARENT 18 31
REMARK Flexibility Score: inf
ROOT
ATOM      1  C   UNL     1       8.356   3.352  -4.000  1.00  0.00     0.004 C 
ENDROOT
BRANCH   1   2
ATOM      2  C   UNL     1       8.029   4.857  -3.925  1.00  0.00     0.004 C 
BRANCH   2   3
ATOM      3  C   UNL     1       6.808   5.175  -3.005  1.00  0.00    -0.009 C 
BRANCH   3   4
ATOM      4  C   UNL     1       5.668   5.862  -3.817  1.00  0.00     0.000 C 
ATOM      5  C   UNL     1       6.095   6.470  -5.162  1.00  0.00     0.004 C 
ENDBRANCH   3   4
BRANCH   3   6
ATOM      6  C   UNL     1       7.235   5.950  -1.710  1.00  0.00    -0.014 C 
ATOM      7  C   UNL     1       6.006   6.345  -0.864  1.00  0.00     0.007 C 
ATOM      8  C   UNL     1       8.027   7.238  -2.008  1.00  0.00     0.007 C 
ENDBRANCH   3   6
ENDBRANCH   2   3
ENDBRANCH   1   2
BRANCH   1   9
ATOM      9  C   UNL     1       7.700   2.654  -5.232  1.00  0.00    -0.011 C 
ATOM     10  C   UNL     1       8.046   3.404  -6.529  1.00  0.00     0.008 C 
BRANCH   9  11
ATOM     11  C   UNL     1       6.169   2.326  -5.138  1.00  0.00    -0.002 C 
ATOM     12  C   UNL     1       5.312   2.992  -6.251  1.00  0.00     0.005 C 
ATOM     13  C   UNL     1       5.634   0.860  -5.036  1.00  0.00    -0.026 C 
ATOM     14  C   UNL     1       4.078   2.096  -6.457  1.00  0.00     0.005 C 
ATOM     15  C   UNL     1       4.136   1.128  -5.288  1.00  0.00    -0.001 C 
ATOM     16  C   UNL     1       5.740   0.200  -3.644  1.00  0.00     0.007 C 
ATOM     17  C   UNL     1       6.317  -0.053  -6.090  1.00  0.00     0.012 C 
ATOM     18  C   UNL     1       3.181  -0.088  -5.248  1.00  0.00     0.000 C 
ATOM     19  C   UNL     1       4.877  -1.082  -3.551  1.00  0.00     0.005 C 
ATOM     20  C   UNL     1       3.368  -0.860  -3.905  1.00  0.00     0.003 C 
ATOM     21  C   UNL     1       3.185  -0.961  -6.523  1.00  0.00     0.031 C 
ATOM     22  C   UNL     1       2.484  -2.170  -3.840  1.00  0.00    -0.008 C 
ATOM     23  C   UNL     1       2.948  -2.429  -6.303  1.00  0.00    -0.027 C 
ATOM     24  C   UNL     1       2.573  -2.977  -5.130  1.00  0.00    -0.065 C 
ATOM     25  C   UNL     1       0.978  -1.809  -3.654  1.00  0.00     0.014 C 
ATOM     26  C   UNL     1       2.934  -3.041  -2.629  1.00  0.00     0.016 C 
ATOM     27  C   UNL     1       1.778  -4.264  -5.178  1.00  0.00     0.063 C 
ATOM     28  C   UNL     1       0.032  -3.035  -3.726  1.00  0.00     0.033 C 
ATOM     29  C   UNL     1       0.281  -3.953  -4.951  1.00  0.00     0.118 C 
BRANCH  29  30
ATOM     30  O   UNL     1      -0.304  -3.413  -6.111  1.00  0.00    -0.393 OA
ATOM     31  H   UNL     1      -1.185  -3.030  -5.864  1.00  0.00     0.210 HD
ENDBRANCH  29  30
ENDBRANCH   9  11
ENDBRANCH   1   9
TORSDOF 7
ENDMDL
MODEL 6
REMARK VINA RESULT:    -5.448      1.531      2.220
REMARK INTER + INTRA:          -9.157
REMARK INTER:                  -8.089
REMARK INTRA:                  -1.068
REMARK UNBOUND:                -1.639
REMARK SMILES CC[C@@H](CC[C@H](C)[C@H]1CC[C@H]2[C@H]3CC=C4C[C@H](O)CC[C@]4(C)[C@H]3CC[C@]12C)C(C)C
REMARK SMILES IDX 5 1 4 2 3 3 2 4 1 5 28 6 29 7 30 8 6 9 7 10 8 11 9 12 26 13
REMARK SMILES IDX 10 14 11 15 25 16 27 17 12 18 24 19 23 20 13 21 21 22 14 23
REMARK SMILES IDX 15 24 20 25 22 26 16 27 19 28 17 29 18 30
REMARK H PARENT 18 31
REMARK Flexibility Score: inf
ROOT
ATOM      1  C   UNL     1      -1.500   0.700   8.109  1.00  0.00     0.004 C 
ENDROOT
BRANCH   1   2
ATOM      2  C   UNL     1      -2.072  -0.350   9.084  1.00  0.00     0.004 C 
BRANCH   2   3
ATOM      3  C   UNL     1      -3.560  -0.718   8.784  1.00  0.00    -0.009 C 
BRANCH   3   4
ATOM      4  C   UNL     1      -4.454   0.560   8.770  1.00  0.00     0.000 C 
ATOM      5  C   UNL     1      -4.717   1.191  10.146  1.00  0.00     0.004 C 
ENDBRANCH   3   4
BRANCH   3   6
ATOM      6  C   UNL     1      -4.083  -1.860   9.724  1.00  0.00    -0.014 C 
ATOM      7  C   UNL     1      -2.914  -2.662  10.333  1.00  0.00     0.007 C 
ATOM      8  C   UNL     1      -5.008  -2.861   9.005  1.00  0.00     0.007 C 
ENDBRANCH   3   6
ENDBRANCH   2   3
ENDBRANCH   1   2
BRANCH   1   9
ATOM      9  C   UNL     1      -0.629   1.777   8.829  1.00  0.00    -0.011 C 
ATOM     10  C   UNL     1      -1.497   2.961   9.286  1.00  0.00     0.008 C 
BRANCH   9  11
ATOM     11  C   UNL     1       0.671   2.256   8.092  1.00  0.00    -0.002 C 
ATOM     12  C   UNL     1       0.543   3.661   7.438  1.00  0.00     0.005 C 
ATOM     13  C   UNL     1       2.072   2.258   8.788  1.00  0.00    -0.026 C 
ATOM     14  C   UNL     1       1.960   4.258   7.389  1.00  0.00     0.005 C 
ATOM     15  C   UNL     1       2.857   3.088   7.752  1.00  0.00    -0.001 C 
ATOM     16  C   UNL     1       2.776   0.887   8.886  1.00  0.00     0.007 C 
ATOM     17  C   UNL     1       1.987   2.895  10.202  1.00  0.00     0.012 C 
ATOM     18  C   UNL     1       4.360   3.328   8.027  1.00  0.00     0.000 C 
ATOM     19  C   UNL     1       4.274   1.038   9.249  1.00  0.00     0.005 C 
ATOM     20  C   UNL     1       5.075   1.962   8.272  1.00  0.00     0.003 C 
ATOM     21  C   UNL     1       4.664   4.433   9.065  1.00  0.00     0.031 C 
ATOM     22  C   UNL     1       6.599   2.145   8.651  1.00  0.00    -0.008 C 
ATOM     23  C   UNL     1       5.889   4.211   9.907  1.00  0.00    -0.027 C 
ATOM     24  C   UNL     1       6.796   3.235   9.698  1.00  0.00    -0.065 C 
ATOM     25  C   UNL     1       7.428   2.582   7.405  1.00  0.00     0.014 C 
ATOM     26  C   UNL     1       7.171   0.792   9.172  1.00  0.00     0.016 C 
ATOM     27  C   UNL     1       8.217   3.489  10.152  1.00  0.00     0.063 C 
ATOM     28  C   UNL     1       8.907   2.921   7.729  1.00  0.00     0.033 C 
ATOM     29  C   UNL     1       9.083   3.882   8.934  1.00  0.00     0.118 C 
BRANCH  29  30
ATOM     30  O   UNL     1       8.845   5.215   8.553  1.00  0.00    -0.393 OA
ATOM     31  H   UNL     1       8.825   5.255   7.562  1.00  0.00     0.210 HD
ENDBRANCH  29  30
ENDBRANCH   9  11
ENDBRANCH   1   9
TORSDOF 7
ENDMDL
MODEL 7
REMARK VINA RESULT:    -5.427      3.083      7.716
REMARK INTER + INTRA:          -9.127
REMARK INTER:                  -7.152
REMARK INTRA:                  -1.975
REMARK UNBOUND:                -1.639
REMARK SMILES CC[C@@H](CC[C@H](C)[C@H]1CC[C@H]2[C@H]3CC=C4C[C@H](O)CC[C@]4(C)[C@H]3CC[C@]12C)C(C)C
REMARK SMILES IDX 5 1 4 2 3 3 2 4 1 5 28 6 29 7 30 8 6 9 7 10 8 11 9 12 26 13
REMARK SMILES IDX 10 14 11 15 25 16 27 17 12 18 24 19 23 20 13 21 21 22 14 23
REMARK SMILES IDX 15 24 20 25 22 26 16 27 19 28 17 29 18 30
REMARK H PARENT 18 31
REMARK Flexibility Score: inf
ROOT
ATOM      1  C   UNL     1       3.686   7.080   8.809  1.00  0.00     0.004 C 
ENDROOT
BRANCH   1   2
ATOM      2  C   UNL     1       5.125   6.588   8.550  1.00  0.00     0.004 C 
BRANCH   2   3
ATOM      3  C   UNL     1       5.243   5.677   7.287  1.00  0.00    -0.009 C 
BRANCH   3   4
ATOM      4  C   UNL     1       6.060   4.388   7.610  1.00  0.00     0.000 C 
ATOM      5  C   UNL     1       6.385   4.173   9.096  1.00  0.00     0.004 C 
ENDBRANCH   3   4
BRANCH   3   6
ATOM      6  C   UNL     1       5.759   6.472   6.037  1.00  0.00    -0.014 C 
ATOM      7  C   UNL     1       6.382   7.822   6.450  1.00  0.00     0.007 C 
ATOM      8  C   UNL     1       4.652   6.767   5.007  1.00  0.00     0.007 C 
ENDBRANCH   3   6
ENDBRANCH   2   3
ENDBRANCH   1   2
BRANCH   1   9
ATOM      9  C   UNL     1       2.617   6.250   8.032  1.00  0.00    -0.011 C 
ATOM     10  C   UNL     1       1.700   7.174   7.213  1.00  0.00     0.008 C 
BRANCH   9  11
ATOM     11  C   UNL     1       1.798   5.192   8.852  1.00  0.00    -0.002 C 
ATOM     12  C   UNL     1       0.303   5.569   9.053  1.00  0.00     0.005 C 
ATOM     13  C   UNL     1       1.786   3.673   8.476  1.00  0.00    -0.026 C 
ATOM     14  C   UNL     1      -0.470   4.249   9.216  1.00  0.00     0.005 C 
ATOM     15  C   UNL     1       0.624   3.208   9.378  1.00  0.00    -0.001 C 
ATOM     16  C   UNL     1       3.031   2.865   8.904  1.00  0.00     0.007 C 
ATOM     17  C   UNL     1       1.546   3.480   6.955  1.00  0.00     0.012 C 
ATOM     18  C   UNL     1       0.264   1.705   9.352  1.00  0.00     0.000 C 
ATOM     19  C   UNL     1       2.779   1.340   8.820  1.00  0.00     0.005 C 
ATOM     20  C   UNL     1       1.539   0.853   9.643  1.00  0.00     0.003 C 
ATOM     21  C   UNL     1      -0.572   1.255   8.132  1.00  0.00     0.031 C 
ATOM     22  C   UNL     1       1.258  -0.700   9.540  1.00  0.00    -0.008 C 
ATOM     23  C   UNL     1      -0.308  -0.142   7.646  1.00  0.00    -0.027 C 
ATOM     24  C   UNL     1       0.452  -1.048   8.294  1.00  0.00    -0.065 C 
ATOM     25  C   UNL     1       0.412  -1.188  10.756  1.00  0.00     0.014 C 
ATOM     26  C   UNL     1       2.610  -1.474   9.539  1.00  0.00     0.016 C 
ATOM     27  C   UNL     1       0.136  -2.513   8.081  1.00  0.00     0.063 C 
ATOM     28  C   UNL     1      -0.027  -2.672  10.653  1.00  0.00     0.033 C 
ATOM     29  C   UNL     1      -0.665  -3.046   9.290  1.00  0.00     0.118 C 
BRANCH  29  30
ATOM     30  O   UNL     1      -2.007  -2.629   9.232  1.00  0.00    -0.393 OA
ATOM     31  H   UNL     1      -2.488  -3.220   8.597  1.00  0.00     0.210 HD
ENDBRANCH  29  30
ENDBRANCH   9  11
ENDBRANCH   1   9
TORSDOF 7
ENDMDL
MODEL 8
REMARK VINA RESULT:    -5.406      3.866      8.974
REMARK INTER + INTRA:          -9.098
REMARK INTER:                  -7.277
REMARK INTRA:                  -1.822
REMARK UNBOUND:                -1.639
REMARK SMILES CC[C@@H](CC[C@H](C)[C@H]1CC[C@H]2[C@H]3CC=C4C[C@H](O)CC[C@]4(C)[C@H]3CC[C@]12C)C(C)C
REMARK SMILES IDX 5 1 4 2 3 3 2 4 1 5 28 6 29 7 30 8 6 9 7 10 8 11 9 12 26 13
REMARK SMILES IDX 10 14 11 15 25 16 27 17 12 18 24 19 23 20 13 21 21 22 14 23
REMARK SMILES IDX 15 24 20 25 22 26 16 27 19 28 17 29 18 30
REMARK H PARENT 18 31
REMARK Flexibility Score: inf
ROOT
ATOM      1  C   UNL     1       3.387   0.182   9.477  1.00  0.00     0.004 C 
ENDROOT
BRANCH   1   2
ATOM      2  C   UNL     1       3.343   1.723   9.419  1.00  0.00     0.004 C 
BRANCH   2   3
ATOM      3  C   UNL     1       3.681   2.293   8.004  1.00  0.00    -0.009 C 
BRANCH   3   4
ATOM      4  C   UNL     1       5.223   2.336   7.780  1.00  0.00     0.000 C 
ATOM      5  C   UNL     1       6.054   2.729   9.011  1.00  0.00     0.004 C 
ENDBRANCH   3   4
BRANCH   3   6
ATOM      6  C   UNL     1       2.950   3.653   7.730  1.00  0.00    -0.014 C 
ATOM      7  C   UNL     1       1.469   3.429   7.359  1.00  0.00     0.007 C 
ATOM      8  C   UNL     1       3.595   4.469   6.593  1.00  0.00     0.007 C 
ENDBRANCH   3   6
ENDBRANCH   2   3
ENDBRANCH   1   2
BRANCH   1   9
ATOM      9  C   UNL     1       1.966  -0.458   9.561  1.00  0.00    -0.011 C 
ATOM     10  C   UNL     1       1.989  -1.905   9.041  1.00  0.00     0.008 C 
BRANCH   9  11
ATOM     11  C   UNL     1       0.775   0.362   8.951  1.00  0.00    -0.002 C 
ATOM     12  C   UNL     1       0.090  -0.328   7.738  1.00  0.00     0.005 C 
ATOM     13  C   UNL     1      -0.402   0.902   9.829  1.00  0.00    -0.026 C 
ATOM     14  C   UNL     1      -1.364   0.174   7.704  1.00  0.00     0.005 C 
ATOM     15  C   UNL     1      -1.374   1.317   8.705  1.00  0.00    -0.001 C 
ATOM     16  C   UNL     1      -0.100   2.177  10.647  1.00  0.00     0.007 C 
ATOM     17  C   UNL     1      -0.938  -0.203  10.778  1.00  0.00     0.012 C 
ATOM     18  C   UNL     1      -2.717   1.956   9.128  1.00  0.00     0.000 C 
ATOM     19  C   UNL     1      -1.396   2.830  11.186  1.00  0.00     0.005 C 
ATOM     20  C   UNL     1      -2.448   3.166  10.076  1.00  0.00     0.003 C 
ATOM     21  C   UNL     1      -3.790   0.956   9.616  1.00  0.00     0.031 C 
ATOM     22  C   UNL     1      -3.786   3.810  10.620  1.00  0.00    -0.008 C 
ATOM     23  C   UNL     1      -4.712   1.467  10.687  1.00  0.00    -0.027 C 
ATOM     24  C   UNL     1      -4.769   2.748  11.102  1.00  0.00    -0.065 C 
ATOM     25  C   UNL     1      -4.516   4.599   9.491  1.00  0.00     0.014 C 
ATOM     26  C   UNL     1      -3.455   4.798  11.777  1.00  0.00     0.016 C 
ATOM     27  C   UNL     1      -6.084   3.248  11.660  1.00  0.00     0.063 C 
ATOM     28  C   UNL     1      -5.909   5.138   9.910  1.00  0.00     0.033 C 
ATOM     29  C   UNL     1      -6.818   4.077  10.583  1.00  0.00     0.118 C 
BRANCH  29  30
ATOM     30  O   UNL     1      -7.413   3.241   9.620  1.00  0.00    -0.393 OA
ATOM     31  H   UNL     1      -7.792   2.452  10.087  1.00  0.00     0.210 HD
ENDBRANCH  29  30
ENDBRANCH   9  11
ENDBRANCH   1   9
TORSDOF 7
ENDMDL
MODEL 9
REMARK VINA RESULT:    -5.382     12.771     15.752
REMARK INTER + INTRA:          -9.065
REMARK INTER:                  -7.209
REMARK INTRA:                  -1.857
REMARK UNBOUND:                -1.639
REMARK SMILES CC[C@@H](CC[C@H](C)[C@H]1CC[C@H]2[C@H]3CC=C4C[C@H](O)CC[C@]4(C)[C@H]3CC[C@]12C)C(C)C
REMARK SMILES IDX 5 1 4 2 3 3 2 4 1 5 28 6 29 7 30 8 6 9 7 10 8 11 9 12 26 13
REMARK SMILES IDX 10 14 11 15 25 16 27 17 12 18 24 19 23 20 13 21 21 22 14 23
REMARK SMILES IDX 15 24 20 25 22 26 16 27 19 28 17 29 18 30
REMARK H PARENT 18 31
REMARK Flexibility Score: inf
ROOT
ATOM      1  C   UNL     1       7.007   3.951  -7.276  1.00  0.00     0.004 C 
ENDROOT
BRANCH   1   2
ATOM      2  C   UNL     1       7.261   5.163  -6.357  1.00  0.00     0.004 C 
BRANCH   2   3
ATOM      3  C   UNL     1       6.769   4.937  -4.892  1.00  0.00    -0.009 C 
BRANCH   3   4
ATOM      4  C   UNL     1       5.435   5.703  -4.633  1.00  0.00     0.000 C 
ATOM      5  C   UNL     1       4.191   5.097  -5.300  1.00  0.00     0.004 C 
ENDBRANCH   3   4
BRANCH   3   6
ATOM      6  C   UNL     1       7.896   5.231  -3.842  1.00  0.00    -0.014 C 
ATOM      7  C   UNL     1       8.811   4.003  -3.644  1.00  0.00     0.007 C 
ATOM      8  C   UNL     1       7.347   5.628  -2.458  1.00  0.00     0.007 C 
ENDBRANCH   3   6
ENDBRANCH   2   3
ENDBRANCH   1   2
BRANCH   1   9
ATOM      9  C   UNL     1       7.844   2.700  -6.867  1.00  0.00    -0.011 C 
ATOM     10  C   UNL     1       9.125   2.601  -7.712  1.00  0.00     0.008 C 
BRANCH   9  11
ATOM     11  C   UNL     1       7.089   1.326  -6.790  1.00  0.00    -0.002 C 
ATOM     12  C   UNL     1       8.023   0.105  -6.559  1.00  0.00     0.005 C 
ATOM     13  C   UNL     1       5.874   1.095  -5.832  1.00  0.00    -0.026 C 
ATOM     14  C   UNL     1       7.182  -0.969  -5.847  1.00  0.00     0.005 C 
ATOM     15  C   UNL     1       5.762  -0.439  -5.947  1.00  0.00    -0.001 C 
ATOM     16  C   UNL     1       4.524   1.675  -6.306  1.00  0.00     0.007 C 
ATOM     17  C   UNL     1       6.186   1.619  -4.404  1.00  0.00     0.012 C 
ATOM     18  C   UNL     1       4.628  -1.129  -5.154  1.00  0.00     0.000 C 
ATOM     19  C   UNL     1       3.337   1.098  -5.496  1.00  0.00     0.005 C 
ATOM     20  C   UNL     1       3.260  -0.466  -5.508  1.00  0.00     0.003 C 
ATOM     21  C   UNL     1       4.906  -1.315  -3.645  1.00  0.00     0.031 C 
ATOM     22  C   UNL     1       2.067  -1.065  -4.661  1.00  0.00    -0.008 C 
ATOM     23  C   UNL     1       3.702  -1.232  -2.750  1.00  0.00    -0.027 C 
ATOM     24  C   UNL     1       2.426  -1.186  -3.184  1.00  0.00    -0.065 C 
ATOM     25  C   UNL     1       1.719  -2.507  -5.143  1.00  0.00     0.014 C 
ATOM     26  C   UNL     1       0.804  -0.170  -4.835  1.00  0.00     0.016 C 
ATOM     27  C   UNL     1       1.352  -1.734  -2.270  1.00  0.00     0.063 C 
ATOM     28  C   UNL     1       0.655  -3.216  -4.266  1.00  0.00     0.033 C 
ATOM     29  C   UNL     1       0.946  -3.148  -2.744  1.00  0.00     0.118 C 
BRANCH  29  30
ATOM     30  O   UNL     1       1.911  -4.102  -2.373  1.00  0.00    -0.393 OA
ATOM     31  H   UNL     1       2.196  -4.587  -3.190  1.00  0.00     0.210 HD
ENDBRANCH  29  30
ENDBRANCH   9  11
ENDBRANCH   1   9
TORSDOF 7
ENDMDL
