MODEL 1
REMARK VINA RESULT:    -4.562      0.000      0.000
REMARK INTER + INTRA:         -11.379
REMARK INTER:                  -9.630
REMARK INTRA:                  -1.749
REMARK UNBOUND:                -1.749
REMARK SMILES CCC(=O)CCCCC[C@H]1NC(=O)[C@@H]2CCCCN2C(=O)[C@@H]([C@H](C)CC)NC(=O)[C@H](Cc2cn(OC)c3ccccc23)NC1=O
REMARK SMILES IDX 9 1 10 2 44 3 43 4 45 6 30 7 28 8 27 9 29 11 22 12 23 14
REMARK SMILES IDX 24 15 25 16 26 17 31 18 32 19 33 20 42 21 34 22 37 23 41 24
REMARK SMILES IDX 38 25 40 26 39 27 35 28 36 29 11 30 12 31 13 33 14 34 19 35
REMARK SMILES IDX 15 36 18 37 16 38 17 39 20 40 21 41 8 43 7 44 6 45 5 46 3 47
REMARK SMILES IDX 4 48 2 49 1 50
REMARK H PARENT 43 5 27 10 11 32
REMARK Flexibility Score: 80.00
ROOT
ATOM      1  C   UNL     1      60.773  30.314  61.147  1.00  0.00     0.035 C 
ENDROOT
BRANCH   1   2
ATOM      2  C   UNL     1      60.593  28.945  60.449  1.00  0.00     0.171 C 
BRANCH   2   3
ATOM      3  C   UNL     1      59.753  28.946  59.189  1.00  0.00     0.243 C 
ATOM      4  N   UNL     1      58.437  29.530  59.129  1.00  0.00    -0.342 N 
ATOM      5  H   UNL     1      58.204  30.286  59.805  1.00  0.00     0.164 HD
ATOM      6  O   UNL     1      60.251  28.407  58.164  1.00  0.00    -0.273 OA
BRANCH   4   7
ATOM      7  C   UNL     1      57.288  28.946  58.415  1.00  0.00     0.175 C 
BRANCH   7   8
ATOM      8  C   UNL     1      57.317  27.446  58.611  1.00  0.00     0.243 C 
ATOM      9  N   UNL     1      57.915  26.806  59.751  1.00  0.00    -0.342 N 
ATOM     10  H   UNL     1      58.706  27.277  60.232  1.00  0.00     0.164 HD
ATOM     11  O   UNL     1      56.794  26.748  57.708  1.00  0.00    -0.273 OA
BRANCH   9  12
ATOM     12  C   UNL     1      57.347  25.637  60.440  1.00  0.00     0.174 CG0
ATOM     13  G   UNL     1      58.454  24.729  60.930  1.00  0.00     0.000 G0
BRANCH  12  14
ATOM     14  C   UNL     1      56.192  26.018  61.435  1.00  0.00     0.018 C 
ATOM     15  C   UNL     1      54.822  25.816  60.756  1.00  0.00     0.010 C 
BRANCH  14  16
ATOM     16  C   UNL     1      56.281  27.431  62.067  1.00  0.00     0.002 C 
ATOM     17  C   UNL     1      55.209  28.382  61.510  1.00  0.00     0.004 C 
ENDBRANCH  14  16
ENDBRANCH  12  14
ENDBRANCH   9  12
ENDBRANCH   7   8
BRANCH   7  18
ATOM     18  C   UNL     1      57.203  29.442  56.953  1.00  0.00     0.073 C 
BRANCH  18  19
ATOM     19  C   UNL     1      57.375  30.934  56.771  1.00  0.00    -0.016 A 
ATOM     20  C   UNL     1      58.541  31.541  56.308  1.00  0.00     0.134 A 
ATOM     21  C   UNL     1      56.550  31.977  57.172  1.00  0.00     0.006 A 
ATOM     22  N   UNL     1      58.431  32.884  56.341  1.00  0.00    -0.191 N 
ATOM     23  C   UNL     1      57.218  33.152  56.884  1.00  0.00     0.087 A 
ATOM     24  C   UNL     1      55.331  31.969  57.863  1.00  0.00     0.011 A 
ATOM     25  C   UNL     1      56.673  34.389  57.243  1.00  0.00     0.030 A 
ATOM     26  C   UNL     1      54.774  33.199  58.232  1.00  0.00     0.001 A 
ATOM     27  C   UNL     1      55.435  34.403  57.915  1.00  0.00     0.002 A 
BRANCH  22  28
ATOM     28  O   UNL     1      59.503  33.738  56.121  1.00  0.00    -0.417 OA
ATOM     29  C   UNL     1      60.831  33.428  56.508  1.00  0.00     0.313 C 
ENDBRANCH  22  28
ENDBRANCH  18  19
ENDBRANCH   7  18
ENDBRANCH   4   7
ENDBRANCH   2   3
BRANCH   2  30
ATOM     30  N   UNL     1      60.140  27.890  61.367  1.00  0.00    -0.343 N 
ATOM     31  C   UNL     1      60.672  26.550  61.452  1.00  0.00     0.243 C 
ATOM     32  H   UNL     1      59.441  28.200  62.079  1.00  0.00     0.164 HD
ATOM     33  O   UNL     1      61.514  26.148  60.604  1.00  0.00    -0.273 OA
BRANCH  31  34
ATOM     34  C   UNL     1      60.254  25.593  62.572  1.00  0.00     0.174 C 
ATOM     35  N   UNL     1      59.008  24.851  62.272  1.00  0.00    -0.329 N 
ATOM     36  C   UNL     1      61.359  24.589  62.959  1.00  0.00     0.035 C 
ATOM     37  C   UNL     1      58.499  23.938  63.310  1.00  0.00     0.120 C 
ATOM     38  C   UNL     1      60.890  23.707  64.120  1.00  0.00     0.004 C 
ATOM     39  C   UNL     1      59.602  22.960  63.737  1.00  0.00     0.022 C 
BRANCH  35  40
ATOM     40  C   UNL     1      58.485  24.769  60.933  1.00  0.00     0.246 CG0
ATOM     41  O   UNL     1      58.966  23.917  60.145  1.00  0.00    -0.272 OA
ATOM     42  G   UNL     1      57.351  25.638  60.436  1.00  0.00     0.000 G0
ENDBRANCH  35  40
ENDBRANCH  31  34
ENDBRANCH   2  30
ENDBRANCH   1   2
BRANCH   1  43
ATOM     43  C   UNL     1      62.246  30.586  61.505  1.00  0.00     0.003 C 
BRANCH  43  44
ATOM     44  C   UNL     1      62.740  31.904  60.886  1.00  0.00     0.001 C 
BRANCH  44  45
ATOM     45  C   UNL     1      61.609  32.728  60.243  1.00  0.00     0.008 C 
BRANCH  45  46
ATOM     46  C   UNL     1      61.867  34.248  60.316  1.00  0.00     0.075 C 
BRANCH  46  47
ATOM     47  C   UNL     1      63.268  34.676  59.922  1.00  0.00     0.132 C 
ATOM     48  O   UNL     1      63.438  35.091  58.785  1.00  0.00    -0.300 OA
BRANCH  47  49
ATOM     49  C   UNL     1      64.449  34.568  60.864  1.00  0.00     0.072 C 
ATOM     50  C   UNL     1      64.606  35.779  61.788  1.00  0.00     0.012 C 
ENDBRANCH  47  49
ENDBRANCH  46  47
ENDBRANCH  45  46
ENDBRANCH  44  45
ENDBRANCH  43  44
ENDBRANCH   1  43
TORSDOF 12
ENDMDL
MODEL 2
REMARK VINA RESULT:    -4.477      8.430     12.138
REMARK INTER + INTRA:         -11.199
REMARK INTER:                  -9.256
REMARK INTRA:                  -1.943
REMARK UNBOUND:                -1.749
REMARK SMILES CCC(=O)CCCCC[C@H]1NC(=O)[C@@H]2CCCCN2C(=O)[C@@H]([C@H](C)CC)NC(=O)[C@H](Cc2cn(OC)c3ccccc23)NC1=O
REMARK SMILES IDX 9 1 10 2 44 3 43 4 45 6 30 7 28 8 27 9 29 11 22 12 23 14
REMARK SMILES IDX 24 15 25 16 26 17 31 18 32 19 33 20 42 21 34 22 37 23 41 24
REMARK SMILES IDX 38 25 40 26 39 27 35 28 36 29 11 30 12 31 13 33 14 34 19 35
REMARK SMILES IDX 15 36 18 37 16 38 17 39 20 40 21 41 8 43 7 44 6 45 5 46 3 47
REMARK SMILES IDX 4 48 2 49 1 50
REMARK H PARENT 43 5 27 10 11 32
REMARK Flexibility Score: 80.00
ROOT
ATOM      1  C   UNL     1      59.917  27.967  49.575  1.00  0.00     0.035 C 
ENDROOT
BRANCH   1   2
ATOM      2  C   UNL     1      61.230  28.383  50.277  1.00  0.00     0.171 C 
BRANCH   2   3
ATOM      3  C   UNL     1      61.088  29.346  51.436  1.00  0.00     0.243 C 
ATOM      4  N   UNL     1      60.596  30.691  51.279  1.00  0.00    -0.342 N 
ATOM      5  H   UNL     1      59.974  30.893  50.468  1.00  0.00     0.164 HD
ATOM      6  O   UNL     1      61.422  28.927  52.578  1.00  0.00    -0.273 OA
BRANCH   4   7
ATOM      7  C   UNL     1      61.138  31.874  51.969  1.00  0.00     0.175 C 
BRANCH   7   8
ATOM      8  C   UNL     1      62.648  31.782  51.958  1.00  0.00     0.243 C 
ATOM      9  N   UNL     1      63.397  31.150  50.906  1.00  0.00    -0.342 N 
ATOM     10  H   UNL     1      62.955  30.375  50.373  1.00  0.00     0.164 HD
ATOM     11  O   UNL     1      63.252  32.283  52.938  1.00  0.00    -0.273 OA
BRANCH   9  12
ATOM     12  C   UNL     1      64.664  31.664  50.362  1.00  0.00     0.174 CG0
ATOM     13  G   UNL     1      65.495  30.529  49.806  1.00  0.00     0.000 G0
BRANCH  12  14
ATOM     14  C   UNL     1      64.472  32.955  49.487  1.00  0.00     0.018 C 
ATOM     15  C   UNL     1      64.868  34.206  50.296  1.00  0.00     0.010 C 
BRANCH  14  16
ATOM     16  C   UNL     1      63.069  33.141  48.854  1.00  0.00     0.002 C 
ATOM     17  C   UNL     1      62.918  34.512  48.176  1.00  0.00     0.004 C 
ENDBRANCH  14  16
ENDBRANCH  12  14
ENDBRANCH   9  12
ENDBRANCH   7   8
BRANCH   7  18
ATOM     18  C   UNL     1      60.477  32.090  53.350  1.00  0.00     0.073 C 
BRANCH  18  19
ATOM     19  C   UNL     1      59.192  32.888  53.329  1.00  0.00    -0.016 A 
ATOM     20  C   UNL     1      59.118  34.265  53.528  1.00  0.00     0.134 A 
ATOM     21  C   UNL     1      57.875  32.447  53.301  1.00  0.00     0.006 A 
ATOM     22  N   UNL     1      57.836  34.681  53.546  1.00  0.00    -0.191 N 
ATOM     23  C   UNL     1      57.074  33.566  53.423  1.00  0.00     0.087 A 
ATOM     24  C   UNL     1      57.342  31.152  53.293  1.00  0.00     0.011 A 
ATOM     25  C   UNL     1      55.683  33.442  53.505  1.00  0.00     0.030 A 
ATOM     26  C   UNL     1      55.952  31.011  53.377  1.00  0.00     0.001 A 
ATOM     27  C   UNL     1      55.126  32.149  53.472  1.00  0.00     0.002 A 
BRANCH  22  28
ATOM     28  O   UNL     1      57.461  35.965  53.919  1.00  0.00    -0.417 OA
ATOM     29  C   UNL     1      57.806  36.541  55.166  1.00  0.00     0.313 C 
ENDBRANCH  22  28
ENDBRANCH  18  19
ENDBRANCH   7  18
ENDBRANCH   4   7
ENDBRANCH   2   3
BRANCH   2  30
ATOM     30  N   UNL     1      62.256  28.858  49.337  1.00  0.00    -0.343 N 
ATOM     31  C   UNL     1      63.624  28.402  49.268  1.00  0.00     0.243 C 
ATOM     32  H   UNL     1      61.904  29.508  48.599  1.00  0.00     0.164 HD
ATOM     33  O   UNL     1      64.076  27.619  50.148  1.00  0.00    -0.273 OA
BRANCH  31  34
ATOM     34  C   UNL     1      64.553  28.828  48.129  1.00  0.00     0.174 C 
ATOM     35  N   UNL     1      65.344  30.040  48.442  1.00  0.00    -0.329 N 
ATOM     36  C   UNL     1      65.507  27.707  47.668  1.00  0.00     0.035 C 
ATOM     37  C   UNL     1      66.236  30.556  47.389  1.00  0.00     0.120 C 
ATOM     38  C   UNL     1      66.361  28.188  46.491  1.00  0.00     0.004 C 
ATOM     39  C   UNL     1      67.162  29.438  46.889  1.00  0.00     0.022 C 
BRANCH  35  40
ATOM     40  C   UNL     1      65.491  30.513  49.794  1.00  0.00     0.246 CG0
ATOM     41  O   UNL     1      66.363  29.987  50.530  1.00  0.00    -0.272 OA
ATOM     42  G   UNL     1      64.668  31.648  50.364  1.00  0.00     0.000 G0
ENDBRANCH  35  40
ENDBRANCH  31  34
ENDBRANCH   2  30
ENDBRANCH   1   2
BRANCH   1  43
ATOM     43  C   UNL     1      59.690  26.444  49.637  1.00  0.00     0.003 C 
BRANCH  43  44
ATOM     44  C   UNL     1      58.318  26.105  50.244  1.00  0.00     0.001 C 
BRANCH  44  45
ATOM     45  C   UNL     1      57.387  27.327  50.347  1.00  0.00     0.008 C 
BRANCH  45  46
ATOM     46  C   UNL     1      56.639  27.390  51.696  1.00  0.00     0.075 C 
BRANCH  46  47
ATOM     47  C   UNL     1      55.147  27.644  51.586  1.00  0.00     0.132 C 
ATOM     48  O   UNL     1      54.445  27.330  52.536  1.00  0.00    -0.300 OA
BRANCH  47  49
ATOM     49  C   UNL     1      54.508  28.226  50.343  1.00  0.00     0.072 C 
ATOM     50  C   UNL     1      53.003  27.959  50.247  1.00  0.00     0.012 C 
ENDBRANCH  47  49
ENDBRANCH  46  47
ENDBRANCH  45  46
ENDBRANCH  44  45
ENDBRANCH  43  44
ENDBRANCH   1  43
TORSDOF 12
ENDMDL
MODEL 3
REMARK VINA RESULT:    -4.399      1.310      1.998
REMARK INTER + INTRA:         -11.034
REMARK INTER:                  -8.916
REMARK INTRA:                  -2.118
REMARK UNBOUND:                -1.749
REMARK SMILES CCC(=O)CCCCC[C@H]1NC(=O)[C@@H]2CCCCN2C(=O)[C@@H]([C@H](C)CC)NC(=O)[C@H](Cc2cn(OC)c3ccccc23)NC1=O
REMARK SMILES IDX 9 1 10 2 44 3 43 4 45 6 30 7 28 8 27 9 29 11 22 12 23 14
REMARK SMILES IDX 24 15 25 16 26 17 31 18 32 19 33 20 42 21 34 22 37 23 41 24
REMARK SMILES IDX 38 25 40 26 39 27 35 28 36 29 11 30 12 31 13 33 14 34 19 35
REMARK SMILES IDX 15 36 18 37 16 38 17 39 20 40 21 41 8 43 7 44 6 45 5 46 3 47
REMARK SMILES IDX 4 48 2 49 1 50
REMARK H PARENT 43 5 27 10 11 32
REMARK Flexibility Score: 80.00
ROOT
ATOM      1  C   UNL     1      61.887  30.390  61.448  1.00  0.00     0.035 C 
ENDROOT
BRANCH   1   2
ATOM      2  C   UNL     1      61.580  29.079  60.687  1.00  0.00     0.171 C 
BRANCH   2   3
ATOM      3  C   UNL     1      60.747  29.218  59.430  1.00  0.00     0.243 C 
ATOM      4  N   UNL     1      59.441  29.826  59.422  1.00  0.00    -0.342 N 
ATOM      5  H   UNL     1      59.216  30.514  60.170  1.00  0.00     0.164 HD
ATOM      6  O   UNL     1      61.243  28.776  58.358  1.00  0.00    -0.273 OA
BRANCH   4   7
ATOM      7  C   UNL     1      58.287  29.333  58.650  1.00  0.00     0.175 C 
BRANCH   7   8
ATOM      8  C   UNL     1      58.306  27.821  58.675  1.00  0.00     0.243 C 
ATOM      9  N   UNL     1      58.810  27.052  59.781  1.00  0.00    -0.342 N 
ATOM     10  H   UNL     1      59.556  27.462  60.377  1.00  0.00     0.164 HD
ATOM     11  O   UNL     1      57.862  27.233  57.659  1.00  0.00    -0.273 OA
BRANCH   9  12
ATOM     12  C   UNL     1      58.191  25.815  60.284  1.00  0.00     0.174 CG0
ATOM     13  G   UNL     1      59.247  24.901  60.865  1.00  0.00     0.000 G0
BRANCH  12  14
ATOM     14  C   UNL     1      56.885  26.082  61.116  1.00  0.00     0.018 C 
ATOM     15  C   UNL     1      55.640  25.831  60.241  1.00  0.00     0.010 C 
BRANCH  14  16
ATOM     16  C   UNL     1      56.793  27.468  61.805  1.00  0.00     0.002 C 
ATOM     17  C   UNL     1      55.367  28.041  61.761  1.00  0.00     0.004 C 
ENDBRANCH  14  16
ENDBRANCH  12  14
ENDBRANCH   9  12
ENDBRANCH   7   8
BRANCH   7  18
ATOM     18  C   UNL     1      58.204  29.992  57.253  1.00  0.00     0.073 C 
BRANCH  18  19
ATOM     19  C   UNL     1      57.576  31.368  57.228  1.00  0.00    -0.016 A 
ATOM     20  C   UNL     1      56.287  31.636  56.773  1.00  0.00     0.134 A 
ATOM     21  C   UNL     1      58.154  32.611  57.454  1.00  0.00     0.006 A 
ATOM     22  N   UNL     1      56.038  32.961  56.783  1.00  0.00    -0.191 N 
ATOM     23  C   UNL     1      57.186  33.559  57.185  1.00  0.00     0.087 A 
ATOM     24  C   UNL     1      59.474  32.966  57.759  1.00  0.00     0.011 A 
ATOM     25  C   UNL     1      57.487  34.924  57.248  1.00  0.00     0.030 A 
ATOM     26  C   UNL     1      59.792  34.328  57.823  1.00  0.00     0.001 A 
ATOM     27  C   UNL     1      58.802  35.302  57.580  1.00  0.00     0.002 A 
BRANCH  22  28
ATOM     28  O   UNL     1      54.910  33.525  56.202  1.00  0.00    -0.417 OA
ATOM     29  C   UNL     1      53.700  33.739  56.908  1.00  0.00     0.313 C 
ENDBRANCH  22  28
ENDBRANCH  18  19
ENDBRANCH   7  18
ENDBRANCH   4   7
ENDBRANCH   2   3
BRANCH   2  30
ATOM     30  N   UNL     1      61.027  28.029  61.556  1.00  0.00    -0.343 N 
ATOM     31  C   UNL     1      61.436  26.645  61.584  1.00  0.00     0.243 C 
ATOM     32  H   UNL     1      60.353  28.370  62.277  1.00  0.00     0.164 HD
ATOM     33  O   UNL     1      62.246  26.206  60.723  1.00  0.00    -0.273 OA
BRANCH  31  34
ATOM     34  C   UNL     1      60.925  25.682  62.658  1.00  0.00     0.174 C 
ATOM     35  N   UNL     1      59.693  24.964  62.261  1.00  0.00    -0.329 N 
ATOM     36  C   UNL     1      61.984  24.656  63.111  1.00  0.00     0.035 C 
ATOM     37  C   UNL     1      59.097  24.046  63.248  1.00  0.00     0.120 C 
ATOM     38  C   UNL     1      61.420  23.768  64.224  1.00  0.00     0.004 C 
ATOM     39  C   UNL     1      60.152  23.046  63.741  1.00  0.00     0.022 C 
BRANCH  35  40
ATOM     40  C   UNL     1      59.266  24.905  60.887  1.00  0.00     0.246 CG0
ATOM     41  O   UNL     1      59.766  24.034  60.133  1.00  0.00    -0.272 OA
ATOM     42  G   UNL     1      58.209  25.823  60.313  1.00  0.00     0.000 G0
ENDBRANCH  35  40
ENDBRANCH  31  34
ENDBRANCH   2  30
ENDBRANCH   1   2
BRANCH   1  43
ATOM     43  C   UNL     1      63.112  31.119  60.863  1.00  0.00     0.003 C 
BRANCH  43  44
ATOM     44  C   UNL     1      62.692  32.338  60.025  1.00  0.00     0.001 C 
BRANCH  44  45
ATOM     45  C   UNL     1      63.881  33.032  59.333  1.00  0.00     0.008 C 
BRANCH  45  46
ATOM     46  C   UNL     1      63.465  34.320  58.590  1.00  0.00     0.075 C 
BRANCH  46  47
ATOM     47  C   UNL     1      63.475  35.577  59.440  1.00  0.00     0.132 C 
ATOM     48  O   UNL     1      62.466  36.266  59.448  1.00  0.00    -0.300 OA
BRANCH  47  49
ATOM     49  C   UNL     1      64.690  36.018  60.229  1.00  0.00     0.072 C 
ATOM     50  C   UNL     1      64.755  35.418  61.636  1.00  0.00     0.012 C 
ENDBRANCH  47  49
ENDBRANCH  46  47
ENDBRANCH  45  46
ENDBRANCH  44  45
ENDBRANCH  43  44
ENDBRANCH   1  43
TORSDOF 12
ENDMDL
MODEL 4
REMARK VINA RESULT:    -4.155      1.852      2.821
REMARK INTER + INTRA:         -10.520
REMARK INTER:                  -8.920
REMARK INTRA:                  -1.599
REMARK UNBOUND:                -1.749
REMARK SMILES CCC(=O)CCCCC[C@H]1NC(=O)[C@@H]2CCCCN2C(=O)[C@@H]([C@H](C)CC)NC(=O)[C@H](Cc2cn(OC)c3ccccc23)NC1=O
REMARK SMILES IDX 9 1 10 2 44 3 43 4 45 6 30 7 28 8 27 9 29 11 22 12 23 14
REMARK SMILES IDX 24 15 25 16 26 17 31 18 32 19 33 20 42 21 34 22 37 23 41 24
REMARK SMILES IDX 38 25 40 26 39 27 35 28 36 29 11 30 12 31 13 33 14 34 19 35
REMARK SMILES IDX 15 36 18 37 16 38 17 39 20 40 21 41 8 43 7 44 6 45 5 46 3 47
REMARK SMILES IDX 4 48 2 49 1 50
REMARK H PARENT 43 5 27 10 11 32
REMARK Flexibility Score: 80.00
ROOT
ATOM      1  C   UNL     1      61.945  30.398  61.629  1.00  0.00     0.035 C 
ENDROOT
BRANCH   1   2
ATOM      2  C   UNL     1      61.615  29.133  60.804  1.00  0.00     0.171 C 
BRANCH   2   3
ATOM      3  C   UNL     1      60.867  29.360  59.507  1.00  0.00     0.243 C 
ATOM      4  N   UNL     1      59.565  29.973  59.453  1.00  0.00    -0.342 N 
ATOM      5  H   UNL     1      59.291  30.611  60.229  1.00  0.00     0.164 HD
ATOM      6  O   UNL     1      61.433  28.987  58.443  1.00  0.00    -0.273 OA
BRANCH   4   7
ATOM      7  C   UNL     1      58.465  29.539  58.575  1.00  0.00     0.175 C 
BRANCH   7   8
ATOM      8  C   UNL     1      58.458  28.027  58.530  1.00  0.00     0.243 C 
ATOM      9  N   UNL     1      58.834  27.198  59.643  1.00  0.00    -0.342 N 
ATOM     10  H   UNL     1      59.522  27.565  60.330  1.00  0.00     0.164 HD
ATOM     11  O   UNL     1      58.110  27.495  57.447  1.00  0.00    -0.273 OA
BRANCH   9  12
ATOM     12  C   UNL     1      58.149  25.953  60.021  1.00  0.00     0.174 CG0
ATOM     13  G   UNL     1      59.135  24.973  60.618  1.00  0.00     0.000 G0
BRANCH  12  14
ATOM     14  C   UNL     1      56.793  26.207  60.773  1.00  0.00     0.018 C 
ATOM     15  C   UNL     1      55.605  25.964  59.820  1.00  0.00     0.010 C 
BRANCH  14  16
ATOM     16  C   UNL     1      56.654  27.586  61.470  1.00  0.00     0.002 C 
ATOM     17  C   UNL     1      55.243  27.805  62.040  1.00  0.00     0.004 C 
ENDBRANCH  14  16
ENDBRANCH  12  14
ENDBRANCH   9  12
ENDBRANCH   7   8
BRANCH   7  18
ATOM     18  C   UNL     1      58.497  30.262  57.208  1.00  0.00     0.073 C 
BRANCH  18  19
ATOM     19  C   UNL     1      58.214  31.748  57.262  1.00  0.00    -0.016 A 
ATOM     20  C   UNL     1      59.196  32.735  57.296  1.00  0.00     0.134 A 
ATOM     21  C   UNL     1      57.012  32.414  57.468  1.00  0.00     0.006 A 
ATOM     22  N   UNL     1      58.645  33.958  57.436  1.00  0.00    -0.191 N 
ATOM     23  C   UNL     1      57.309  33.760  57.557  1.00  0.00     0.087 A 
ATOM     24  C   UNL     1      55.719  31.925  57.693  1.00  0.00     0.011 A 
ATOM     25  C   UNL     1      56.308  34.695  57.841  1.00  0.00     0.030 A 
ATOM     26  C   UNL     1      54.706  32.847  57.981  1.00  0.00     0.001 A 
ATOM     27  C   UNL     1      54.996  34.225  58.044  1.00  0.00     0.002 A 
BRANCH  22  28
ATOM     28  O   UNL     1      59.391  35.100  57.693  1.00  0.00    -0.417 OA
ATOM     29  C   UNL     1      58.886  36.412  57.514  1.00  0.00     0.313 C 
ENDBRANCH  22  28
ENDBRANCH  18  19
ENDBRANCH   7  18
ENDBRANCH   4   7
ENDBRANCH   2   3
BRANCH   2  30
ATOM     30  N   UNL     1      60.956  28.086  61.600  1.00  0.00    -0.343 N 
ATOM     31  C   UNL     1      61.260  26.676  61.570  1.00  0.00     0.243 C 
ATOM     32  H   UNL     1      60.284  28.441  62.317  1.00  0.00     0.164 HD
ATOM     33  O   UNL     1      62.065  26.220  60.712  1.00  0.00    -0.273 OA
BRANCH  31  34
ATOM     34  C   UNL     1      60.642  25.702  62.576  1.00  0.00     0.174 C 
ATOM     35  N   UNL     1      59.438  25.012  62.060  1.00  0.00    -0.329 N 
ATOM     36  C   UNL     1      61.642  24.650  63.099  1.00  0.00     0.035 C 
ATOM     37  C   UNL     1      58.745  24.087  62.973  1.00  0.00     0.120 C 
ATOM     38  C   UNL     1      60.969  23.752  64.142  1.00  0.00     0.004 C 
ATOM     39  C   UNL     1      59.737  23.061  63.536  1.00  0.00     0.022 C 
BRANCH  35  40
ATOM     40  C   UNL     1      59.132  24.986  60.653  1.00  0.00     0.246 CG0
ATOM     41  O   UNL     1      59.660  24.102  59.933  1.00  0.00    -0.272 OA
ATOM     42  G   UNL     1      58.169  25.954  60.000  1.00  0.00     0.000 G0
ENDBRANCH  35  40
ENDBRANCH  31  34
ENDBRANCH   2  30
ENDBRANCH   1   2
BRANCH   1  43
ATOM     43  C   UNL     1      62.552  31.512  60.753  1.00  0.00     0.003 C 
BRANCH  43  44
ATOM     44  C   UNL     1      64.087  31.517  60.837  1.00  0.00     0.001 C 
BRANCH  44  45
ATOM     45  C   UNL     1      64.752  30.648  59.752  1.00  0.00     0.008 C 
BRANCH  45  46
ATOM     46  C   UNL     1      65.758  29.635  60.339  1.00  0.00     0.075 C 
BRANCH  46  47
ATOM     47  C   UNL     1      65.510  28.190  59.946  1.00  0.00     0.132 C 
ATOM     48  O   UNL     1      66.171  27.328  60.505  1.00  0.00    -0.300 OA
BRANCH  47  49
ATOM     49  C   UNL     1      64.518  27.796  58.871  1.00  0.00     0.072 C 
ATOM     50  C   UNL     1      64.979  26.610  58.020  1.00  0.00     0.012 C 
ENDBRANCH  47  49
ENDBRANCH  46  47
ENDBRANCH  45  46
ENDBRANCH  44  45
ENDBRANCH  43  44
ENDBRANCH   1  43
TORSDOF 12
ENDMDL
MODEL 5
REMARK VINA RESULT:    -4.140      7.366     11.880
REMARK INTER + INTRA:         -10.487
REMARK INTER:                  -9.159
REMARK INTRA:                  -1.328
REMARK UNBOUND:                -1.749
REMARK SMILES CCC(=O)CCCCC[C@H]1NC(=O)[C@@H]2CCCCN2C(=O)[C@@H]([C@H](C)CC)NC(=O)[C@H](Cc2cn(OC)c3ccccc23)NC1=O
REMARK SMILES IDX 9 1 10 2 44 3 43 4 45 6 30 7 28 8 27 9 29 11 22 12 23 14
REMARK SMILES IDX 24 15 25 16 26 17 31 18 32 19 33 20 42 21 34 22 37 23 41 24
REMARK SMILES IDX 38 25 40 26 39 27 35 28 36 29 11 30 12 31 13 33 14 34 19 35
REMARK SMILES IDX 15 36 18 37 16 38 17 39 20 40 21 41 8 43 7 44 6 45 5 46 3 47
REMARK SMILES IDX 4 48 2 49 1 50
REMARK H PARENT 43 5 27 10 11 32
REMARK Flexibility Score: 80.00
ROOT
ATOM      1  C   UNL     1      59.198  28.783  49.482  1.00  0.00     0.035 C 
ENDROOT
BRANCH   1   2
ATOM      2  C   UNL     1      60.525  28.706  50.272  1.00  0.00     0.171 C 
BRANCH   2   3
ATOM      3  C   UNL     1      60.508  29.308  51.662  1.00  0.00     0.243 C 
ATOM      4  N   UNL     1      59.952  30.607  51.942  1.00  0.00    -0.342 N 
ATOM      5  H   UNL     1      59.220  30.977  51.301  1.00  0.00     0.164 HD
ATOM      6  O   UNL     1      61.007  28.621  52.594  1.00  0.00    -0.273 OA
BRANCH   4   7
ATOM      7  C   UNL     1      60.542  31.595  52.862  1.00  0.00     0.175 C 
BRANCH   7   8
ATOM      8  C   UNL     1      62.048  31.525  52.736  1.00  0.00     0.243 C 
ATOM      9  N   UNL     1      62.724  31.042  51.563  1.00  0.00    -0.342 N 
ATOM     10  H   UNL     1      62.250  30.335  50.967  1.00  0.00     0.164 HD
ATOM     11  O   UNL     1      62.716  31.906  53.729  1.00  0.00    -0.273 OA
BRANCH   9  12
ATOM     12  C   UNL     1      63.948  31.637  51.005  1.00  0.00     0.174 CG0
ATOM     13  G   UNL     1      64.825  30.563  50.400  1.00  0.00     0.000 G0
BRANCH  12  14
ATOM     14  C   UNL     1      63.666  32.937  50.169  1.00  0.00     0.018 C 
ATOM     15  C   UNL     1      63.918  34.188  51.034  1.00  0.00     0.010 C 
BRANCH  14  16
ATOM     16  C   UNL     1      62.273  33.018  49.492  1.00  0.00     0.002 C 
ATOM     17  C   UNL     1      62.157  34.228  48.551  1.00  0.00     0.004 C 
ENDBRANCH  14  16
ENDBRANCH  12  14
ENDBRANCH   9  12
ENDBRANCH   7   8
BRANCH   7  18
ATOM     18  C   UNL     1      59.970  31.465  54.293  1.00  0.00     0.073 C 
BRANCH  18  19
ATOM     19  C   UNL     1      59.569  32.771  54.945  1.00  0.00    -0.016 A 
ATOM     20  C   UNL     1      59.671  33.033  56.309  1.00  0.00     0.134 A 
ATOM     21  C   UNL     1      58.881  33.853  54.411  1.00  0.00     0.006 A 
ATOM     22  N   UNL     1      59.151  34.241  56.608  1.00  0.00    -0.191 N 
ATOM     23  C   UNL     1      58.653  34.736  55.448  1.00  0.00     0.087 A 
ATOM     24  C   UNL     1      58.351  34.062  53.131  1.00  0.00     0.011 A 
ATOM     25  C   UNL     1      57.908  35.903  55.243  1.00  0.00     0.030 A 
ATOM     26  C   UNL     1      57.600  35.223  52.910  1.00  0.00     0.001 A 
ATOM     27  C   UNL     1      57.389  36.144  53.956  1.00  0.00     0.002 A 
BRANCH  22  28
ATOM     28  O   UNL     1      58.945  34.676  57.910  1.00  0.00    -0.417 OA
ATOM     29  C   UNL     1      59.758  35.650  58.539  1.00  0.00     0.313 C 
ENDBRANCH  22  28
ENDBRANCH  18  19
ENDBRANCH   7  18
ENDBRANCH   4   7
ENDBRANCH   2   3
BRANCH   2  30
ATOM     30  N   UNL     1      61.677  29.208  49.509  1.00  0.00    -0.343 N 
ATOM     31  C   UNL     1      62.980  28.592  49.431  1.00  0.00     0.243 C 
ATOM     32  H   UNL     1      61.470  30.028  48.896  1.00  0.00     0.164 HD
ATOM     33  O   UNL     1      63.258  27.603  50.162  1.00  0.00    -0.273 OA
BRANCH  31  34
ATOM     34  C   UNL     1      64.047  29.098  48.457  1.00  0.00     0.174 C 
ATOM     35  N   UNL     1      64.830  30.238  48.987  1.00  0.00    -0.329 N 
ATOM     36  C   UNL     1      65.017  27.994  47.988  1.00  0.00     0.035 C 
ATOM     37  C   UNL     1      65.852  30.825  48.104  1.00  0.00     0.120 C 
ATOM     38  C   UNL     1      66.015  28.562  46.975  1.00  0.00     0.004 C 
ATOM     39  C   UNL     1      66.799  29.730  47.594  1.00  0.00     0.022 C 
BRANCH  35  40
ATOM     40  C   UNL     1      64.831  30.561  50.391  1.00  0.00     0.246 CG0
ATOM     41  O   UNL     1      65.630  29.960  51.152  1.00  0.00    -0.272 OA
ATOM     42  G   UNL     1      63.938  31.624  50.993  1.00  0.00     0.000 G0
ENDBRANCH  35  40
ENDBRANCH  31  34
ENDBRANCH   2  30
ENDBRANCH   1   2
BRANCH   1  43
ATOM     43  C   UNL     1      58.019  28.196  50.280  1.00  0.00     0.003 C 
BRANCH  43  44
ATOM     44  C   UNL     1      56.953  29.265  50.575  1.00  0.00     0.001 C 
BRANCH  44  45
ATOM     45  C   UNL     1      55.741  28.710  51.345  1.00  0.00     0.008 C 
BRANCH  45  46
ATOM     46  C   UNL     1      54.683  28.080  50.414  1.00  0.00     0.075 C 
BRANCH  46  47
ATOM     47  C   UNL     1      54.474  26.589  50.602  1.00  0.00     0.132 C 
ATOM     48  O   UNL     1      54.535  26.146  51.739  1.00  0.00    -0.300 OA
BRANCH  47  49
ATOM     49  C   UNL     1      54.238  25.645  49.442  1.00  0.00     0.072 C 
ATOM     50  C   UNL     1      52.932  25.916  48.690  1.00  0.00     0.012 C 
ENDBRANCH  47  49
ENDBRANCH  46  47
ENDBRANCH  45  46
ENDBRANCH  44  45
ENDBRANCH  43  44
ENDBRANCH   1  43
TORSDOF 12
ENDMDL
MODEL 6
REMARK VINA RESULT:    -4.078      8.161     12.101
REMARK INTER + INTRA:         -10.357
REMARK INTER:                  -8.572
REMARK INTRA:                  -1.785
REMARK UNBOUND:                -1.749
REMARK SMILES CCC(=O)CCCCC[C@H]1NC(=O)[C@@H]2CCCCN2C(=O)[C@@H]([C@H](C)CC)NC(=O)[C@H](Cc2cn(OC)c3ccccc23)NC1=O
REMARK SMILES IDX 9 1 10 2 44 3 43 4 45 6 30 7 28 8 27 9 29 11 22 12 23 14
REMARK SMILES IDX 24 15 25 16 26 17 31 18 32 19 33 20 42 21 34 22 37 23 41 24
REMARK SMILES IDX 38 25 40 26 39 27 35 28 36 29 11 30 12 31 13 33 14 34 19 35
REMARK SMILES IDX 15 36 18 37 16 38 17 39 20 40 21 41 8 43 7 44 6 45 5 46 3 47
REMARK SMILES IDX 4 48 2 49 1 50
REMARK H PARENT 43 5 27 10 11 32
REMARK Flexibility Score: 80.00
ROOT
ATOM      1  C   UNL     1      59.605  28.280  49.504  1.00  0.00     0.035 C 
ENDROOT
BRANCH   1   2
ATOM      2  C   UNL     1      60.902  28.592  50.286  1.00  0.00     0.171 C 
BRANCH   2   3
ATOM      3  C   UNL     1      60.742  29.452  51.523  1.00  0.00     0.243 C 
ATOM      4  N   UNL     1      60.281  30.816  51.471  1.00  0.00    -0.342 N 
ATOM      5  H   UNL     1      59.690  31.103  50.664  1.00  0.00     0.164 HD
ATOM      6  O   UNL     1      61.032  28.926  52.632  1.00  0.00    -0.273 OA
BRANCH   4   7
ATOM      7  C   UNL     1      60.825  31.920  52.280  1.00  0.00     0.175 C 
BRANCH   7   8
ATOM      8  C   UNL     1      62.334  31.811  52.284  1.00  0.00     0.243 C 
ATOM      9  N   UNL     1      63.089  31.218  51.214  1.00  0.00    -0.342 N 
ATOM     10  H   UNL     1      62.646  30.473  50.641  1.00  0.00     0.164 HD
ATOM     11  O   UNL     1      62.930  32.262  53.293  1.00  0.00    -0.273 OA
BRANCH   9  12
ATOM     12  C   UNL     1      64.369  31.741  50.710  1.00  0.00     0.174 CG0
ATOM     13  G   UNL     1      65.186  30.625  50.098  1.00  0.00     0.000 G0
BRANCH  12  14
ATOM     14  C   UNL     1      64.204  33.082  49.907  1.00  0.00     0.018 C 
ATOM     15  C   UNL     1      64.609  34.280  50.789  1.00  0.00     0.010 C 
BRANCH  14  16
ATOM     16  C   UNL     1      62.811  33.324  49.271  1.00  0.00     0.002 C 
ATOM     17  C   UNL     1      62.167  34.628  49.769  1.00  0.00     0.004 C 
ENDBRANCH  14  16
ENDBRANCH  12  14
ENDBRANCH   9  12
ENDBRANCH   7   8
BRANCH   7  18
ATOM     18  C   UNL     1      60.144  32.011  53.666  1.00  0.00     0.073 C 
BRANCH  18  19
ATOM     19  C   UNL     1      58.656  32.285  53.633  1.00  0.00    -0.016 A 
ATOM     20  C   UNL     1      57.674  31.297  53.627  1.00  0.00     0.134 A 
ATOM     21  C   UNL     1      57.979  33.480  53.421  1.00  0.00     0.006 A 
ATOM     22  N   UNL     1      56.446  31.839  53.499  1.00  0.00    -0.191 N 
ATOM     23  C   UNL     1      56.634  33.174  53.358  1.00  0.00     0.087 A 
ATOM     24  C   UNL     1      58.457  34.773  53.171  1.00  0.00     0.011 A 
ATOM     25  C   UNL     1      55.689  34.166  53.075  1.00  0.00     0.030 A 
ATOM     26  C   UNL     1      57.525  35.776  52.884  1.00  0.00     0.001 A 
ATOM     27  C   UNL     1      56.148  35.478  52.847  1.00  0.00     0.002 A 
BRANCH  22  28
ATOM     28  O   UNL     1      55.305  31.083  53.271  1.00  0.00    -0.417 OA
ATOM     29  C   UNL     1      54.355  30.789  54.281  1.00  0.00     0.313 C 
ENDBRANCH  22  28
ENDBRANCH  18  19
ENDBRANCH   7  18
ENDBRANCH   4   7
ENDBRANCH   2   3
BRANCH   2  30
ATOM     30  N   UNL     1      61.974  29.119  49.430  1.00  0.00    -0.343 N 
ATOM     31  C   UNL     1      63.302  28.569  49.292  1.00  0.00     0.243 C 
ATOM     32  H   UNL     1      61.685  29.900  48.799  1.00  0.00     0.164 HD
ATOM     33  O   UNL     1      63.678  27.628  50.044  1.00  0.00    -0.273 OA
BRANCH  31  34
ATOM     34  C   UNL     1      64.276  29.085  48.231  1.00  0.00     0.174 C 
ATOM     35  N   UNL     1      65.070  30.250  48.684  1.00  0.00    -0.329 N 
ATOM     36  C   UNL     1      65.232  27.998  47.700  1.00  0.00     0.035 C 
ATOM     37  C   UNL     1      66.006  30.848  47.715  1.00  0.00     0.120 C 
ATOM     38  C   UNL     1      66.134  28.574  46.604  1.00  0.00     0.004 C 
ATOM     39  C   UNL     1      66.936  29.769  47.145  1.00  0.00     0.022 C 
BRANCH  35  40
ATOM     40  C   UNL     1      65.174  30.593  50.079  1.00  0.00     0.246 CG0
ATOM     41  O   UNL     1      65.985  29.961  50.801  1.00  0.00    -0.272 OA
ATOM     42  G   UNL     1      64.377  31.711  50.714  1.00  0.00     0.000 G0
ENDBRANCH  35  40
ENDBRANCH  31  34
ENDBRANCH   2  30
ENDBRANCH   1   2
BRANCH   1  43
ATOM     43  C   UNL     1      58.631  27.415  50.328  1.00  0.00     0.003 C 
BRANCH  43  44
ATOM     44  C   UNL     1      57.618  28.285  51.091  1.00  0.00     0.001 C 
BRANCH  44  45
ATOM     45  C   UNL     1      56.268  28.416  50.362  1.00  0.00     0.008 C 
BRANCH  45  46
ATOM     46  C   UNL     1      55.063  28.298  51.320  1.00  0.00     0.075 C 
BRANCH  46  47
ATOM     47  C   UNL     1      54.094  27.177  50.990  1.00  0.00     0.132 C 
ATOM     48  O   UNL     1      53.155  27.436  50.253  1.00  0.00    -0.300 OA
BRANCH  47  49
ATOM     49  C   UNL     1      54.229  25.785  51.571  1.00  0.00     0.072 C 
ATOM     50  C   UNL     1      52.886  25.086  51.800  1.00  0.00     0.012 C 
ENDBRANCH  47  49
ENDBRANCH  46  47
ENDBRANCH  45  46
ENDBRANCH  44  45
ENDBRANCH  43  44
ENDBRANCH   1  43
TORSDOF 12
ENDMDL
MODEL 7
REMARK VINA RESULT:    -4.018      8.019     12.056
REMARK INTER + INTRA:         -10.230
REMARK INTER:                  -8.440
REMARK INTRA:                  -1.790
REMARK UNBOUND:                -1.749
REMARK SMILES CCC(=O)CCCCC[C@H]1NC(=O)[C@@H]2CCCCN2C(=O)[C@@H]([C@H](C)CC)NC(=O)[C@H](Cc2cn(OC)c3ccccc23)NC1=O
REMARK SMILES IDX 9 1 10 2 44 3 43 4 45 6 30 7 28 8 27 9 29 11 22 12 23 14
REMARK SMILES IDX 24 15 25 16 26 17 31 18 32 19 33 20 42 21 34 22 37 23 41 24
REMARK SMILES IDX 38 25 40 26 39 27 35 28 36 29 11 30 12 31 13 33 14 34 19 35
REMARK SMILES IDX 15 36 18 37 16 38 17 39 20 40 21 41 8 43 7 44 6 45 5 46 3 47
REMARK SMILES IDX 4 48 2 49 1 50
REMARK H PARENT 43 5 27 10 11 32
REMARK Flexibility Score: 80.00
ROOT
ATOM      1  C   UNL     1      59.675  28.227  49.253  1.00  0.00     0.035 C 
ENDROOT
BRANCH   1   2
ATOM      2  C   UNL     1      60.965  28.497  50.062  1.00  0.00     0.171 C 
BRANCH   2   3
ATOM      3  C   UNL     1      60.811  29.376  51.285  1.00  0.00     0.243 C 
ATOM      4  N   UNL     1      60.360  30.743  51.213  1.00  0.00    -0.342 N 
ATOM      5  H   UNL     1      59.772  31.023  50.401  1.00  0.00     0.164 HD
ATOM      6  O   UNL     1      61.095  28.865  52.402  1.00  0.00    -0.273 OA
BRANCH   4   7
ATOM      7  C   UNL     1      60.912  31.855  52.005  1.00  0.00     0.175 C 
BRANCH   7   8
ATOM      8  C   UNL     1      62.418  31.721  52.033  1.00  0.00     0.243 C 
ATOM      9  N   UNL     1      63.177  31.081  50.993  1.00  0.00    -0.342 N 
ATOM     10  H   UNL     1      62.728  30.326  50.438  1.00  0.00     0.164 HD
ATOM     11  O   UNL     1      63.009  32.193  53.035  1.00  0.00    -0.273 OA
BRANCH   9  12
ATOM     12  C   UNL     1      64.472  31.566  50.490  1.00  0.00     0.174 CG0
ATOM     13  G   UNL     1      65.287  30.415  49.944  1.00  0.00     0.000 G0
BRANCH  12  14
ATOM     14  C   UNL     1      64.339  32.871  49.624  1.00  0.00     0.018 C 
ATOM     15  C   UNL     1      64.710  34.107  50.467  1.00  0.00     0.010 C 
BRANCH  14  16
ATOM     16  C   UNL     1      62.970  33.083  48.925  1.00  0.00     0.002 C 
ATOM     17  C   UNL     1      62.671  34.571  48.681  1.00  0.00     0.004 C 
ENDBRANCH  14  16
ENDBRANCH  12  14
ENDBRANCH   9  12
ENDBRANCH   7   8
BRANCH   7  18
ATOM     18  C   UNL     1      60.213  31.987  53.379  1.00  0.00     0.073 C 
BRANCH  18  19
ATOM     19  C   UNL     1      58.720  32.224  53.319  1.00  0.00    -0.016 A 
ATOM     20  C   UNL     1      58.114  33.471  53.461  1.00  0.00     0.134 A 
ATOM     21  C   UNL     1      57.676  31.307  53.303  1.00  0.00     0.006 A 
ATOM     22  N   UNL     1      56.771  33.358  53.456  1.00  0.00    -0.191 N 
ATOM     23  C   UNL     1      56.503  32.031  53.376  1.00  0.00     0.087 A 
ATOM     24  C   UNL     1      57.686  29.906  53.346  1.00  0.00     0.011 A 
ATOM     25  C   UNL     1      55.266  31.382  53.456  1.00  0.00     0.030 A 
ATOM     26  C   UNL     1      56.457  29.242  53.430  1.00  0.00     0.001 A 
ATOM     27  C   UNL     1      55.253  29.974  53.474  1.00  0.00     0.002 A 
BRANCH  22  28
ATOM     28  O   UNL     1      55.921  34.409  53.774  1.00  0.00    -0.417 OA
ATOM     29  C   UNL     1      54.530  34.243  53.986  1.00  0.00     0.313 C 
ENDBRANCH  22  28
ENDBRANCH  18  19
ENDBRANCH   7  18
ENDBRANCH   4   7
ENDBRANCH   2   3
BRANCH   2  30
ATOM     30  N   UNL     1      62.077  28.972  49.225  1.00  0.00    -0.343 N 
ATOM     31  C   UNL     1      63.390  28.378  49.138  1.00  0.00     0.243 C 
ATOM     32  H   UNL     1      61.830  29.746  48.570  1.00  0.00     0.164 HD
ATOM     33  O   UNL     1      63.716  27.444  49.920  1.00  0.00    -0.273 OA
BRANCH  31  34
ATOM     34  C   UNL     1      64.410  28.841  48.094  1.00  0.00     0.174 C 
ATOM     35  N   UNL     1      65.206  30.009  48.533  1.00  0.00    -0.329 N 
ATOM     36  C   UNL     1      65.365  27.720  47.637  1.00  0.00     0.035 C 
ATOM     37  C   UNL     1      66.185  30.558  47.578  1.00  0.00     0.120 C 
ATOM     38  C   UNL     1      66.315  28.242  46.554  1.00  0.00     0.004 C 
ATOM     39  C   UNL     1      67.116  29.444  47.080  1.00  0.00     0.022 C 
BRANCH  35  40
ATOM     40  C   UNL     1      65.267  30.401  49.918  1.00  0.00     0.246 CG0
ATOM     41  O   UNL     1      66.052  29.792  50.687  1.00  0.00    -0.272 OA
ATOM     42  G   UNL     1      64.455  31.544  50.487  1.00  0.00     0.000 G0
ENDBRANCH  35  40
ENDBRANCH  31  34
ENDBRANCH   2  30
ENDBRANCH   1   2
BRANCH   1  43
ATOM     43  C   UNL     1      58.480  27.901  50.169  1.00  0.00     0.003 C 
BRANCH  43  44
ATOM     44  C   UNL     1      58.412  26.399  50.490  1.00  0.00     0.001 C 
BRANCH  44  45
ATOM     45  C   UNL     1      59.004  26.049  51.867  1.00  0.00     0.008 C 
BRANCH  45  46
ATOM     46  C   UNL     1      60.391  25.380  51.763  1.00  0.00     0.075 C 
BRANCH  46  47
ATOM     47  C   UNL     1      60.429  23.923  52.186  1.00  0.00     0.132 C 
ATOM     48  O   UNL     1      60.585  23.680  53.373  1.00  0.00    -0.300 OA
BRANCH  47  49
ATOM     49  C   UNL     1      60.325  22.783  51.195  1.00  0.00     0.072 C 
ATOM     50  C   UNL     1      60.983  23.084  49.846  1.00  0.00     0.012 C 
ENDBRANCH  47  49
ENDBRANCH  46  47
ENDBRANCH  45  46
ENDBRANCH  44  45
ENDBRANCH  43  44
ENDBRANCH   1  43
TORSDOF 12
ENDMDL
MODEL 8
REMARK VINA RESULT:    -3.983      1.793      2.294
REMARK INTER + INTRA:         -10.157
REMARK INTER:                  -7.527
REMARK INTRA:                  -2.630
REMARK UNBOUND:                -1.749
REMARK SMILES CCC(=O)CCCCC[C@H]1NC(=O)[C@@H]2CCCCN2C(=O)[C@@H]([C@H](C)CC)NC(=O)[C@H](Cc2cn(OC)c3ccccc23)NC1=O
REMARK SMILES IDX 9 1 10 2 44 3 43 4 45 6 30 7 28 8 27 9 29 11 22 12 23 14
REMARK SMILES IDX 24 15 25 16 26 17 31 18 32 19 33 20 42 21 34 22 37 23 41 24
REMARK SMILES IDX 38 25 40 26 39 27 35 28 36 29 11 30 12 31 13 33 14 34 19 35
REMARK SMILES IDX 15 36 18 37 16 38 17 39 20 40 21 41 8 43 7 44 6 45 5 46 3 47
REMARK SMILES IDX 4 48 2 49 1 50
REMARK H PARENT 43 5 27 10 11 32
REMARK Flexibility Score: 80.00
ROOT
ATOM      1  C   UNL     1      62.297  29.833  61.104  1.00  0.00     0.035 C 
ENDROOT
BRANCH   1   2
ATOM      2  C   UNL     1      61.965  28.449  60.500  1.00  0.00     0.171 C 
BRANCH   2   3
ATOM      3  C   UNL     1      61.160  28.458  59.217  1.00  0.00     0.243 C 
ATOM      4  N   UNL     1      59.942  29.213  59.066  1.00  0.00    -0.342 N 
ATOM      5  H   UNL     1      59.805  30.050  59.670  1.00  0.00     0.164 HD
ATOM      6  O   UNL     1      61.597  27.768  58.257  1.00  0.00    -0.273 OA
BRANCH   4   7
ATOM      7  C   UNL     1      58.736  28.736  58.366  1.00  0.00     0.175 C 
BRANCH   7   8
ATOM      8  C   UNL     1      58.562  27.263  58.666  1.00  0.00     0.243 C 
ATOM      9  N   UNL     1      59.088  26.625  59.842  1.00  0.00    -0.342 N 
ATOM     10  H   UNL     1      59.946  27.014  60.281  1.00  0.00     0.164 HD
ATOM     11  O   UNL     1      57.929  26.586  57.819  1.00  0.00    -0.273 OA
BRANCH   9  12
ATOM     12  C   UNL     1      58.378  25.596  60.617  1.00  0.00     0.174 CG0
ATOM     13  G   UNL     1      59.366  24.631  61.236  1.00  0.00     0.000 G0
BRANCH  12  14
ATOM     14  C   UNL     1      57.241  26.192  61.523  1.00  0.00     0.018 C 
ATOM     15  C   UNL     1      55.868  25.653  61.072  1.00  0.00     0.010 C 
BRANCH  14  16
ATOM     16  C   UNL     1      57.205  27.738  61.636  1.00  0.00     0.002 C 
ATOM     17  C   UNL     1      55.875  28.245  62.216  1.00  0.00     0.004 C 
ENDBRANCH  14  16
ENDBRANCH  12  14
ENDBRANCH   9  12
ENDBRANCH   7   8
BRANCH   7  18
ATOM     18  C   UNL     1      58.741  29.133  56.871  1.00  0.00     0.073 C 
BRANCH  18  19
ATOM     19  C   UNL     1      59.679  30.264  56.511  1.00  0.00    -0.016 A 
ATOM     20  C   UNL     1      60.932  30.091  55.928  1.00  0.00     0.134 A 
ATOM     21  C   UNL     1      59.602  31.614  56.826  1.00  0.00     0.006 A 
ATOM     22  N   UNL     1      61.576  31.269  55.810  1.00  0.00    -0.191 N 
ATOM     23  C   UNL     1      60.768  32.200  56.375  1.00  0.00     0.087 A 
ATOM     24  C   UNL     1      58.653  32.330  57.569  1.00  0.00     0.011 A 
ATOM     25  C   UNL     1      61.025  33.555  56.613  1.00  0.00     0.030 A 
ATOM     26  C   UNL     1      58.897  33.685  57.818  1.00  0.00     0.001 A 
ATOM     27  C   UNL     1      60.071  34.297  57.334  1.00  0.00     0.002 A 
BRANCH  22  28
ATOM     28  O   UNL     1      62.912  31.370  55.445  1.00  0.00    -0.417 OA
ATOM     29  C   UNL     1      63.769  30.248  55.326  1.00  0.00     0.313 C 
ENDBRANCH  22  28
ENDBRANCH  18  19
ENDBRANCH   7  18
ENDBRANCH   4   7
ENDBRANCH   2   3
BRANCH   2  30
ATOM     30  N   UNL     1      61.365  27.527  61.476  1.00  0.00    -0.343 N 
ATOM     31  C   UNL     1      61.763  26.160  61.712  1.00  0.00     0.243 C 
ATOM     32  H   UNL     1      60.660  27.963  62.112  1.00  0.00     0.164 HD
ATOM     33  O   UNL     1      62.609  25.608  60.957  1.00  0.00    -0.273 OA
BRANCH  31  34
ATOM     34  C   UNL     1      61.196  25.352  62.881  1.00  0.00     0.174 C 
ATOM     35  N   UNL     1      59.873  24.752  62.591  1.00  0.00    -0.329 N 
ATOM     36  C   UNL     1      62.152  24.249  63.381  1.00  0.00     0.035 C 
ATOM     37  C   UNL     1      59.224  23.992  63.674  1.00  0.00     0.120 C 
ATOM     38  C   UNL     1      61.542  23.525  64.585  1.00  0.00     0.004 C 
ATOM     39  C   UNL     1      60.180  22.919  64.211  1.00  0.00     0.022 C 
BRANCH  35  40
ATOM     40  C   UNL     1      59.381  24.634  61.243  1.00  0.00     0.246 CG0
ATOM     41  O   UNL     1      59.761  23.665  60.541  1.00  0.00    -0.272 OA
ATOM     42  G   UNL     1      58.389  25.605  60.640  1.00  0.00     0.000 G0
ENDBRANCH  35  40
ENDBRANCH  31  34
ENDBRANCH   2  30
ENDBRANCH   1   2
BRANCH   1  43
ATOM     43  C   UNL     1      61.099  30.429  61.867  1.00  0.00     0.003 C 
BRANCH  43  44
ATOM     44  C   UNL     1      60.722  31.817  61.323  1.00  0.00     0.001 C 
BRANCH  44  45
ATOM     45  C   UNL     1      61.456  32.172  60.017  1.00  0.00     0.008 C 
BRANCH  45  46
ATOM     46  C   UNL     1      62.459  33.332  60.197  1.00  0.00     0.075 C 
BRANCH  46  47
ATOM     47  C   UNL     1      63.613  33.335  59.212  1.00  0.00     0.132 C 
ATOM     48  O   UNL     1      63.898  34.393  58.672  1.00  0.00    -0.300 OA
BRANCH  47  49
ATOM     49  C   UNL     1      64.382  32.080  58.852  1.00  0.00     0.072 C 
ATOM     50  C   UNL     1      65.409  32.292  57.737  1.00  0.00     0.012 C 
ENDBRANCH  47  49
ENDBRANCH  46  47
ENDBRANCH  45  46
ENDBRANCH  44  45
ENDBRANCH  43  44
ENDBRANCH   1  43
TORSDOF 12
ENDMDL
MODEL 9
REMARK VINA RESULT:    -3.793      1.834      2.864
REMARK INTER + INTRA:          -9.755
REMARK INTER:                  -7.187
REMARK INTRA:                  -2.568
REMARK UNBOUND:                -1.749
REMARK SMILES CCC(=O)CCCCC[C@H]1NC(=O)[C@@H]2CCCCN2C(=O)[C@@H]([C@H](C)CC)NC(=O)[C@H](Cc2cn(OC)c3ccccc23)NC1=O
REMARK SMILES IDX 9 1 10 2 44 3 43 4 45 6 30 7 28 8 27 9 29 11 22 12 23 14
REMARK SMILES IDX 24 15 25 16 26 17 31 18 32 19 33 20 42 21 34 22 37 23 41 24
REMARK SMILES IDX 38 25 40 26 39 27 35 28 36 29 11 30 12 31 13 33 14 34 19 35
REMARK SMILES IDX 15 36 18 37 16 38 17 39 20 40 21 41 8 43 7 44 6 45 5 46 3 47
REMARK SMILES IDX 4 48 2 49 1 50
REMARK H PARENT 43 5 27 10 11 32
REMARK Flexibility Score: 80.00
ROOT
ATOM      1  C   UNL     1      60.433  30.335  60.966  1.00  0.00     0.035 C 
ENDROOT
BRANCH   1   2
ATOM      2  C   UNL     1      59.994  29.164  60.056  1.00  0.00     0.171 C 
BRANCH   2   3
ATOM      3  C   UNL     1      59.308  29.548  58.762  1.00  0.00     0.243 C 
ATOM      4  N   UNL     1      58.074  30.290  58.724  1.00  0.00    -0.342 N 
ATOM      5  H   UNL     1      57.843  30.901  59.535  1.00  0.00     0.164 HD
ATOM      6  O   UNL     1      59.862  29.191  57.687  1.00  0.00    -0.273 OA
BRANCH   4   7
ATOM      7  C   UNL     1      56.960  30.026  57.796  1.00  0.00     0.175 C 
BRANCH   7   8
ATOM      8  C   UNL     1      56.752  28.530  57.714  1.00  0.00     0.243 C 
ATOM      9  N   UNL     1      57.134  27.617  58.757  1.00  0.00    -0.342 N 
ATOM     10  H   UNL     1      57.933  27.866  59.373  1.00  0.00     0.164 HD
ATOM     11  O   UNL     1      56.226  28.090  56.662  1.00  0.00    -0.273 OA
BRANCH   9  12
ATOM     12  C   UNL     1      56.337  26.453  59.176  1.00  0.00     0.174 CG0
ATOM     13  G   UNL     1      57.234  25.393  59.777  1.00  0.00     0.000 G0
BRANCH  12  14
ATOM     14  C   UNL     1      55.028  26.857  59.945  1.00  0.00     0.018 C 
ATOM     15  C   UNL     1      53.828  26.872  58.977  1.00  0.00     0.010 C 
BRANCH  14  16
ATOM     16  C   UNL     1      55.095  28.184  60.746  1.00  0.00     0.002 C 
ATOM     17  C   UNL     1      54.130  29.243  60.190  1.00  0.00     0.004 C 
ENDBRANCH  14  16
ENDBRANCH  12  14
ENDBRANCH   9  12
ENDBRANCH   7   8
BRANCH   7  18
ATOM     18  C   UNL     1      57.142  30.765  56.450  1.00  0.00     0.073 C 
BRANCH  18  19
ATOM     19  C   UNL     1      56.580  32.169  56.409  1.00  0.00    -0.016 A 
ATOM     20  C   UNL     1      55.643  32.669  57.311  1.00  0.00     0.134 A 
ATOM     21  C   UNL     1      56.707  33.147  55.430  1.00  0.00     0.006 A 
ATOM     22  N   UNL     1      55.260  33.915  56.968  1.00  0.00    -0.191 N 
ATOM     23  C   UNL     1      55.900  34.202  55.808  1.00  0.00     0.087 A 
ATOM     24  C   UNL     1      57.377  33.131  54.199  1.00  0.00     0.011 A 
ATOM     25  C   UNL     1      55.753  35.321  54.980  1.00  0.00     0.030 A 
ATOM     26  C   UNL     1      57.237  34.241  53.358  1.00  0.00     0.001 A 
ATOM     27  C   UNL     1      56.439  35.335  53.751  1.00  0.00     0.002 A 
BRANCH  22  28
ATOM     28  O   UNL     1      54.200  34.576  57.574  1.00  0.00    -0.417 OA
ATOM     29  C   UNL     1      54.375  35.646  58.487  1.00  0.00     0.313 C 
ENDBRANCH  22  28
ENDBRANCH  18  19
ENDBRANCH   7  18
ENDBRANCH   4   7
ENDBRANCH   2   3
BRANCH   2  30
ATOM     30  N   UNL     1      59.210  28.146  60.771  1.00  0.00    -0.343 N 
ATOM     31  C   UNL     1      59.531  26.742  60.875  1.00  0.00     0.243 C 
ATOM     32  H   UNL     1      58.412  28.522  61.329  1.00  0.00     0.164 HD
ATOM     33  O   UNL     1      60.488  26.260  60.209  1.00  0.00    -0.273 OA
BRANCH  31  34
ATOM     34  C   UNL     1      58.747  25.809  61.800  1.00  0.00     0.174 C 
ATOM     35  N   UNL     1      57.490  25.309  61.198  1.00  0.00    -0.329 N 
ATOM     36  C   UNL     1      59.578  24.611  62.304  1.00  0.00     0.035 C 
ATOM     37  C   UNL     1      56.642  24.438  62.030  1.00  0.00     0.120 C 
ATOM     38  C   UNL     1      58.747  23.757  63.267  1.00  0.00     0.004 C 
ATOM     39  C   UNL     1      57.466  23.263  62.575  1.00  0.00     0.022 C 
BRANCH  35  40
ATOM     40  C   UNL     1      57.250  25.393  59.781  1.00  0.00     0.246 CG0
ATOM     41  O   UNL     1      57.776  24.540  59.024  1.00  0.00    -0.272 OA
ATOM     42  G   UNL     1      56.356  26.443  59.158  1.00  0.00     0.000 G0
ENDBRANCH  35  40
ENDBRANCH  31  34
ENDBRANCH   2  30
ENDBRANCH   1   2
BRANCH   1  43
ATOM     43  C   UNL     1      61.760  30.961  60.496  1.00  0.00     0.003 C 
BRANCH  43  44
ATOM     44  C   UNL     1      61.803  32.470  60.791  1.00  0.00     0.001 C 
BRANCH  44  45
ATOM     45  C   UNL     1      62.240  33.309  59.575  1.00  0.00     0.008 C 
BRANCH  45  46
ATOM     46  C   UNL     1      61.221  34.413  59.220  1.00  0.00     0.075 C 
BRANCH  46  47
ATOM     47  C   UNL     1      60.873  34.509  57.746  1.00  0.00     0.132 C 
ATOM     48  O   UNL     1      61.365  35.424  57.104  1.00  0.00    -0.300 OA
BRANCH  47  49
ATOM     49  C   UNL     1      59.919  33.546  57.070  1.00  0.00     0.072 C 
ATOM     50  C   UNL     1      60.624  32.426  56.302  1.00  0.00     0.012 C 
ENDBRANCH  47  49
ENDBRANCH  46  47
ENDBRANCH  45  46
ENDBRANCH  44  45
ENDBRANCH  43  44
ENDBRANCH   1  43
TORSDOF 12
ENDMDL
