MODEL 1
REMARK VINA RESULT:    57.098      0.000      0.000
REMARK INTER + INTRA:          78.281
REMARK INTER:                  78.795
REMARK INTRA:                  -0.513
REMARK UNBOUND:                -0.513
REMARK SMILES CC[C@@H](CC[C@@H](C)[C@H]1CC[C@H]2[C@H]3CC=C4C[C@H](O)CC[C@]4(C)[C@H]3CC[C@]12C)C(C)C
REMARK SMILES IDX 5 1 4 2 3 3 2 4 1 5 28 6 29 7 30 8 6 9 7 10 8 11 9 12 26 13
REMARK SMILES IDX 10 14 11 15 25 16 27 17 12 18 24 19 23 20 13 21 21 22 14 23
REMARK SMILES IDX 15 24 20 25 22 26 16 27 19 28 17 29 18 30
REMARK H PARENT 18 31
REMARK Flexibility Score: inf
ROOT
ATOM      1  C   UNL     1       8.983  67.528   7.049  1.00  0.00     0.004 C 
ENDROOT
BRANCH   1   2
ATOM      2  C   UNL     1       8.505  66.155   7.566  1.00  0.00     0.004 C 
BRANCH   2   3
ATOM      3  C   UNL     1       9.681  65.156   7.757  1.00  0.00    -0.009 C 
BRANCH   3   4
ATOM      4  C   UNL     1       9.266  63.974   8.677  1.00  0.00     0.000 C 
ATOM      5  C   UNL     1       8.408  62.932   7.955  1.00  0.00     0.004 C 
ENDBRANCH   3   4
BRANCH   3   6
ATOM      6  C   UNL     1      10.972  65.882   8.264  1.00  0.00    -0.014 C 
ATOM      7  C   UNL     1      11.160  65.824   9.791  1.00  0.00     0.007 C 
ATOM      8  C   UNL     1      12.232  65.356   7.557  1.00  0.00     0.007 C 
ENDBRANCH   3   6
ENDBRANCH   2   3
ENDBRANCH   1   2
BRANCH   1   9
ATOM      9  C   UNL     1       8.936  67.638   5.505  1.00  0.00    -0.011 C 
ATOM     10  C   UNL     1       7.509  67.429   4.935  1.00  0.00     0.008 C 
BRANCH   9  11
ATOM     11  C   UNL     1       9.700  68.903   4.971  1.00  0.00    -0.002 C 
ATOM     12  C   UNL     1      10.132  68.796   3.479  1.00  0.00     0.005 C 
ATOM     13  C   UNL     1       9.120  70.355   5.112  1.00  0.00    -0.026 C 
ATOM     14  C   UNL     1      10.255  70.233   2.944  1.00  0.00     0.005 C 
ATOM     15  C   UNL     1      10.123  71.088   4.191  1.00  0.00    -0.001 C 
ATOM     16  C   UNL     1       9.236  71.008   6.514  1.00  0.00     0.007 C 
ATOM     17  C   UNL     1       7.638  70.396   4.639  1.00  0.00     0.012 C 
ATOM     18  C   UNL     1      10.008  72.624   4.069  1.00  0.00     0.000 C 
ATOM     19  C   UNL     1       9.071  72.554   6.463  1.00  0.00     0.005 C 
ATOM     20  C   UNL     1      10.074  73.254   5.488  1.00  0.00     0.003 C 
ATOM     21  C   UNL     1       8.800  73.148   3.286  1.00  0.00     0.031 C 
ATOM     22  C   UNL     1      10.032  74.851   5.436  1.00  0.00    -0.008 C 
ATOM     23  C   UNL     1       8.860  74.636   3.186  1.00  0.00    -0.027 C 
ATOM     24  C   UNL     1       9.349  75.416   4.173  1.00  0.00    -0.065 C 
ATOM     25  C   UNL     1      11.508  75.364   5.413  1.00  0.00     0.014 C 
ATOM     26  C   UNL     1       9.325  75.433   6.691  1.00  0.00     0.016 C 
ATOM     27  C   UNL     1       9.431  76.910   3.929  1.00  0.00     0.063 C 
ATOM     28  C   UNL     1      11.658  76.881   5.176  1.00  0.00     0.033 C 
ATOM     29  C   UNL     1      10.897  77.376   3.931  1.00  0.00     0.118 C 
BRANCH  29  30
ATOM     30  O   UNL     1      11.558  77.002   2.746  1.00  0.00    -0.393 OA
ATOM     31  H   UNL     1      12.122  76.210   2.941  1.00  0.00     0.210 HD
ENDBRANCH  29  30
ENDBRANCH   9  11
ENDBRANCH   1   9
TORSDOF 7
ENDMDL
MODEL 2
REMARK VINA RESULT:    59.269      3.340      6.886
REMARK INTER + INTRA:          81.278
REMARK INTER:                  81.176
REMARK INTRA:                   0.101
REMARK UNBOUND:                -0.513
REMARK SMILES CC[C@@H](CC[C@@H](C)[C@H]1CC[C@H]2[C@H]3CC=C4C[C@H](O)CC[C@]4(C)[C@H]3CC[C@]12C)C(C)C
REMARK SMILES IDX 5 1 4 2 3 3 2 4 1 5 28 6 29 7 30 8 6 9 7 10 8 11 9 12 26 13
REMARK SMILES IDX 10 14 11 15 25 16 27 17 12 18 24 19 23 20 13 21 21 22 14 23
REMARK SMILES IDX 15 24 20 25 22 26 16 27 19 28 17 29 18 30
REMARK H PARENT 18 31
REMARK Flexibility Score: inf
ROOT
ATOM      1  C   UNL     1       9.464  73.630   6.344  1.00  0.00     0.004 C 
ENDROOT
BRANCH   1   2
ATOM      2  C   UNL     1       9.624  72.776   5.070  1.00  0.00     0.004 C 
BRANCH   2   3
ATOM      3  C   UNL     1       9.399  71.261   5.343  1.00  0.00    -0.009 C 
BRANCH   3   4
ATOM      4  C   UNL     1      10.234  70.784   6.564  1.00  0.00     0.000 C 
ATOM      5  C   UNL     1       9.416  70.731   7.858  1.00  0.00     0.004 C 
ENDBRANCH   3   4
BRANCH   3   6
ATOM      6  C   UNL     1       9.670  70.402   4.062  1.00  0.00    -0.014 C 
ATOM      7  C   UNL     1      10.995  69.618   4.108  1.00  0.00     0.007 C 
ATOM      8  C   UNL     1       8.503  69.448   3.763  1.00  0.00     0.007 C 
ENDBRANCH   3   6
ENDBRANCH   2   3
ENDBRANCH   1   2
BRANCH   1   9
ATOM      9  C   UNL     1       9.521  75.151   6.059  1.00  0.00    -0.011 C 
ATOM     10  C   UNL     1      10.367  75.923   7.104  1.00  0.00     0.008 C 
BRANCH   9  11
ATOM     11  C   UNL     1       9.847  75.467   4.555  1.00  0.00    -0.002 C 
ATOM     12  C   UNL     1       8.671  75.173   3.578  1.00  0.00     0.005 C 
ATOM     13  C   UNL     1      10.408  76.858   4.093  1.00  0.00    -0.026 C 
ATOM     14  C   UNL     1       8.871  76.079   2.351  1.00  0.00     0.005 C 
ATOM     15  C   UNL     1      10.254  76.667   2.566  1.00  0.00    -0.001 C 
ATOM     16  C   UNL     1      11.913  77.117   4.364  1.00  0.00     0.007 C 
ATOM     17  C   UNL     1       9.563  78.014   4.702  1.00  0.00     0.012 C 
ATOM     18  C   UNL     1      10.773  77.788   1.638  1.00  0.00     0.000 C 
ATOM     19  C   UNL     1      12.480  78.277   3.496  1.00  0.00     0.005 C 
ATOM     20  C   UNL     1      12.267  78.068   1.962  1.00  0.00     0.003 C 
ATOM     21  C   UNL     1       9.956  79.084   1.627  1.00  0.00     0.031 C 
ATOM     22  C   UNL     1      12.893  79.170   0.989  1.00  0.00    -0.008 C 
ATOM     23  C   UNL     1      10.527  80.042   0.635  1.00  0.00    -0.027 C 
ATOM     24  C   UNL     1      11.851  80.137   0.389  1.00  0.00    -0.065 C 
ATOM     25  C   UNL     1      13.553  78.422  -0.214  1.00  0.00     0.014 C 
ATOM     26  C   UNL     1      13.986  80.000   1.717  1.00  0.00     0.016 C 
ATOM     27  C   UNL     1      12.310  81.092  -0.695  1.00  0.00     0.063 C 
ATOM     28  C   UNL     1      14.049  79.342  -1.349  1.00  0.00     0.033 C 
ATOM     29  C   UNL     1      12.968  80.319  -1.850  1.00  0.00     0.118 C 
BRANCH  29  30
ATOM     30  O   UNL     1      12.009  79.657  -2.640  1.00  0.00    -0.393 OA
ATOM     31  H   UNL     1      11.741  78.825  -2.172  1.00  0.00     0.210 HD
ENDBRANCH  29  30
ENDBRANCH   9  11
ENDBRANCH   1   9
TORSDOF 7
ENDMDL
