MODEL 1
REMARK VINA RESULT:    20.120      0.000      0.000
REMARK INTER + INTRA:          24.026
REMARK INTER:                  23.649
REMARK INTRA:                   0.376
REMARK UNBOUND:                 0.376
REMARK SMILES Oc1ccc(-c2[o+]c3cc(O)cc(O)c3cc2O)cc1
REMARK SMILES IDX 6 1 7 2 8 3 9 4 10 5 12 6 13 7 15 8 16 9 17 10 5 11 4 12
REMARK SMILES IDX 3 13 2 14 19 15 20 16 1 17 18 19 11 21 14 23
REMARK H PARENT 1 18 18 20 11 22 14 24
REMARK Flexibility Score: inf
ROOT
ATOM      1  C   UNL     1      -5.421  -2.413  12.927  1.00  0.00     0.401 A 
ATOM      2  O   UNL     1      -6.013  -2.917  14.007  1.00  0.00    -0.202 OA
ATOM      3  C   UNL     1      -7.332  -2.959  14.163  1.00  0.00     0.368 A 
ATOM      4  C   UNL     1      -7.862  -3.511  15.332  1.00  0.00     0.162 A 
ATOM      5  C   UNL     1      -9.242  -3.571  15.522  1.00  0.00     0.128 A 
ATOM      6  C   UNL     1     -10.103  -3.075  14.536  1.00  0.00     0.093 A 
ATOM      7  C   UNL     1      -9.597  -2.516  13.355  1.00  0.00     0.136 A 
ATOM      8  C   UNL     1      -8.194  -2.452  13.159  1.00  0.00     0.125 A 
ATOM      9  C   UNL     1      -7.598  -1.898  12.015  1.00  0.00     0.078 A 
ATOM     10  C   UNL     1      -6.205  -1.865  11.896  1.00  0.00     0.223 A 
ENDROOT
BRANCH   1  11
ATOM     11  C   UNL     1      -3.941  -2.434  12.867  1.00  0.00     0.084 A 
ATOM     12  C   UNL     1      -3.268  -1.481  12.084  1.00  0.00     0.022 A 
ATOM     13  C   UNL     1      -1.871  -1.469  12.029  1.00  0.00     0.047 A 
ATOM     14  C   UNL     1      -1.129  -2.396  12.766  1.00  0.00     0.115 A 
ATOM     15  C   UNL     1      -3.189  -3.353  13.621  1.00  0.00     0.022 A 
ATOM     16  C   UNL     1      -1.791  -3.338  13.565  1.00  0.00     0.047 A 
BRANCH  14  17
ATOM     17  O   UNL     1       0.262  -2.373  12.701  1.00  0.00    -0.508 OA
ATOM     18  H   UNL     1       0.811  -3.220  12.793  1.00  0.00     0.293 HD
ENDBRANCH  14  17
ENDBRANCH   1  11
BRANCH  10  19
ATOM     19  O   UNL     1      -5.612  -1.270  10.782  1.00  0.00    -0.500 OA
ATOM     20  H   UNL     1      -4.970  -1.778  10.185  1.00  0.00     0.294 HD
ENDBRANCH  10  19
BRANCH   5  21
ATOM     21  O   UNL     1      -9.751  -4.125  16.695  1.00  0.00    -0.507 OA
ATOM     22  H   UNL     1      -9.250  -4.847  17.200  1.00  0.00     0.293 HD
ENDBRANCH   5  21
BRANCH   7  23
ATOM     23  O   UNL     1     -10.523  -2.046  12.418  1.00  0.00    -0.507 OA
ATOM     24  H   UNL     1     -10.292  -1.447  11.640  1.00  0.00     0.293 HD
ENDBRANCH   7  23
TORSDOF 5
ENDMDL
MODEL 2
REMARK VINA RESULT:    22.991     13.172     14.979
REMARK INTER + INTRA:          27.400
REMARK INTER:                  27.056
REMARK INTRA:                   0.343
REMARK UNBOUND:                 0.376
REMARK SMILES Oc1ccc(-c2[o+]c3cc(O)cc(O)c3cc2O)cc1
REMARK SMILES IDX 6 1 7 2 8 3 9 4 10 5 12 6 13 7 15 8 16 9 17 10 5 11 4 12
REMARK SMILES IDX 3 13 2 14 19 15 20 16 1 17 18 19 11 21 14 23
REMARK H PARENT 1 18 18 20 11 22 14 24
REMARK Flexibility Score: inf
ROOT
ATOM      1  C   UNL     1     -10.351   8.379  19.378  1.00  0.00     0.401 A 
ATOM      2  O   UNL     1     -11.037   9.332  18.753  1.00  0.00    -0.202 OA
ATOM      3  C   UNL     1     -10.486  10.462  18.319  1.00  0.00     0.368 A 
ATOM      4  C   UNL     1     -11.289  11.404  17.670  1.00  0.00     0.162 A 
ATOM      5  C   UNL     1     -10.738  12.597  17.202  1.00  0.00     0.128 A 
ATOM      6  C   UNL     1      -9.375  12.853  17.383  1.00  0.00     0.093 A 
ATOM      7  C   UNL     1      -8.548  11.925  18.031  1.00  0.00     0.136 A 
ATOM      8  C   UNL     1      -9.105  10.711  18.510  1.00  0.00     0.125 A 
ATOM      9  C   UNL     1      -8.358   9.730  19.182  1.00  0.00     0.078 A 
ATOM     10  C   UNL     1      -8.979   8.561  19.631  1.00  0.00     0.223 A 
ENDROOT
BRANCH   1  11
ATOM     11  C   UNL     1     -11.076   7.160  19.804  1.00  0.00     0.084 A 
ATOM     12  C   UNL     1     -10.622   6.440  20.922  1.00  0.00     0.022 A 
ATOM     13  C   UNL     1     -11.304   5.298  21.354  1.00  0.00     0.047 A 
ATOM     14  C   UNL     1     -12.455   4.870  20.686  1.00  0.00     0.115 A 
ATOM     15  C   UNL     1     -12.246   6.735  19.147  1.00  0.00     0.022 A 
ATOM     16  C   UNL     1     -12.926   5.593  19.582  1.00  0.00     0.047 A 
BRANCH  14  17
ATOM     17  O   UNL     1     -13.123   3.731  21.127  1.00  0.00    -0.508 OA
ATOM     18  H   UNL     1     -13.919   3.356  20.624  1.00  0.00     0.293 HD
ENDBRANCH  14  17
ENDBRANCH   1  11
BRANCH  10  19
ATOM     19  O   UNL     1      -8.247   7.609  20.341  1.00  0.00    -0.500 OA
ATOM     20  H   UNL     1      -8.701   6.901  20.906  1.00  0.00     0.294 HD
ENDBRANCH  10  19
BRANCH   5  21
ATOM     21  O   UNL     1     -11.555  13.524  16.558  1.00  0.00    -0.507 OA
ATOM     22  H   UNL     1     -11.192  14.412  16.230  1.00  0.00     0.293 HD
ENDBRANCH   5  21
BRANCH   7  23
ATOM     23  O   UNL     1      -7.196  12.253  18.169  1.00  0.00    -0.507 OA
ATOM     24  H   UNL     1      -6.760  13.060  17.747  1.00  0.00     0.293 HD
ENDBRANCH   7  23
TORSDOF 5
ENDMDL
