MODEL 1
REMARK VINA RESULT:    -5.705      0.000      0.000
REMARK INTER + INTRA:          -9.802
REMARK INTER:                  -7.872
REMARK INTRA:                  -1.930
REMARK UNBOUND:                -1.930
REMARK SMILES CC[C@H](CC[C@@H](C)[C@@H]1CC[C@H]2[C@H]3CC=C4C[C@@H](O)CC[C@@]4(C)[C@@H]3CC[C@]21C)C(C)C
REMARK SMILES IDX 5 1 4 2 3 3 2 4 1 5 28 6 29 7 30 8 6 9 7 10 8 11 9 12 26 13
REMARK SMILES IDX 10 14 11 15 25 16 27 17 12 18 24 19 23 20 13 21 21 22 14 23
REMARK SMILES IDX 15 24 20 25 22 26 16 27 19 28 17 29 18 30
REMARK H PARENT 18 31
REMARK Flexibility Score: inf
ROOT
ATOM      1  C   UNL     1      25.130  -2.890 -34.220  1.00  0.00     0.004 C 
ENDROOT
BRANCH   1   2
ATOM      2  C   UNL     1      25.382  -4.353 -33.760  1.00  0.00     0.004 C 
BRANCH   2   3
ATOM      3  C   UNL     1      24.964  -4.658 -32.278  1.00  0.00    -0.009 C 
BRANCH   3   4
ATOM      4  C   UNL     1      23.679  -5.536 -32.210  1.00  0.00     0.000 C 
ATOM      5  C   UNL     1      22.371  -4.717 -32.310  1.00  0.00     0.004 C 
ENDBRANCH   3   4
BRANCH   3   6
ATOM      6  C   UNL     1      26.093  -5.275 -31.375  1.00  0.00    -0.014 C 
ATOM      7  C   UNL     1      26.543  -4.397 -30.195  1.00  0.00     0.007 C 
ATOM      8  C   UNL     1      25.784  -6.700 -30.911  1.00  0.00     0.007 C 
ENDBRANCH   3   6
ENDBRANCH   2   3
ENDBRANCH   1   2
BRANCH   1   9
ATOM      9  C   UNL     1      25.489  -1.783 -33.169  1.00  0.00    -0.011 C 
ATOM     10  C   UNL     1      26.504  -0.748 -33.710  1.00  0.00     0.008 C 
BRANCH   9  11
ATOM     11  C   UNL     1      24.271  -1.111 -32.420  1.00  0.00    -0.002 C 
ATOM     12  C   UNL     1      23.709   0.160 -33.079  1.00  0.00     0.005 C 
ATOM     13  C   UNL     1      24.279  -0.850 -30.854  1.00  0.00    -0.026 C 
ATOM     14  C   UNL     1      22.798   0.762 -32.023  1.00  0.00     0.005 C 
ATOM     15  C   UNL     1      23.547   0.526 -30.702  1.00  0.00    -0.001 C 
ATOM     16  C   UNL     1      23.549  -2.051 -30.126  1.00  0.00     0.007 C 
ATOM     17  C   UNL     1      25.693  -0.699 -30.250  1.00  0.00     0.012 C 
ATOM     18  C   UNL     1      22.709   0.717 -29.401  1.00  0.00     0.000 C 
ATOM     19  C   UNL     1      22.707  -1.699 -28.890  1.00  0.00     0.005 C 
ATOM     20  C   UNL     1      21.780  -0.482 -29.130  1.00  0.00     0.003 C 
ATOM     21  C   UNL     1      21.946   2.034 -29.390  1.00  0.00     0.031 C 
ATOM     22  C   UNL     1      20.660  -0.196 -27.995  1.00  0.00    -0.008 C 
ATOM     23  C   UNL     1      21.307   2.245 -28.062  1.00  0.00    -0.027 C 
ATOM     24  C   UNL     1      20.710   1.225 -27.408  1.00  0.00    -0.065 C 
ATOM     25  C   UNL     1      19.242  -0.302 -28.641  1.00  0.00     0.014 C 
ATOM     26  C   UNL     1      20.759  -1.242 -26.841  1.00  0.00     0.016 C 
ATOM     27  C   UNL     1      19.693   1.569 -26.347  1.00  0.00     0.063 C 
ATOM     28  C   UNL     1      18.069   0.082 -27.689  1.00  0.00     0.033 C 
ATOM     29  C   UNL     1      18.273   1.421 -26.932  1.00  0.00     0.118 C 
BRANCH  29  30
ATOM     30  O   UNL     1      17.964   2.550 -27.727  1.00  0.00    -0.393 OA
ATOM     31  H   UNL     1      17.126   2.361 -28.202  1.00  0.00     0.210 HD
ENDBRANCH  29  30
ENDBRANCH   9  11
ENDBRANCH   1   9
TORSDOF 7
ENDMDL
MODEL 2
REMARK VINA RESULT:    -5.446      0.554      1.739
REMARK INTER + INTRA:          -9.445
REMARK INTER:                  -7.490
REMARK INTRA:                  -1.956
REMARK UNBOUND:                -1.930
REMARK SMILES CC[C@H](CC[C@@H](C)[C@@H]1CC[C@H]2[C@H]3CC=C4C[C@@H](O)CC[C@@]4(C)[C@@H]3CC[C@]21C)C(C)C
REMARK SMILES IDX 5 1 4 2 3 3 2 4 1 5 28 6 29 7 30 8 6 9 7 10 8 11 9 12 26 13
REMARK SMILES IDX 10 14 11 15 25 16 27 17 12 18 24 19 23 20 13 21 21 22 14 23
REMARK SMILES IDX 15 24 20 25 22 26 16 27 19 28 17 29 18 30
REMARK H PARENT 18 31
REMARK Flexibility Score: inf
ROOT
ATOM      1  C   UNL     1      25.146  -2.911 -34.112  1.00  0.00     0.004 C 
ENDROOT
BRANCH   1   2
ATOM      2  C   UNL     1      25.407  -4.337 -33.551  1.00  0.00     0.004 C 
BRANCH   2   3
ATOM      3  C   UNL     1      24.130  -5.081 -33.024  1.00  0.00    -0.009 C 
BRANCH   3   4
ATOM      4  C   UNL     1      24.300  -5.543 -31.546  1.00  0.00     0.000 C 
ATOM      5  C   UNL     1      25.513  -4.897 -30.837  1.00  0.00     0.004 C 
ENDBRANCH   3   4
BRANCH   3   6
ATOM      6  C   UNL     1      22.778  -4.299 -33.197  1.00  0.00    -0.014 C 
ATOM      7  C   UNL     1      21.966  -4.662 -34.453  1.00  0.00     0.007 C 
ATOM      8  C   UNL     1      21.896  -4.331 -31.947  1.00  0.00     0.007 C 
ENDBRANCH   3   6
ENDBRANCH   2   3
ENDBRANCH   1   2
BRANCH   1   9
ATOM      9  C   UNL     1      25.496  -1.732 -33.140  1.00  0.00    -0.011 C 
ATOM     10  C   UNL     1      26.461  -0.700 -33.770  1.00  0.00     0.008 C 
BRANCH   9  11
ATOM     11  C   UNL     1      24.275  -1.055 -32.397  1.00  0.00    -0.002 C 
ATOM     12  C   UNL     1      23.733   0.227 -33.052  1.00  0.00     0.005 C 
ATOM     13  C   UNL     1      24.270  -0.807 -30.830  1.00  0.00    -0.026 C 
ATOM     14  C   UNL     1      22.816   0.828 -32.000  1.00  0.00     0.005 C 
ATOM     15  C   UNL     1      23.548   0.575 -30.674  1.00  0.00    -0.001 C 
ATOM     16  C   UNL     1      23.521  -2.007 -30.119  1.00  0.00     0.007 C 
ATOM     17  C   UNL     1      25.678  -0.674 -30.209  1.00  0.00     0.012 C 
ATOM     18  C   UNL     1      22.699   0.763 -29.380  1.00  0.00     0.000 C 
ATOM     19  C   UNL     1      22.669  -1.657 -28.889  1.00  0.00     0.005 C 
ATOM     20  C   UNL     1      21.756  -0.429 -29.129  1.00  0.00     0.003 C 
ATOM     21  C   UNL     1      21.948   2.087 -29.366  1.00  0.00     0.031 C 
ATOM     22  C   UNL     1      20.626  -0.142 -28.004  1.00  0.00    -0.008 C 
ATOM     23  C   UNL     1      21.297   2.293 -28.043  1.00  0.00    -0.027 C 
ATOM     24  C   UNL     1      20.684   1.274 -27.405  1.00  0.00    -0.065 C 
ATOM     25  C   UNL     1      19.215  -0.230 -28.666  1.00  0.00     0.014 C 
ATOM     26  C   UNL     1      20.704  -1.198 -26.857  1.00  0.00     0.016 C 
ATOM     27  C   UNL     1      19.659   1.618 -26.352  1.00  0.00     0.063 C 
ATOM     28  C   UNL     1      18.035   0.158 -27.722  1.00  0.00     0.033 C 
ATOM     29  C   UNL     1      18.244   1.489 -26.952  1.00  0.00     0.118 C 
BRANCH  29  30
ATOM     30  O   UNL     1      17.954   2.627 -27.741  1.00  0.00    -0.393 OA
ATOM     31  H   UNL     1      17.603   2.312 -28.603  1.00  0.00     0.210 HD
ENDBRANCH  29  30
ENDBRANCH   9  11
ENDBRANCH   1   9
TORSDOF 7
ENDMDL
MODEL 3
REMARK VINA RESULT:    -5.441      2.693      7.489
REMARK INTER + INTRA:          -9.438
REMARK INTER:                  -7.296
REMARK INTRA:                  -2.142
REMARK UNBOUND:                -1.930
REMARK SMILES CC[C@H](CC[C@@H](C)[C@@H]1CC[C@H]2[C@H]3CC=C4C[C@@H](O)CC[C@@]4(C)[C@@H]3CC[C@]21C)C(C)C
REMARK SMILES IDX 5 1 4 2 3 3 2 4 1 5 28 6 29 7 30 8 6 9 7 10 8 11 9 12 26 13
REMARK SMILES IDX 10 14 11 15 25 16 27 17 12 18 24 19 23 20 13 21 21 22 14 23
REMARK SMILES IDX 15 24 20 25 22 26 16 27 19 28 17 29 18 30
REMARK H PARENT 18 31
REMARK Flexibility Score: inf
ROOT
ATOM      1  C   UNL     1      20.515   1.756 -25.651  1.00  0.00     0.004 C 
ENDROOT
BRANCH   1   2
ATOM      2  C   UNL     1      19.229   1.239 -26.355  1.00  0.00     0.004 C 
BRANCH   2   3
ATOM      3  C   UNL     1      19.042  -0.318 -26.323  1.00  0.00    -0.009 C 
BRANCH   3   4
ATOM      4  C   UNL     1      18.540  -0.869 -27.691  1.00  0.00     0.000 C 
ATOM      5  C   UNL     1      17.613   0.113 -28.444  1.00  0.00     0.004 C 
ENDBRANCH   3   4
BRANCH   3   6
ATOM      6  C   UNL     1      20.294  -1.135 -25.835  1.00  0.00    -0.014 C 
ATOM      7  C   UNL     1      20.156  -1.781 -24.445  1.00  0.00     0.007 C 
ATOM      8  C   UNL     1      20.791  -2.153 -26.864  1.00  0.00     0.007 C 
ENDBRANCH   3   6
ENDBRANCH   2   3
ENDBRANCH   1   2
BRANCH   1   9
ATOM      9  C   UNL     1      21.676   2.195 -26.610  1.00  0.00    -0.011 C 
ATOM     10  C   UNL     1      22.704   3.125 -25.922  1.00  0.00     0.008 C 
BRANCH   9  11
ATOM     11  C   UNL     1      22.358   1.045 -27.451  1.00  0.00    -0.002 C 
ATOM     12  C   UNL     1      23.674   0.496 -26.874  1.00  0.00     0.005 C 
ATOM     13  C   UNL     1      22.553   1.147 -29.022  1.00  0.00    -0.026 C 
ATOM     14  C   UNL     1      24.263  -0.334 -28.002  1.00  0.00     0.005 C 
ATOM     15  C   UNL     1      23.947   0.475 -29.269  1.00  0.00    -0.001 C 
ATOM     16  C   UNL     1      21.350   0.413 -29.742  1.00  0.00     0.007 C 
ATOM     17  C   UNL     1      22.630   2.595 -29.554  1.00  0.00     0.012 C 
ATOM     18  C   UNL     1      24.114  -0.284 -30.621  1.00  0.00     0.000 C 
ATOM     19  C   UNL     1      21.680  -0.348 -31.036  1.00  0.00     0.005 C 
ATOM     20  C   UNL     1      22.938  -1.241 -30.895  1.00  0.00     0.003 C 
ATOM     21  C   UNL     1      25.455  -0.995 -30.726  1.00  0.00     0.031 C 
ATOM     22  C   UNL     1      23.216  -2.287 -32.100  1.00  0.00    -0.008 C 
ATOM     23  C   UNL     1      25.633  -1.553 -32.094  1.00  0.00    -0.027 C 
ATOM     24  C   UNL     1      24.609  -2.152 -32.739  1.00  0.00    -0.065 C 
ATOM     25  C   UNL     1      23.186  -3.740 -31.530  1.00  0.00     0.014 C 
ATOM     26  C   UNL     1      22.120  -2.165 -33.206  1.00  0.00     0.016 C 
ATOM     27  C   UNL     1      24.944  -3.097 -33.867  1.00  0.00     0.063 C 
ATOM     28  C   UNL     1      23.572  -4.846 -32.560  1.00  0.00     0.033 C 
ATOM     29  C   UNL     1      24.871  -4.551 -33.357  1.00  0.00     0.118 C 
BRANCH  29  30
ATOM     30  O   UNL     1      26.042  -4.860 -32.625  1.00  0.00    -0.393 OA
ATOM     31  H   UNL     1      26.681  -4.127 -32.761  1.00  0.00     0.210 HD
ENDBRANCH  29  30
ENDBRANCH   9  11
ENDBRANCH   1   9
TORSDOF 7
ENDMDL
MODEL 4
REMARK VINA RESULT:    -5.106      2.226      3.681
REMARK INTER + INTRA:          -8.977
REMARK INTER:                  -7.230
REMARK INTRA:                  -1.746
REMARK UNBOUND:                -1.930
REMARK SMILES CC[C@H](CC[C@@H](C)[C@@H]1CC[C@H]2[C@H]3CC=C4C[C@@H](O)CC[C@@]4(C)[C@@H]3CC[C@]21C)C(C)C
REMARK SMILES IDX 5 1 4 2 3 3 2 4 1 5 28 6 29 7 30 8 6 9 7 10 8 11 9 12 26 13
REMARK SMILES IDX 10 14 11 15 25 16 27 17 12 18 24 19 23 20 13 21 21 22 14 23
REMARK SMILES IDX 15 24 20 25 22 26 16 27 19 28 17 29 18 30
REMARK H PARENT 18 31
REMARK Flexibility Score: inf
ROOT
ATOM      1  C   UNL     1      27.417  -4.262 -28.100  1.00  0.00     0.004 C 
ENDROOT
BRANCH   1   2
ATOM      2  C   UNL     1      27.322  -3.927 -29.615  1.00  0.00     0.004 C 
BRANCH   2   3
ATOM      3  C   UNL     1      26.018  -4.439 -30.322  1.00  0.00    -0.009 C 
BRANCH   3   4
ATOM      4  C   UNL     1      25.152  -3.262 -30.862  1.00  0.00     0.000 C 
ATOM      5  C   UNL     1      23.772  -3.149 -30.172  1.00  0.00     0.004 C 
ENDBRANCH   3   4
BRANCH   3   6
ATOM      6  C   UNL     1      26.242  -5.511 -31.450  1.00  0.00    -0.014 C 
ATOM      7  C   UNL     1      25.670  -6.908 -31.152  1.00  0.00     0.007 C 
ATOM      8  C   UNL     1      25.813  -5.028 -32.837  1.00  0.00     0.007 C 
ENDBRANCH   3   6
ENDBRANCH   2   3
ENDBRANCH   1   2
BRANCH   1   9
ATOM      9  C   UNL     1      27.175  -3.056 -27.128  1.00  0.00    -0.011 C 
ATOM     10  C   UNL     1      28.449  -2.212 -26.889  1.00  0.00     0.008 C 
BRANCH   9  11
ATOM     11  C   UNL     1      25.899  -2.171 -27.420  1.00  0.00    -0.002 C 
ATOM     12  C   UNL     1      26.154  -0.896 -28.243  1.00  0.00     0.005 C 
ATOM     13  C   UNL     1      24.859  -1.783 -26.286  1.00  0.00    -0.026 C 
ATOM     14  C   UNL     1      24.871  -0.094 -28.104  1.00  0.00     0.005 C 
ATOM     15  C   UNL     1      24.446  -0.315 -26.644  1.00  0.00    -0.001 C 
ATOM     16  C   UNL     1      23.657  -2.813 -26.313  1.00  0.00     0.007 C 
ATOM     17  C   UNL     1      25.457  -1.768 -24.862  1.00  0.00     0.012 C 
ATOM     18  C   UNL     1      22.983   0.092 -26.292  1.00  0.00     0.000 C 
ATOM     19  C   UNL     1      22.260  -2.252 -26.005  1.00  0.00     0.005 C 
ATOM     20  C   UNL     1      21.959  -0.948 -26.785  1.00  0.00     0.003 C 
ATOM     21  C   UNL     1      22.639   1.494 -26.773  1.00  0.00     0.031 C 
ATOM     22  C   UNL     1      20.427  -0.424 -26.745  1.00  0.00    -0.008 C 
ATOM     23  C   UNL     1      21.300   1.898 -26.262  1.00  0.00    -0.027 C 
ATOM     24  C   UNL     1      20.271   1.023 -26.244  1.00  0.00    -0.065 C 
ATOM     25  C   UNL     1      19.860  -0.396 -28.200  1.00  0.00     0.014 C 
ATOM     26  C   UNL     1      19.537  -1.373 -25.883  1.00  0.00     0.016 C 
ATOM     27  C   UNL     1      18.871   1.585 -26.184  1.00  0.00     0.063 C 
ATOM     28  C   UNL     1      18.432   0.217 -28.325  1.00  0.00     0.033 C 
ATOM     29  C   UNL     1      18.255   1.576 -27.598  1.00  0.00     0.118 C 
BRANCH  29  30
ATOM     30  O   UNL     1      18.761   2.665 -28.346  1.00  0.00    -0.393 OA
ATOM     31  H   UNL     1      18.864   2.367 -29.275  1.00  0.00     0.210 HD
ENDBRANCH  29  30
ENDBRANCH   9  11
ENDBRANCH   1   9
TORSDOF 7
ENDMDL
MODEL 5
REMARK VINA RESULT:    -5.065      2.708      7.432
REMARK INTER + INTRA:          -8.919
REMARK INTER:                  -6.665
REMARK INTRA:                  -2.254
REMARK UNBOUND:                -1.930
REMARK SMILES CC[C@H](CC[C@@H](C)[C@@H]1CC[C@H]2[C@H]3CC=C4C[C@@H](O)CC[C@@]4(C)[C@@H]3CC[C@]21C)C(C)C
REMARK SMILES IDX 5 1 4 2 3 3 2 4 1 5 28 6 29 7 30 8 6 9 7 10 8 11 9 12 26 13
REMARK SMILES IDX 10 14 11 15 25 16 27 17 12 18 24 19 23 20 13 21 21 22 14 23
REMARK SMILES IDX 15 24 20 25 22 26 16 27 19 28 17 29 18 30
REMARK H PARENT 18 31
REMARK Flexibility Score: inf
ROOT
ATOM      1  C   UNL     1      19.841   1.575 -26.087  1.00  0.00     0.004 C 
ENDROOT
BRANCH   1   2
ATOM      2  C   UNL     1      19.243   0.243 -26.618  1.00  0.00     0.004 C 
BRANCH   2   3
ATOM      3  C   UNL     1      20.094  -1.036 -26.296  1.00  0.00    -0.009 C 
BRANCH   3   4
ATOM      4  C   UNL     1      20.003  -1.427 -24.790  1.00  0.00     0.000 C 
ATOM      5  C   UNL     1      21.383  -1.644 -24.129  1.00  0.00     0.004 C 
ENDBRANCH   3   4
BRANCH   3   6
ATOM      6  C   UNL     1      19.798  -2.286 -27.201  1.00  0.00    -0.014 C 
ATOM      7  C   UNL     1      18.676  -2.096 -28.237  1.00  0.00     0.007 C 
ATOM      8  C   UNL     1      21.052  -2.872 -27.852  1.00  0.00     0.007 C 
ENDBRANCH   3   6
ENDBRANCH   2   3
ENDBRANCH   1   2
BRANCH   1   9
ATOM      9  C   UNL     1      21.234   1.974 -26.687  1.00  0.00    -0.011 C 
ATOM     10  C   UNL     1      22.148   2.689 -25.664  1.00  0.00     0.008 C 
BRANCH   9  11
ATOM     11  C   UNL     1      21.989   0.849 -27.501  1.00  0.00    -0.002 C 
ATOM     12  C   UNL     1      23.274   0.311 -26.848  1.00  0.00     0.005 C 
ATOM     13  C   UNL     1      22.286   0.983 -29.054  1.00  0.00    -0.026 C 
ATOM     14  C   UNL     1      23.950  -0.489 -27.949  1.00  0.00     0.005 C 
ATOM     15  C   UNL     1      23.704   0.338 -29.220  1.00  0.00    -0.001 C 
ATOM     16  C   UNL     1      21.146   0.243 -29.865  1.00  0.00     0.007 C 
ATOM     17  C   UNL     1      22.374   2.442 -29.555  1.00  0.00     0.012 C 
ATOM     18  C   UNL     1      23.972  -0.394 -30.570  1.00  0.00     0.000 C 
ATOM     19  C   UNL     1      21.573  -0.489 -31.146  1.00  0.00     0.005 C 
ATOM     20  C   UNL     1      22.833  -1.364 -30.938  1.00  0.00     0.003 C 
ATOM     21  C   UNL     1      25.330  -1.082 -30.599  1.00  0.00     0.031 C 
ATOM     22  C   UNL     1      23.208  -2.384 -32.140  1.00  0.00    -0.008 C 
ATOM     23  C   UNL     1      25.607  -1.612 -31.961  1.00  0.00    -0.027 C 
ATOM     24  C   UNL     1      24.638  -2.216 -32.683  1.00  0.00    -0.065 C 
ATOM     25  C   UNL     1      23.165  -3.848 -31.597  1.00  0.00     0.014 C 
ATOM     26  C   UNL     1      22.185  -2.259 -33.313  1.00  0.00     0.016 C 
ATOM     27  C   UNL     1      25.062  -3.135 -33.802  1.00  0.00     0.063 C 
ATOM     28  C   UNL     1      23.636  -4.928 -32.618  1.00  0.00     0.033 C 
ATOM     29  C   UNL     1      24.980  -4.599 -33.322  1.00  0.00     0.118 C 
BRANCH  29  30
ATOM     30  O   UNL     1      26.105  -4.902 -32.520  1.00  0.00    -0.393 OA
ATOM     31  H   UNL     1      26.875  -5.023 -33.117  1.00  0.00     0.210 HD
ENDBRANCH  29  30
ENDBRANCH   9  11
ENDBRANCH   1   9
TORSDOF 7
ENDMDL
MODEL 6
REMARK VINA RESULT:    -4.982      3.846      7.066
REMARK INTER + INTRA:          -8.805
REMARK INTER:                  -7.293
REMARK INTRA:                  -1.512
REMARK UNBOUND:                -1.930
REMARK SMILES CC[C@H](CC[C@@H](C)[C@@H]1CC[C@H]2[C@H]3CC=C4C[C@@H](O)CC[C@@]4(C)[C@@H]3CC[C@]21C)C(C)C
REMARK SMILES IDX 5 1 4 2 3 3 2 4 1 5 28 6 29 7 30 8 6 9 7 10 8 11 9 12 26 13
REMARK SMILES IDX 10 14 11 15 25 16 27 17 12 18 24 19 23 20 13 21 21 22 14 23
REMARK SMILES IDX 15 24 20 25 22 26 16 27 19 28 17 29 18 30
REMARK H PARENT 18 31
REMARK Flexibility Score: inf
ROOT
ATOM      1  C   UNL     1      26.612  -4.432 -30.778  1.00  0.00     0.004 C 
ENDROOT
BRANCH   1   2
ATOM      2  C   UNL     1      25.953  -4.382 -29.372  1.00  0.00     0.004 C 
BRANCH   2   3
ATOM      3  C   UNL     1      25.483  -2.956 -28.915  1.00  0.00    -0.009 C 
BRANCH   3   4
ATOM      4  C   UNL     1      26.599  -2.204 -28.129  1.00  0.00     0.000 C 
ATOM      5  C   UNL     1      27.613  -3.152 -27.447  1.00  0.00     0.004 C 
ENDBRANCH   3   4
BRANCH   3   6
ATOM      6  C   UNL     1      24.912  -2.039 -30.057  1.00  0.00    -0.014 C 
ATOM      7  C   UNL     1      23.491  -1.501 -29.817  1.00  0.00     0.007 C 
ATOM      8  C   UNL     1      25.864  -0.912 -30.461  1.00  0.00     0.007 C 
ENDBRANCH   3   6
ENDBRANCH   2   3
ENDBRANCH   1   2
BRANCH   1   9
ATOM      9  C   UNL     1      25.934  -5.404 -31.805  1.00  0.00    -0.011 C 
ATOM     10  C   UNL     1      25.337  -6.665 -31.136  1.00  0.00     0.008 C 
BRANCH   9  11
ATOM     11  C   UNL     1      24.949  -4.740 -32.847  1.00  0.00    -0.002 C 
ATOM     12  C   UNL     1      25.349  -3.335 -33.331  1.00  0.00     0.005 C 
ATOM     13  C   UNL     1      23.377  -4.720 -32.632  1.00  0.00    -0.026 C 
ATOM     14  C   UNL     1      24.111  -2.815 -34.043  1.00  0.00     0.005 C 
ATOM     15  C   UNL     1      22.943  -3.319 -33.182  1.00  0.00    -0.001 C 
ATOM     16  C   UNL     1      22.734  -5.941 -33.407  1.00  0.00     0.007 C 
ATOM     17  C   UNL     1      22.943  -4.798 -31.152  1.00  0.00     0.012 C 
ATOM     18  C   UNL     1      21.531  -3.247 -33.841  1.00  0.00     0.000 C 
ATOM     19  C   UNL     1      21.363  -5.701 -34.060  1.00  0.00     0.005 C 
ATOM     20  C   UNL     1      21.312  -4.378 -34.864  1.00  0.00     0.003 C 
ATOM     21  C   UNL     1      21.240  -1.880 -34.443  1.00  0.00     0.031 C 
ATOM     22  C   UNL     1      20.015  -4.161 -35.809  1.00  0.00    -0.008 C 
ATOM     23  C   UNL     1      19.825  -1.811 -34.899  1.00  0.00    -0.027 C 
ATOM     24  C   UNL     1      19.248  -2.856 -35.531  1.00  0.00    -0.065 C 
ATOM     25  C   UNL     1      20.482  -4.031 -37.293  1.00  0.00     0.014 C 
ATOM     26  C   UNL     1      19.038  -5.374 -35.699  1.00  0.00     0.016 C 
ATOM     27  C   UNL     1      18.028  -2.581 -36.376  1.00  0.00     0.063 C 
ATOM     28  C   UNL     1      19.343  -3.685 -38.300  1.00  0.00     0.033 C 
ATOM     29  C   UNL     1      18.440  -2.501 -37.860  1.00  0.00     0.118 C 
BRANCH  29  30
ATOM     30  O   UNL     1      19.026  -1.241 -38.127  1.00  0.00    -0.393 OA
ATOM     31  H   UNL     1      19.101  -0.760 -37.274  1.00  0.00     0.210 HD
ENDBRANCH  29  30
ENDBRANCH   9  11
ENDBRANCH   1   9
TORSDOF 7
ENDMDL
MODEL 7
REMARK VINA RESULT:    -4.979      5.053      8.310
REMARK INTER + INTRA:          -8.800
REMARK INTER:                  -6.855
REMARK INTRA:                  -1.945
REMARK UNBOUND:                -1.930
REMARK SMILES CC[C@H](CC[C@@H](C)[C@@H]1CC[C@H]2[C@H]3CC=C4C[C@@H](O)CC[C@@]4(C)[C@@H]3CC[C@]21C)C(C)C
REMARK SMILES IDX 5 1 4 2 3 3 2 4 1 5 28 6 29 7 30 8 6 9 7 10 8 11 9 12 26 13
REMARK SMILES IDX 10 14 11 15 25 16 27 17 12 18 24 19 23 20 13 21 21 22 14 23
REMARK SMILES IDX 15 24 20 25 22 26 16 27 19 28 17 29 18 30
REMARK H PARENT 18 31
REMARK Flexibility Score: inf
ROOT
ATOM      1  C   UNL     1      16.957  -2.723 -35.359  1.00  0.00     0.004 C 
ENDROOT
BRANCH   1   2
ATOM      2  C   UNL     1      16.460  -4.111 -35.849  1.00  0.00     0.004 C 
BRANCH   2   3
ATOM      3  C   UNL     1      17.321  -4.750 -36.995  1.00  0.00    -0.009 C 
BRANCH   3   4
ATOM      4  C   UNL     1      17.445  -6.295 -36.833  1.00  0.00     0.000 C 
ATOM      5  C   UNL     1      17.148  -6.786 -35.396  1.00  0.00     0.004 C 
ENDBRANCH   3   4
BRANCH   3   6
ATOM      6  C   UNL     1      16.866  -4.393 -38.457  1.00  0.00    -0.014 C 
ATOM      7  C   UNL     1      17.901  -3.625 -39.297  1.00  0.00     0.007 C 
ATOM      8  C   UNL     1      16.315  -5.593 -39.230  1.00  0.00     0.007 C 
ENDBRANCH   3   6
ENDBRANCH   2   3
ENDBRANCH   1   2
BRANCH   1   9
ATOM      9  C   UNL     1      18.323  -2.245 -35.963  1.00  0.00    -0.011 C 
ATOM     10  C   UNL     1      18.227  -0.859 -36.643  1.00  0.00     0.008 C 
BRANCH   9  11
ATOM     11  C   UNL     1      19.585  -2.380 -35.022  1.00  0.00    -0.002 C 
ATOM     12  C   UNL     1      20.426  -1.102 -34.858  1.00  0.00     0.005 C 
ATOM     13  C   UNL     1      20.607  -3.588 -35.144  1.00  0.00    -0.026 C 
ATOM     14  C   UNL     1      21.709  -1.577 -34.195  1.00  0.00     0.005 C 
ATOM     15  C   UNL     1      22.000  -2.929 -34.866  1.00  0.00    -0.001 C 
ATOM     16  C   UNL     1      20.208  -4.710 -34.100  1.00  0.00     0.007 C 
ATOM     17  C   UNL     1      20.662  -4.227 -36.549  1.00  0.00     0.012 C 
ATOM     18  C   UNL     1      23.056  -3.828 -34.155  1.00  0.00     0.000 C 
ATOM     19  C   UNL     1      21.362  -5.473 -33.432  1.00  0.00     0.005 C 
ATOM     20  C   UNL     1      22.475  -4.530 -32.912  1.00  0.00     0.003 C 
ATOM     21  C   UNL     1      24.337  -3.073 -33.828  1.00  0.00     0.031 C 
ATOM     22  C   UNL     1      23.598  -5.200 -31.957  1.00  0.00    -0.008 C 
ATOM     23  C   UNL     1      25.369  -4.013 -33.313  1.00  0.00    -0.027 C 
ATOM     24  C   UNL     1      25.042  -4.998 -32.449  1.00  0.00    -0.065 C 
ATOM     25  C   UNL     1      23.561  -4.504 -30.560  1.00  0.00     0.014 C 
ATOM     26  C   UNL     1      23.322  -6.724 -31.760  1.00  0.00     0.016 C 
ATOM     27  C   UNL     1      26.146  -5.591 -31.608  1.00  0.00     0.063 C 
ATOM     28  C   UNL     1      24.683  -4.962 -29.580  1.00  0.00     0.033 C 
ATOM     29  C   UNL     1      26.107  -4.968 -30.197  1.00  0.00     0.118 C 
BRANCH  29  30
ATOM     30  O   UNL     1      26.694  -3.680 -30.228  1.00  0.00    -0.393 OA
ATOM     31  H   UNL     1      26.627  -3.300 -29.325  1.00  0.00     0.210 HD
ENDBRANCH  29  30
ENDBRANCH   9  11
ENDBRANCH   1   9
TORSDOF 7
ENDMDL
MODEL 8
REMARK VINA RESULT:    -4.968      3.122      8.554
REMARK INTER + INTRA:          -8.786
REMARK INTER:                  -6.857
REMARK INTRA:                  -1.930
REMARK UNBOUND:                -1.930
REMARK SMILES CC[C@H](CC[C@@H](C)[C@@H]1CC[C@H]2[C@H]3CC=C4C[C@@H](O)CC[C@@]4(C)[C@@H]3CC[C@]21C)C(C)C
REMARK SMILES IDX 5 1 4 2 3 3 2 4 1 5 28 6 29 7 30 8 6 9 7 10 8 11 9 12 26 13
REMARK SMILES IDX 10 14 11 15 25 16 27 17 12 18 24 19 23 20 13 21 21 22 14 23
REMARK SMILES IDX 15 24 20 25 22 26 16 27 19 28 17 29 18 30
REMARK H PARENT 18 31
REMARK Flexibility Score: inf
ROOT
ATOM      1  C   UNL     1      22.219  -0.618 -23.647  1.00  0.00     0.004 C 
ENDROOT
BRANCH   1   2
ATOM      2  C   UNL     1      22.600   0.403 -24.755  1.00  0.00     0.004 C 
BRANCH   2   3
ATOM      3  C   UNL     1      21.480   1.444 -25.104  1.00  0.00    -0.009 C 
BRANCH   3   4
ATOM      4  C   UNL     1      22.072   2.743 -25.728  1.00  0.00     0.000 C 
ATOM      5  C   UNL     1      23.560   2.608 -26.127  1.00  0.00     0.004 C 
ENDBRANCH   3   4
BRANCH   3   6
ATOM      6  C   UNL     1      20.308   0.898 -25.999  1.00  0.00    -0.014 C 
ATOM      7  C   UNL     1      18.957   1.610 -25.818  1.00  0.00     0.007 C 
ATOM      8  C   UNL     1      20.677   0.790 -27.480  1.00  0.00     0.007 C 
ENDBRANCH   3   6
ENDBRANCH   2   3
ENDBRANCH   1   2
BRANCH   1   9
ATOM      9  C   UNL     1      21.624  -1.976 -24.159  1.00  0.00    -0.011 C 
ATOM     10  C   UNL     1      20.139  -2.167 -23.767  1.00  0.00     0.008 C 
BRANCH   9  11
ATOM     11  C   UNL     1      21.909  -2.335 -25.672  1.00  0.00    -0.002 C 
ATOM     12  C   UNL     1      20.682  -2.778 -26.488  1.00  0.00     0.005 C 
ATOM     13  C   UNL     1      23.112  -3.273 -26.106  1.00  0.00    -0.026 C 
ATOM     14  C   UNL     1      21.268  -3.357 -27.765  1.00  0.00     0.005 C 
ATOM     15  C   UNL     1      22.525  -4.106 -27.296  1.00  0.00    -0.001 C 
ATOM     16  C   UNL     1      24.353  -2.373 -26.503  1.00  0.00     0.007 C 
ATOM     17  C   UNL     1      23.561  -4.269 -25.014  1.00  0.00     0.012 C 
ATOM     18  C   UNL     1      23.532  -4.510 -28.415  1.00  0.00     0.000 C 
ATOM     19  C   UNL     1      25.222  -2.870 -27.669  1.00  0.00     0.005 C 
ATOM     20  C   UNL     1      24.379  -3.313 -28.891  1.00  0.00     0.003 C 
ATOM     21  C   UNL     1      22.855  -5.218 -29.579  1.00  0.00     0.031 C 
ATOM     22  C   UNL     1      25.194  -3.595 -30.262  1.00  0.00    -0.008 C 
ATOM     23  C   UNL     1      23.877  -5.734 -30.531  1.00  0.00    -0.027 C 
ATOM     24  C   UNL     1      24.960  -4.995 -30.854  1.00  0.00    -0.065 C 
ATOM     25  C   UNL     1      24.687  -2.614 -31.366  1.00  0.00     0.014 C 
ATOM     26  C   UNL     1      26.724  -3.363 -30.056  1.00  0.00     0.016 C 
ATOM     27  C   UNL     1      25.683  -5.330 -32.137  1.00  0.00     0.063 C 
ATOM     28  C   UNL     1      25.294  -2.864 -32.780  1.00  0.00     0.033 C 
ATOM     29  C   UNL     1      25.249  -4.345 -33.241  1.00  0.00     0.118 C 
BRANCH  29  30
ATOM     30  O   UNL     1      23.982  -4.721 -33.747  1.00  0.00    -0.393 OA
ATOM     31  H   UNL     1      23.651  -3.982 -34.302  1.00  0.00     0.210 HD
ENDBRANCH  29  30
ENDBRANCH   9  11
ENDBRANCH   1   9
TORSDOF 7
ENDMDL
