MODEL 1
REMARK VINA RESULT:    -6.686      0.000      0.000
REMARK INTER + INTRA:          -7.731
REMARK INTER:                  -7.858
REMARK INTRA:                   0.127
REMARK UNBOUND:                 0.127
REMARK SMILES Oc1ccc(-c2[o+]c3cc(O)cc(O)c3cc2O)cc1.[Cl-]
REMARK SMILES IDX 6 1 7 2 8 3 9 4 10 5 12 6 13 7 15 8 16 9 17 10 5 11 4 12
REMARK SMILES IDX 3 13 2 14 19 15 20 16 1 17 18 19 11 21 14 23
REMARK H PARENT 1 18 18 20 11 22 14 24
REMARK Flexibility Score: inf
ROOT
ATOM      1  C   UNL     1      50.319  77.519  26.165  1.00  0.00     0.401 A 
ATOM      2  O   UNL     1      49.080  77.237  26.559  1.00  0.00    -0.202 OA
ATOM      3  C   UNL     1      48.559  77.675  27.701  1.00  0.00     0.368 A 
ATOM      4  C   UNL     1      47.245  77.328  28.026  1.00  0.00     0.162 A 
ATOM      5  C   UNL     1      46.672  77.775  29.216  1.00  0.00     0.128 A 
ATOM      6  C   UNL     1      47.415  78.579  30.089  1.00  0.00     0.093 A 
ATOM      7  C   UNL     1      48.733  78.941  29.785  1.00  0.00     0.136 A 
ATOM      8  C   UNL     1      49.321  78.485  28.577  1.00  0.00     0.125 A 
ATOM      9  C   UNL     1      50.639  78.787  28.196  1.00  0.00     0.078 A 
ATOM     10  C   UNL     1      51.151  78.297  26.991  1.00  0.00     0.223 A 
ENDROOT
BRANCH   1  11
ATOM     11  C   UNL     1      50.781  76.980  24.866  1.00  0.00     0.084 A 
ATOM     12  C   UNL     1      49.932  77.048  23.748  1.00  0.00     0.022 A 
ATOM     13  C   UNL     1      50.355  76.564  22.507  1.00  0.00     0.047 A 
ATOM     14  C   UNL     1      51.637  76.020  22.363  1.00  0.00     0.115 A 
ATOM     15  C   UNL     1      52.075  76.450  24.709  1.00  0.00     0.022 A 
ATOM     16  C   UNL     1      52.495  75.968  23.466  1.00  0.00     0.047 A 
BRANCH  14  17
ATOM     17  O   UNL     1      52.070  75.534  21.131  1.00  0.00    -0.508 OA
ATOM     18  H   UNL     1      52.038  74.546  20.911  1.00  0.00     0.293 HD
ENDBRANCH  14  17
ENDBRANCH   1  11
BRANCH  10  19
ATOM     19  O   UNL     1      52.475  78.556  26.638  1.00  0.00    -0.500 OA
ATOM     20  H   UNL     1      52.931  79.428  26.879  1.00  0.00     0.294 HD
ENDBRANCH  10  19
BRANCH   5  21
ATOM     21  O   UNL     1      45.361  77.418  29.524  1.00  0.00    -0.507 OA
ATOM     22  H   UNL     1      44.570  77.886  29.098  1.00  0.00     0.293 HD
ENDBRANCH   5  21
BRANCH   7  23
ATOM     23  O   UNL     1      49.407  79.748  30.706  1.00  0.00    -0.507 OA
ATOM     24  H   UNL     1      49.828  80.639  30.484  1.00  0.00     0.293 HD
ENDBRANCH   7  23
TORSDOF 5
ENDMDL
MODEL 2
REMARK VINA RESULT:    -6.681      1.663      6.733
REMARK INTER + INTRA:          -7.725
REMARK INTER:                  -7.421
REMARK INTRA:                  -0.303
REMARK UNBOUND:                 0.127
REMARK SMILES Oc1ccc(-c2[o+]c3cc(O)cc(O)c3cc2O)cc1.[Cl-]
REMARK SMILES IDX 6 1 7 2 8 3 9 4 10 5 12 6 13 7 15 8 16 9 17 10 5 11 4 12
REMARK SMILES IDX 3 13 2 14 19 15 20 16 1 17 18 19 11 21 14 23
REMARK H PARENT 1 18 18 20 11 22 14 24
REMARK Flexibility Score: inf
ROOT
ATOM      1  C   UNL     1      49.084  77.494  26.472  1.00  0.00     0.401 A 
ATOM      2  O   UNL     1      48.785  77.440  25.177  1.00  0.00    -0.202 OA
ATOM      3  C   UNL     1      49.658  77.085  24.240  1.00  0.00     0.368 A 
ATOM      4  C   UNL     1      49.249  77.055  22.905  1.00  0.00     0.162 A 
ATOM      5  C   UNL     1      50.144  76.683  21.901  1.00  0.00     0.128 A 
ATOM      6  C   UNL     1      51.458  76.337  22.233  1.00  0.00     0.093 A 
ATOM      7  C   UNL     1      51.893  76.359  23.564  1.00  0.00     0.136 A 
ATOM      8  C   UNL     1      50.987  76.739  24.587  1.00  0.00     0.125 A 
ATOM      9  C   UNL     1      51.338  76.802  25.946  1.00  0.00     0.078 A 
ATOM     10  C   UNL     1      50.390  77.191  26.898  1.00  0.00     0.223 A 
ENDROOT
BRANCH   1  11
ATOM     11  C   UNL     1      48.019  77.895  27.420  1.00  0.00     0.084 A 
ATOM     12  C   UNL     1      47.320  76.906  28.132  1.00  0.00     0.022 A 
ATOM     13  C   UNL     1      46.326  77.262  29.048  1.00  0.00     0.047 A 
ATOM     14  C   UNL     1      46.029  78.612  29.275  1.00  0.00     0.115 A 
ATOM     15  C   UNL     1      47.729  79.249  27.668  1.00  0.00     0.022 A 
ATOM     16  C   UNL     1      46.734  79.602  28.585  1.00  0.00     0.047 A 
BRANCH  14  17
ATOM     17  O   UNL     1      45.039  78.979  30.185  1.00  0.00    -0.508 OA
ATOM     18  H   UNL     1      44.271  79.582  29.916  1.00  0.00     0.293 HD
ENDBRANCH  14  17
ENDBRANCH   1  11
BRANCH  10  19
ATOM     19  O   UNL     1      50.752  77.301  28.240  1.00  0.00    -0.500 OA
ATOM     20  H   UNL     1      50.171  76.929  28.982  1.00  0.00     0.294 HD
ENDBRANCH  10  19
BRANCH   5  21
ATOM     21  O   UNL     1      49.717  76.660  20.574  1.00  0.00    -0.507 OA
ATOM     22  H   UNL     1      48.820  76.270  20.313  1.00  0.00     0.293 HD
ENDBRANCH   5  21
BRANCH   7  23
ATOM     23  O   UNL     1      53.220  75.997  23.813  1.00  0.00    -0.507 OA
ATOM     24  H   UNL     1      53.897  76.589  24.271  1.00  0.00     0.293 HD
ENDBRANCH   7  23
TORSDOF 5
ENDMDL
MODEL 3
REMARK VINA RESULT:    -6.674      1.668      6.712
REMARK INTER + INTRA:          -7.718
REMARK INTER:                  -7.396
REMARK INTRA:                  -0.321
REMARK UNBOUND:                 0.127
REMARK SMILES Oc1ccc(-c2[o+]c3cc(O)cc(O)c3cc2O)cc1.[Cl-]
REMARK SMILES IDX 6 1 7 2 8 3 9 4 10 5 12 6 13 7 15 8 16 9 17 10 5 11 4 12
REMARK SMILES IDX 3 13 2 14 19 15 20 16 1 17 18 19 11 21 14 23
REMARK H PARENT 1 18 18 20 11 22 14 24
REMARK Flexibility Score: inf
ROOT
ATOM      1  C   UNL     1      49.104  77.488  26.516  1.00  0.00     0.401 A 
ATOM      2  O   UNL     1      48.782  77.444  25.225  1.00  0.00    -0.202 OA
ATOM      3  C   UNL     1      49.637  77.093  24.270  1.00  0.00     0.368 A 
ATOM      4  C   UNL     1      49.203  77.073  22.942  1.00  0.00     0.162 A 
ATOM      5  C   UNL     1      50.078  76.707  21.919  1.00  0.00     0.128 A 
ATOM      6  C   UNL     1      51.398  76.354  22.225  1.00  0.00     0.093 A 
ATOM      7  C   UNL     1      51.857  76.366  23.548  1.00  0.00     0.136 A 
ATOM      8  C   UNL     1      50.971  76.741  24.590  1.00  0.00     0.125 A 
ATOM      9  C   UNL     1      51.346  76.794  25.943  1.00  0.00     0.078 A 
ATOM     10  C   UNL     1      50.418  77.178  26.915  1.00  0.00     0.223 A 
ENDROOT
BRANCH   1  11
ATOM     11  C   UNL     1      48.059  77.885  27.485  1.00  0.00     0.084 A 
ATOM     12  C   UNL     1      47.787  79.248  27.690  1.00  0.00     0.022 A 
ATOM     13  C   UNL     1      46.789  79.645  28.585  1.00  0.00     0.047 A 
ATOM     14  C   UNL     1      46.040  78.684  29.275  1.00  0.00     0.115 A 
ATOM     15  C   UNL     1      47.289  76.925  28.168  1.00  0.00     0.022 A 
ATOM     16  C   UNL     1      46.291  77.325  29.062  1.00  0.00     0.047 A 
BRANCH  14  17
ATOM     17  O   UNL     1      45.043  79.067  30.171  1.00  0.00    -0.508 OA
ATOM     18  H   UNL     1      45.172  78.985  31.173  1.00  0.00     0.293 HD
ENDBRANCH  14  17
ENDBRANCH   1  11
BRANCH  10  19
ATOM     19  O   UNL     1      50.805  77.279  28.251  1.00  0.00    -0.500 OA
ATOM     20  H   UNL     1      51.088  76.467  28.786  1.00  0.00     0.294 HD
ENDBRANCH  10  19
BRANCH   5  21
ATOM     21  O   UNL     1      49.627  76.693  20.601  1.00  0.00    -0.507 OA
ATOM     22  H   UNL     1      49.173  77.499  20.189  1.00  0.00     0.293 HD
ENDBRANCH   5  21
BRANCH   7  23
ATOM     23  O   UNL     1      53.187  75.999  23.771  1.00  0.00    -0.507 OA
ATOM     24  H   UNL     1      53.983  76.585  23.565  1.00  0.00     0.293 HD
ENDBRANCH   7  23
TORSDOF 5
ENDMDL
MODEL 4
REMARK VINA RESULT:    -6.648      1.924      7.142
REMARK INTER + INTRA:          -7.686
REMARK INTER:                  -7.388
REMARK INTRA:                  -0.298
REMARK UNBOUND:                 0.127
REMARK SMILES Oc1ccc(-c2[o+]c3cc(O)cc(O)c3cc2O)cc1.[Cl-]
REMARK SMILES IDX 6 1 7 2 8 3 9 4 10 5 12 6 13 7 15 8 16 9 17 10 5 11 4 12
REMARK SMILES IDX 3 13 2 14 19 15 20 16 1 17 18 19 11 21 14 23
REMARK H PARENT 1 18 18 20 11 22 14 24
REMARK Flexibility Score: inf
ROOT
ATOM      1  C   UNL     1      48.252  77.751  25.752  1.00  0.00     0.401 A 
ATOM      2  O   UNL     1      49.511  77.335  25.860  1.00  0.00    -0.202 OA
ATOM      3  C   UNL     1      50.244  76.947  24.822  1.00  0.00     0.368 A 
ATOM      4  C   UNL     1      51.560  76.529  25.037  1.00  0.00     0.162 A 
ATOM      5  C   UNL     1      52.354  76.119  23.965  1.00  0.00     0.128 A 
ATOM      6  C   UNL     1      51.830  76.127  22.668  1.00  0.00     0.093 A 
ATOM      7  C   UNL     1      50.514  76.541  22.426  1.00  0.00     0.136 A 
ATOM      8  C   UNL     1      49.703  76.956  23.514  1.00  0.00     0.125 A 
ATOM      9  C   UNL     1      48.370  77.375  23.368  1.00  0.00     0.078 A 
ATOM     10  C   UNL     1      47.631  77.766  24.489  1.00  0.00     0.223 A 
ENDROOT
BRANCH   1  11
ATOM     11  C   UNL     1      47.543  78.168  26.983  1.00  0.00     0.084 A 
ATOM     12  C   UNL     1      47.088  77.190  27.883  1.00  0.00     0.022 A 
ATOM     13  C   UNL     1      46.435  77.562  29.062  1.00  0.00     0.047 A 
ATOM     14  C   UNL     1      46.244  78.916  29.364  1.00  0.00     0.115 A 
ATOM     15  C   UNL     1      47.365  79.526  27.302  1.00  0.00     0.022 A 
ATOM     16  C   UNL     1      46.712  79.895  28.483  1.00  0.00     0.047 A 
BRANCH  14  17
ATOM     17  O   UNL     1      45.594  79.299  30.536  1.00  0.00    -0.508 OA
ATOM     18  H   UNL     1      44.806  79.936  30.520  1.00  0.00     0.293 HD
ENDBRANCH  14  17
ENDBRANCH   1  11
BRANCH  10  19
ATOM     19  O   UNL     1      46.293  78.134  24.350  1.00  0.00    -0.500 OA
ATOM     20  H   UNL     1      45.987  79.091  24.479  1.00  0.00     0.294 HD
ENDBRANCH  10  19
BRANCH   5  21
ATOM     21  O   UNL     1      53.664  75.705  24.199  1.00  0.00    -0.507 OA
ATOM     22  H   UNL     1      54.420  75.968  23.580  1.00  0.00     0.293 HD
ENDBRANCH   5  21
BRANCH   7  23
ATOM     23  O   UNL     1      50.066  76.523  21.102  1.00  0.00    -0.507 OA
ATOM     24  H   UNL     1      49.763  77.339  20.591  1.00  0.00     0.293 HD
ENDBRANCH   7  23
TORSDOF 5
ENDMDL
MODEL 5
REMARK VINA RESULT:    -6.587      1.472      3.385
REMARK INTER + INTRA:          -7.615
REMARK INTER:                  -7.835
REMARK INTRA:                   0.220
REMARK UNBOUND:                 0.127
REMARK SMILES Oc1ccc(-c2[o+]c3cc(O)cc(O)c3cc2O)cc1.[Cl-]
REMARK SMILES IDX 6 1 7 2 8 3 9 4 10 5 12 6 13 7 15 8 16 9 17 10 5 11 4 12
REMARK SMILES IDX 3 13 2 14 19 15 20 16 1 17 18 19 11 21 14 23
REMARK H PARENT 1 18 18 20 11 22 14 24
REMARK Flexibility Score: inf
ROOT
ATOM      1  C   UNL     1      50.630  77.526  26.180  1.00  0.00     0.401 A 
ATOM      2  O   UNL     1      51.613  78.047  26.909  1.00  0.00    -0.202 OA
ATOM      3  C   UNL     1      51.440  78.513  28.142  1.00  0.00     0.368 A 
ATOM      4  C   UNL     1      52.536  79.039  28.830  1.00  0.00     0.162 A 
ATOM      5  C   UNL     1      52.384  79.533  30.126  1.00  0.00     0.128 A 
ATOM      6  C   UNL     1      51.127  79.499  30.741  1.00  0.00     0.093 A 
ATOM      7  C   UNL     1      50.013  78.977  30.073  1.00  0.00     0.136 A 
ATOM      8  C   UNL     1      50.163  78.477  28.754  1.00  0.00     0.125 A 
ATOM      9  C   UNL     1      49.101  77.946  28.003  1.00  0.00     0.078 A 
ATOM     10  C   UNL     1      49.325  77.476  26.705  1.00  0.00     0.223 A 
ENDROOT
BRANCH   1  11
ATOM     11  C   UNL     1      50.952  77.030  24.822  1.00  0.00     0.084 A 
ATOM     12  C   UNL     1      52.188  76.404  24.590  1.00  0.00     0.022 A 
ATOM     13  C   UNL     1      52.505  75.910  23.322  1.00  0.00     0.047 A 
ATOM     14  C   UNL     1      51.584  76.021  22.273  1.00  0.00     0.115 A 
ATOM     15  C   UNL     1      50.024  77.120  23.769  1.00  0.00     0.022 A 
ATOM     16  C   UNL     1      50.344  76.624  22.501  1.00  0.00     0.047 A 
BRANCH  14  17
ATOM     17  O   UNL     1      51.889  75.533  21.004  1.00  0.00    -0.508 OA
ATOM     18  H   UNL     1      51.983  76.152  20.207  1.00  0.00     0.293 HD
ENDBRANCH  14  17
ENDBRANCH   1  11
BRANCH  10  19
ATOM     19  O   UNL     1      48.261  76.997  25.942  1.00  0.00    -0.500 OA
ATOM     20  H   UNL     1      47.703  77.610  25.360  1.00  0.00     0.294 HD
ENDBRANCH  10  19
BRANCH   5  21
ATOM     21  O   UNL     1      53.488  80.054  30.797  1.00  0.00    -0.507 OA
ATOM     22  H   UNL     1      53.391  80.543  31.678  1.00  0.00     0.293 HD
ENDBRANCH   5  21
BRANCH   7  23
ATOM     23  O   UNL     1      48.794  78.977  30.757  1.00  0.00    -0.507 OA
ATOM     24  H   UNL     1      47.907  78.732  30.341  1.00  0.00     0.293 HD
ENDBRANCH   7  23
TORSDOF 5
ENDMDL
MODEL 6
REMARK VINA RESULT:    -6.247      9.092     12.763
REMARK INTER + INTRA:          -7.215
REMARK INTER:                  -7.040
REMARK INTRA:                  -0.175
REMARK UNBOUND:                 0.127
REMARK SMILES Oc1ccc(-c2[o+]c3cc(O)cc(O)c3cc2O)cc1.[Cl-]
REMARK SMILES IDX 6 1 7 2 8 3 9 4 10 5 12 6 13 7 15 8 16 9 17 10 5 11 4 12
REMARK SMILES IDX 3 13 2 14 19 15 20 16 1 17 18 19 11 21 14 23
REMARK H PARENT 1 18 18 20 11 22 14 24
REMARK Flexibility Score: inf
ROOT
ATOM      1  C   UNL     1      53.963  69.005  17.815  1.00  0.00     0.401 A 
ATOM      2  O   UNL     1      54.285  69.097  19.102  1.00  0.00    -0.202 OA
ATOM      3  C   UNL     1      54.199  70.225  19.799  1.00  0.00     0.368 A 
ATOM      4  C   UNL     1      54.557  70.221  21.149  1.00  0.00     0.162 A 
ATOM      5  C   UNL     1      54.473  71.391  21.905  1.00  0.00     0.128 A 
ATOM      6  C   UNL     1      54.026  72.575  21.308  1.00  0.00     0.093 A 
ATOM      7  C   UNL     1      53.661  72.605  19.956  1.00  0.00     0.136 A 
ATOM      8  C   UNL     1      53.747  71.418  19.184  1.00  0.00     0.125 A 
ATOM      9  C   UNL     1      53.415  71.357  17.820  1.00  0.00     0.078 A 
ATOM     10  C   UNL     1      53.530  70.151  17.123  1.00  0.00     0.223 A 
ENDROOT
BRANCH   1  11
ATOM     11  C   UNL     1      54.094  67.687  17.152  1.00  0.00     0.084 A 
ATOM     12  C   UNL     1      53.220  66.645  17.508  1.00  0.00     0.022 A 
ATOM     13  C   UNL     1      53.311  65.399  16.881  1.00  0.00     0.047 A 
ATOM     14  C   UNL     1      54.266  65.184  15.879  1.00  0.00     0.115 A 
ATOM     15  C   UNL     1      55.037  67.469  16.132  1.00  0.00     0.022 A 
ATOM     16  C   UNL     1      55.125  66.221  15.505  1.00  0.00     0.047 A 
BRANCH  14  17
ATOM     17  O   UNL     1      54.367  63.946  15.247  1.00  0.00    -0.508 OA
ATOM     18  H   UNL     1      53.635  63.249  15.328  1.00  0.00     0.293 HD
ENDBRANCH  14  17
ENDBRANCH   1  11
BRANCH  10  19
ATOM     19  O   UNL     1      53.248  70.103  15.758  1.00  0.00    -0.500 OA
ATOM     20  H   UNL     1      53.658  69.400  15.154  1.00  0.00     0.294 HD
ENDBRANCH  10  19
BRANCH   5  21
ATOM     21  O   UNL     1      54.836  71.367  23.250  1.00  0.00    -0.507 OA
ATOM     22  H   UNL     1      55.799  71.249  23.537  1.00  0.00     0.293 HD
ENDBRANCH   5  21
BRANCH   7  23
ATOM     23  O   UNL     1      53.221  73.826  19.435  1.00  0.00    -0.507 OA
ATOM     24  H   UNL     1      53.206  74.054  18.452  1.00  0.00     0.293 HD
ENDBRANCH   7  23
TORSDOF 5
ENDMDL
MODEL 7
REMARK VINA RESULT:    -5.595      8.845     14.156
REMARK INTER + INTRA:          -6.449
REMARK INTER:                  -6.389
REMARK INTRA:                  -0.060
REMARK UNBOUND:                 0.127
REMARK SMILES Oc1ccc(-c2[o+]c3cc(O)cc(O)c3cc2O)cc1.[Cl-]
REMARK SMILES IDX 6 1 7 2 8 3 9 4 10 5 12 6 13 7 15 8 16 9 17 10 5 11 4 12
REMARK SMILES IDX 3 13 2 14 19 15 20 16 1 17 18 19 11 21 14 23
REMARK H PARENT 1 18 18 20 11 22 14 24
REMARK Flexibility Score: inf
ROOT
ATOM      1  C   UNL     1      54.402  69.810  18.643  1.00  0.00     0.401 A 
ATOM      2  O   UNL     1      54.419  68.480  18.692  1.00  0.00    -0.202 OA
ATOM      3  C   UNL     1      54.568  67.712  17.618  1.00  0.00     0.368 A 
ATOM      4  C   UNL     1      54.576  66.323  17.771  1.00  0.00     0.162 A 
ATOM      5  C   UNL     1      54.734  65.492  16.662  1.00  0.00     0.128 A 
ATOM      6  C   UNL     1      54.887  66.052  15.388  1.00  0.00     0.093 A 
ATOM      7  C   UNL     1      54.883  67.440  15.208  1.00  0.00     0.136 A 
ATOM      8  C   UNL     1      54.720  68.289  16.334  1.00  0.00     0.125 A 
ATOM      9  C   UNL     1      54.691  69.691  16.248  1.00  0.00     0.078 A 
ATOM     10  C   UNL     1      54.521  70.461  17.401  1.00  0.00     0.223 A 
ENDROOT
BRANCH   1  11
ATOM     11  C   UNL     1      54.239  70.555  19.912  1.00  0.00     0.084 A 
ATOM     12  C   UNL     1      53.213  70.192  20.800  1.00  0.00     0.022 A 
ATOM     13  C   UNL     1      53.054  70.867  22.014  1.00  0.00     0.047 A 
ATOM     14  C   UNL     1      53.928  71.905  22.361  1.00  0.00     0.115 A 
ATOM     15  C   UNL     1      55.125  71.585  20.277  1.00  0.00     0.022 A 
ATOM     16  C   UNL     1      54.964  72.259  21.492  1.00  0.00     0.047 A 
BRANCH  14  17
ATOM     17  O   UNL     1      53.779  72.587  23.568  1.00  0.00    -0.508 OA
ATOM     18  H   UNL     1      54.567  72.751  24.183  1.00  0.00     0.293 HD
ENDBRANCH  14  17
ENDBRANCH   1  11
BRANCH  10  19
ATOM     19  O   UNL     1      54.442  71.851  17.309  1.00  0.00    -0.500 OA
ATOM     20  H   UNL     1      55.205  72.449  17.602  1.00  0.00     0.294 HD
ENDBRANCH  10  19
BRANCH   5  21
ATOM     21  O   UNL     1      54.738  64.109  16.834  1.00  0.00    -0.507 OA
ATOM     22  H   UNL     1      55.602  63.583  16.872  1.00  0.00     0.293 HD
ENDBRANCH   5  21
BRANCH   7  23
ATOM     23  O   UNL     1      55.045  67.921  13.906  1.00  0.00    -0.507 OA
ATOM     24  H   UNL     1      54.894  67.373  13.072  1.00  0.00     0.293 HD
ENDBRANCH   7  23
TORSDOF 5
ENDMDL
MODEL 8
REMARK VINA RESULT:    -5.548     10.656     13.684
REMARK INTER + INTRA:          -6.394
REMARK INTER:                  -6.575
REMARK INTRA:                   0.181
REMARK UNBOUND:                 0.127
REMARK SMILES Oc1ccc(-c2[o+]c3cc(O)cc(O)c3cc2O)cc1.[Cl-]
REMARK SMILES IDX 6 1 7 2 8 3 9 4 10 5 12 6 13 7 15 8 16 9 17 10 5 11 4 12
REMARK SMILES IDX 3 13 2 14 19 15 20 16 1 17 18 19 11 21 14 23
REMARK H PARENT 1 18 18 20 11 22 14 24
REMARK Flexibility Score: inf
ROOT
ATOM      1  C   UNL     1      54.237  69.338  17.134  1.00  0.00     0.401 A 
ATOM      2  O   UNL     1      54.183  70.276  16.192  1.00  0.00    -0.202 OA
ATOM      3  C   UNL     1      54.117  71.577  16.458  1.00  0.00     0.368 A 
ATOM      4  C   UNL     1      54.068  72.487  15.399  1.00  0.00     0.162 A 
ATOM      5  C   UNL     1      54.001  73.857  15.649  1.00  0.00     0.128 A 
ATOM      6  C   UNL     1      53.985  74.324  16.968  1.00  0.00     0.093 A 
ATOM      7  C   UNL     1      54.033  73.433  18.047  1.00  0.00     0.136 A 
ATOM      8  C   UNL     1      54.099  72.038  17.796  1.00  0.00     0.125 A 
ATOM      9  C   UNL     1      54.138  71.071  18.815  1.00  0.00     0.078 A 
ATOM     10  C   UNL     1      54.197  69.712  18.490  1.00  0.00     0.223 A 
ENDROOT
BRANCH   1  11
ATOM     11  C   UNL     1      54.319  67.922  16.709  1.00  0.00     0.084 A 
ATOM     12  C   UNL     1      53.576  66.950  17.398  1.00  0.00     0.022 A 
ATOM     13  C   UNL     1      53.621  65.610  17.001  1.00  0.00     0.047 A 
ATOM     14  C   UNL     1      54.398  65.229  15.900  1.00  0.00     0.115 A 
ATOM     15  C   UNL     1      55.081  67.535  15.592  1.00  0.00     0.022 A 
ATOM     16  C   UNL     1      55.125  66.194  15.197  1.00  0.00     0.047 A 
BRANCH  14  17
ATOM     17  O   UNL     1      54.452  63.896  15.495  1.00  0.00    -0.508 OA
ATOM     18  H   UNL     1      54.741  63.161  16.130  1.00  0.00     0.293 HD
ENDBRANCH  14  17
ENDBRANCH   1  11
BRANCH  10  19
ATOM     19  O   UNL     1      54.185  68.751  19.500  1.00  0.00    -0.500 OA
ATOM     20  H   UNL     1      53.650  67.894  19.414  1.00  0.00     0.294 HD
ENDBRANCH  10  19
BRANCH   5  21
ATOM     21  O   UNL     1      53.952  74.749  14.580  1.00  0.00    -0.507 OA
ATOM     22  H   UNL     1      53.119  75.287  14.376  1.00  0.00     0.293 HD
ENDBRANCH   5  21
BRANCH   7  23
ATOM     23  O   UNL     1      54.016  73.979  19.334  1.00  0.00    -0.507 OA
ATOM     24  H   UNL     1      53.490  73.599  20.108  1.00  0.00     0.293 HD
ENDBRANCH   7  23
TORSDOF 5
ENDMDL
