MODEL 1
REMARK VINA RESULT:    -2.641      0.000      0.000
REMARK INTER + INTRA:          -4.384
REMARK INTER:                  -3.645
REMARK INTRA:                  -0.739
REMARK UNBOUND:                -0.739
REMARK SMILES CC[C@H](CC[C@@H](C)[C@H]1CC[C@@H]2[C@H]3CC=C4C[C@@H](O)CC[C@@]4(C)[C@@H]3CC[C@]21C)C(C)C
REMARK SMILES IDX 5 1 4 2 3 3 2 4 1 5 28 6 29 7 30 8 6 9 7 10 8 11 9 12 26 13
REMARK SMILES IDX 10 14 11 15 25 16 27 17 12 18 24 19 23 20 13 21 21 22 14 23
REMARK SMILES IDX 15 24 20 25 22 26 16 27 19 28 17 29 18 30
REMARK H PARENT 18 31
REMARK Flexibility Score: inf
ROOT
ATOM      1  C   UNL     1     -15.080  31.275   7.482  1.00  0.00     0.004 C 
ENDROOT
BRANCH   1   2
ATOM      2  C   UNL     1     -15.853  32.183   6.503  1.00  0.00     0.004 C 
BRANCH   2   3
ATOM      3  C   UNL     1     -16.847  33.201   7.135  1.00  0.00    -0.009 C 
BRANCH   3   4
ATOM      4  C   UNL     1     -17.555  34.090   6.070  1.00  0.00     0.000 C 
ATOM      5  C   UNL     1     -16.928  34.105   4.670  1.00  0.00     0.004 C 
ENDBRANCH   3   4
BRANCH   3   6
ATOM      6  C   UNL     1     -17.795  32.600   8.230  1.00  0.00    -0.014 C 
ATOM      7  C   UNL     1     -19.239  32.443   7.720  1.00  0.00     0.007 C 
ATOM      8  C   UNL     1     -17.820  33.476   9.498  1.00  0.00     0.007 C 
ENDBRANCH   3   6
ENDBRANCH   2   3
ENDBRANCH   1   2
BRANCH   1   9
ATOM      9  C   UNL     1     -13.849  32.032   8.092  1.00  0.00    -0.011 C 
ATOM     10  C   UNL     1     -14.164  33.550   8.052  1.00  0.00     0.008 C 
BRANCH   9  11
ATOM     11  C   UNL     1     -13.506  31.514   9.539  1.00  0.00    -0.002 C 
ATOM     12  C   UNL     1     -14.730  31.637  10.505  1.00  0.00     0.005 C 
ATOM     13  C   UNL     1     -13.050  30.014   9.713  1.00  0.00    -0.026 C 
ATOM     14  C   UNL     1     -15.000  30.263  11.116  1.00  0.00     0.005 C 
ATOM     15  C   UNL     1     -14.355  29.316  10.131  1.00  0.00    -0.001 C 
ATOM     16  C   UNL     1     -12.517  29.243   8.479  1.00  0.00     0.007 C 
ATOM     17  C   UNL     1     -11.958  30.001  10.834  1.00  0.00     0.012 C 
ATOM     18  C   UNL     1     -14.160  27.845  10.572  1.00  0.00     0.000 C 
ATOM     19  C   UNL     1     -12.278  27.748   8.788  1.00  0.00     0.005 C 
ATOM     20  C   UNL     1     -13.526  27.038   9.400  1.00  0.00     0.003 C 
ATOM     21  C   UNL     1     -15.513  27.217  10.943  1.00  0.00     0.031 C 
ATOM     22  C   UNL     1     -13.275  25.533   9.803  1.00  0.00    -0.008 C 
ATOM     23  C   UNL     1     -15.434  25.728  11.119  1.00  0.00    -0.027 C 
ATOM     24  C   UNL     1     -14.510  24.950  10.512  1.00  0.00    -0.065 C 
ATOM     25  C   UNL     1     -13.010  24.702   8.507  1.00  0.00     0.014 C 
ATOM     26  C   UNL     1     -12.056  25.397  10.759  1.00  0.00     0.016 C 
ATOM     27  C   UNL     1     -14.612  23.443  10.678  1.00  0.00     0.063 C 
ATOM     28  C   UNL     1     -13.044  23.180   8.724  1.00  0.00     0.033 C 
ATOM     29  C   UNL     1     -14.373  22.729   9.346  1.00  0.00     0.118 C 
BRANCH  29  30
ATOM     30  O   UNL     1     -15.442  22.991   8.474  1.00  0.00    -0.393 OA
ATOM     31  H   UNL     1     -15.968  23.727   8.886  1.00  0.00     0.210 HD
ENDBRANCH  29  30
ENDBRANCH   9  11
ENDBRANCH   1   9
TORSDOF 7
ENDMDL
MODEL 2
REMARK VINA RESULT:    -1.440      3.040      8.671
REMARK INTER + INTRA:          -2.726
REMARK INTER:                  -2.686
REMARK INTRA:                  -0.040
REMARK UNBOUND:                -0.739
REMARK SMILES CC[C@H](CC[C@@H](C)[C@H]1CC[C@@H]2[C@H]3CC=C4C[C@@H](O)CC[C@@]4(C)[C@@H]3CC[C@]21C)C(C)C
REMARK SMILES IDX 5 1 4 2 3 3 2 4 1 5 28 6 29 7 30 8 6 9 7 10 8 11 9 12 26 13
REMARK SMILES IDX 10 14 11 15 25 16 27 17 12 18 24 19 23 20 13 21 21 22 14 23
REMARK SMILES IDX 15 24 20 25 22 26 16 27 19 28 17 29 18 30
REMARK H PARENT 18 31
REMARK Flexibility Score: inf
ROOT
ATOM      1  C   UNL     1     -12.230  23.278  11.124  1.00  0.00     0.004 C 
ENDROOT
BRANCH   1   2
ATOM      2  C   UNL     1     -13.086  22.535  10.077  1.00  0.00     0.004 C 
BRANCH   2   3
ATOM      3  C   UNL     1     -14.133  21.521  10.625  1.00  0.00    -0.009 C 
BRANCH   3   4
ATOM      4  C   UNL     1     -15.580  22.100  10.638  1.00  0.00     0.000 C 
ATOM      5  C   UNL     1     -16.121  22.610   9.297  1.00  0.00     0.004 C 
ENDBRANCH   3   4
BRANCH   3   6
ATOM      6  C   UNL     1     -14.007  20.070  10.045  1.00  0.00    -0.014 C 
ATOM      7  C   UNL     1     -15.362  19.520   9.566  1.00  0.00     0.007 C 
ATOM      8  C   UNL     1     -13.427  19.094  11.089  1.00  0.00     0.007 C 
ENDBRANCH   3   6
ENDBRANCH   2   3
ENDBRANCH   1   2
BRANCH   1   9
ATOM      9  C   UNL     1     -12.195  24.818  10.827  1.00  0.00    -0.011 C 
ATOM     10  C   UNL     1     -10.919  25.107   9.994  1.00  0.00     0.008 C 
BRANCH   9  11
ATOM     11  C   UNL     1     -13.514  25.304  10.117  1.00  0.00    -0.002 C 
ATOM     12  C   UNL     1     -14.713  25.393  11.118  1.00  0.00     0.005 C 
ATOM     13  C   UNL     1     -13.516  26.717   9.417  1.00  0.00    -0.026 C 
ATOM     14  C   UNL     1     -15.295  26.803  11.048  1.00  0.00     0.005 C 
ATOM     15  C   UNL     1     -14.152  27.618  10.487  1.00  0.00    -0.001 C 
ATOM     16  C   UNL     1     -12.162  27.371   9.043  1.00  0.00     0.007 C 
ATOM     17  C   UNL     1     -14.390  26.580   8.126  1.00  0.00     0.012 C 
ATOM     18  C   UNL     1     -14.470  29.049   9.988  1.00  0.00     0.000 C 
ATOM     19  C   UNL     1     -12.339  28.816   8.524  1.00  0.00     0.005 C 
ATOM     20  C   UNL     1     -13.153  29.724   9.498  1.00  0.00     0.003 C 
ATOM     21  C   UNL     1     -15.073  29.888  11.125  1.00  0.00     0.031 C 
ATOM     22  C   UNL     1     -13.420  31.178   8.947  1.00  0.00    -0.008 C 
ATOM     23  C   UNL     1     -15.154  31.349  10.790  1.00  0.00    -0.027 C 
ATOM     24  C   UNL     1     -14.334  31.962   9.907  1.00  0.00    -0.065 C 
ATOM     25  C   UNL     1     -12.057  31.933   8.836  1.00  0.00     0.014 C 
ATOM     26  C   UNL     1     -14.102  31.141   7.550  1.00  0.00     0.016 C 
ATOM     27  C   UNL     1     -14.440  33.469   9.747  1.00  0.00     0.063 C 
ATOM     28  C   UNL     1     -12.198  33.446   8.597  1.00  0.00     0.033 C 
ATOM     29  C   UNL     1     -13.052  34.111   9.685  1.00  0.00     0.118 C 
BRANCH  29  30
ATOM     30  O   UNL     1     -12.429  34.002  10.939  1.00  0.00    -0.393 OA
ATOM     31  H   UNL     1     -13.113  33.644  11.564  1.00  0.00     0.210 HD
ENDBRANCH  29  30
ENDBRANCH   9  11
ENDBRANCH   1   9
TORSDOF 7
ENDMDL
MODEL 3
REMARK VINA RESULT:    -1.429      1.632      3.054
REMARK INTER + INTRA:          -2.711
REMARK INTER:                  -2.486
REMARK INTRA:                  -0.225
REMARK UNBOUND:                -0.739
REMARK SMILES CC[C@H](CC[C@@H](C)[C@H]1CC[C@@H]2[C@H]3CC=C4C[C@@H](O)CC[C@@]4(C)[C@@H]3CC[C@]21C)C(C)C
REMARK SMILES IDX 5 1 4 2 3 3 2 4 1 5 28 6 29 7 30 8 6 9 7 10 8 11 9 12 26 13
REMARK SMILES IDX 10 14 11 15 25 16 27 17 12 18 24 19 23 20 13 21 21 22 14 23
REMARK SMILES IDX 15 24 20 25 22 26 16 27 19 28 17 29 18 30
REMARK H PARENT 18 31
REMARK Flexibility Score: inf
ROOT
ATOM      1  C   UNL     1     -13.999  31.225   7.128  1.00  0.00     0.004 C 
ENDROOT
BRANCH   1   2
ATOM      2  C   UNL     1     -12.748  31.714   6.370  1.00  0.00     0.004 C 
BRANCH   2   3
ATOM      3  C   UNL     1     -12.389  33.222   6.516  1.00  0.00    -0.009 C 
BRANCH   3   4
ATOM      4  C   UNL     1     -11.027  33.448   7.239  1.00  0.00     0.000 C 
ATOM      5  C   UNL     1     -11.094  33.724   8.746  1.00  0.00     0.004 C 
ENDBRANCH   3   4
BRANCH   3   6
ATOM      6  C   UNL     1     -12.597  34.076   5.218  1.00  0.00    -0.014 C 
ATOM      7  C   UNL     1     -14.055  34.031   4.726  1.00  0.00     0.007 C 
ATOM      8  C   UNL     1     -11.682  33.595   4.074  1.00  0.00     0.007 C 
ENDBRANCH   3   6
ENDBRANCH   2   3
ENDBRANCH   1   2
BRANCH   1   9
ATOM      9  C   UNL     1     -14.451  32.280   8.198  1.00  0.00    -0.011 C 
ATOM     10  C   UNL     1     -15.946  32.601   7.939  1.00  0.00     0.008 C 
BRANCH   9  11
ATOM     11  C   UNL     1     -14.176  31.777   9.664  1.00  0.00    -0.002 C 
ATOM     12  C   UNL     1     -15.478  31.773  10.532  1.00  0.00     0.005 C 
ATOM     13  C   UNL     1     -13.598  30.323   9.866  1.00  0.00    -0.026 C 
ATOM     14  C   UNL     1     -15.666  30.373  11.111  1.00  0.00     0.005 C 
ATOM     15  C   UNL     1     -14.860  29.502  10.174  1.00  0.00    -0.001 C 
ATOM     16  C   UNL     1     -12.900  29.621   8.673  1.00  0.00     0.007 C 
ATOM     17  C   UNL     1     -12.600  30.397  11.069  1.00  0.00     0.012 C 
ATOM     18  C   UNL     1     -14.565  28.050  10.621  1.00  0.00     0.000 C 
ATOM     19  C   UNL     1     -12.548  28.151   8.991  1.00  0.00     0.005 C 
ATOM     20  C   UNL     1     -13.768  27.321   9.498  1.00  0.00     0.003 C 
ATOM     21  C   UNL     1     -15.878  27.295  10.880  1.00  0.00     0.031 C 
ATOM     22  C   UNL     1     -13.410  25.840   9.911  1.00  0.00    -0.008 C 
ATOM     23  C   UNL     1     -15.674  25.818  11.053  1.00  0.00    -0.027 C 
ATOM     24  C   UNL     1     -14.637  25.136  10.517  1.00  0.00    -0.065 C 
ATOM     25  C   UNL     1     -12.968  25.054   8.635  1.00  0.00     0.014 C 
ATOM     26  C   UNL     1     -12.263  25.805  10.959  1.00  0.00     0.016 C 
ATOM     27  C   UNL     1     -14.612  23.624  10.665  1.00  0.00     0.063 C 
ATOM     28  C   UNL     1     -12.878  23.533   8.839  1.00  0.00     0.033 C 
ATOM     29  C   UNL     1     -14.203  22.952   9.352  1.00  0.00     0.118 C 
BRANCH  29  30
ATOM     30  O   UNL     1     -15.221  23.127   8.400  1.00  0.00    -0.393 OA
ATOM     31  H   UNL     1     -15.136  24.057   8.063  1.00  0.00     0.210 HD
ENDBRANCH  29  30
ENDBRANCH   9  11
ENDBRANCH   1   9
TORSDOF 7
ENDMDL
MODEL 4
REMARK VINA RESULT:    -1.342      2.796      9.076
REMARK INTER + INTRA:          -2.591
REMARK INTER:                  -2.031
REMARK INTRA:                  -0.560
REMARK UNBOUND:                -0.739
REMARK SMILES CC[C@H](CC[C@@H](C)[C@H]1CC[C@@H]2[C@H]3CC=C4C[C@@H](O)CC[C@@]4(C)[C@@H]3CC[C@]21C)C(C)C
REMARK SMILES IDX 5 1 4 2 3 3 2 4 1 5 28 6 29 7 30 8 6 9 7 10 8 11 9 12 26 13
REMARK SMILES IDX 10 14 11 15 25 16 27 17 12 18 24 19 23 20 13 21 21 22 14 23
REMARK SMILES IDX 15 24 20 25 22 26 16 27 19 28 17 29 18 30
REMARK H PARENT 18 31
REMARK Flexibility Score: inf
ROOT
ATOM      1  C   UNL     1     -15.701  22.875   9.273  1.00  0.00     0.004 C 
ENDROOT
BRANCH   1   2
ATOM      2  C   UNL     1     -14.929  21.961  10.248  1.00  0.00     0.004 C 
BRANCH   2   3
ATOM      3  C   UNL     1     -15.673  20.687  10.745  1.00  0.00    -0.009 C 
BRANCH   3   4
ATOM      4  C   UNL     1     -17.117  20.572  10.170  1.00  0.00     0.000 C 
ATOM      5  C   UNL     1     -18.063  19.606  10.893  1.00  0.00     0.004 C 
ENDBRANCH   3   4
BRANCH   3   6
ATOM      6  C   UNL     1     -14.830  19.367  10.681  1.00  0.00    -0.014 C 
ATOM      7  C   UNL     1     -13.322  19.639  10.822  1.00  0.00     0.007 C 
ATOM      8  C   UNL     1     -15.066  18.609   9.359  1.00  0.00     0.007 C 
ENDBRANCH   3   6
ENDBRANCH   2   3
ENDBRANCH   1   2
BRANCH   1   9
ATOM      9  C   UNL     1     -15.678  24.364   9.766  1.00  0.00    -0.011 C 
ATOM     10  C   UNL     1     -16.424  24.421  11.125  1.00  0.00     0.008 C 
BRANCH   9  11
ATOM     11  C   UNL     1     -14.209  24.927   9.848  1.00  0.00    -0.002 C 
ATOM     12  C   UNL     1     -13.462  24.802   8.479  1.00  0.00     0.005 C 
ATOM     13  C   UNL     1     -14.004  26.442  10.240  1.00  0.00    -0.026 C 
ATOM     14  C   UNL     1     -12.946  26.185   8.084  1.00  0.00     0.005 C 
ATOM     15  C   UNL     1     -13.835  27.120   8.871  1.00  0.00    -0.001 C 
ATOM     16  C   UNL     1     -15.152  27.192  10.962  1.00  0.00     0.007 C 
ATOM     17  C   UNL     1     -12.715  26.508  11.125  1.00  0.00     0.012 C 
ATOM     18  C   UNL     1     -13.410  28.606   8.961  1.00  0.00     0.000 C 
ATOM     19  C   UNL     1     -14.851  28.700  11.118  1.00  0.00     0.005 C 
ATOM     20  C   UNL     1     -14.482  29.396   9.771  1.00  0.00     0.003 C 
ATOM     21  C   UNL     1     -13.294  29.213   7.554  1.00  0.00     0.031 C 
ATOM     22  C   UNL     1     -14.086  30.917   9.923  1.00  0.00    -0.008 C 
ATOM     23  C   UNL     1     -13.151  30.707   7.575  1.00  0.00    -0.027 C 
ATOM     24  C   UNL     1     -13.614  31.490   8.574  1.00  0.00    -0.065 C 
ATOM     25  C   UNL     1     -15.341  31.720  10.390  1.00  0.00     0.014 C 
ATOM     26  C   UNL     1     -12.941  31.105  10.957  1.00  0.00     0.016 C 
ATOM     27  C   UNL     1     -13.513  32.998   8.418  1.00  0.00     0.063 C 
ATOM     28  C   UNL     1     -15.179  33.246  10.291  1.00  0.00     0.033 C 
ATOM     29  C   UNL     1     -14.805  33.683   8.868  1.00  0.00     0.118 C 
BRANCH  29  30
ATOM     30  O   UNL     1     -15.838  33.374   7.968  1.00  0.00    -0.393 OA
ATOM     31  H   UNL     1     -16.508  34.103   8.047  1.00  0.00     0.210 HD
ENDBRANCH  29  30
ENDBRANCH   9  11
ENDBRANCH   1   9
TORSDOF 7
ENDMDL
MODEL 5
REMARK VINA RESULT:    -1.035      3.363      8.704
REMARK INTER + INTRA:          -2.167
REMARK INTER:                  -2.167
REMARK INTRA:                  -0.000
REMARK UNBOUND:                -0.739
REMARK SMILES CC[C@H](CC[C@@H](C)[C@H]1CC[C@@H]2[C@H]3CC=C4C[C@@H](O)CC[C@@]4(C)[C@@H]3CC[C@]21C)C(C)C
REMARK SMILES IDX 5 1 4 2 3 3 2 4 1 5 28 6 29 7 30 8 6 9 7 10 8 11 9 12 26 13
REMARK SMILES IDX 10 14 11 15 25 16 27 17 12 18 24 19 23 20 13 21 21 22 14 23
REMARK SMILES IDX 15 24 20 25 22 26 16 27 19 28 17 29 18 30
REMARK H PARENT 18 31
REMARK Flexibility Score: inf
ROOT
ATOM      1  C   UNL     1     -13.953  23.541   8.504  1.00  0.00     0.004 C 
ENDROOT
BRANCH   1   2
ATOM      2  C   UNL     1     -14.843  23.392   9.755  1.00  0.00     0.004 C 
BRANCH   2   3
ATOM      3  C   UNL     1     -14.867  21.989  10.430  1.00  0.00    -0.009 C 
BRANCH   3   4
ATOM      4  C   UNL     1     -16.163  21.187  10.103  1.00  0.00     0.000 C 
ATOM      5  C   UNL     1     -17.341  21.376  11.066  1.00  0.00     0.004 C 
ENDBRANCH   3   4
BRANCH   3   6
ATOM      6  C   UNL     1     -13.535  21.173  10.297  1.00  0.00    -0.014 C 
ATOM      7  C   UNL     1     -13.681  19.737  10.831  1.00  0.00     0.007 C 
ATOM      8  C   UNL     1     -12.377  21.858  11.051  1.00  0.00     0.007 C 
ENDBRANCH   3   6
ENDBRANCH   2   3
ENDBRANCH   1   2
BRANCH   1   9
ATOM      9  C   UNL     1     -13.259  24.948   8.476  1.00  0.00    -0.011 C 
ATOM     10  C   UNL     1     -13.910  25.770   7.333  1.00  0.00     0.008 C 
BRANCH   9  11
ATOM     11  C   UNL     1     -13.344  25.666   9.875  1.00  0.00    -0.002 C 
ATOM     12  C   UNL     1     -12.045  25.447  10.720  1.00  0.00     0.005 C 
ATOM     13  C   UNL     1     -13.543  27.230   9.907  1.00  0.00    -0.026 C 
ATOM     14  C   UNL     1     -11.499  26.814  11.125  1.00  0.00     0.005 C 
ATOM     15  C   UNL     1     -12.107  27.745  10.100  1.00  0.00    -0.001 C 
ATOM     16  C   UNL     1     -14.097  27.943   8.648  1.00  0.00     0.007 C 
ATOM     17  C   UNL     1     -14.478  27.542  11.122  1.00  0.00     0.012 C 
ATOM     18  C   UNL     1     -12.022  29.266  10.374  1.00  0.00     0.000 C 
ATOM     19  C   UNL     1     -14.068  29.481   8.791  1.00  0.00     0.005 C 
ATOM     20  C   UNL     1     -12.662  30.037   9.180  1.00  0.00     0.003 C 
ATOM     21  C   UNL     1     -10.555  29.699  10.524  1.00  0.00     0.031 C 
ATOM     22  C   UNL     1     -12.633  31.597   9.417  1.00  0.00    -0.008 C 
ATOM     23  C   UNL     1     -10.386  31.190  10.521  1.00  0.00    -0.027 C 
ATOM     24  C   UNL     1     -11.247  32.041   9.920  1.00  0.00    -0.065 C 
ATOM     25  C   UNL     1     -12.922  32.318   8.062  1.00  0.00     0.014 C 
ATOM     26  C   UNL     1     -13.693  32.032  10.468  1.00  0.00     0.016 C 
ATOM     27  C   UNL     1     -10.898  33.520   9.886  1.00  0.00     0.063 C 
ATOM     28  C   UNL     1     -12.631  33.828   8.083  1.00  0.00     0.033 C 
ATOM     29  C   UNL     1     -11.185  34.118   8.507  1.00  0.00     0.118 C 
BRANCH  29  30
ATOM     30  O   UNL     1     -10.280  33.592   7.571  1.00  0.00    -0.393 OA
ATOM     31  H   UNL     1     -10.759  32.863   7.095  1.00  0.00     0.210 HD
ENDBRANCH  29  30
ENDBRANCH   9  11
ENDBRANCH   1   9
TORSDOF 7
ENDMDL
MODEL 6
REMARK VINA RESULT:    -0.661      2.991      8.860
REMARK INTER + INTRA:          -1.651
REMARK INTER:                  -1.253
REMARK INTRA:                  -0.398
REMARK UNBOUND:                -0.739
REMARK SMILES CC[C@H](CC[C@@H](C)[C@H]1CC[C@@H]2[C@H]3CC=C4C[C@@H](O)CC[C@@]4(C)[C@@H]3CC[C@]21C)C(C)C
REMARK SMILES IDX 5 1 4 2 3 3 2 4 1 5 28 6 29 7 30 8 6 9 7 10 8 11 9 12 26 13
REMARK SMILES IDX 10 14 11 15 25 16 27 17 12 18 24 19 23 20 13 21 21 22 14 23
REMARK SMILES IDX 15 24 20 25 22 26 16 27 19 28 17 29 18 30
REMARK H PARENT 18 31
REMARK Flexibility Score: inf
ROOT
ATOM      1  C   UNL     1     -12.776  21.782   8.632  1.00  0.00     0.004 C 
ENDROOT
BRANCH   1   2
ATOM      2  C   UNL     1     -13.354  21.349   9.996  1.00  0.00     0.004 C 
BRANCH   2   3
ATOM      3  C   UNL     1     -14.624  20.449   9.960  1.00  0.00    -0.009 C 
BRANCH   3   4
ATOM      4  C   UNL     1     -14.323  18.970  10.348  1.00  0.00     0.000 C 
ATOM      5  C   UNL     1     -14.356  17.947   9.206  1.00  0.00     0.004 C 
ENDBRANCH   3   4
BRANCH   3   6
ATOM      6  C   UNL     1     -15.889  21.069  10.650  1.00  0.00    -0.014 C 
ATOM      7  C   UNL     1     -17.154  20.232  10.394  1.00  0.00     0.007 C 
ATOM      8  C   UNL     1     -16.149  22.508  10.161  1.00  0.00     0.007 C 
ENDBRANCH   3   6
ENDBRANCH   2   3
ENDBRANCH   1   2
BRANCH   1   9
ATOM      9  C   UNL     1     -12.771  23.345   8.499  1.00  0.00    -0.011 C 
ATOM     10  C   UNL     1     -13.848  23.732   7.453  1.00  0.00     0.008 C 
BRANCH   9  11
ATOM     11  C   UNL     1     -12.986  24.049   9.891  1.00  0.00    -0.002 C 
ATOM     12  C   UNL     1     -11.668  24.084  10.734  1.00  0.00     0.005 C 
ATOM     13  C   UNL     1     -13.472  25.549   9.910  1.00  0.00    -0.026 C 
ATOM     14  C   UNL     1     -11.385  25.533  11.125  1.00  0.00     0.005 C 
ATOM     15  C   UNL     1     -12.157  26.324  10.093  1.00  0.00    -0.001 C 
ATOM     16  C   UNL     1     -14.151  26.134   8.645  1.00  0.00     0.007 C 
ATOM     17  C   UNL     1     -14.448  25.693  11.125  1.00  0.00     0.012 C 
ATOM     18  C   UNL     1     -12.357  27.837  10.352  1.00  0.00     0.000 C 
ATOM     19  C   UNL     1     -14.409  27.651   8.774  1.00  0.00     0.005 C 
ATOM     20  C   UNL     1     -13.131  28.463   9.154  1.00  0.00     0.003 C 
ATOM     21  C   UNL     1     -10.996  28.537  10.494  1.00  0.00     0.031 C 
ATOM     22  C   UNL     1     -13.392  30.004   9.376  1.00  0.00    -0.008 C 
ATOM     23  C   UNL     1     -11.108  30.034  10.477  1.00  0.00    -0.027 C 
ATOM     24  C   UNL     1     -12.114  30.704   9.870  1.00  0.00    -0.065 C 
ATOM     25  C   UNL     1     -13.813  30.645   8.015  1.00  0.00     0.014 C 
ATOM     26  C   UNL     1     -14.514  30.244  10.426  1.00  0.00     0.016 C 
ATOM     27  C   UNL     1     -12.046  32.221   9.822  1.00  0.00     0.063 C 
ATOM     28  C   UNL     1     -13.809  32.183   8.021  1.00  0.00     0.033 C 
ATOM     29  C   UNL     1     -12.441  32.742   8.438  1.00  0.00     0.118 C 
BRANCH  29  30
ATOM     30  O   UNL     1     -11.456  32.384   7.503  1.00  0.00    -0.393 OA
ATOM     31  H   UNL     1     -11.894  32.396   6.612  1.00  0.00     0.210 HD
ENDBRANCH  29  30
ENDBRANCH   9  11
ENDBRANCH   1   9
TORSDOF 7
ENDMDL
