MODEL 1
REMARK VINA RESULT:    51.043      0.000      0.000
REMARK INTER + INTRA:          70.339
REMARK INTER:                  70.438
REMARK INTRA:                  -0.099
REMARK UNBOUND:                -0.099
REMARK SMILES CC[C@@H](CC[C@@H](C)[C@@H]1CC[C@H]2[C@H]3CC=C4C[C@@H](O)CC[C@]4(C)[C@@H]3CC[C@@]21C)C(C)C
REMARK SMILES IDX 5 1 4 2 3 3 2 4 1 5 28 6 29 7 30 8 6 9 7 10 8 11 9 12 26 13
REMARK SMILES IDX 10 14 11 15 25 16 27 17 12 18 24 19 23 20 13 21 21 22 14 23
REMARK SMILES IDX 15 24 20 25 22 26 16 27 19 28 17 29 18 30
REMARK H PARENT 18 31
REMARK Flexibility Score: inf
ROOT
ATOM      1  C   UNL     1     -29.373  32.302  -2.322  1.00  0.00     0.004 C 
ENDROOT
BRANCH   1   2
ATOM      2  C   UNL     1     -30.899  32.526  -2.408  1.00  0.00     0.004 C 
BRANCH   2   3
ATOM      3  C   UNL     1     -31.789  31.391  -1.813  1.00  0.00    -0.009 C 
BRANCH   3   4
ATOM      4  C   UNL     1     -31.078  30.651  -0.639  1.00  0.00     0.000 C 
ATOM      5  C   UNL     1     -30.147  31.533   0.198  1.00  0.00     0.004 C 
ENDBRANCH   3   4
BRANCH   3   6
ATOM      6  C   UNL     1     -32.299  30.419  -2.936  1.00  0.00    -0.014 C 
ATOM      7  C   UNL     1     -33.826  30.516  -3.128  1.00  0.00     0.007 C 
ATOM      8  C   UNL     1     -31.936  28.949  -2.646  1.00  0.00     0.007 C 
ENDBRANCH   3   6
ENDBRANCH   2   3
ENDBRANCH   1   2
BRANCH   1   9
ATOM      9  C   UNL     1     -28.577  32.472  -3.652  1.00  0.00    -0.011 C 
ATOM     10  C   UNL     1     -27.702  33.738  -3.540  1.00  0.00     0.008 C 
BRANCH   9  11
ATOM     11  C   UNL     1     -27.789  31.173  -4.069  1.00  0.00    -0.002 C 
ATOM     12  C   UNL     1     -26.607  30.830  -3.113  1.00  0.00     0.005 C 
ATOM     13  C   UNL     1     -27.172  31.080  -5.515  1.00  0.00    -0.026 C 
ATOM     14  C   UNL     1     -25.317  30.807  -3.949  1.00  0.00     0.005 C 
ATOM     15  C   UNL     1     -25.713  31.486  -5.249  1.00  0.00    -0.001 C 
ATOM     16  C   UNL     1     -27.779  31.982  -6.657  1.00  0.00     0.007 C 
ATOM     17  C   UNL     1     -27.294  29.579  -5.947  1.00  0.00     0.012 C 
ATOM     18  C   UNL     1     -24.748  31.455  -6.469  1.00  0.00     0.000 C 
ATOM     19  C   UNL     1     -26.715  32.630  -7.592  1.00  0.00     0.005 C 
ATOM     20  C   UNL     1     -25.495  31.700  -7.808  1.00  0.00     0.003 C 
ATOM     21  C   UNL     1     -23.870  30.214  -6.641  1.00  0.00     0.031 C 
ATOM     22  C   UNL     1     -24.485  32.104  -8.945  1.00  0.00    -0.008 C 
ATOM     23  C   UNL     1     -22.920  30.437  -7.795  1.00  0.00    -0.027 C 
ATOM     24  C   UNL     1     -23.175  31.294  -8.822  1.00  0.00    -0.065 C 
ATOM     25  C   UNL     1     -24.127  33.619  -8.881  1.00  0.00     0.014 C 
ATOM     26  C   UNL     1     -25.141  31.779 -10.316  1.00  0.00     0.016 C 
ATOM     27  C   UNL     1     -22.047  31.658  -9.762  1.00  0.00     0.063 C 
ATOM     28  C   UNL     1     -22.975  34.017  -9.826  1.00  0.00     0.033 C 
ATOM     29  C   UNL     1     -21.721  33.152  -9.607  1.00  0.00     0.118 C 
BRANCH  29  30
ATOM     30  O   UNL     1     -20.740  33.526 -10.538  1.00  0.00    -0.393 OA
ATOM     31  H   UNL     1     -19.949  32.949 -10.369  1.00  0.00     0.210 HD
ENDBRANCH  29  30
ENDBRANCH   9  11
ENDBRANCH   1   9
TORSDOF 7
ENDMDL
MODEL 2
REMARK VINA RESULT:    52.803      0.529      1.701
REMARK INTER + INTRA:          72.769
REMARK INTER:                  72.652
REMARK INTRA:                   0.116
REMARK UNBOUND:                -0.099
REMARK SMILES CC[C@@H](CC[C@@H](C)[C@@H]1CC[C@H]2[C@H]3CC=C4C[C@@H](O)CC[C@]4(C)[C@@H]3CC[C@@]21C)C(C)C
REMARK SMILES IDX 5 1 4 2 3 3 2 4 1 5 28 6 29 7 30 8 6 9 7 10 8 11 9 12 26 13
REMARK SMILES IDX 10 14 11 15 25 16 27 17 12 18 24 19 23 20 13 21 21 22 14 23
REMARK SMILES IDX 15 24 20 25 22 26 16 27 19 28 17 29 18 30
REMARK H PARENT 18 31
REMARK Flexibility Score: inf
ROOT
ATOM      1  C   UNL     1     -29.141  32.634  -2.410  1.00  0.00     0.004 C 
ENDROOT
BRANCH   1   2
ATOM      2  C   UNL     1     -30.618  32.182  -2.404  1.00  0.00     0.004 C 
BRANCH   2   3
ATOM      3  C   UNL     1     -30.970  31.014  -1.430  1.00  0.00    -0.009 C 
BRANCH   3   4
ATOM      4  C   UNL     1     -32.401  30.453  -1.691  1.00  0.00     0.000 C 
ATOM      5  C   UNL     1     -32.814  30.424  -3.166  1.00  0.00     0.004 C 
ENDBRANCH   3   4
BRANCH   3   6
ATOM      6  C   UNL     1     -30.733  31.428   0.066  1.00  0.00    -0.014 C 
ATOM      7  C   UNL     1     -29.897  32.719   0.178  1.00  0.00     0.007 C 
ATOM      8  C   UNL     1     -30.031  30.320   0.875  1.00  0.00     0.007 C 
ENDBRANCH   3   6
ENDBRANCH   2   3
ENDBRANCH   1   2
BRANCH   1   9
ATOM      9  C   UNL     1     -28.454  32.719  -3.807  1.00  0.00    -0.011 C 
ATOM     10  C   UNL     1     -27.519  33.947  -3.818  1.00  0.00     0.008 C 
BRANCH   9  11
ATOM     11  C   UNL     1     -27.762  31.370  -4.236  1.00  0.00    -0.002 C 
ATOM     12  C   UNL     1     -26.619  30.925  -3.273  1.00  0.00     0.005 C 
ATOM     13  C   UNL     1     -27.135  31.253  -5.677  1.00  0.00    -0.026 C 
ATOM     14  C   UNL     1     -25.326  30.819  -4.096  1.00  0.00     0.005 C 
ATOM     15  C   UNL     1     -25.654  31.544  -5.389  1.00  0.00    -0.001 C 
ATOM     16  C   UNL     1     -27.659  32.216  -6.811  1.00  0.00     0.007 C 
ATOM     17  C   UNL     1     -27.364  29.773  -6.134  1.00  0.00     0.012 C 
ATOM     18  C   UNL     1     -24.679  31.459  -6.599  1.00  0.00     0.000 C 
ATOM     19  C   UNL     1     -26.539  32.796  -7.724  1.00  0.00     0.005 C 
ATOM     20  C   UNL     1     -25.389  31.780  -7.941  1.00  0.00     0.003 C 
ATOM     21  C   UNL     1     -23.894  30.159  -6.780  1.00  0.00     0.031 C 
ATOM     22  C   UNL     1     -24.338  32.124  -9.061  1.00  0.00    -0.008 C 
ATOM     23  C   UNL     1     -22.917  30.327  -7.921  1.00  0.00    -0.027 C 
ATOM     24  C   UNL     1     -23.094  31.216  -8.936  1.00  0.00    -0.065 C 
ATOM     25  C   UNL     1     -23.868  33.607  -8.968  1.00  0.00     0.014 C 
ATOM     26  C   UNL     1     -25.000  31.870 -10.444  1.00  0.00     0.016 C 
ATOM     27  C   UNL     1     -21.930  31.508  -9.858  1.00  0.00     0.063 C 
ATOM     28  C   UNL     1     -22.678  33.931  -9.895  1.00  0.00     0.033 C 
ATOM     29  C   UNL     1     -21.496  32.971  -9.676  1.00  0.00     0.118 C 
BRANCH  29  30
ATOM     30  O   UNL     1     -20.478  33.284 -10.590  1.00  0.00    -0.393 OA
ATOM     31  H   UNL     1     -19.628  32.951 -10.198  1.00  0.00     0.210 HD
ENDBRANCH  29  30
ENDBRANCH   9  11
ENDBRANCH   1   9
TORSDOF 7
ENDMDL
