MODEL 1
REMARK VINA RESULT:    -7.495      0.000      0.000
REMARK INTER + INTRA:         -10.787
REMARK INTER:                 -10.342
REMARK INTRA:                  -0.445
REMARK UNBOUND:                -0.445
REMARK SMILES CC[C@@H](CC[C@@H](C)[C@@H]1CC[C@H]2[C@@H]3CC=C4C[C@@H](O)CC[C@]4(C)[C@@H]3CC[C@]21C)C(C)C
REMARK SMILES IDX 5 1 4 2 3 3 2 4 1 5 28 6 29 7 30 8 6 9 7 10 8 11 9 12 26 13
REMARK SMILES IDX 10 14 11 15 25 16 27 17 12 18 24 19 23 20 13 21 21 22 14 23
REMARK SMILES IDX 15 24 20 25 22 26 16 27 19 28 17 29 18 30
REMARK H PARENT 18 31
REMARK Flexibility Score: inf
ROOT
ATOM      1  C   UNL     1      13.610  11.920  31.436  1.00  0.00     0.004 C 
ENDROOT
BRANCH   1   2
ATOM      2  C   UNL     1      12.457  11.936  32.468  1.00  0.00     0.004 C 
BRANCH   2   3
ATOM      3  C   UNL     1      12.151  13.367  33.004  1.00  0.00    -0.009 C 
BRANCH   3   4
ATOM      4  C   UNL     1      12.815  14.424  32.063  1.00  0.00     0.000 C 
ATOM      5  C   UNL     1      11.876  14.894  30.950  1.00  0.00     0.004 C 
ENDBRANCH   3   4
BRANCH   3   6
ATOM      6  C   UNL     1      12.614  13.531  34.497  1.00  0.00    -0.014 C 
ATOM      7  C   UNL     1      12.560  12.204  35.283  1.00  0.00     0.007 C 
ATOM      8  C   UNL     1      14.050  14.086  34.605  1.00  0.00     0.007 C 
ENDBRANCH   3   6
ENDBRANCH   2   3
ENDBRANCH   1   2
BRANCH   1   9
ATOM      9  C   UNL     1      13.380  10.964  30.228  1.00  0.00    -0.011 C 
ATOM     10  C   UNL     1      11.875  10.922  29.883  1.00  0.00     0.008 C 
BRANCH   9  11
ATOM     11  C   UNL     1      14.366  11.269  29.019  1.00  0.00    -0.002 C 
ATOM     12  C   UNL     1      15.823  11.555  29.458  1.00  0.00     0.005 C 
ATOM     13  C   UNL     1      14.008  12.542  28.162  1.00  0.00    -0.026 C 
ATOM     14  C   UNL     1      15.963  13.069  29.561  1.00  0.00     0.005 C 
ATOM     15  C   UNL     1      14.687  13.683  28.956  1.00  0.00    -0.001 C 
ATOM     16  C   UNL     1      14.648  12.402  26.746  1.00  0.00     0.007 C 
ATOM     17  C   UNL     1      12.484  12.780  27.972  1.00  0.00     0.012 C 
ATOM     18  C   UNL     1      14.976  15.003  28.174  1.00  0.00     0.000 C 
ATOM     19  C   UNL     1      14.743  13.722  25.975  1.00  0.00     0.005 C 
ATOM     20  C   UNL     1      15.568  14.780  26.749  1.00  0.00     0.003 C 
ATOM     21  C   UNL     1      13.767  15.989  28.215  1.00  0.00     0.031 C 
ATOM     22  C   UNL     1      15.714  16.157  25.992  1.00  0.00    -0.008 C 
ATOM     23  C   UNL     1      13.467  16.711  26.924  1.00  0.00    -0.027 C 
ATOM     24  C   UNL     1      14.350  16.831  25.914  1.00  0.00    -0.065 C 
ATOM     25  C   UNL     1      16.265  15.962  24.546  1.00  0.00     0.014 C 
ATOM     26  C   UNL     1      16.698  17.075  26.774  1.00  0.00     0.016 C 
ATOM     27  C   UNL     1      13.919  17.509  24.627  1.00  0.00     0.063 C 
ATOM     28  C   UNL     1      16.321  17.266  23.722  1.00  0.00     0.033 C 
ATOM     29  C   UNL     1      15.099  18.207  23.932  1.00  0.00     0.118 C 
BRANCH  29  30
ATOM     30  O   UNL     1      15.465  19.337  24.686  1.00  0.00    -0.393 OA
ATOM     31  H   UNL     1      16.332  19.663  24.324  1.00  0.00     0.210 HD
ENDBRANCH  29  30
ENDBRANCH   9  11
ENDBRANCH   1   9
TORSDOF 7
ENDMDL
MODEL 2
REMARK VINA RESULT:    -6.757      0.782      1.303
REMARK INTER + INTRA:          -9.770
REMARK INTER:                  -9.796
REMARK INTRA:                   0.026
REMARK UNBOUND:                -0.445
REMARK SMILES CC[C@@H](CC[C@@H](C)[C@@H]1CC[C@H]2[C@@H]3CC=C4C[C@@H](O)CC[C@]4(C)[C@@H]3CC[C@]21C)C(C)C
REMARK SMILES IDX 5 1 4 2 3 3 2 4 1 5 28 6 29 7 30 8 6 9 7 10 8 11 9 12 26 13
REMARK SMILES IDX 10 14 11 15 25 16 27 17 12 18 24 19 23 20 13 21 21 22 14 23
REMARK SMILES IDX 15 24 20 25 22 26 16 27 19 28 17 29 18 30
REMARK H PARENT 18 31
REMARK Flexibility Score: inf
ROOT
ATOM      1  C   UNL     1      13.429  12.899  31.281  1.00  0.00     0.004 C 
ENDROOT
BRANCH   1   2
ATOM      2  C   UNL     1      12.212  13.161  32.201  1.00  0.00     0.004 C 
BRANCH   2   3
ATOM      3  C   UNL     1      12.622  13.397  33.686  1.00  0.00    -0.009 C 
BRANCH   3   4
ATOM      4  C   UNL     1      14.182  13.418  33.793  1.00  0.00     0.000 C 
ATOM      5  C   UNL     1      14.690  14.481  34.770  1.00  0.00     0.004 C 
ENDBRANCH   3   4
BRANCH   3   6
ATOM      6  C   UNL     1      11.977  12.324  34.636  1.00  0.00    -0.014 C 
ATOM      7  C   UNL     1      12.057  10.896  34.056  1.00  0.00     0.007 C 
ATOM      8  C   UNL     1      12.641  12.306  36.030  1.00  0.00     0.007 C 
ENDBRANCH   3   6
ENDBRANCH   2   3
ENDBRANCH   1   2
BRANCH   1   9
ATOM      9  C   UNL     1      13.349  11.571  30.471  1.00  0.00    -0.011 C 
ATOM     10  C   UNL     1      11.875  11.126  30.352  1.00  0.00     0.008 C 
BRANCH   9  11
ATOM     11  C   UNL     1      14.171  11.642  29.112  1.00  0.00    -0.002 C 
ATOM     12  C   UNL     1      15.706  11.617  29.308  1.00  0.00     0.005 C 
ATOM     13  C   UNL     1      13.953  12.950  28.260  1.00  0.00    -0.026 C 
ATOM     14  C   UNL     1      16.173  13.068  29.316  1.00  0.00     0.005 C 
ATOM     15  C   UNL     1      14.973  13.931  28.885  1.00  0.00    -0.001 C 
ATOM     16  C   UNL     1      14.314  12.656  26.771  1.00  0.00     0.007 C 
ATOM     17  C   UNL     1      12.501  13.503  28.295  1.00  0.00     0.012 C 
ATOM     18  C   UNL     1      15.400  15.148  28.006  1.00  0.00     0.000 C 
ATOM     19  C   UNL     1      14.556  13.914  25.932  1.00  0.00     0.005 C 
ATOM     20  C   UNL     1      15.696  14.784  26.518  1.00  0.00     0.003 C 
ATOM     21  C   UNL     1      14.445  16.369  28.184  1.00  0.00     0.031 C 
ATOM     22  C   UNL     1      16.002  16.087  25.683  1.00  0.00    -0.008 C 
ATOM     23  C   UNL     1      14.099  17.120  26.921  1.00  0.00    -0.027 C 
ATOM     24  C   UNL     1      14.814  17.035  25.784  1.00  0.00    -0.065 C 
ATOM     25  C   UNL     1      16.263  15.759  24.181  1.00  0.00     0.014 C 
ATOM     26  C   UNL     1      17.268  16.786  26.260  1.00  0.00     0.016 C 
ATOM     27  C   UNL     1      14.333  17.771  24.547  1.00  0.00     0.063 C 
ATOM     28  C   UNL     1      16.455  17.009  23.297  1.00  0.00     0.033 C 
ATOM     29  C   UNL     1      15.506  18.191  23.647  1.00  0.00     0.118 C 
BRANCH  29  30
ATOM     30  O   UNL     1      16.214  19.228  24.280  1.00  0.00    -0.393 OA
ATOM     31  H   UNL     1      16.680  18.829  25.063  1.00  0.00     0.210 HD
ENDBRANCH  29  30
ENDBRANCH   9  11
ENDBRANCH   1   9
TORSDOF 7
ENDMDL
MODEL 3
REMARK VINA RESULT:    -4.795      1.234      2.942
REMARK INTER + INTRA:          -7.063
REMARK INTER:                  -6.081
REMARK INTRA:                  -0.981
REMARK UNBOUND:                -0.445
REMARK SMILES CC[C@@H](CC[C@@H](C)[C@@H]1CC[C@H]2[C@@H]3CC=C4C[C@@H](O)CC[C@]4(C)[C@@H]3CC[C@]21C)C(C)C
REMARK SMILES IDX 5 1 4 2 3 3 2 4 1 5 28 6 29 7 30 8 6 9 7 10 8 11 9 12 26 13
REMARK SMILES IDX 10 14 11 15 25 16 27 17 12 18 24 19 23 20 13 21 21 22 14 23
REMARK SMILES IDX 15 24 20 25 22 26 16 27 19 28 17 29 18 30
REMARK H PARENT 18 31
REMARK Flexibility Score: inf
ROOT
ATOM      1  C   UNL     1      13.617  11.623  32.062  1.00  0.00     0.004 C 
ENDROOT
BRANCH   1   2
ATOM      2  C   UNL     1      12.528  12.324  32.909  1.00  0.00     0.004 C 
BRANCH   2   3
ATOM      3  C   UNL     1      13.030  12.709  34.333  1.00  0.00    -0.009 C 
BRANCH   3   4
ATOM      4  C   UNL     1      11.985  12.231  35.395  1.00  0.00     0.000 C 
ATOM      5  C   UNL     1      12.389  10.918  36.067  1.00  0.00     0.004 C 
ENDBRANCH   3   4
BRANCH   3   6
ATOM      6  C   UNL     1      13.320  14.250  34.441  1.00  0.00    -0.014 C 
ATOM      7  C   UNL     1      14.677  14.551  35.111  1.00  0.00     0.007 C 
ATOM      8  C   UNL     1      13.310  14.944  33.062  1.00  0.00     0.007 C 
ENDBRANCH   3   6
ENDBRANCH   2   3
ENDBRANCH   1   2
BRANCH   1   9
ATOM      9  C   UNL     1      13.513  11.891  30.530  1.00  0.00    -0.011 C 
ATOM     10  C   UNL     1      12.541  10.875  29.893  1.00  0.00     0.008 C 
BRANCH   9  11
ATOM     11  C   UNL     1      13.240  13.422  30.202  1.00  0.00    -0.002 C 
ATOM     12  C   UNL     1      11.876  13.681  29.517  1.00  0.00     0.005 C 
ATOM     13  C   UNL     1      14.261  14.089  29.203  1.00  0.00    -0.026 C 
ATOM     14  C   UNL     1      12.137  13.716  28.015  1.00  0.00     0.005 C 
ATOM     15  C   UNL     1      13.665  13.725  27.822  1.00  0.00    -0.001 C 
ATOM     16  C   UNL     1      14.249  15.635  29.416  1.00  0.00     0.007 C 
ATOM     17  C   UNL     1      15.727  13.600  29.362  1.00  0.00     0.012 C 
ATOM     18  C   UNL     1      14.107  14.611  26.615  1.00  0.00     0.000 C 
ATOM     19  C   UNL     1      14.854  16.426  28.253  1.00  0.00     0.005 C 
ATOM     20  C   UNL     1      14.117  16.140  26.920  1.00  0.00     0.003 C 
ATOM     21  C   UNL     1      15.415  14.086  25.946  1.00  0.00     0.031 C 
ATOM     22  C   UNL     1      14.688  16.943  25.688  1.00  0.00    -0.008 C 
ATOM     23  C   UNL     1      16.409  15.144  25.532  1.00  0.00    -0.027 C 
ATOM     24  C   UNL     1      16.092  16.443  25.373  1.00  0.00    -0.065 C 
ATOM     25  C   UNL     1      14.750  18.475  25.978  1.00  0.00     0.014 C 
ATOM     26  C   UNL     1      13.771  16.714  24.451  1.00  0.00     0.016 C 
ATOM     27  C   UNL     1      17.185  17.438  25.031  1.00  0.00     0.063 C 
ATOM     28  C   UNL     1      15.406  19.294  24.848  1.00  0.00     0.033 C 
ATOM     29  C   UNL     1      16.643  18.610  24.198  1.00  0.00     0.118 C 
BRANCH  29  30
ATOM     30  O   UNL     1      16.334  18.144  22.908  1.00  0.00    -0.393 OA
ATOM     31  H   UNL     1      17.117  17.620  22.589  1.00  0.00     0.210 HD
ENDBRANCH  29  30
ENDBRANCH   9  11
ENDBRANCH   1   9
TORSDOF 7
ENDMDL
MODEL 4
REMARK VINA RESULT:    -4.746      1.407      2.810
REMARK INTER + INTRA:          -6.994
REMARK INTER:                  -6.113
REMARK INTRA:                  -0.881
REMARK UNBOUND:                -0.445
REMARK SMILES CC[C@@H](CC[C@@H](C)[C@@H]1CC[C@H]2[C@@H]3CC=C4C[C@@H](O)CC[C@]4(C)[C@@H]3CC[C@]21C)C(C)C
REMARK SMILES IDX 5 1 4 2 3 3 2 4 1 5 28 6 29 7 30 8 6 9 7 10 8 11 9 12 26 13
REMARK SMILES IDX 10 14 11 15 25 16 27 17 12 18 24 19 23 20 13 21 21 22 14 23
REMARK SMILES IDX 15 24 20 25 22 26 16 27 19 28 17 29 18 30
REMARK H PARENT 18 31
REMARK Flexibility Score: inf
ROOT
ATOM      1  C   UNL     1      13.655  12.379  32.290  1.00  0.00     0.004 C 
ENDROOT
BRANCH   1   2
ATOM      2  C   UNL     1      12.448  12.446  33.257  1.00  0.00     0.004 C 
BRANCH   2   3
ATOM      3  C   UNL     1      12.806  13.111  34.620  1.00  0.00    -0.009 C 
BRANCH   3   4
ATOM      4  C   UNL     1      14.157  13.886  34.476  1.00  0.00     0.000 C 
ATOM      5  C   UNL     1      14.320  14.984  35.530  1.00  0.00     0.004 C 
ENDBRANCH   3   4
BRANCH   3   6
ATOM      6  C   UNL     1      12.852  12.052  35.780  1.00  0.00    -0.014 C 
ATOM      7  C   UNL     1      11.875  10.880  35.551  1.00  0.00     0.007 C 
ATOM      8  C   UNL     1      14.264  11.460  35.973  1.00  0.00     0.007 C 
ENDBRANCH   3   6
ENDBRANCH   2   3
ENDBRANCH   1   2
BRANCH   1   9
ATOM      9  C   UNL     1      13.279  12.072  30.810  1.00  0.00    -0.011 C 
ATOM     10  C   UNL     1      12.296  10.882  30.763  1.00  0.00     0.008 C 
BRANCH   9  11
ATOM     11  C   UNL     1      12.837  13.376  30.016  1.00  0.00    -0.002 C 
ATOM     12  C   UNL     1      11.875  13.095  28.837  1.00  0.00     0.005 C 
ATOM     13  C   UNL     1      14.008  14.172  29.324  1.00  0.00    -0.026 C 
ATOM     14  C   UNL     1      12.735  12.987  27.582  1.00  0.00     0.005 C 
ATOM     15  C   UNL     1      14.155  13.441  27.968  1.00  0.00    -0.001 C 
ATOM     16  C   UNL     1      13.562  15.651  29.105  1.00  0.00     0.007 C 
ATOM     17  C   UNL     1      15.335  14.192  30.132  1.00  0.00     0.012 C 
ATOM     18  C   UNL     1      14.858  14.232  26.821  1.00  0.00     0.000 C 
ATOM     19  C   UNL     1      14.411  16.411  28.082  1.00  0.00     0.005 C 
ATOM     20  C   UNL     1      14.396  15.717  26.697  1.00  0.00     0.003 C 
ATOM     21  C   UNL     1      16.408  14.048  26.840  1.00  0.00     0.031 C 
ATOM     22  C   UNL     1      15.242  16.466  25.596  1.00  0.00    -0.008 C 
ATOM     23  C   UNL     1      17.219  15.288  26.559  1.00  0.00    -0.027 C 
ATOM     24  C   UNL     1      16.719  16.386  25.961  1.00  0.00    -0.065 C 
ATOM     25  C   UNL     1      14.831  17.967  25.477  1.00  0.00     0.014 C 
ATOM     26  C   UNL     1      15.015  15.784  24.216  1.00  0.00     0.016 C 
ATOM     27  C   UNL     1      17.601  17.610  25.796  1.00  0.00     0.063 C 
ATOM     28  C   UNL     1      15.704  18.774  24.495  1.00  0.00     0.033 C 
ATOM     29  C   UNL     1      17.219  18.419  24.546  1.00  0.00     0.118 C 
BRANCH  29  30
ATOM     30  O   UNL     1      17.600  17.695  23.403  1.00  0.00    -0.393 OA
ATOM     31  H   UNL     1      17.282  16.761  23.528  1.00  0.00     0.210 HD
ENDBRANCH  29  30
ENDBRANCH   9  11
ENDBRANCH   1   9
TORSDOF 7
ENDMDL
MODEL 5
REMARK VINA RESULT:    -4.574      2.710      7.702
REMARK INTER + INTRA:          -6.757
REMARK INTER:                  -6.770
REMARK INTRA:                   0.013
REMARK UNBOUND:                -0.445
REMARK SMILES CC[C@@H](CC[C@@H](C)[C@@H]1CC[C@H]2[C@@H]3CC=C4C[C@@H](O)CC[C@]4(C)[C@@H]3CC[C@]21C)C(C)C
REMARK SMILES IDX 5 1 4 2 3 3 2 4 1 5 28 6 29 7 30 8 6 9 7 10 8 11 9 12 26 13
REMARK SMILES IDX 10 14 11 15 25 16 27 17 12 18 24 19 23 20 13 21 21 22 14 23
REMARK SMILES IDX 15 24 20 25 22 26 16 27 19 28 17 29 18 30
REMARK H PARENT 18 31
REMARK Flexibility Score: inf
ROOT
ATOM      1  C   UNL     1      14.609  14.269  26.170  1.00  0.00     0.004 C 
ENDROOT
BRANCH   1   2
ATOM      2  C   UNL     1      15.887  14.584  26.985  1.00  0.00     0.004 C 
BRANCH   2   3
ATOM      3  C   UNL     1      16.114  16.114  27.178  1.00  0.00    -0.009 C 
BRANCH   3   4
ATOM      4  C   UNL     1      14.730  16.843  27.187  1.00  0.00     0.000 C 
ATOM      5  C   UNL     1      14.707  18.050  28.128  1.00  0.00     0.004 C 
ENDBRANCH   3   4
BRANCH   3   6
ATOM      6  C   UNL     1      17.081  16.693  26.083  1.00  0.00    -0.014 C 
ATOM      7  C   UNL     1      18.414  15.922  26.002  1.00  0.00     0.007 C 
ATOM      8  C   UNL     1      16.443  16.682  24.677  1.00  0.00     0.007 C 
ENDBRANCH   3   6
ENDBRANCH   2   3
ENDBRANCH   1   2
BRANCH   1   9
ATOM      9  C   UNL     1      14.347  12.749  25.948  1.00  0.00    -0.011 C 
ATOM     10  C   UNL     1      15.694  12.006  25.818  1.00  0.00     0.008 C 
BRANCH   9  11
ATOM     11  C   UNL     1      13.318  12.153  27.002  1.00  0.00    -0.002 C 
ATOM     12  C   UNL     1      11.989  12.941  27.093  1.00  0.00     0.005 C 
ATOM     13  C   UNL     1      13.816  12.143  28.498  1.00  0.00    -0.026 C 
ATOM     14  C   UNL     1      12.138  13.926  28.247  1.00  0.00     0.005 C 
ATOM     15  C   UNL     1      13.439  13.562  28.987  1.00  0.00    -0.001 C 
ATOM     16  C   UNL     1      13.025  11.059  29.293  1.00  0.00     0.007 C 
ATOM     17  C   UNL     1      15.331  11.843  28.667  1.00  0.00     0.012 C 
ATOM     18  C   UNL     1      13.320  13.760  30.531  1.00  0.00     0.000 C 
ATOM     19  C   UNL     1      13.096  11.229  30.814  1.00  0.00     0.005 C 
ATOM     20  C   UNL     1      12.560  12.611  31.262  1.00  0.00     0.003 C 
ATOM     21  C   UNL     1      14.687  14.135  31.184  1.00  0.00     0.031 C 
ATOM     22  C   UNL     1      12.594  12.835  32.823  1.00  0.00    -0.008 C 
ATOM     23  C   UNL     1      14.985  13.472  32.507  1.00  0.00    -0.027 C 
ATOM     24  C   UNL     1      14.043  12.907  33.286  1.00  0.00    -0.065 C 
ATOM     25  C   UNL     1      11.875  11.679  33.586  1.00  0.00     0.014 C 
ATOM     26  C   UNL     1      11.876  14.173  33.169  1.00  0.00     0.016 C 
ATOM     27  C   UNL     1      14.461  12.198  34.560  1.00  0.00     0.063 C 
ATOM     28  C   UNL     1      11.978  11.791  35.121  1.00  0.00     0.033 C 
ATOM     29  C   UNL     1      13.365  12.273  35.636  1.00  0.00     0.118 C 
BRANCH  29  30
ATOM     30  O   UNL     1      13.289  13.593  36.113  1.00  0.00    -0.393 OA
ATOM     31  H   UNL     1      14.034  13.715  36.760  1.00  0.00     0.210 HD
ENDBRANCH  29  30
ENDBRANCH   9  11
ENDBRANCH   1   9
TORSDOF 7
ENDMDL
