MODEL 1
REMARK VINA RESULT:    -5.711      0.000      0.000
REMARK INTER + INTRA:          -9.006
REMARK INTER:                  -7.882
REMARK INTRA:                  -1.125
REMARK UNBOUND:                -1.125
REMARK SMILES CC[C@@H](CC[C@H](C)[C@H]1CC[C@@H]2[C@H]3CC=C4C[C@H](O)CC[C@@]4(C)[C@H]3CC[C@]21C)C(C)C
REMARK SMILES IDX 5 1 4 2 3 3 2 4 1 5 28 6 29 7 30 8 6 9 7 10 8 11 9 12 26 13
REMARK SMILES IDX 10 14 11 15 25 16 27 17 12 18 24 19 23 20 13 21 21 22 14 23
REMARK SMILES IDX 15 24 20 25 22 26 16 27 19 28 17 29 18 30
REMARK H PARENT 18 31
REMARK Flexibility Score: inf
ROOT
ATOM      1  C   UNL     1       5.676  -9.943   5.269  1.00  0.00     0.004 C 
ENDROOT
BRANCH   1   2
ATOM      2  C   UNL     1       6.137 -10.124   3.800  1.00  0.00     0.004 C 
BRANCH   2   3
ATOM      3  C   UNL     1       6.933  -8.902   3.248  1.00  0.00    -0.009 C 
BRANCH   3   4
ATOM      4  C   UNL     1       6.116  -8.224   2.110  1.00  0.00     0.000 C 
ATOM      5  C   UNL     1       5.282  -9.189   1.269  1.00  0.00     0.004 C 
ENDBRANCH   3   4
BRANCH   3   6
ATOM      6  C   UNL     1       8.396  -9.323   2.871  1.00  0.00    -0.014 C 
ATOM      7  C   UNL     1       8.491 -10.043   1.516  1.00  0.00     0.007 C 
ATOM      8  C   UNL     1       9.108 -10.125   3.970  1.00  0.00     0.007 C 
ENDBRANCH   3   6
ENDBRANCH   2   3
ENDBRANCH   1   2
BRANCH   1   9
ATOM      9  C   UNL     1       6.673  -9.147   6.154  1.00  0.00    -0.011 C 
ATOM     10  C   UNL     1       7.731 -10.083   6.771  1.00  0.00     0.008 C 
BRANCH   9  11
ATOM     11  C   UNL     1       5.907  -8.169   7.150  1.00  0.00    -0.002 C 
ATOM     12  C   UNL     1       6.318  -8.326   8.641  1.00  0.00     0.005 C 
ATOM     13  C   UNL     1       6.162  -6.643   6.896  1.00  0.00    -0.026 C 
ATOM     14  C   UNL     1       7.378  -7.248   8.917  1.00  0.00     0.005 C 
ATOM     15  C   UNL     1       7.512  -6.464   7.603  1.00  0.00    -0.001 C 
ATOM     16  C   UNL     1       6.252  -6.145   5.416  1.00  0.00     0.007 C 
ATOM     17  C   UNL     1       5.021  -5.821   7.589  1.00  0.00     0.012 C 
ATOM     18  C   UNL     1       7.968  -4.986   7.696  1.00  0.00     0.000 C 
ATOM     19  C   UNL     1       7.466  -5.222   5.146  1.00  0.00     0.005 C 
ATOM     20  C   UNL     1       7.773  -4.225   6.314  1.00  0.00     0.003 C 
ATOM     21  C   UNL     1       9.407  -4.917   8.277  1.00  0.00     0.031 C 
ATOM     22  C   UNL     1       8.928  -3.177   6.004  1.00  0.00    -0.008 C 
ATOM     23  C   UNL     1      10.471  -4.682   7.251  1.00  0.00    -0.027 C 
ATOM     24  C   UNL     1      10.302  -3.812   6.242  1.00  0.00    -0.065 C 
ATOM     25  C   UNL     1       8.850  -2.642   4.536  1.00  0.00     0.014 C 
ATOM     26  C   UNL     1       8.761  -1.962   6.960  1.00  0.00     0.016 C 
ATOM     27  C   UNL     1      11.556  -3.234   5.604  1.00  0.00     0.063 C 
ATOM     28  C   UNL     1      10.066  -1.800   4.132  1.00  0.00     0.033 C 
ATOM     29  C   UNL     1      11.327  -2.669   4.194  1.00  0.00     0.118 C 
BRANCH  29  30
ATOM     30  O   UNL     1      12.449  -1.942   3.758  1.00  0.00    -0.393 OA
ATOM     31  H   UNL     1      12.148  -1.018   3.545  1.00  0.00     0.210 HD
ENDBRANCH  29  30
ENDBRANCH   9  11
ENDBRANCH   1   9
TORSDOF 7
ENDMDL
MODEL 2
REMARK VINA RESULT:    -5.317      3.070      7.125
REMARK INTER + INTRA:          -8.462
REMARK INTER:                  -7.702
REMARK INTRA:                  -0.759
REMARK UNBOUND:                -1.125
REMARK SMILES CC[C@@H](CC[C@H](C)[C@H]1CC[C@@H]2[C@H]3CC=C4C[C@H](O)CC[C@@]4(C)[C@H]3CC[C@]21C)C(C)C
REMARK SMILES IDX 5 1 4 2 3 3 2 4 1 5 28 6 29 7 30 8 6 9 7 10 8 11 9 12 26 13
REMARK SMILES IDX 10 14 11 15 25 16 27 17 12 18 24 19 23 20 13 21 21 22 14 23
REMARK SMILES IDX 15 24 20 25 22 26 16 27 19 28 17 29 18 30
REMARK H PARENT 18 31
REMARK Flexibility Score: inf
ROOT
ATOM      1  C   UNL     1       8.884  -1.473   5.685  1.00  0.00     0.004 C 
ENDROOT
BRANCH   1   2
ATOM      2  C   UNL     1      10.081  -1.085   4.780  1.00  0.00     0.004 C 
BRANCH   2   3
ATOM      3  C   UNL     1      10.512  -2.222   3.804  1.00  0.00    -0.009 C 
BRANCH   3   4
ATOM      4  C   UNL     1      12.051  -2.156   3.580  1.00  0.00     0.000 C 
ATOM      5  C   UNL     1      12.836  -1.567   4.751  1.00  0.00     0.004 C 
ENDBRANCH   3   4
BRANCH   3   6
ATOM      6  C   UNL     1       9.638  -2.192   2.503  1.00  0.00    -0.014 C 
ATOM      7  C   UNL     1       8.162  -2.543   2.753  1.00  0.00     0.007 C 
ATOM      8  C   UNL     1      10.214  -3.034   1.355  1.00  0.00     0.007 C 
ENDBRANCH   3   6
ENDBRANCH   2   3
ENDBRANCH   1   2
BRANCH   1   9
ATOM      9  C   UNL     1       9.277  -1.812   7.148  1.00  0.00    -0.011 C 
ATOM     10  C   UNL     1       9.626  -0.533   7.935  1.00  0.00     0.008 C 
BRANCH   9  11
ATOM     11  C   UNL     1      10.334  -3.002   7.200  1.00  0.00    -0.002 C 
ATOM     12  C   UNL     1      10.837  -3.346   8.630  1.00  0.00     0.005 C 
ATOM     13  C   UNL     1       9.790  -4.384   6.700  1.00  0.00    -0.026 C 
ATOM     14  C   UNL     1       9.979  -4.521   9.124  1.00  0.00     0.005 C 
ATOM     15  C   UNL     1       9.044  -4.861   7.954  1.00  0.00    -0.001 C 
ATOM     16  C   UNL     1       8.835  -4.399   5.461  1.00  0.00     0.007 C 
ATOM     17  C   UNL     1      11.008  -5.308   6.353  1.00  0.00     0.012 C 
ATOM     18  C   UNL     1       8.531  -6.319   7.849  1.00  0.00     0.000 C 
ATOM     19  C   UNL     1       7.569  -5.265   5.664  1.00  0.00     0.005 C 
ATOM     20  C   UNL     1       7.833  -6.596   6.447  1.00  0.00     0.003 C 
ATOM     21  C   UNL     1       7.657  -6.658   9.088  1.00  0.00     0.031 C 
ATOM     22  C   UNL     1       6.576  -7.565   6.550  1.00  0.00    -0.008 C 
ATOM     23  C   UNL     1       6.183  -6.627   8.824  1.00  0.00    -0.027 C 
ATOM     24  C   UNL     1       5.656  -7.125   7.693  1.00  0.00    -0.065 C 
ATOM     25  C   UNL     1       5.763  -7.607   5.215  1.00  0.00     0.014 C 
ATOM     26  C   UNL     1       7.087  -9.005   6.840  1.00  0.00     0.016 C 
ATOM     27  C   UNL     1       4.197  -7.552   7.736  1.00  0.00     0.063 C 
ATOM     28  C   UNL     1       4.431  -8.355   5.340  1.00  0.00     0.033 C 
ATOM     29  C   UNL     1       3.536  -7.631   6.351  1.00  0.00     0.118 C 
BRANCH  29  30
ATOM     30  O   UNL     1       2.278  -8.255   6.433  1.00  0.00    -0.393 OA
ATOM     31  H   UNL     1       2.405  -9.136   6.875  1.00  0.00     0.210 HD
ENDBRANCH  29  30
ENDBRANCH   9  11
ENDBRANCH   1   9
TORSDOF 7
ENDMDL
MODEL 3
REMARK VINA RESULT:    -5.116      1.697      3.224
REMARK INTER + INTRA:          -8.185
REMARK INTER:                  -7.108
REMARK INTRA:                  -1.077
REMARK UNBOUND:                -1.125
REMARK SMILES CC[C@@H](CC[C@H](C)[C@H]1CC[C@@H]2[C@H]3CC=C4C[C@H](O)CC[C@@]4(C)[C@H]3CC[C@]21C)C(C)C
REMARK SMILES IDX 5 1 4 2 3 3 2 4 1 5 28 6 29 7 30 8 6 9 7 10 8 11 9 12 26 13
REMARK SMILES IDX 10 14 11 15 25 16 27 17 12 18 24 19 23 20 13 21 21 22 14 23
REMARK SMILES IDX 15 24 20 25 22 26 16 27 19 28 17 29 18 30
REMARK H PARENT 18 31
REMARK Flexibility Score: inf
ROOT
ATOM      1  C   UNL     1       6.540  -8.889   4.843  1.00  0.00     0.004 C 
ENDROOT
BRANCH   1   2
ATOM      2  C   UNL     1       5.339  -9.702   5.392  1.00  0.00     0.004 C 
BRANCH   2   3
ATOM      3  C   UNL     1       4.648  -9.031   6.618  1.00  0.00    -0.009 C 
BRANCH   3   4
ATOM      4  C   UNL     1       4.261 -10.125   7.655  1.00  0.00     0.000 C 
ATOM      5  C   UNL     1       4.658  -9.802   9.094  1.00  0.00     0.004 C 
ENDBRANCH   3   4
BRANCH   3   6
ATOM      6  C   UNL     1       3.478  -8.100   6.149  1.00  0.00    -0.014 C 
ATOM      7  C   UNL     1       3.676  -6.627   6.546  1.00  0.00     0.007 C 
ATOM      8  C   UNL     1       2.088  -8.598   6.571  1.00  0.00     0.007 C 
ENDBRANCH   3   6
ENDBRANCH   2   3
ENDBRANCH   1   2
BRANCH   1   9
ATOM      9  C   UNL     1       7.678  -8.661   5.875  1.00  0.00    -0.011 C 
ATOM     10  C   UNL     1       8.540  -9.929   6.033  1.00  0.00     0.008 C 
BRANCH   9  11
ATOM     11  C   UNL     1       7.121  -7.996   7.211  1.00  0.00    -0.002 C 
ATOM     12  C   UNL     1       7.842  -8.464   8.505  1.00  0.00     0.005 C 
ATOM     13  C   UNL     1       7.283  -6.439   7.286  1.00  0.00    -0.026 C 
ATOM     14  C   UNL     1       8.914  -7.406   8.814  1.00  0.00     0.005 C 
ATOM     15  C   UNL     1       8.750  -6.333   7.728  1.00  0.00    -0.001 C 
ATOM     16  C   UNL     1       7.047  -5.607   5.982  1.00  0.00     0.007 C 
ATOM     17  C   UNL     1       6.299  -5.883   8.372  1.00  0.00     0.012 C 
ATOM     18  C   UNL     1       9.184  -4.888   8.080  1.00  0.00     0.000 C 
ATOM     19  C   UNL     1       8.155  -4.564   5.703  1.00  0.00     0.005 C 
ATOM     20  C   UNL     1       8.683  -3.844   6.991  1.00  0.00     0.003 C 
ATOM     21  C   UNL     1      10.712  -4.853   8.358  1.00  0.00     0.031 C 
ATOM     22  C   UNL     1       9.723  -2.673   6.715  1.00  0.00    -0.008 C 
ATOM     23  C   UNL     1      11.528  -4.312   7.226  1.00  0.00    -0.027 C 
ATOM     24  C   UNL     1      11.130  -3.246   6.512  1.00  0.00    -0.065 C 
ATOM     25  C   UNL     1       9.324  -1.820   5.467  1.00  0.00     0.014 C 
ATOM     26  C   UNL     1       9.739  -1.727   7.949  1.00  0.00     0.016 C 
ATOM     27  C   UNL     1      12.207  -2.449   5.793  1.00  0.00     0.063 C 
ATOM     28  C   UNL     1      10.408  -0.824   5.041  1.00  0.00     0.033 C 
ATOM     29  C   UNL     1      11.671  -1.592   4.635  1.00  0.00     0.118 C 
BRANCH  29  30
ATOM     30  O   UNL     1      12.659  -0.706   4.171  1.00  0.00    -0.393 OA
ATOM     31  H   UNL     1      12.204   0.127   3.874  1.00  0.00     0.210 HD
ENDBRANCH  29  30
ENDBRANCH   9  11
ENDBRANCH   1   9
TORSDOF 7
ENDMDL
MODEL 4
REMARK VINA RESULT:    -4.856      3.088      7.188
REMARK INTER + INTRA:          -7.826
REMARK INTER:                  -6.176
REMARK INTRA:                  -1.650
REMARK UNBOUND:                -1.125
REMARK SMILES CC[C@@H](CC[C@H](C)[C@H]1CC[C@@H]2[C@H]3CC=C4C[C@H](O)CC[C@@]4(C)[C@H]3CC[C@]21C)C(C)C
REMARK SMILES IDX 5 1 4 2 3 3 2 4 1 5 28 6 29 7 30 8 6 9 7 10 8 11 9 12 26 13
REMARK SMILES IDX 10 14 11 15 25 16 27 17 12 18 24 19 23 20 13 21 21 22 14 23
REMARK SMILES IDX 15 24 20 25 22 26 16 27 19 28 17 29 18 30
REMARK H PARENT 18 31
REMARK Flexibility Score: inf
ROOT
ATOM      1  C   UNL     1       8.954  -1.215   5.568  1.00  0.00     0.004 C 
ENDROOT
BRANCH   1   2
ATOM      2  C   UNL     1      10.353  -0.739   5.100  1.00  0.00     0.004 C 
BRANCH   2   3
ATOM      3  C   UNL     1      10.891  -1.524   3.865  1.00  0.00    -0.009 C 
BRANCH   3   4
ATOM      4  C   UNL     1       9.753  -2.411   3.281  1.00  0.00     0.000 C 
ATOM      5  C   UNL     1       9.974  -2.854   1.836  1.00  0.00     0.004 C 
ENDBRANCH   3   4
BRANCH   3   6
ATOM      6  C   UNL     1      12.217  -2.278   4.226  1.00  0.00    -0.014 C 
ATOM      7  C   UNL     1      12.822  -1.837   5.569  1.00  0.00     0.007 C 
ATOM      8  C   UNL     1      13.272  -2.237   3.110  1.00  0.00     0.007 C 
ENDBRANCH   3   6
ENDBRANCH   2   3
ENDBRANCH   1   2
BRANCH   1   9
ATOM      9  C   UNL     1       8.937  -1.835   6.991  1.00  0.00    -0.011 C 
ATOM     10  C   UNL     1       8.934  -0.736   8.071  1.00  0.00     0.008 C 
BRANCH   9  11
ATOM     11  C   UNL     1      10.030  -2.984   7.132  1.00  0.00    -0.002 C 
ATOM     12  C   UNL     1      10.502  -3.239   8.591  1.00  0.00     0.005 C 
ATOM     13  C   UNL     1       9.548  -4.407   6.687  1.00  0.00    -0.026 C 
ATOM     14  C   UNL     1       9.669  -4.418   9.119  1.00  0.00     0.005 C 
ATOM     15  C   UNL     1       8.781  -4.847   7.942  1.00  0.00    -0.001 C 
ATOM     16  C   UNL     1       8.632  -4.516   5.424  1.00  0.00     0.007 C 
ATOM     17  C   UNL     1      10.806  -5.304   6.421  1.00  0.00     0.012 C 
ATOM     18  C   UNL     1       8.320  -6.326   7.896  1.00  0.00     0.000 C 
ATOM     19  C   UNL     1       7.389  -5.414   5.635  1.00  0.00     0.005 C 
ATOM     20  C   UNL     1       7.674  -6.695   6.491  1.00  0.00     0.003 C 
ATOM     21  C   UNL     1       7.421  -6.633   9.125  1.00  0.00     0.031 C 
ATOM     22  C   UNL     1       6.448  -7.701   6.607  1.00  0.00    -0.008 C 
ATOM     23  C   UNL     1       5.956  -6.666   8.818  1.00  0.00    -0.027 C 
ATOM     24  C   UNL     1       5.480  -7.238   7.700  1.00  0.00    -0.065 C 
ATOM     25  C   UNL     1       5.676  -7.837   5.253  1.00  0.00     0.014 C 
ATOM     26  C   UNL     1       6.997  -9.106   6.982  1.00  0.00     0.016 C 
ATOM     27  C   UNL     1       4.035  -7.712   7.723  1.00  0.00     0.063 C 
ATOM     28  C   UNL     1       4.367  -8.624   5.378  1.00  0.00     0.033 C 
ATOM     29  C   UNL     1       3.418  -7.882   6.326  1.00  0.00     0.118 C 
BRANCH  29  30
ATOM     30  O   UNL     1       2.180  -8.545   6.403  1.00  0.00    -0.393 OA
ATOM     31  H   UNL     1       2.299  -9.454   6.019  1.00  0.00     0.210 HD
ENDBRANCH  29  30
ENDBRANCH   9  11
ENDBRANCH   1   9
TORSDOF 7
ENDMDL
MODEL 5
REMARK VINA RESULT:    -3.903     15.271     18.234
REMARK INTER + INTRA:          -6.511
REMARK INTER:                  -5.696
REMARK INTRA:                  -0.815
REMARK UNBOUND:                -1.125
REMARK SMILES CC[C@@H](CC[C@H](C)[C@H]1CC[C@@H]2[C@H]3CC=C4C[C@H](O)CC[C@@]4(C)[C@H]3CC[C@]21C)C(C)C
REMARK SMILES IDX 5 1 4 2 3 3 2 4 1 5 28 6 29 7 30 8 6 9 7 10 8 11 9 12 26 13
REMARK SMILES IDX 10 14 11 15 25 16 27 17 12 18 24 19 23 20 13 21 21 22 14 23
REMARK SMILES IDX 15 24 20 25 22 26 16 27 19 28 17 29 18 30
REMARK H PARENT 18 31
REMARK Flexibility Score: inf
ROOT
ATOM      1  C   UNL     1       0.967  -9.346  -9.612  1.00  0.00     0.004 C 
ENDROOT
BRANCH   1   2
ATOM      2  C   UNL     1       1.077  -8.062 -10.473  1.00  0.00     0.004 C 
BRANCH   2   3
ATOM      3  C   UNL     1       2.503  -7.832 -11.059  1.00  0.00    -0.009 C 
BRANCH   3   4
ATOM      4  C   UNL     1       3.261  -9.190 -11.124  1.00  0.00     0.000 C 
ATOM      5  C   UNL     1       4.766  -9.087 -10.886  1.00  0.00     0.004 C 
ENDBRANCH   3   4
BRANCH   3   6
ATOM      6  C   UNL     1       3.239  -6.685 -10.284  1.00  0.00    -0.014 C 
ATOM      7  C   UNL     1       2.852  -6.610  -8.797  1.00  0.00     0.007 C 
ATOM      8  C   UNL     1       3.111  -5.309 -10.953  1.00  0.00     0.007 C 
ENDBRANCH   3   6
ENDBRANCH   2   3
ENDBRANCH   1   2
BRANCH   1   9
ATOM      9  C   UNL     1       0.299  -9.127  -8.227  1.00  0.00    -0.011 C 
ATOM     10  C   UNL     1       1.297  -9.403  -7.085  1.00  0.00     0.008 C 
BRANCH   9  11
ATOM     11  C   UNL     1      -1.112  -9.859  -8.145  1.00  0.00    -0.002 C 
ATOM     12  C   UNL     1      -1.638 -10.070  -6.698  1.00  0.00     0.005 C 
ATOM     13  C   UNL     1      -2.295  -9.081  -8.817  1.00  0.00    -0.026 C 
ATOM     14  C   UNL     1      -2.594  -8.902  -6.406  1.00  0.00     0.005 C 
ATOM     15  C   UNL     1      -2.638  -8.081  -7.704  1.00  0.00    -0.001 C 
ATOM     16  C   UNL     1      -2.016  -8.326 -10.158  1.00  0.00     0.007 C 
ATOM     17  C   UNL     1      -3.468 -10.085  -9.089  1.00  0.00     0.012 C 
ATOM     18  C   UNL     1      -3.922  -7.261  -7.987  1.00  0.00     0.000 C 
ATOM     19  C   UNL     1      -2.559  -6.877 -10.179  1.00  0.00     0.005 C 
ATOM     20  C   UNL     1      -3.952  -6.715  -9.479  1.00  0.00     0.003 C 
ATOM     21  C   UNL     1      -4.100  -6.172  -6.893  1.00  0.00     0.031 C 
ATOM     22  C   UNL     1      -4.591  -5.264  -9.607  1.00  0.00    -0.008 C 
ATOM     23  C   UNL     1      -3.701  -4.796  -7.328  1.00  0.00    -0.027 C 
ATOM     24  C   UNL     1      -3.999  -4.326  -8.550  1.00  0.00    -0.065 C 
ATOM     25  C   UNL     1      -4.369  -4.652 -11.028  1.00  0.00     0.014 C 
ATOM     26  C   UNL     1      -6.125  -5.380  -9.375  1.00  0.00     0.016 C 
ATOM     27  C   UNL     1      -4.062  -2.815  -8.717  1.00  0.00     0.063 C 
ATOM     28  C   UNL     1      -4.778  -3.178 -11.125  1.00  0.00     0.033 C 
ATOM     29  C   UNL     1      -3.910  -2.348 -10.173  1.00  0.00     0.118 C 
BRANCH  29  30
ATOM     30  O   UNL     1      -4.214  -0.980 -10.294  1.00  0.00    -0.393 OA
ATOM     31  H   UNL     1      -5.147  -0.848  -9.976  1.00  0.00     0.210 HD
ENDBRANCH  29  30
ENDBRANCH   9  11
ENDBRANCH   1   9
TORSDOF 7
ENDMDL
MODEL 6
REMARK VINA RESULT:    -3.115      2.708      7.646
REMARK INTER + INTRA:          -5.423
REMARK INTER:                  -4.716
REMARK INTRA:                  -0.707
REMARK UNBOUND:                -1.125
REMARK SMILES CC[C@@H](CC[C@H](C)[C@H]1CC[C@@H]2[C@H]3CC=C4C[C@H](O)CC[C@@]4(C)[C@H]3CC[C@]21C)C(C)C
REMARK SMILES IDX 5 1 4 2 3 3 2 4 1 5 28 6 29 7 30 8 6 9 7 10 8 11 9 12 26 13
REMARK SMILES IDX 10 14 11 15 25 16 27 17 12 18 24 19 23 20 13 21 21 22 14 23
REMARK SMILES IDX 15 24 20 25 22 26 16 27 19 28 17 29 18 30
REMARK H PARENT 18 31
REMARK Flexibility Score: inf
ROOT
ATOM      1  C   UNL     1      13.481  -2.143   7.719  1.00  0.00     0.004 C 
ENDROOT
BRANCH   1   2
ATOM      2  C   UNL     1      14.124  -2.445   6.342  1.00  0.00     0.004 C 
BRANCH   2   3
ATOM      3  C   UNL     1      13.888  -1.318   5.290  1.00  0.00    -0.009 C 
BRANCH   3   4
ATOM      4  C   UNL     1      13.822   0.058   6.013  1.00  0.00     0.000 C 
ATOM      5  C   UNL     1      14.125   1.259   5.118  1.00  0.00     0.004 C 
ENDBRANCH   3   4
BRANCH   3   6
ATOM      6  C   UNL     1      12.658  -1.663   4.381  1.00  0.00    -0.014 C 
ATOM      7  C   UNL     1      13.026  -2.521   3.160  1.00  0.00     0.007 C 
ATOM      8  C   UNL     1      11.840  -0.433   3.960  1.00  0.00     0.007 C 
ENDBRANCH   3   6
ENDBRANCH   2   3
ENDBRANCH   1   2
BRANCH   1   9
ATOM      9  C   UNL     1      12.286  -3.067   8.078  1.00  0.00    -0.011 C 
ATOM     10  C   UNL     1      12.143  -4.207   7.050  1.00  0.00     0.008 C 
BRANCH   9  11
ATOM     11  C   UNL     1      10.978  -2.219   8.403  1.00  0.00    -0.002 C 
ATOM     12  C   UNL     1      10.705  -1.060   7.405  1.00  0.00     0.005 C 
ATOM     13  C   UNL     1       9.638  -3.031   8.341  1.00  0.00    -0.026 C 
ATOM     14  C   UNL     1       9.703  -1.599   6.371  1.00  0.00     0.005 C 
ATOM     15  C   UNL     1       9.382  -3.030   6.827  1.00  0.00    -0.001 C 
ATOM     16  C   UNL     1       9.634  -4.494   8.893  1.00  0.00     0.007 C 
ATOM     17  C   UNL     1       8.535  -2.240   9.125  1.00  0.00     0.012 C 
ATOM     18  C   UNL     1       8.000  -3.611   6.436  1.00  0.00     0.000 C 
ATOM     19  C   UNL     1       8.963  -5.514   7.941  1.00  0.00     0.005 C 
ATOM     20  C   UNL     1       7.688  -4.959   7.219  1.00  0.00     0.003 C 
ATOM     21  C   UNL     1       7.895  -3.719   4.890  1.00  0.00     0.031 C 
ATOM     22  C   UNL     1       6.905  -6.030   6.342  1.00  0.00    -0.008 C 
ATOM     23  C   UNL     1       8.094  -5.104   4.358  1.00  0.00    -0.027 C 
ATOM     24  C   UNL     1       7.566  -6.179   4.967  1.00  0.00    -0.065 C 
ATOM     25  C   UNL     1       6.846  -7.427   7.043  1.00  0.00     0.014 C 
ATOM     26  C   UNL     1       5.444  -5.535   6.147  1.00  0.00     0.016 C 
ATOM     27  C   UNL     1       7.339  -7.419   4.116  1.00  0.00     0.063 C 
ATOM     28  C   UNL     1       6.293  -8.536   6.141  1.00  0.00     0.033 C 
ATOM     29  C   UNL     1       7.219  -8.715   4.933  1.00  0.00     0.118 C 
BRANCH  29  30
ATOM     30  O   UNL     1       6.775  -9.776   4.124  1.00  0.00    -0.393 OA
ATOM     31  H   UNL     1       7.104  -9.611   3.200  1.00  0.00     0.210 HD
ENDBRANCH  29  30
ENDBRANCH   9  11
ENDBRANCH   1   9
TORSDOF 7
ENDMDL
MODEL 7
REMARK VINA RESULT:    -3.020      1.209      2.153
REMARK INTER + INTRA:          -5.292
REMARK INTER:                  -4.817
REMARK INTRA:                  -0.475
REMARK UNBOUND:                -1.125
REMARK SMILES CC[C@@H](CC[C@H](C)[C@H]1CC[C@@H]2[C@H]3CC=C4C[C@H](O)CC[C@@]4(C)[C@H]3CC[C@]21C)C(C)C
REMARK SMILES IDX 5 1 4 2 3 3 2 4 1 5 28 6 29 7 30 8 6 9 7 10 8 11 9 12 26 13
REMARK SMILES IDX 10 14 11 15 25 16 27 17 12 18 24 19 23 20 13 21 21 22 14 23
REMARK SMILES IDX 15 24 20 25 22 26 16 27 19 28 17 29 18 30
REMARK H PARENT 18 31
REMARK Flexibility Score: inf
ROOT
ATOM      1  C   UNL     1       8.338  -8.771   5.662  1.00  0.00     0.004 C 
ENDROOT
BRANCH   1   2
ATOM      2  C   UNL     1       7.824 -10.101   5.054  1.00  0.00     0.004 C 
BRANCH   2   3
ATOM      3  C   UNL     1       6.369 -10.006   4.502  1.00  0.00    -0.009 C 
BRANCH   3   4
ATOM      4  C   UNL     1       6.407  -9.501   3.030  1.00  0.00     0.000 C 
ATOM      5  C   UNL     1       7.566 -10.051   2.201  1.00  0.00     0.004 C 
ENDBRANCH   3   4
BRANCH   3   6
ATOM      6  C   UNL     1       5.463  -9.178   5.477  1.00  0.00    -0.014 C 
ATOM      7  C   UNL     1       4.578 -10.056   6.378  1.00  0.00     0.007 C 
ATOM      8  C   UNL     1       4.627  -8.098   4.774  1.00  0.00     0.007 C 
ENDBRANCH   3   6
ENDBRANCH   2   3
ENDBRANCH   1   2
BRANCH   1   9
ATOM      9  C   UNL     1       8.188  -8.678   7.205  1.00  0.00    -0.011 C 
ATOM     10  C   UNL     1       8.096 -10.083   7.834  1.00  0.00     0.008 C 
BRANCH   9  11
ATOM     11  C   UNL     1       7.062  -7.629   7.613  1.00  0.00    -0.002 C 
ATOM     12  C   UNL     1       7.119  -7.178   9.100  1.00  0.00     0.005 C 
ATOM     13  C   UNL     1       7.132  -6.262   6.850  1.00  0.00    -0.026 C 
ATOM     14  C   UNL     1       7.901  -5.855   9.125  1.00  0.00     0.005 C 
ATOM     15  C   UNL     1       8.227  -5.549   7.656  1.00  0.00    -0.001 C 
ATOM     16  C   UNL     1       7.500  -6.282   5.330  1.00  0.00     0.007 C 
ATOM     17  C   UNL     1       5.744  -5.543   6.978  1.00  0.00     0.012 C 
ATOM     18  C   UNL     1       8.413  -4.062   7.260  1.00  0.00     0.000 C 
ATOM     19  C   UNL     1       8.585  -5.249   4.942  1.00  0.00     0.005 C 
ATOM     20  C   UNL     1       8.442  -3.875   5.681  1.00  0.00     0.003 C 
ATOM     21  C   UNL     1       9.640  -3.471   8.007  1.00  0.00     0.031 C 
ATOM     22  C   UNL     1       9.462  -2.754   5.199  1.00  0.00    -0.008 C 
ATOM     23  C   UNL     1      10.872  -3.353   7.164  1.00  0.00    -0.027 C 
ATOM     24  C   UNL     1      10.819  -2.935   5.888  1.00  0.00    -0.065 C 
ATOM     25  C   UNL     1       9.661  -2.775   3.648  1.00  0.00     0.014 C 
ATOM     26  C   UNL     1       8.884  -1.363   5.584  1.00  0.00     0.016 C 
ATOM     27  C   UNL     1      12.085  -2.331   5.302  1.00  0.00     0.063 C 
ATOM     28  C   UNL     1      10.793  -1.860   3.169  1.00  0.00     0.033 C 
ATOM     29  C   UNL     1      12.120  -2.341   3.765  1.00  0.00     0.118 C 
BRANCH  29  30
ATOM     30  O   UNL     1      13.188  -1.562   3.285  1.00  0.00    -0.393 OA
ATOM     31  H   UNL     1      14.023  -1.900   3.706  1.00  0.00     0.210 HD
ENDBRANCH  29  30
ENDBRANCH   9  11
ENDBRANCH   1   9
TORSDOF 7
ENDMDL
