MODEL 1
REMARK VINA RESULT:    -7.960      0.000      0.000
REMARK INTER + INTRA:          -8.426
REMARK INTER:                  -8.426
REMARK INTRA:                   0.000
REMARK UNBOUND:                 0.000
REMARK SMILES C[C@H]1CC[C@H]2[N@H+](C1)C[C@H]1[C@@H]3C[C@@H]4[C@@H](CC(=O)[C@H]5C[C@@H](O)CC[C@]54C)[C@H]3CC[C@H]1[C@@]2(C)O
REMARK SMILES IDX 5 1 6 2 8 3 7 4 4 5 29 6 3 7 28 8 30 9 2 10 27 11 9 12 1 13
REMARK SMILES IDX 26 14 10 15 25 16 11 17 13 18 12 19 14 20 23 21 15 22 17 23
REMARK SMILES IDX 22 24 24 25 16 26 18 27 21 28 19 29 31 31 20 33
REMARK H PARENT 6 30 31 32 20 34
REMARK Flexibility Score: inf
ROOT
ATOM      1  C   UNL     1      -1.649  -0.543  -4.665  1.00  0.00     0.216 C 
ATOM      2  N   UNL     1      -0.888   0.242  -5.673  1.00  0.00    -0.330 N 
ATOM      3  C   UNL     1       0.280   0.956  -5.081  1.00  0.00     0.266 C 
ATOM      4  C   UNL     1      -0.390  -0.598  -6.794  1.00  0.00     0.265 C 
ATOM      5  C   UNL     1      -2.759  -1.411  -5.338  1.00  0.00     0.069 C 
ATOM      6  C   UNL     1      -2.278   0.403  -3.569  1.00  0.00     0.117 C 
ATOM      7  C   UNL     1      -2.213  -2.263  -6.477  1.00  0.00     0.015 C 
ATOM      8  C   UNL     1      -1.308   1.586  -3.179  1.00  0.00     0.036 C 
ATOM      9  C   UNL     1      -2.573  -0.454  -2.303  1.00  0.00     0.049 C 
ATOM     10  C   UNL     1      -1.521  -1.361  -7.497  1.00  0.00     0.041 C 
ATOM     11  C   UNL     1      -1.732   3.007  -3.680  1.00  0.00     0.007 C 
ATOM     12  C   UNL     1       0.164   1.292  -3.568  1.00  0.00     0.054 C 
ATOM     13  C   UNL     1      -0.976  -2.186  -8.670  1.00  0.00     0.013 C 
ATOM     14  C   UNL     1      -0.747   4.145  -3.265  1.00  0.00     0.004 C 
ATOM     15  C   UNL     1       1.120   2.483  -3.209  1.00  0.00     0.002 C 
ATOM     16  C   UNL     1       0.432   3.595  -2.442  1.00  0.00    -0.004 C 
ATOM     17  C   UNL     1       2.320   2.161  -2.332  1.00  0.00     0.009 C 
ATOM     18  C   UNL     1       1.573   4.521  -1.998  1.00  0.00     0.003 C 
ATOM     19  C   UNL     1       2.769   3.539  -1.768  1.00  0.00    -0.000 C 
ATOM     20  C   UNL     1       1.861   5.686  -2.963  1.00  0.00     0.080 C 
ATOM     21  C   UNL     1       4.185   4.057  -2.251  1.00  0.00    -0.020 C 
ATOM     22  C   UNL     1       3.159   6.362  -2.625  1.00  0.00     0.136 C 
ATOM     23  C   UNL     1       4.309   5.598  -2.005  1.00  0.00     0.065 C 
ATOM     24  C   UNL     1       5.326   3.320  -1.477  1.00  0.00     0.010 C 
ATOM     25  C   UNL     1       4.436   3.781  -3.766  1.00  0.00     0.012 C 
ATOM     26  O   UNL     1       3.287   7.554  -2.856  1.00  0.00    -0.299 OA
ATOM     27  C   UNL     1       4.405   5.951  -0.506  1.00  0.00     0.043 C 
ATOM     28  C   UNL     1       5.465   3.727  -0.000  1.00  0.00     0.032 C 
ATOM     29  C   UNL     1       5.594   5.246   0.152  1.00  0.00     0.115 C 
ATOM     30  H   UNL     1      -1.538   0.958  -6.079  1.00  0.00     0.348 HD
ENDROOT
BRANCH   6  31
ATOM     31  O   UNL     1      -3.496   0.931  -4.058  1.00  0.00    -0.384 OA
ATOM     32  H   UNL     1      -4.077   0.176  -4.340  1.00  0.00     0.211 HD
ENDBRANCH   6  31
BRANCH  29  33
ATOM     33  O   UNL     1       5.630   5.587   1.513  1.00  0.00    -0.393 OA
ATOM     34  H   UNL     1       4.742   5.353   1.894  1.00  0.00     0.210 HD
ENDBRANCH  29  33
TORSDOF 2
ENDMDL
MODEL 2
REMARK VINA RESULT:    -7.931      4.748     10.069
REMARK INTER + INTRA:          -8.395
REMARK INTER:                  -8.395
REMARK INTRA:                   0.000
REMARK UNBOUND:                 0.000
REMARK SMILES C[C@H]1CC[C@H]2[N@H+](C1)C[C@H]1[C@@H]3C[C@@H]4[C@@H](CC(=O)[C@H]5C[C@@H](O)CC[C@]54C)[C@H]3CC[C@H]1[C@@]2(C)O
REMARK SMILES IDX 5 1 6 2 8 3 7 4 4 5 29 6 3 7 28 8 30 9 2 10 27 11 9 12 1 13
REMARK SMILES IDX 26 14 10 15 25 16 11 17 13 18 12 19 14 20 23 21 15 22 17 23
REMARK SMILES IDX 22 24 24 25 16 26 18 27 21 28 19 29 31 31 20 33
REMARK H PARENT 6 30 31 32 20 34
REMARK Flexibility Score: inf
ROOT
ATOM      1  C   UNL     1      -1.756   1.452  -3.946  1.00  0.00     0.216 C 
ATOM      2  N   UNL     1      -3.133   1.154  -4.423  1.00  0.00    -0.330 N 
ATOM      3  C   UNL     1      -3.925   0.367  -3.435  1.00  0.00     0.266 C 
ATOM      4  C   UNL     1      -3.901   2.384  -4.751  1.00  0.00     0.265 C 
ATOM      5  C   UNL     1      -1.010   2.415  -4.921  1.00  0.00     0.069 C 
ATOM      6  C   UNL     1      -0.929   0.122  -3.743  1.00  0.00     0.117 C 
ATOM      7  C   UNL     1      -1.822   3.665  -5.230  1.00  0.00     0.015 C 
ATOM      8  C   UNL     1      -1.811  -1.041  -3.142  1.00  0.00     0.036 C 
ATOM      9  C   UNL     1       0.245   0.428  -2.767  1.00  0.00     0.049 C 
ATOM     10  C   UNL     1      -3.185   3.259  -5.788  1.00  0.00     0.041 C 
ATOM     11  C   UNL     1      -2.161  -2.207  -4.126  1.00  0.00     0.007 C 
ATOM     12  C   UNL     1      -3.095  -0.509  -2.455  1.00  0.00     0.054 C 
ATOM     13  C   UNL     1      -4.023   4.497  -6.130  1.00  0.00     0.013 C 
ATOM     14  C   UNL     1      -3.029  -3.336  -3.486  1.00  0.00     0.004 C 
ATOM     15  C   UNL     1      -3.987  -1.669  -1.888  1.00  0.00     0.002 C 
ATOM     16  C   UNL     1      -3.342  -3.036  -2.009  1.00  0.00    -0.004 C 
ATOM     17  C   UNL     1      -4.352  -1.597  -0.413  1.00  0.00     0.009 C 
ATOM     18  C   UNL     1      -4.256  -3.966  -1.199  1.00  0.00     0.003 C 
ATOM     19  C   UNL     1      -4.786  -3.046  -0.051  1.00  0.00    -0.000 C 
ATOM     20  C   UNL     1      -5.346  -4.669  -2.030  1.00  0.00     0.080 C 
ATOM     21  C   UNL     1      -6.311  -3.237   0.334  1.00  0.00    -0.020 C 
ATOM     22  C   UNL     1      -6.370  -5.316  -1.141  1.00  0.00     0.136 C 
ATOM     23  C   UNL     1      -6.711  -4.746   0.217  1.00  0.00     0.065 C 
ATOM     24  C   UNL     1      -6.568  -2.747   1.796  1.00  0.00     0.010 C 
ATOM     25  C   UNL     1      -7.264  -2.404  -0.579  1.00  0.00     0.012 C 
ATOM     26  O   UNL     1      -6.938  -6.327  -1.527  1.00  0.00    -0.299 OA
ATOM     27  C   UNL     1      -6.062  -5.615   1.313  1.00  0.00     0.043 C 
ATOM     28  C   UNL     1      -5.978  -3.655   2.889  1.00  0.00     0.032 C 
ATOM     29  C   UNL     1      -6.429  -5.109   2.711  1.00  0.00     0.115 C 
ATOM     30  H   UNL     1      -3.051   0.588  -5.303  1.00  0.00     0.348 HD
ENDROOT
BRANCH   6  31
ATOM     31  O   UNL     1      -0.394  -0.284  -4.988  1.00  0.00    -0.384 OA
ATOM     32  H   UNL     1      -1.146  -0.463  -5.612  1.00  0.00     0.211 HD
ENDBRANCH   6  31
BRANCH  29  33
ATOM     33  O   UNL     1      -5.804  -5.922   3.669  1.00  0.00    -0.393 OA
ATOM     34  H   UNL     1      -5.377  -6.674   3.178  1.00  0.00     0.210 HD
ENDBRANCH  29  33
TORSDOF 2
ENDMDL
MODEL 3
REMARK VINA RESULT:    -7.713      2.211      3.365
REMARK INTER + INTRA:          -8.164
REMARK INTER:                  -8.164
REMARK INTRA:                   0.000
REMARK UNBOUND:                 0.000
REMARK SMILES C[C@H]1CC[C@H]2[N@H+](C1)C[C@H]1[C@@H]3C[C@@H]4[C@@H](CC(=O)[C@H]5C[C@@H](O)CC[C@]54C)[C@H]3CC[C@H]1[C@@]2(C)O
REMARK SMILES IDX 5 1 6 2 8 3 7 4 4 5 29 6 3 7 28 8 30 9 2 10 27 11 9 12 1 13
REMARK SMILES IDX 26 14 10 15 25 16 11 17 13 18 12 19 14 20 23 21 15 22 17 23
REMARK SMILES IDX 22 24 24 25 16 26 18 27 21 28 19 29 31 31 20 33
REMARK H PARENT 6 30 31 32 20 34
REMARK Flexibility Score: inf
ROOT
ATOM      1  C   UNL     1      -4.104  -1.862  -3.906  1.00  0.00     0.216 C 
ATOM      2  N   UNL     1      -3.169  -1.655  -5.043  1.00  0.00    -0.330 N 
ATOM      3  C   UNL     1      -2.107  -0.654  -4.738  1.00  0.00     0.266 C 
ATOM      4  C   UNL     1      -2.501  -2.914  -5.469  1.00  0.00     0.265 C 
ATOM      5  C   UNL     1      -5.097  -3.033  -4.191  1.00  0.00     0.069 C 
ATOM      6  C   UNL     1      -4.896  -0.536  -3.577  1.00  0.00     0.117 C 
ATOM      7  C   UNL     1      -4.379  -4.307  -4.617  1.00  0.00     0.015 C 
ATOM      8  C   UNL     1      -3.987   0.748  -3.716  1.00  0.00     0.036 C 
ATOM      9  C   UNL     1      -5.418  -0.636  -2.114  1.00  0.00     0.049 C 
ATOM     10  C   UNL     1      -3.508  -4.012  -5.836  1.00  0.00     0.041 C 
ATOM     11  C   UNL     1      -4.294   1.669  -4.944  1.00  0.00     0.007 C 
ATOM     12  C   UNL     1      -2.475   0.406  -3.661  1.00  0.00     0.054 C 
ATOM     13  C   UNL     1      -2.784  -5.280  -6.306  1.00  0.00     0.013 C 
ATOM     14  C   UNL     1      -3.375   2.928  -5.036  1.00  0.00     0.004 C 
ATOM     15  C   UNL     1      -1.574   1.679  -3.832  1.00  0.00     0.002 C 
ATOM     16  C   UNL     1      -2.364   2.972  -3.875  1.00  0.00    -0.004 C 
ATOM     17  C   UNL     1      -0.548   1.947  -2.743  1.00  0.00     0.009 C 
ATOM     18  C   UNL     1      -1.300   4.076  -3.809  1.00  0.00     0.003 C 
ATOM     19  C   UNL     1      -0.179   3.447  -2.918  1.00  0.00    -0.000 C 
ATOM     20  C   UNL     1      -0.831   4.594  -5.182  1.00  0.00     0.080 C 
ATOM     21  C   UNL     1       1.309   3.746  -3.374  1.00  0.00    -0.020 C 
ATOM     22  C   UNL     1       0.401   5.442  -5.049  1.00  0.00     0.136 C 
ATOM     23  C   UNL     1       1.414   5.197  -3.952  1.00  0.00     0.065 C 
ATOM     24  C   UNL     1       2.287   3.602  -2.164  1.00  0.00     0.010 C 
ATOM     25  C   UNL     1       1.810   2.746  -4.462  1.00  0.00     0.012 C 
ATOM     26  O   UNL     1       0.587   6.350  -5.845  1.00  0.00    -0.299 OA
ATOM     27  C   UNL     1       1.259   6.279  -2.864  1.00  0.00     0.043 C 
ATOM     28  C   UNL     1       2.178   4.722  -1.115  1.00  0.00     0.032 C 
ATOM     29  C   UNL     1       2.305   6.106  -1.759  1.00  0.00     0.115 C 
ATOM     30  H   UNL     1      -3.728  -1.303  -5.858  1.00  0.00     0.348 HD
ENDROOT
BRANCH   6  31
ATOM     31  O   UNL     1      -6.002  -0.429  -4.451  1.00  0.00    -0.384 OA
ATOM     32  H   UNL     1      -6.775  -0.901  -4.043  1.00  0.00     0.211 HD
ENDBRANCH   6  31
BRANCH  29  33
ATOM     33  O   UNL     1       2.113   7.102  -0.790  1.00  0.00    -0.393 OA
ATOM     34  H   UNL     1       3.016   7.410  -0.508  1.00  0.00     0.210 HD
ENDBRANCH  29  33
TORSDOF 2
ENDMDL
MODEL 4
REMARK VINA RESULT:    -7.613      5.726     10.722
REMARK INTER + INTRA:          -8.058
REMARK INTER:                  -8.058
REMARK INTRA:                   0.000
REMARK UNBOUND:                 0.000
REMARK SMILES C[C@H]1CC[C@H]2[N@H+](C1)C[C@H]1[C@@H]3C[C@@H]4[C@@H](CC(=O)[C@H]5C[C@@H](O)CC[C@]54C)[C@H]3CC[C@H]1[C@@]2(C)O
REMARK SMILES IDX 5 1 6 2 8 3 7 4 4 5 29 6 3 7 28 8 30 9 2 10 27 11 9 12 1 13
REMARK SMILES IDX 26 14 10 15 25 16 11 17 13 18 12 19 14 20 23 21 15 22 17 23
REMARK SMILES IDX 22 24 24 25 16 26 18 27 21 28 19 29 31 31 20 33
REMARK H PARENT 6 30 31 32 20 34
REMARK Flexibility Score: inf
ROOT
ATOM      1  C   UNL     1      -2.916  -1.145  -4.538  1.00  0.00     0.216 C 
ATOM      2  N   UNL     1      -3.864  -2.269  -4.755  1.00  0.00    -0.330 N 
ATOM      3  C   UNL     1      -4.888  -2.373  -3.675  1.00  0.00     0.266 C 
ATOM      4  C   UNL     1      -4.579  -2.169  -6.055  1.00  0.00     0.265 C 
ATOM      5  C   UNL     1      -1.965  -0.956  -5.762  1.00  0.00     0.069 C 
ATOM      6  C   UNL     1      -2.077  -1.360  -3.217  1.00  0.00     0.117 C 
ATOM      7  C   UNL     1      -2.731  -0.851  -7.074  1.00  0.00     0.015 C 
ATOM      8  C   UNL     1      -2.947  -1.984  -2.056  1.00  0.00     0.036 C 
ATOM      9  C   UNL     1      -1.532   0.024  -2.760  1.00  0.00     0.049 C 
ATOM     10  C   UNL     1      -3.615  -2.085  -7.245  1.00  0.00     0.041 C 
ATOM     11  C   UNL     1      -2.633  -3.474  -1.696  1.00  0.00     0.007 C 
ATOM     12  C   UNL     1      -4.467  -1.794  -2.295  1.00  0.00     0.054 C 
ATOM     13  C   UNL     1      -4.386  -2.022  -8.569  1.00  0.00     0.013 C 
ATOM     14  C   UNL     1      -3.513  -4.044  -0.539  1.00  0.00     0.004 C 
ATOM     15  C   UNL     1      -5.331  -2.443  -1.157  1.00  0.00     0.002 C 
ATOM     16  C   UNL     1      -4.501  -2.988  -0.011  1.00  0.00    -0.004 C 
ATOM     17  C   UNL     1      -6.329  -1.539  -0.450  1.00  0.00     0.009 C 
ATOM     18  C   UNL     1      -5.529  -3.351   1.070  1.00  0.00     0.003 C 
ATOM     19  C   UNL     1      -6.653  -2.282   0.877  1.00  0.00    -0.000 C 
ATOM     20  C   UNL     1      -6.005  -4.815   1.030  1.00  0.00     0.080 C 
ATOM     21  C   UNL     1      -8.138  -2.812   1.028  1.00  0.00    -0.020 C 
ATOM     22  C   UNL     1      -7.207  -5.018   1.908  1.00  0.00     0.136 C 
ATOM     23  C   UNL     1      -8.208  -3.908   2.144  1.00  0.00     0.065 C 
ATOM     24  C   UNL     1      -9.099  -1.637   1.401  1.00  0.00     0.010 C 
ATOM     25  C   UNL     1      -8.690  -3.424  -0.296  1.00  0.00     0.012 C 
ATOM     26  O   UNL     1      -7.379  -6.103   2.441  1.00  0.00    -0.299 OA
ATOM     27  C   UNL     1      -7.999  -3.326   3.557  1.00  0.00     0.043 C 
ATOM     28  C   UNL     1      -8.936  -1.106   2.836  1.00  0.00     0.032 C 
ATOM     29  C   UNL     1      -9.030  -2.237   3.865  1.00  0.00     0.115 C 
ATOM     30  H   UNL     1      -3.309  -3.159  -4.766  1.00  0.00     0.348 HD
ENDROOT
BRANCH   6  31
ATOM     31  O   UNL     1      -0.983  -2.212  -3.498  1.00  0.00    -0.384 OA
ATOM     32  H   UNL     1      -0.534  -1.888  -4.322  1.00  0.00     0.211 HD
ENDBRANCH   6  31
BRANCH  29  33
ATOM     33  O   UNL     1      -8.790  -1.732   5.152  1.00  0.00    -0.393 OA
ATOM     34  H   UNL     1      -9.139  -0.801   5.167  1.00  0.00     0.210 HD
ENDBRANCH  29  33
TORSDOF 2
ENDMDL
MODEL 5
REMARK VINA RESULT:    -7.574      4.891      9.264
REMARK INTER + INTRA:          -8.017
REMARK INTER:                  -8.017
REMARK INTRA:                   0.000
REMARK UNBOUND:                 0.000
REMARK SMILES C[C@H]1CC[C@H]2[N@H+](C1)C[C@H]1[C@@H]3C[C@@H]4[C@@H](CC(=O)[C@H]5C[C@@H](O)CC[C@]54C)[C@H]3CC[C@H]1[C@@]2(C)O
REMARK SMILES IDX 5 1 6 2 8 3 7 4 4 5 29 6 3 7 28 8 30 9 2 10 27 11 9 12 1 13
REMARK SMILES IDX 26 14 10 15 25 16 11 17 13 18 12 19 14 20 23 21 15 22 17 23
REMARK SMILES IDX 22 24 24 25 16 26 18 27 21 28 19 29 31 31 20 33
REMARK H PARENT 6 30 31 32 20 34
REMARK Flexibility Score: inf
ROOT
ATOM      1  C   UNL     1       0.512   0.601  -5.807  1.00  0.00     0.216 C 
ATOM      2  N   UNL     1      -0.728   0.117  -6.470  1.00  0.00    -0.330 N 
ATOM      3  C   UNL     1      -1.717  -0.439  -5.503  1.00  0.00     0.266 C 
ATOM      4  C   UNL     1      -1.407   1.182  -7.256  1.00  0.00     0.265 C 
ATOM      5  C   UNL     1       1.453   1.329  -6.818  1.00  0.00     0.069 C 
ATOM      6  C   UNL     1       1.275  -0.588  -5.101  1.00  0.00     0.117 C 
ATOM      7  C   UNL     1       0.727   2.415  -7.600  1.00  0.00     0.015 C 
ATOM      8  C   UNL     1       0.283  -1.610  -4.421  1.00  0.00     0.036 C 
ATOM      9  C   UNL     1       2.209   0.017  -4.013  1.00  0.00     0.049 C 
ATOM     10  C   UNL     1      -0.482   1.808  -8.309  1.00  0.00     0.041 C 
ATOM     11  C   UNL     1       0.154  -3.003  -5.124  1.00  0.00     0.007 C 
ATOM     12  C   UNL     1      -1.120  -0.995  -4.179  1.00  0.00     0.054 C 
ATOM     13  C   UNL     1      -1.225   2.872  -9.125  1.00  0.00     0.013 C 
ATOM     14  C   UNL     1      -0.833  -3.982  -4.413  1.00  0.00     0.004 C 
ATOM     15  C   UNL     1      -2.114  -2.023  -3.534  1.00  0.00     0.002 C 
ATOM     16  C   UNL     1      -1.459  -3.339  -3.162  1.00  0.00    -0.004 C 
ATOM     17  C   UNL     1      -2.790  -1.605  -2.238  1.00  0.00     0.009 C 
ATOM     18  C   UNL     1      -2.527  -4.086  -2.351  1.00  0.00     0.003 C 
ATOM     19  C   UNL     1      -3.293  -2.938  -1.615  1.00  0.00    -0.000 C 
ATOM     20  C   UNL     1      -3.412  -5.033  -3.184  1.00  0.00     0.080 C 
ATOM     21  C   UNL     1      -4.865  -3.111  -1.524  1.00  0.00    -0.020 C 
ATOM     22  C   UNL     1      -4.604  -5.493  -2.395  1.00  0.00     0.136 C 
ATOM     23  C   UNL     1      -5.232  -4.620  -1.331  1.00  0.00     0.065 C 
ATOM     24  C   UNL     1      -5.433  -2.286  -0.324  1.00  0.00     0.010 C 
ATOM     25  C   UNL     1      -5.597  -2.587  -2.799  1.00  0.00     0.012 C 
ATOM     26  O   UNL     1      -5.076  -6.598  -2.619  1.00  0.00    -0.299 OA
ATOM     27  C   UNL     1      -4.836  -5.151   0.063  1.00  0.00     0.043 C 
ATOM     28  C   UNL     1      -5.095  -2.857   1.064  1.00  0.00     0.032 C 
ATOM     29  C   UNL     1      -5.497  -4.332   1.174  1.00  0.00     0.115 C 
ATOM     30  H   UNL     1      -0.458  -0.646  -7.138  1.00  0.00     0.348 HD
ENDROOT
BRANCH   6  31
ATOM     31  O   UNL     1       2.067  -1.263  -6.060  1.00  0.00    -0.384 OA
ATOM     32  H   UNL     1       1.559  -2.048  -6.393  1.00  0.00     0.211 HD
ENDBRANCH   6  31
BRANCH  29  33
ATOM     33  O   UNL     1      -5.096  -4.843   2.418  1.00  0.00    -0.393 OA
ATOM     34  H   UNL     1      -4.698  -5.738   2.249  1.00  0.00     0.210 HD
ENDBRANCH  29  33
TORSDOF 2
ENDMDL
MODEL 6
REMARK VINA RESULT:    -7.532      4.514      7.373
REMARK INTER + INTRA:          -7.972
REMARK INTER:                  -7.972
REMARK INTRA:                   0.000
REMARK UNBOUND:                 0.000
REMARK SMILES C[C@H]1CC[C@H]2[N@H+](C1)C[C@H]1[C@@H]3C[C@@H]4[C@@H](CC(=O)[C@H]5C[C@@H](O)CC[C@]54C)[C@H]3CC[C@H]1[C@@]2(C)O
REMARK SMILES IDX 5 1 6 2 8 3 7 4 4 5 29 6 3 7 28 8 30 9 2 10 27 11 9 12 1 13
REMARK SMILES IDX 26 14 10 15 25 16 11 17 13 18 12 19 14 20 23 21 15 22 17 23
REMARK SMILES IDX 22 24 24 25 16 26 18 27 21 28 19 29 31 31 20 33
REMARK H PARENT 6 30 31 32 20 34
REMARK Flexibility Score: inf
ROOT
ATOM      1  C   UNL     1      -4.921  -5.783  -0.922  1.00  0.00     0.216 C 
ATOM      2  N   UNL     1      -4.909  -5.602  -2.398  1.00  0.00    -0.330 N 
ATOM      3  C   UNL     1      -4.089  -4.431  -2.826  1.00  0.00     0.266 C 
ATOM      4  C   UNL     1      -4.402  -6.801  -3.116  1.00  0.00     0.265 C 
ATOM      5  C   UNL     1      -5.643  -7.107  -0.517  1.00  0.00     0.069 C 
ATOM      6  C   UNL     1      -5.595  -4.546  -0.207  1.00  0.00     0.117 C 
ATOM      7  C   UNL     1      -5.094  -8.314  -1.266  1.00  0.00     0.015 C 
ATOM      8  C   UNL     1      -5.213  -3.180  -0.899  1.00  0.00     0.036 C 
ATOM      9  C   UNL     1      -5.111  -4.523   1.272  1.00  0.00     0.049 C 
ATOM     10  C   UNL     1      -5.198  -8.067  -2.770  1.00  0.00     0.041 C 
ATOM     11  C   UNL     1      -6.359  -2.481  -1.703  1.00  0.00     0.007 C 
ATOM     12  C   UNL     1      -3.936  -3.299  -1.771  1.00  0.00     0.054 C 
ATOM     13  C   UNL     1      -4.672  -9.274  -3.556  1.00  0.00     0.013 C 
ATOM     14  C   UNL     1      -5.937  -1.130  -2.364  1.00  0.00     0.004 C 
ATOM     15  C   UNL     1      -3.577  -1.948  -2.483  1.00  0.00     0.002 C 
ATOM     16  C   UNL     1      -4.465  -0.794  -2.062  1.00  0.00    -0.004 C 
ATOM     17  C   UNL     1      -2.178  -1.399  -2.253  1.00  0.00     0.009 C 
ATOM     18  C   UNL     1      -3.805   0.446  -2.683  1.00  0.00     0.003 C 
ATOM     19  C   UNL     1      -2.280   0.101  -2.649  1.00  0.00    -0.000 C 
ATOM     20  C   UNL     1      -4.357   0.836  -4.067  1.00  0.00     0.080 C 
ATOM     21  C   UNL     1      -1.449   0.539  -3.924  1.00  0.00    -0.020 C 
ATOM     22  C   UNL     1      -3.477   1.856  -4.732  1.00  0.00     0.136 C 
ATOM     23  C   UNL     1      -1.987   1.901  -4.477  1.00  0.00     0.065 C 
ATOM     24  C   UNL     1       0.064   0.693  -3.559  1.00  0.00     0.010 C 
ATOM     25  C   UNL     1      -1.516  -0.517  -5.071  1.00  0.00     0.012 C 
ATOM     26  O   UNL     1      -3.979   2.668  -5.495  1.00  0.00    -0.299 OA
ATOM     27  C   UNL     1      -1.665   3.086  -3.543  1.00  0.00     0.043 C 
ATOM     28  C   UNL     1       0.391   1.916  -2.686  1.00  0.00     0.032 C 
ATOM     29  C   UNL     1      -0.158   3.207  -3.303  1.00  0.00     0.115 C 
ATOM     30  H   UNL     1      -5.898  -5.441  -2.710  1.00  0.00     0.348 HD
ENDROOT
BRANCH   6  31
ATOM     31  O   UNL     1      -6.999  -4.710  -0.226  1.00  0.00    -0.384 OA
ATOM     32  H   UNL     1      -7.317  -4.827   0.708  1.00  0.00     0.211 HD
ENDBRANCH   6  31
BRANCH  29  33
ATOM     33  O   UNL     1       0.081   4.287  -2.440  1.00  0.00    -0.393 OA
ATOM     34  H   UNL     1       0.892   4.754  -2.777  1.00  0.00     0.210 HD
ENDBRANCH  29  33
TORSDOF 2
ENDMDL
MODEL 7
REMARK VINA RESULT:    -7.511      3.653      6.432
REMARK INTER + INTRA:          -7.950
REMARK INTER:                  -7.950
REMARK INTRA:                   0.000
REMARK UNBOUND:                 0.000
REMARK SMILES C[C@H]1CC[C@H]2[N@H+](C1)C[C@H]1[C@@H]3C[C@@H]4[C@@H](CC(=O)[C@H]5C[C@@H](O)CC[C@]54C)[C@H]3CC[C@H]1[C@@]2(C)O
REMARK SMILES IDX 5 1 6 2 8 3 7 4 4 5 29 6 3 7 28 8 30 9 2 10 27 11 9 12 1 13
REMARK SMILES IDX 26 14 10 15 25 16 11 17 13 18 12 19 14 20 23 21 15 22 17 23
REMARK SMILES IDX 22 24 24 25 16 26 18 27 21 28 19 29 31 31 20 33
REMARK H PARENT 6 30 31 32 20 34
REMARK Flexibility Score: inf
ROOT
ATOM      1  C   UNL     1      -3.193  -4.272  -3.289  1.00  0.00     0.216 C 
ATOM      2  N   UNL     1      -2.668  -3.470  -2.152  1.00  0.00    -0.330 N 
ATOM      3  C   UNL     1      -2.443  -2.041  -2.514  1.00  0.00     0.266 C 
ATOM      4  C   UNL     1      -3.564  -3.505  -0.966  1.00  0.00     0.265 C 
ATOM      5  C   UNL     1      -3.578  -5.716  -2.837  1.00  0.00     0.069 C 
ATOM      6  C   UNL     1      -2.150  -4.323  -4.473  1.00  0.00     0.117 C 
ATOM      7  C   UNL     1      -4.501  -5.714  -1.626  1.00  0.00     0.015 C 
ATOM      8  C   UNL     1      -1.406  -2.945  -4.669  1.00  0.00     0.036 C 
ATOM      9  C   UNL     1      -2.921  -4.678  -5.779  1.00  0.00     0.049 C 
ATOM     10  C   UNL     1      -3.842  -4.937  -0.488  1.00  0.00     0.041 C 
ATOM     11  C   UNL     1       0.099  -2.919  -4.241  1.00  0.00     0.007 C 
ATOM     12  C   UNL     1      -2.174  -1.765  -4.020  1.00  0.00     0.054 C 
ATOM     13  C   UNL     1      -4.737  -4.933   0.757  1.00  0.00     0.013 C 
ATOM     14  C   UNL     1       0.796  -1.538  -4.460  1.00  0.00     0.004 C 
ATOM     15  C   UNL     1      -1.415  -0.402  -4.188  1.00  0.00     0.002 C 
ATOM     16  C   UNL     1      -0.178  -0.507  -5.058  1.00  0.00    -0.004 C 
ATOM     17  C   UNL     1      -2.186   0.739  -4.833  1.00  0.00     0.009 C 
ATOM     18  C   UNL     1       0.263   0.948  -5.278  1.00  0.00     0.003 C 
ATOM     19  C   UNL     1      -1.087   1.738  -5.294  1.00  0.00    -0.000 C 
ATOM     20  C   UNL     1       1.307   1.456  -4.266  1.00  0.00     0.080 C 
ATOM     21  C   UNL     1      -1.070   3.139  -4.555  1.00  0.00    -0.020 C 
ATOM     22  C   UNL     1       1.465   2.947  -4.355  1.00  0.00     0.136 C 
ATOM     23  C   UNL     1       0.314   3.841  -4.761  1.00  0.00     0.065 C 
ATOM     24  C   UNL     1      -2.202   4.061  -5.114  1.00  0.00     0.010 C 
ATOM     25  C   UNL     1      -1.330   3.008  -3.022  1.00  0.00     0.012 C 
ATOM     26  O   UNL     1       2.549   3.447  -4.094  1.00  0.00    -0.299 OA
ATOM     27  C   UNL     1       0.525   4.316  -6.213  1.00  0.00     0.043 C 
ATOM     28  C   UNL     1      -1.955   4.590  -6.537  1.00  0.00     0.032 C 
ATOM     29  C   UNL     1      -0.588   5.273  -6.649  1.00  0.00     0.115 C 
ATOM     30  H   UNL     1      -1.748  -3.884  -1.866  1.00  0.00     0.348 HD
ENDROOT
BRANCH   6  31
ATOM     31  O   UNL     1      -1.203  -5.340  -4.211  1.00  0.00    -0.384 OA
ATOM     32  H   UNL     1      -1.664  -6.091  -3.752  1.00  0.00     0.211 HD
ENDBRANCH   6  31
BRANCH  29  33
ATOM     33  O   UNL     1      -0.359   5.664  -7.978  1.00  0.00    -0.393 OA
ATOM     34  H   UNL     1      -1.196   6.090  -8.303  1.00  0.00     0.210 HD
ENDBRANCH  29  33
TORSDOF 2
ENDMDL
MODEL 8
REMARK VINA RESULT:    -7.509      4.522      7.328
REMARK INTER + INTRA:          -7.948
REMARK INTER:                  -7.948
REMARK INTRA:                   0.000
REMARK UNBOUND:                 0.000
REMARK SMILES C[C@H]1CC[C@H]2[N@H+](C1)C[C@H]1[C@@H]3C[C@@H]4[C@@H](CC(=O)[C@H]5C[C@@H](O)CC[C@]54C)[C@H]3CC[C@H]1[C@@]2(C)O
REMARK SMILES IDX 5 1 6 2 8 3 7 4 4 5 29 6 3 7 28 8 30 9 2 10 27 11 9 12 1 13
REMARK SMILES IDX 26 14 10 15 25 16 11 17 13 18 12 19 14 20 23 21 15 22 17 23
REMARK SMILES IDX 22 24 24 25 16 26 18 27 21 28 19 29 31 31 20 33
REMARK H PARENT 6 30 31 32 20 34
REMARK Flexibility Score: inf
ROOT
ATOM      1  C   UNL     1      -4.789  -4.451  -2.261  1.00  0.00     0.216 C 
ATOM      2  N   UNL     1      -3.771  -3.958  -1.296  1.00  0.00    -0.330 N 
ATOM      3  C   UNL     1      -2.969  -2.824  -1.837  1.00  0.00     0.266 C 
ATOM      4  C   UNL     1      -4.371  -3.521  -0.007  1.00  0.00     0.265 C 
ATOM      5  C   UNL     1      -5.723  -5.520  -1.610  1.00  0.00     0.069 C 
ATOM      6  C   UNL     1      -4.103  -5.035  -3.558  1.00  0.00     0.117 C 
ATOM      7  C   UNL     1      -6.324  -5.036  -0.297  1.00  0.00     0.015 C 
ATOM      8  C   UNL     1      -2.845  -4.187  -3.997  1.00  0.00     0.036 C 
ATOM      9  C   UNL     1      -5.153  -5.023  -4.707  1.00  0.00     0.049 C 
ATOM     10  C   UNL     1      -5.200  -4.629   0.655  1.00  0.00     0.041 C 
ATOM     11  C   UNL     1      -1.454  -4.868  -3.772  1.00  0.00     0.007 C 
ATOM     12  C   UNL     1      -2.855  -2.762  -3.387  1.00  0.00     0.054 C 
ATOM     13  C   UNL     1      -5.771  -4.155   1.997  1.00  0.00     0.013 C 
ATOM     14  C   UNL     1      -0.241  -3.995  -4.227  1.00  0.00     0.004 C 
ATOM     15  C   UNL     1      -1.589  -1.933  -3.798  1.00  0.00     0.002 C 
ATOM     16  C   UNL     1      -0.706  -2.646  -4.804  1.00  0.00    -0.004 C 
ATOM     17  C   UNL     1      -1.833  -0.585  -4.459  1.00  0.00     0.009 C 
ATOM     18  C   UNL     1       0.319  -1.587  -5.235  1.00  0.00     0.003 C 
ATOM     19  C   UNL     1      -0.488  -0.249  -5.163  1.00  0.00    -0.000 C 
ATOM     20  C   UNL     1       1.631  -1.604  -4.428  1.00  0.00     0.080 C 
ATOM     21  C   UNL     1       0.301   0.999  -4.590  1.00  0.00    -0.020 C 
ATOM     22  C   UNL     1       2.449  -0.373  -4.699  1.00  0.00     0.136 C 
ATOM     23  C   UNL     1       1.798   0.947  -5.047  1.00  0.00     0.065 C 
ATOM     24  C   UNL     1      -0.345   2.329  -5.094  1.00  0.00     0.010 C 
ATOM     25  C   UNL     1       0.267   1.060  -3.031  1.00  0.00     0.012 C 
ATOM     26  O   UNL     1       3.667  -0.443  -4.636  1.00  0.00    -0.299 OA
ATOM     27  C   UNL     1       1.963   1.213  -6.558  1.00  0.00     0.043 C 
ATOM     28  C   UNL     1      -0.119   2.626  -6.586  1.00  0.00     0.032 C 
ATOM     29  C   UNL     1       1.369   2.570  -6.948  1.00  0.00     0.115 C 
ATOM     30  H   UNL     1      -3.117  -4.752  -1.087  1.00  0.00     0.348 HD
ENDROOT
BRANCH   6  31
ATOM     31  O   UNL     1      -3.710  -6.371  -3.311  1.00  0.00    -0.384 OA
ATOM     32  H   UNL     1      -3.615  -6.496  -2.330  1.00  0.00     0.211 HD
ENDBRANCH   6  31
BRANCH  29  33
ATOM     33  O   UNL     1       1.531   2.758  -8.329  1.00  0.00    -0.393 OA
ATOM     34  H   UNL     1       0.844   2.200  -8.781  1.00  0.00     0.210 HD
ENDBRANCH  29  33
TORSDOF 2
ENDMDL
MODEL 9
REMARK VINA RESULT:    -7.466      2.549      4.159
REMARK INTER + INTRA:          -7.903
REMARK INTER:                  -7.903
REMARK INTRA:                   0.000
REMARK UNBOUND:                 0.000
REMARK SMILES C[C@H]1CC[C@H]2[N@H+](C1)C[C@H]1[C@@H]3C[C@@H]4[C@@H](CC(=O)[C@H]5C[C@@H](O)CC[C@]54C)[C@H]3CC[C@H]1[C@@]2(C)O
REMARK SMILES IDX 5 1 6 2 8 3 7 4 4 5 29 6 3 7 28 8 30 9 2 10 27 11 9 12 1 13
REMARK SMILES IDX 26 14 10 15 25 16 11 17 13 18 12 19 14 20 23 21 15 22 17 23
REMARK SMILES IDX 22 24 24 25 16 26 18 27 21 28 19 29 31 31 20 33
REMARK H PARENT 6 30 31 32 20 34
REMARK Flexibility Score: inf
ROOT
ATOM      1  C   UNL     1      -2.909  -4.275  -4.206  1.00  0.00     0.216 C 
ATOM      2  N   UNL     1      -2.872  -3.410  -5.415  1.00  0.00    -0.330 N 
ATOM      3  C   UNL     1      -1.978  -2.228  -5.248  1.00  0.00     0.266 C 
ATOM      4  C   UNL     1      -2.435  -4.146  -6.631  1.00  0.00     0.265 C 
ATOM      5  C   UNL     1      -3.714  -5.586  -4.468  1.00  0.00     0.069 C 
ATOM      6  C   UNL     1      -3.510  -3.496  -2.971  1.00  0.00     0.117 C 
ATOM      7  C   UNL     1      -3.236  -6.317  -5.716  1.00  0.00     0.015 C 
ATOM      8  C   UNL     1      -3.038  -1.989  -2.933  1.00  0.00     0.036 C 
ATOM      9  C   UNL     1      -3.038  -4.212  -1.673  1.00  0.00     0.049 C 
ATOM     10  C   UNL     1      -3.311  -5.374  -6.915  1.00  0.00     0.041 C 
ATOM     11  C   UNL     1      -4.132  -0.925  -3.278  1.00  0.00     0.007 C 
ATOM     12  C   UNL     1      -1.764  -1.751  -3.784  1.00  0.00     0.054 C 
ATOM     13  C   UNL     1      -2.855  -6.085  -8.195  1.00  0.00     0.013 C 
ATOM     14  C   UNL     1      -3.621   0.550  -3.221  1.00  0.00     0.004 C 
ATOM     15  C   UNL     1      -1.316  -0.248  -3.770  1.00  0.00     0.002 C 
ATOM     16  C   UNL     1      -2.134   0.614  -2.828  1.00  0.00    -0.004 C 
ATOM     17  C   UNL     1       0.113   0.041  -3.337  1.00  0.00     0.009 C 
ATOM     18  C   UNL     1      -1.393   1.958  -2.794  1.00  0.00     0.003 C 
ATOM     19  C   UNL     1       0.108   1.550  -2.964  1.00  0.00    -0.000 C 
ATOM     20  C   UNL     1      -1.907   2.995  -3.810  1.00  0.00     0.080 C 
ATOM     21  C   UNL     1       0.975   2.496  -3.891  1.00  0.00    -0.020 C 
ATOM     22  C   UNL     1      -0.961   4.156  -3.924  1.00  0.00     0.136 C 
ATOM     23  C   UNL     1       0.527   3.986  -3.713  1.00  0.00     0.065 C 
ATOM     24  C   UNL     1       2.491   2.368  -3.532  1.00  0.00     0.010 C 
ATOM     25  C   UNL     1       0.852   2.125  -5.402  1.00  0.00     0.012 C 
ATOM     26  O   UNL     1      -1.405   5.262  -4.195  1.00  0.00    -0.299 OA
ATOM     27  C   UNL     1       0.914   4.557  -2.333  1.00  0.00     0.043 C 
ATOM     28  C   UNL     1       2.886   3.002  -2.187  1.00  0.00     0.032 C 
ATOM     29  C   UNL     1       2.424   4.460  -2.098  1.00  0.00     0.115 C 
ATOM     30  H   UNL     1      -3.847  -3.061  -5.589  1.00  0.00     0.348 HD
ENDROOT
BRANCH   6  31
ATOM     31  O   UNL     1      -4.922  -3.548  -3.035  1.00  0.00    -0.384 OA
ATOM     32  H   UNL     1      -5.263  -2.638  -3.239  1.00  0.00     0.211 HD
ENDBRANCH   6  31
BRANCH  29  33
ATOM     33  O   UNL     1       2.723   4.978  -0.829  1.00  0.00    -0.393 OA
ATOM     34  H   UNL     1       2.237   4.419  -0.166  1.00  0.00     0.210 HD
ENDBRANCH  29  33
TORSDOF 2
ENDMDL
