MODEL 1
REMARK VINA RESULT:    14.882      0.000      0.000
REMARK INTER + INTRA:          24.503
REMARK INTER:                  20.537
REMARK INTRA:                   3.965
REMARK UNBOUND:                 3.965
REMARK SMILES CC[C@H](CC[C@H](C)[C@H]1CC[C@H]2[C@H]3CC=C4C[C@@H](O)CC[C@]4(C)[C@H]3CC[C@@]12C)C(C)C
REMARK SMILES IDX 5 1 4 2 3 3 2 4 1 5 28 6 29 7 30 8 6 9 7 10 8 11 9 12 26 13
REMARK SMILES IDX 10 14 11 15 25 16 27 17 12 18 24 19 23 20 13 21 21 22 14 23
REMARK SMILES IDX 15 24 20 25 22 26 16 27 19 28 17 29 18 30
REMARK H PARENT 18 31
REMARK Flexibility Score: inf
ROOT
ATOM      1  C   UNL     1      77.683  18.025   0.665  1.00  0.00     0.004 C 
ENDROOT
BRANCH   1   2
ATOM      2  C   UNL     1      79.009  18.741   0.344  1.00  0.00     0.004 C 
BRANCH   2   3
ATOM      3  C   UNL     1      79.801  19.135   1.630  1.00  0.00    -0.009 C 
BRANCH   3   4
ATOM      4  C   UNL     1      79.296  18.308   2.846  1.00  0.00     0.000 C 
ATOM      5  C   UNL     1      80.130  18.493   4.119  1.00  0.00     0.004 C 
ENDBRANCH   3   4
BRANCH   3   6
ATOM      6  C   UNL     1      81.354  19.055   1.430  1.00  0.00    -0.014 C 
ATOM      7  C   UNL     1      82.102  18.952   2.772  1.00  0.00     0.007 C 
ATOM      8  C   UNL     1      81.899  20.273   0.662  1.00  0.00     0.007 C 
ENDBRANCH   3   6
ENDBRANCH   2   3
ENDBRANCH   1   2
BRANCH   1   9
ATOM      9  C   UNL     1      77.640  16.584   0.076  1.00  0.00    -0.011 C 
ATOM     10  C   UNL     1      76.188  16.121  -0.124  1.00  0.00     0.008 C 
BRANCH   9  11
ATOM     11  C   UNL     1      78.515  15.502   0.804  1.00  0.00    -0.002 C 
ATOM     12  C   UNL     1      80.020  15.834   0.794  1.00  0.00     0.005 C 
ATOM     13  C   UNL     1      78.174  15.006   2.255  1.00  0.00    -0.026 C 
ATOM     14  C   UNL     1      80.573  15.395   2.141  1.00  0.00     0.005 C 
ATOM     15  C   UNL     1      79.528  14.445   2.736  1.00  0.00    -0.001 C 
ATOM     16  C   UNL     1      77.742  16.156   3.194  1.00  0.00     0.007 C 
ATOM     17  C   UNL     1      77.106  13.880   2.226  1.00  0.00     0.012 C 
ATOM     18  C   UNL     1      79.638  14.127   4.270  1.00  0.00     0.000 C 
ATOM     19  C   UNL     1      77.580  15.725   4.647  1.00  0.00     0.005 C 
ATOM     20  C   UNL     1      78.822  15.027   5.271  1.00  0.00     0.003 C 
ATOM     21  C   UNL     1      81.104  13.882   4.708  1.00  0.00     0.031 C 
ATOM     22  C   UNL     1      79.681  15.886   6.289  1.00  0.00    -0.008 C 
ATOM     23  C   UNL     1      81.313  13.984   6.188  1.00  0.00    -0.027 C 
ATOM     24  C   UNL     1      80.738  14.959   6.918  1.00  0.00    -0.065 C 
ATOM     25  C   UNL     1      78.735  16.458   7.406  1.00  0.00     0.014 C 
ATOM     26  C   UNL     1      80.395  17.064   5.595  1.00  0.00     0.016 C 
ATOM     27  C   UNL     1      81.308  15.241   8.294  1.00  0.00     0.063 C 
ATOM     28  C   UNL     1      79.443  16.866   8.704  1.00  0.00     0.033 C 
ATOM     29  C   UNL     1      80.225  15.684   9.278  1.00  0.00     0.118 C 
BRANCH  29  30
ATOM     30  O   UNL     1      80.791  16.018  10.522  1.00  0.00    -0.393 OA
ATOM     31  H   UNL     1      80.055  16.311  11.119  1.00  0.00     0.210 HD
ENDBRANCH  29  30
ENDBRANCH   9  11
ENDBRANCH   1   9
TORSDOF 7
ENDMDL
MODEL 2
REMARK VINA RESULT:    15.407      3.130      8.059
REMARK INTER + INTRA:          25.226
REMARK INTER:                  24.612
REMARK INTRA:                   0.614
REMARK UNBOUND:                 3.965
REMARK SMILES CC[C@H](CC[C@H](C)[C@H]1CC[C@H]2[C@H]3CC=C4C[C@@H](O)CC[C@]4(C)[C@H]3CC[C@@]12C)C(C)C
REMARK SMILES IDX 5 1 4 2 3 3 2 4 1 5 28 6 29 7 30 8 6 9 7 10 8 11 9 12 26 13
REMARK SMILES IDX 10 14 11 15 25 16 27 17 12 18 24 19 23 20 13 21 21 22 14 23
REMARK SMILES IDX 15 24 20 25 22 26 16 27 19 28 17 29 18 30
REMARK H PARENT 18 31
REMARK Flexibility Score: inf
ROOT
ATOM      1  C   UNL     1      81.810  13.895  10.191  1.00  0.00     0.004 C 
ENDROOT
BRANCH   1   2
ATOM      2  C   UNL     1      81.394  13.916  11.674  1.00  0.00     0.004 C 
BRANCH   2   3
ATOM      3  C   UNL     1      81.656  15.300  12.347  1.00  0.00    -0.009 C 
BRANCH   3   4
ATOM      4  C   UNL     1      81.345  15.225  13.869  1.00  0.00     0.000 C 
ATOM      5  C   UNL     1      80.227  14.242  14.232  1.00  0.00     0.004 C 
ENDBRANCH   3   4
BRANCH   3   6
ATOM      6  C   UNL     1      83.086  15.861  12.035  1.00  0.00    -0.014 C 
ATOM      7  C   UNL     1      83.158  16.506  10.638  1.00  0.00     0.007 C 
ATOM      8  C   UNL     1      84.165  14.766  12.121  1.00  0.00     0.007 C 
ENDBRANCH   3   6
ENDBRANCH   2   3
ENDBRANCH   1   2
BRANCH   1   9
ATOM      9  C   UNL     1      80.856  14.750   9.305  1.00  0.00    -0.011 C 
ATOM     10  C   UNL     1      79.767  15.414  10.162  1.00  0.00     0.008 C 
BRANCH   9  11
ATOM     11  C   UNL     1      80.265  14.049   8.030  1.00  0.00    -0.002 C 
ATOM     12  C   UNL     1      78.731  13.908   8.074  1.00  0.00     0.005 C 
ATOM     13  C   UNL     1      80.631  14.530   6.580  1.00  0.00    -0.026 C 
ATOM     14  C   UNL     1      78.230  14.141   6.657  1.00  0.00     0.005 C 
ATOM     15  C   UNL     1      79.453  13.984   5.747  1.00  0.00    -0.001 C 
ATOM     16  C   UNL     1      80.666  16.071   6.453  1.00  0.00     0.007 C 
ATOM     17  C   UNL     1      81.966  13.901   6.101  1.00  0.00     0.012 C 
ATOM     18  C   UNL     1      79.332  14.532   4.280  1.00  0.00     0.000 C 
ATOM     19  C   UNL     1      80.843  16.557   5.019  1.00  0.00     0.005 C 
ATOM     20  C   UNL     1      79.801  16.009   4.003  1.00  0.00     0.003 C 
ATOM     21  C   UNL     1      77.963  14.185   3.642  1.00  0.00     0.031 C 
ATOM     22  C   UNL     1      78.674  17.017   3.531  1.00  0.00    -0.008 C 
ATOM     23  C   UNL     1      77.636  15.012   2.437  1.00  0.00    -0.027 C 
ATOM     24  C   UNL     1      77.872  16.338   2.404  1.00  0.00    -0.065 C 
ATOM     25  C   UNL     1      79.349  18.330   2.992  1.00  0.00     0.014 C 
ATOM     26  C   UNL     1      77.712  17.391   4.677  1.00  0.00     0.016 C 
ATOM     27  C   UNL     1      77.155  17.157   1.349  1.00  0.00     0.063 C 
ATOM     28  C   UNL     1      78.472  19.170   2.057  1.00  0.00     0.033 C 
ATOM     29  C   UNL     1      78.007  18.331   0.866  1.00  0.00     0.118 C 
BRANCH  29  30
ATOM     30  O   UNL     1      77.289  19.121  -0.051  1.00  0.00    -0.393 OA
ATOM     31  H   UNL     1      77.637  18.921  -0.959  1.00  0.00     0.210 HD
ENDBRANCH  29  30
ENDBRANCH   9  11
ENDBRANCH   1   9
TORSDOF 7
ENDMDL
MODEL 3
REMARK VINA RESULT:    16.930      2.895      6.769
REMARK INTER + INTRA:          27.329
REMARK INTER:                  26.421
REMARK INTRA:                   0.908
REMARK UNBOUND:                 3.965
REMARK SMILES CC[C@H](CC[C@H](C)[C@H]1CC[C@H]2[C@H]3CC=C4C[C@@H](O)CC[C@]4(C)[C@H]3CC[C@@]12C)C(C)C
REMARK SMILES IDX 5 1 4 2 3 3 2 4 1 5 28 6 29 7 30 8 6 9 7 10 8 11 9 12 26 13
REMARK SMILES IDX 10 14 11 15 25 16 27 17 12 18 24 19 23 20 13 21 21 22 14 23
REMARK SMILES IDX 15 24 20 25 22 26 16 27 19 28 17 29 18 30
REMARK H PARENT 18 31
REMARK Flexibility Score: inf
ROOT
ATOM      1  C   UNL     1      80.112  14.263   5.829  1.00  0.00     0.004 C 
ENDROOT
BRANCH   1   2
ATOM      2  C   UNL     1      79.357  15.606   5.794  1.00  0.00     0.004 C 
BRANCH   2   3
ATOM      3  C   UNL     1      79.978  16.665   6.759  1.00  0.00    -0.009 C 
BRANCH   3   4
ATOM      4  C   UNL     1      79.586  18.099   6.306  1.00  0.00     0.000 C 
ATOM      5  C   UNL     1      80.159  18.505   4.944  1.00  0.00     0.004 C 
ENDBRANCH   3   4
BRANCH   3   6
ATOM      6  C   UNL     1      79.644  16.378   8.264  1.00  0.00    -0.014 C 
ATOM      7  C   UNL     1      80.746  16.899   9.205  1.00  0.00     0.007 C 
ATOM      8  C   UNL     1      79.444  14.876   8.533  1.00  0.00     0.007 C 
ENDBRANCH   3   6
ENDBRANCH   2   3
ENDBRANCH   1   2
BRANCH   1   9
ATOM      9  C   UNL     1      80.678  13.875   4.431  1.00  0.00    -0.011 C 
ATOM     10  C   UNL     1      81.995  14.619   4.152  1.00  0.00     0.008 C 
BRANCH   9  11
ATOM     11  C   UNL     1      79.680  13.957   3.222  1.00  0.00    -0.002 C 
ATOM     12  C   UNL     1      78.202  13.875   3.651  1.00  0.00     0.005 C 
ATOM     13  C   UNL     1      79.775  15.103   2.152  1.00  0.00    -0.026 C 
ATOM     14  C   UNL     1      77.432  14.827   2.748  1.00  0.00     0.005 C 
ATOM     15  C   UNL     1      78.352  15.113   1.556  1.00  0.00    -0.001 C 
ATOM     16  C   UNL     1      80.068  16.486   2.781  1.00  0.00     0.007 C 
ATOM     17  C   UNL     1      80.815  14.759   1.052  1.00  0.00     0.012 C 
ATOM     18  C   UNL     1      77.991  16.344   0.650  1.00  0.00     0.000 C 
ATOM     19  C   UNL     1      79.987  17.635   1.782  1.00  0.00     0.005 C 
ATOM     20  C   UNL     1      78.649  17.732   0.995  1.00  0.00     0.003 C 
ATOM     21  C   UNL     1      76.469  16.432   0.369  1.00  0.00     0.031 C 
ATOM     22  C   UNL     1      77.652  18.884   1.431  1.00  0.00    -0.008 C 
ATOM     23  C   UNL     1      76.026  17.775  -0.124  1.00  0.00    -0.027 C 
ATOM     24  C   UNL     1      76.492  18.917   0.417  1.00  0.00    -0.065 C 
ATOM     25  C   UNL     1      78.414  20.258   1.419  1.00  0.00     0.014 C 
ATOM     26  C   UNL     1      77.078  18.649   2.844  1.00  0.00     0.016 C 
ATOM     27  C   UNL     1      75.712  20.191   0.160  1.00  0.00     0.063 C 
ATOM     28  C   UNL     1      77.514  21.494   1.318  1.00  0.00     0.033 C 
ATOM     29  C   UNL     1      76.630  21.410   0.073  1.00  0.00     0.118 C 
BRANCH  29  30
ATOM     30  O   UNL     1      75.876  22.588  -0.084  1.00  0.00    -0.393 OA
ATOM     31  H   UNL     1      75.797  23.016   0.807  1.00  0.00     0.210 HD
ENDBRANCH  29  30
ENDBRANCH   9  11
ENDBRANCH   1   9
TORSDOF 7
ENDMDL
