MODEL 1
REMARK VINA RESULT:    -6.576      0.000      0.000
REMARK INTER + INTRA:          -7.981
REMARK INTER:                  -7.729
REMARK INTRA:                  -0.252
REMARK UNBOUND:                -0.252
REMARK SMILES Oc1ccc(-c2[o+]c3cc(O)cc(O)c3cc2O)cc1
REMARK SMILES IDX 6 1 7 2 8 3 9 4 10 5 12 6 13 7 15 8 16 9 17 10 5 11 4 12
REMARK SMILES IDX 3 13 2 14 19 15 20 16 1 17 18 19 11 21 14 23
REMARK H PARENT 1 18 18 20 11 22 14 24
REMARK Flexibility Score: inf
ROOT
ATOM      1  C   UNL     1       1.826 -19.165  -3.930  1.00  0.00     0.401 A 
ATOM      2  O   UNL     1       1.052 -18.084  -3.883  1.00  0.00    -0.202 OA
ATOM      3  C   UNL     1       1.217 -17.107  -2.998  1.00  0.00     0.368 A 
ATOM      4  C   UNL     1       0.350 -16.012  -3.026  1.00  0.00     0.162 A 
ATOM      5  C   UNL     1       0.499 -14.970  -2.105  1.00  0.00     0.128 A 
ATOM      6  C   UNL     1       1.519 -15.025  -1.152  1.00  0.00     0.093 A 
ATOM      7  C   UNL     1       2.402 -16.111  -1.104  1.00  0.00     0.136 A 
ATOM      8  C   UNL     1       2.256 -17.169  -2.038  1.00  0.00     0.125 A 
ATOM      9  C   UNL     1       3.101 -18.291  -2.073  1.00  0.00     0.078 A 
ATOM     10  C   UNL     1       2.899 -19.292  -3.027  1.00  0.00     0.223 A 
ENDROOT
BRANCH   1  11
ATOM     11  C   UNL     1       1.535 -20.191  -4.957  1.00  0.00     0.084 A 
ATOM     12  C   UNL     1       2.340 -20.335  -6.101  1.00  0.00     0.022 A 
ATOM     13  C   UNL     1       2.057 -21.327  -7.045  1.00  0.00     0.047 A 
ATOM     14  C   UNL     1       0.976 -22.196  -6.850  1.00  0.00     0.115 A 
ATOM     15  C   UNL     1       0.464 -21.081  -4.760  1.00  0.00     0.022 A 
ATOM     16  C   UNL     1       0.183 -22.072  -5.706  1.00  0.00     0.047 A 
BRANCH  14  17
ATOM     17  O   UNL     1       0.684 -23.188  -7.784  1.00  0.00    -0.508 OA
ATOM     18  H   UNL     1       1.418 -23.699  -8.261  1.00  0.00     0.293 HD
ENDBRANCH  14  17
ENDBRANCH   1  11
BRANCH  10  19
ATOM     19  O   UNL     1       3.768 -20.381  -3.094  1.00  0.00    -0.500 OA
ATOM     20  H   UNL     1       3.494 -21.302  -2.770  1.00  0.00     0.294 HD
ENDBRANCH  10  19
BRANCH   5  21
ATOM     21  O   UNL     1      -0.363 -13.875  -2.127  1.00  0.00    -0.507 OA
ATOM     22  H   UNL     1      -0.175 -13.041  -1.585  1.00  0.00     0.293 HD
ENDBRANCH   5  21
BRANCH   7  23
ATOM     23  O   UNL     1       3.393 -16.092  -0.119  1.00  0.00    -0.507 OA
ATOM     24  H   UNL     1       4.229 -16.656  -0.140  1.00  0.00     0.293 HD
ENDBRANCH   7  23
TORSDOF 5
ENDMDL
MODEL 2
REMARK VINA RESULT:    -6.483     10.420     12.327
REMARK INTER + INTRA:          -7.872
REMARK INTER:                  -7.554
REMARK INTRA:                  -0.318
REMARK UNBOUND:                -0.252
REMARK SMILES Oc1ccc(-c2[o+]c3cc(O)cc(O)c3cc2O)cc1
REMARK SMILES IDX 6 1 7 2 8 3 9 4 10 5 12 6 13 7 15 8 16 9 17 10 5 11 4 12
REMARK SMILES IDX 3 13 2 14 19 15 20 16 1 17 18 19 11 21 14 23
REMARK H PARENT 1 18 18 20 11 22 14 24
REMARK Flexibility Score: inf
ROOT
ATOM      1  C   UNL     1       6.503 -23.469   5.028  1.00  0.00     0.401 A 
ATOM      2  O   UNL     1       6.302 -24.596   5.706  1.00  0.00    -0.202 OA
ATOM      3  C   UNL     1       5.870 -24.624   6.962  1.00  0.00     0.368 A 
ATOM      4  C   UNL     1       5.692 -25.858   7.592  1.00  0.00     0.162 A 
ATOM      5  C   UNL     1       5.240 -25.917   8.915  1.00  0.00     0.128 A 
ATOM      6  C   UNL     1       4.968 -24.737   9.609  1.00  0.00     0.093 A 
ATOM      7  C   UNL     1       5.137 -23.487   9.000  1.00  0.00     0.136 A 
ATOM      8  C   UNL     1       5.592 -23.422   7.658  1.00  0.00     0.125 A 
ATOM      9  C   UNL     1       5.779 -22.216   6.963  1.00  0.00     0.078 A 
ATOM     10  C   UNL     1       6.226 -22.231   5.639  1.00  0.00     0.223 A 
ENDROOT
BRANCH   1  11
ATOM     11  C   UNL     1       6.997 -23.568   3.636  1.00  0.00     0.084 A 
ATOM     12  C   UNL     1       8.364 -23.437   3.331  1.00  0.00     0.022 A 
ATOM     13  C   UNL     1       8.809 -23.557   2.011  1.00  0.00     0.047 A 
ATOM     14  C   UNL     1       7.897 -23.823   0.982  1.00  0.00     0.115 A 
ATOM     15  C   UNL     1       6.092 -23.856   2.600  1.00  0.00     0.022 A 
ATOM     16  C   UNL     1       6.540 -23.975   1.280  1.00  0.00     0.047 A 
BRANCH  14  17
ATOM     17  O   UNL     1       8.329 -23.944  -0.337  1.00  0.00    -0.508 OA
ATOM     18  H   UNL     1       7.933 -23.376  -1.077  1.00  0.00     0.293 HD
ENDBRANCH  14  17
ENDBRANCH   1  11
BRANCH  10  19
ATOM     19  O   UNL     1       6.363 -21.036   4.932  1.00  0.00    -0.500 OA
ATOM     20  H   UNL     1       6.779 -21.009   4.008  1.00  0.00     0.294 HD
ENDBRANCH  10  19
BRANCH   5  21
ATOM     21  O   UNL     1       5.062 -27.145   9.548  1.00  0.00    -0.507 OA
ATOM     22  H   UNL     1       5.394 -28.008   9.136  1.00  0.00     0.293 HD
ENDBRANCH   5  21
BRANCH   7  23
ATOM     23  O   UNL     1       4.845 -22.354   9.764  1.00  0.00    -0.507 OA
ATOM     24  H   UNL     1       5.496 -21.904  10.389  1.00  0.00     0.293 HD
ENDBRANCH   7  23
TORSDOF 5
ENDMDL
MODEL 3
REMARK VINA RESULT:    -6.216      1.511      6.977
REMARK INTER + INTRA:          -7.557
REMARK INTER:                  -7.305
REMARK INTRA:                  -0.252
REMARK UNBOUND:                -0.252
REMARK SMILES Oc1ccc(-c2[o+]c3cc(O)cc(O)c3cc2O)cc1
REMARK SMILES IDX 6 1 7 2 8 3 9 4 10 5 12 6 13 7 15 8 16 9 17 10 5 11 4 12
REMARK SMILES IDX 3 13 2 14 19 15 20 16 1 17 18 19 11 21 14 23
REMARK H PARENT 1 18 18 20 11 22 14 24
REMARK Flexibility Score: inf
ROOT
ATOM      1  C   UNL     1       2.030 -18.631  -4.585  1.00  0.00     0.401 A 
ATOM      2  O   UNL     1       1.397 -19.797  -4.494  1.00  0.00    -0.202 OA
ATOM      3  C   UNL     1       1.220 -20.614  -5.527  1.00  0.00     0.368 A 
ATOM      4  C   UNL     1       0.539 -21.818  -5.332  1.00  0.00     0.162 A 
ATOM      5  C   UNL     1       0.336 -22.696  -6.402  1.00  0.00     0.128 A 
ATOM      6  C   UNL     1       0.815 -22.366  -7.671  1.00  0.00     0.093 A 
ATOM      7  C   UNL     1       1.502 -21.166  -7.893  1.00  0.00     0.136 A 
ATOM      8  C   UNL     1       1.712 -20.273  -6.810  1.00  0.00     0.125 A 
ATOM      9  C   UNL     1       2.400 -19.055  -6.935  1.00  0.00     0.078 A 
ATOM     10  C   UNL     1       2.573 -18.229  -5.821  1.00  0.00     0.223 A 
ENDROOT
BRANCH   1  11
ATOM     11  C   UNL     1       2.154 -17.804  -3.363  1.00  0.00     0.084 A 
ATOM     12  C   UNL     1       3.068 -18.130  -2.345  1.00  0.00     0.022 A 
ATOM     13  C   UNL     1       3.182 -17.320  -1.211  1.00  0.00     0.047 A 
ATOM     14  C   UNL     1       2.397 -16.167  -1.088  1.00  0.00     0.115 A 
ATOM     15  C   UNL     1       1.385 -16.634  -3.240  1.00  0.00     0.022 A 
ATOM     16  C   UNL     1       1.501 -15.825  -2.105  1.00  0.00     0.047 A 
BRANCH  14  17
ATOM     17  O   UNL     1       2.501 -15.353   0.038  1.00  0.00    -0.508 OA
ATOM     18  H   UNL     1       1.696 -15.145   0.617  1.00  0.00     0.293 HD
ENDBRANCH  14  17
ENDBRANCH   1  11
BRANCH  10  19
ATOM     19  O   UNL     1       3.299 -17.044  -5.933  1.00  0.00    -0.500 OA
ATOM     20  H   UNL     1       2.845 -16.137  -5.902  1.00  0.00     0.294 HD
ENDBRANCH  10  19
BRANCH   5  21
ATOM     21  O   UNL     1      -0.343 -23.898  -6.214  1.00  0.00    -0.507 OA
ATOM     22  H   UNL     1      -1.018 -24.015  -5.469  1.00  0.00     0.293 HD
ENDBRANCH   5  21
BRANCH   7  23
ATOM     23  O   UNL     1       1.947 -20.909  -9.193  1.00  0.00    -0.507 OA
ATOM     24  H   UNL     1       2.572 -21.507  -9.710  1.00  0.00     0.293 HD
ENDBRANCH   7  23
TORSDOF 5
ENDMDL
MODEL 4
REMARK VINA RESULT:    -6.099      1.515      6.854
REMARK INTER + INTRA:          -7.420
REMARK INTER:                  -7.174
REMARK INTRA:                  -0.246
REMARK UNBOUND:                -0.252
REMARK SMILES Oc1ccc(-c2[o+]c3cc(O)cc(O)c3cc2O)cc1
REMARK SMILES IDX 6 1 7 2 8 3 9 4 10 5 12 6 13 7 15 8 16 9 17 10 5 11 4 12
REMARK SMILES IDX 3 13 2 14 19 15 20 16 1 17 18 19 11 21 14 23
REMARK H PARENT 1 18 18 20 11 22 14 24
REMARK Flexibility Score: inf
ROOT
ATOM      1  C   UNL     1       1.374 -19.309  -3.821  1.00  0.00     0.401 A 
ATOM      2  O   UNL     1       1.631 -19.199  -5.121  1.00  0.00    -0.202 OA
ATOM      3  C   UNL     1       1.368 -20.160  -6.001  1.00  0.00     0.368 A 
ATOM      4  C   UNL     1       1.676 -19.952  -7.347  1.00  0.00     0.162 A 
ATOM      5  C   UNL     1       1.412 -20.947  -8.294  1.00  0.00     0.128 A 
ATOM      6  C   UNL     1       0.840 -22.155  -7.891  1.00  0.00     0.093 A 
ATOM      7  C   UNL     1       0.520 -22.388  -6.548  1.00  0.00     0.136 A 
ATOM      8  C   UNL     1       0.784 -21.381  -5.584  1.00  0.00     0.125 A 
ATOM      9  C   UNL     1       0.485 -21.521  -4.218  1.00  0.00     0.078 A 
ATOM     10  C   UNL     1       0.769 -20.481  -3.328  1.00  0.00     0.223 A 
ENDROOT
BRANCH   1  11
ATOM     11  C   UNL     1       1.723 -18.172  -2.939  1.00  0.00     0.084 A 
ATOM     12  C   UNL     1       2.780 -18.257  -2.015  1.00  0.00     0.022 A 
ATOM     13  C   UNL     1       3.105 -17.162  -1.209  1.00  0.00     0.047 A 
ATOM     14  C   UNL     1       2.388 -15.964  -1.327  1.00  0.00     0.115 A 
ATOM     15  C   UNL     1       1.023 -16.960  -3.065  1.00  0.00     0.022 A 
ATOM     16  C   UNL     1       1.350 -15.866  -2.258  1.00  0.00     0.047 A 
BRANCH  14  17
ATOM     17  O   UNL     1       2.702 -14.866  -0.529  1.00  0.00    -0.508 OA
ATOM     18  H   UNL     1       3.624 -14.752  -0.125  1.00  0.00     0.293 HD
ENDBRANCH  14  17
ENDBRANCH   1  11
BRANCH  10  19
ATOM     19  O   UNL     1       0.428 -20.600  -1.981  1.00  0.00    -0.500 OA
ATOM     20  H   UNL     1      -0.004 -19.837  -1.472  1.00  0.00     0.294 HD
ENDBRANCH  10  19
BRANCH   5  21
ATOM     21  O   UNL     1       1.718 -20.745  -9.638  1.00  0.00    -0.507 OA
ATOM     22  H   UNL     1       1.913 -21.520 -10.260  1.00  0.00     0.293 HD
ENDBRANCH   5  21
BRANCH   7  23
ATOM     23  O   UNL     1      -0.048 -23.624  -6.226  1.00  0.00    -0.507 OA
ATOM     24  H   UNL     1       0.478 -24.469  -6.064  1.00  0.00     0.293 HD
ENDBRANCH   7  23
TORSDOF 5
ENDMDL
MODEL 5
REMARK VINA RESULT:    -5.992     10.511     12.241
REMARK INTER + INTRA:          -7.295
REMARK INTER:                  -6.975
REMARK INTRA:                  -0.320
REMARK UNBOUND:                -0.252
REMARK SMILES Oc1ccc(-c2[o+]c3cc(O)cc(O)c3cc2O)cc1
REMARK SMILES IDX 6 1 7 2 8 3 9 4 10 5 12 6 13 7 15 8 16 9 17 10 5 11 4 12
REMARK SMILES IDX 3 13 2 14 19 15 20 16 1 17 18 19 11 21 14 23
REMARK H PARENT 1 18 18 20 11 22 14 24
REMARK Flexibility Score: inf
ROOT
ATOM      1  C   UNL     1       6.165 -24.614   4.827  1.00  0.00     0.401 A 
ATOM      2  O   UNL     1       5.938 -23.681   5.748  1.00  0.00    -0.202 OA
ATOM      3  C   UNL     1       5.611 -23.962   7.005  1.00  0.00     0.368 A 
ATOM      4  C   UNL     1       5.389 -22.912   7.900  1.00  0.00     0.162 A 
ATOM      5  C   UNL     1       5.041 -23.178   9.228  1.00  0.00     0.128 A 
ATOM      6  C   UNL     1       4.914 -24.499   9.662  1.00  0.00     0.093 A 
ATOM      7  C   UNL     1       5.131 -25.569   8.784  1.00  0.00     0.136 A 
ATOM      8  C   UNL     1       5.487 -25.304   7.437  1.00  0.00     0.125 A 
ATOM      9  C   UNL     1       5.737 -26.313   6.491  1.00  0.00     0.078 A 
ATOM     10  C   UNL     1       6.088 -25.974   5.181  1.00  0.00     0.223 A 
ENDROOT
BRANCH   1  11
ATOM     11  C   UNL     1       6.512 -24.175   3.456  1.00  0.00     0.084 A 
ATOM     12  C   UNL     1       5.530 -24.045   2.456  1.00  0.00     0.022 A 
ATOM     13  C   UNL     1       5.879 -23.606   1.175  1.00  0.00     0.047 A 
ATOM     14  C   UNL     1       7.209 -23.279   0.881  1.00  0.00     0.115 A 
ATOM     15  C   UNL     1       7.839 -23.824   3.157  1.00  0.00     0.022 A 
ATOM     16  C   UNL     1       8.186 -23.387   1.875  1.00  0.00     0.047 A 
BRANCH  14  17
ATOM     17  O   UNL     1       7.569 -22.842  -0.391  1.00  0.00    -0.508 OA
ATOM     18  H   UNL     1       8.462 -22.394  -0.564  1.00  0.00     0.293 HD
ENDBRANCH  14  17
ENDBRANCH   1  11
BRANCH  10  19
ATOM     19  O   UNL     1       6.384 -26.974   4.255  1.00  0.00    -0.500 OA
ATOM     20  H   UNL     1       6.908 -27.803   4.516  1.00  0.00     0.294 HD
ENDBRANCH  10  19
BRANCH   5  21
ATOM     21  O   UNL     1       4.819 -22.135  10.125  1.00  0.00    -0.507 OA
ATOM     22  H   UNL     1       4.528 -21.218   9.810  1.00  0.00     0.293 HD
ENDBRANCH   5  21
BRANCH   7  23
ATOM     23  O   UNL     1       4.981 -26.861   9.295  1.00  0.00    -0.507 OA
ATOM     24  H   UNL     1       5.161 -27.706   8.774  1.00  0.00     0.293 HD
ENDBRANCH   7  23
TORSDOF 5
ENDMDL
MODEL 6
REMARK VINA RESULT:    -5.910      3.977      7.268
REMARK INTER + INTRA:          -7.199
REMARK INTER:                  -6.879
REMARK INTRA:                  -0.320
REMARK UNBOUND:                -0.252
REMARK SMILES Oc1ccc(-c2[o+]c3cc(O)cc(O)c3cc2O)cc1
REMARK SMILES IDX 6 1 7 2 8 3 9 4 10 5 12 6 13 7 15 8 16 9 17 10 5 11 4 12
REMARK SMILES IDX 3 13 2 14 19 15 20 16 1 17 18 19 11 21 14 23
REMARK H PARENT 1 18 18 20 11 22 14 24
REMARK Flexibility Score: inf
ROOT
ATOM      1  C   UNL     1       3.882 -20.008  -5.774  1.00  0.00     0.401 A 
ATOM      2  O   UNL     1       4.690 -21.027  -6.055  1.00  0.00    -0.202 OA
ATOM      3  C   UNL     1       5.669 -20.957  -6.950  1.00  0.00     0.368 A 
ATOM      4  C   UNL     1       6.463 -22.084  -7.178  1.00  0.00     0.162 A 
ATOM      5  C   UNL     1       7.500 -22.039  -8.115  1.00  0.00     0.128 A 
ATOM      6  C   UNL     1       7.742 -20.863  -8.828  1.00  0.00     0.093 A 
ATOM      7  C   UNL     1       6.961 -19.719  -8.617  1.00  0.00     0.136 A 
ATOM      8  C   UNL     1       5.909 -19.759  -7.666  1.00  0.00     0.125 A 
ATOM      9  C   UNL     1       5.084 -18.659  -7.379  1.00  0.00     0.078 A 
ATOM     10  C   UNL     1       4.071 -18.773  -6.424  1.00  0.00     0.223 A 
ENDROOT
BRANCH   1  11
ATOM     11  C   UNL     1       2.819 -20.214  -4.764  1.00  0.00     0.084 A 
ATOM     12  C   UNL     1       1.506 -20.551  -5.139  1.00  0.00     0.022 A 
ATOM     13  C   UNL     1       0.525 -20.763  -4.166  1.00  0.00     0.047 A 
ATOM     14  C   UNL     1       0.847 -20.654  -2.807  1.00  0.00     0.115 A 
ATOM     15  C   UNL     1       3.137 -20.127  -3.398  1.00  0.00     0.022 A 
ATOM     16  C   UNL     1       2.154 -20.339  -2.427  1.00  0.00     0.047 A 
BRANCH  14  17
ATOM     17  O   UNL     1      -0.122 -20.861  -1.828  1.00  0.00    -0.508 OA
ATOM     18  H   UNL     1       0.078 -20.713  -0.845  1.00  0.00     0.293 HD
ENDBRANCH  14  17
ENDBRANCH   1  11
BRANCH  10  19
ATOM     19  O   UNL     1       3.283 -17.667  -6.103  1.00  0.00    -0.500 OA
ATOM     20  H   UNL     1       3.037 -17.449  -5.143  1.00  0.00     0.294 HD
ENDBRANCH  10  19
BRANCH   5  21
ATOM     21  O   UNL     1       8.295 -23.159  -8.347  1.00  0.00    -0.507 OA
ATOM     22  H   UNL     1       9.038 -23.423  -7.712  1.00  0.00     0.293 HD
ENDBRANCH   5  21
BRANCH   7  23
ATOM     23  O   UNL     1       7.265 -18.583  -9.373  1.00  0.00    -0.507 OA
ATOM     24  H   UNL     1       6.647 -17.795  -9.491  1.00  0.00     0.293 HD
ENDBRANCH   7  23
TORSDOF 5
ENDMDL
MODEL 7
REMARK VINA RESULT:    -5.895      2.381      3.418
REMARK INTER + INTRA:          -7.181
REMARK INTER:                  -6.883
REMARK INTRA:                  -0.298
REMARK UNBOUND:                -0.252
REMARK SMILES Oc1ccc(-c2[o+]c3cc(O)cc(O)c3cc2O)cc1
REMARK SMILES IDX 6 1 7 2 8 3 9 4 10 5 12 6 13 7 15 8 16 9 17 10 5 11 4 12
REMARK SMILES IDX 3 13 2 14 19 15 20 16 1 17 18 19 11 21 14 23
REMARK H PARENT 1 18 18 20 11 22 14 24
REMARK Flexibility Score: inf
ROOT
ATOM      1  C   UNL     1       2.485 -18.589  -5.337  1.00  0.00     0.401 A 
ATOM      2  O   UNL     1       3.379 -18.701  -4.358  1.00  0.00    -0.202 OA
ATOM      3  C   UNL     1       3.916 -17.657  -3.737  1.00  0.00     0.368 A 
ATOM      4  C   UNL     1       4.850 -17.877  -2.722  1.00  0.00     0.162 A 
ATOM      5  C   UNL     1       5.433 -16.796  -2.052  1.00  0.00     0.128 A 
ATOM      6  C   UNL     1       5.081 -15.491  -2.402  1.00  0.00     0.093 A 
ATOM      7  C   UNL     1       4.147 -15.243  -3.416  1.00  0.00     0.136 A 
ATOM      8  C   UNL     1       3.551 -16.337  -4.096  1.00  0.00     0.125 A 
ATOM      9  C   UNL     1       2.596 -16.185  -5.116  1.00  0.00     0.078 A 
ATOM     10  C   UNL     1       2.049 -17.311  -5.737  1.00  0.00     0.223 A 
ENDROOT
BRANCH   1  11
ATOM     11  C   UNL     1       1.967 -19.829  -5.960  1.00  0.00     0.084 A 
ATOM     12  C   UNL     1       2.443 -20.280  -7.204  1.00  0.00     0.022 A 
ATOM     13  C   UNL     1       1.955 -21.466  -7.761  1.00  0.00     0.047 A 
ATOM     14  C   UNL     1       0.997 -22.223  -7.075  1.00  0.00     0.115 A 
ATOM     15  C   UNL     1       1.021 -20.605  -5.269  1.00  0.00     0.022 A 
ATOM     16  C   UNL     1       0.534 -21.791  -5.828  1.00  0.00     0.047 A 
BRANCH  14  17
ATOM     17  O   UNL     1       0.502 -23.406  -7.619  1.00  0.00    -0.508 OA
ATOM     18  H   UNL     1      -0.337 -23.416  -8.188  1.00  0.00     0.293 HD
ENDBRANCH  14  17
ENDBRANCH   1  11
BRANCH  10  19
ATOM     19  O   UNL     1       1.065 -17.162  -6.714  1.00  0.00    -0.500 OA
ATOM     20  H   UNL     1       0.106 -16.933  -6.474  1.00  0.00     0.294 HD
ENDBRANCH  10  19
BRANCH   5  21
ATOM     21  O   UNL     1       6.365 -17.009  -1.039  1.00  0.00    -0.507 OA
ATOM     22  H   UNL     1       6.351 -16.469  -0.183  1.00  0.00     0.293 HD
ENDBRANCH   5  21
BRANCH   7  23
ATOM     23  O   UNL     1       3.851 -13.909  -3.708  1.00  0.00    -0.507 OA
ATOM     24  H   UNL     1       3.551 -13.575  -4.611  1.00  0.00     0.293 HD
ENDBRANCH   7  23
TORSDOF 5
ENDMDL
MODEL 8
REMARK VINA RESULT:    -5.810     11.585     13.279
REMARK INTER + INTRA:          -7.081
REMARK INTER:                  -6.760
REMARK INTRA:                  -0.320
REMARK UNBOUND:                -0.252
REMARK SMILES Oc1ccc(-c2[o+]c3cc(O)cc(O)c3cc2O)cc1
REMARK SMILES IDX 6 1 7 2 8 3 9 4 10 5 12 6 13 7 15 8 16 9 17 10 5 11 4 12
REMARK SMILES IDX 3 13 2 14 19 15 20 16 1 17 18 19 11 21 14 23
REMARK H PARENT 1 18 18 20 11 22 14 24
REMARK Flexibility Score: inf
ROOT
ATOM      1  C   UNL     1       3.804 -26.081   6.556  1.00  0.00     0.401 A 
ATOM      2  O   UNL     1       4.014 -24.769   6.605  1.00  0.00    -0.202 OA
ATOM      3  C   UNL     1       4.912 -24.145   5.851  1.00  0.00     0.368 A 
ATOM      4  C   UNL     1       5.061 -22.761   5.976  1.00  0.00     0.162 A 
ATOM      5  C   UNL     1       6.001 -22.079   5.196  1.00  0.00     0.128 A 
ATOM      6  C   UNL     1       6.794 -22.785   4.288  1.00  0.00     0.093 A 
ATOM      7  C   UNL     1       6.663 -24.171   4.143  1.00  0.00     0.136 A 
ATOM      8  C   UNL     1       5.710 -24.867   4.931  1.00  0.00     0.125 A 
ATOM      9  C   UNL     1       5.500 -26.254   4.843  1.00  0.00     0.078 A 
ATOM     10  C   UNL     1       4.538 -26.869   5.649  1.00  0.00     0.223 A 
ENDROOT
BRANCH   1  11
ATOM     11  C   UNL     1       2.781 -26.662   7.456  1.00  0.00     0.084 A 
ATOM     12  C   UNL     1       3.107 -27.101   8.752  1.00  0.00     0.022 A 
ATOM     13  C   UNL     1       2.119 -27.624   9.591  1.00  0.00     0.047 A 
ATOM     14  C   UNL     1       0.792 -27.702   9.152  1.00  0.00     0.115 A 
ATOM     15  C   UNL     1       1.443 -26.725   7.032  1.00  0.00     0.022 A 
ATOM     16  C   UNL     1       0.456 -27.249   7.873  1.00  0.00     0.047 A 
BRANCH  14  17
ATOM     17  O   UNL     1      -0.201 -28.222   9.979  1.00  0.00    -0.508 OA
ATOM     18  H   UNL     1      -0.682 -27.643  10.658  1.00  0.00     0.293 HD
ENDBRANCH  14  17
ENDBRANCH   1  11
BRANCH  10  19
ATOM     19  O   UNL     1       4.294 -28.237   5.527  1.00  0.00    -0.500 OA
ATOM     20  H   UNL     1       4.610 -28.899   6.228  1.00  0.00     0.294 HD
ENDBRANCH  10  19
BRANCH   5  21
ATOM     21  O   UNL     1       6.155 -20.700   5.317  1.00  0.00    -0.507 OA
ATOM     22  H   UNL     1       6.135 -20.091   4.508  1.00  0.00     0.293 HD
ENDBRANCH   5  21
BRANCH   7  23
ATOM     23  O   UNL     1       7.496 -24.803   3.216  1.00  0.00    -0.507 OA
ATOM     24  H   UNL     1       7.173 -25.424   2.489  1.00  0.00     0.293 HD
ENDBRANCH   7  23
TORSDOF 5
ENDMDL
MODEL 9
REMARK VINA RESULT:    -5.799     11.153     12.173
REMARK INTER + INTRA:          -7.067
REMARK INTER:                  -6.750
REMARK INTRA:                  -0.318
REMARK UNBOUND:                -0.252
REMARK SMILES Oc1ccc(-c2[o+]c3cc(O)cc(O)c3cc2O)cc1
REMARK SMILES IDX 6 1 7 2 8 3 9 4 10 5 12 6 13 7 15 8 16 9 17 10 5 11 4 12
REMARK SMILES IDX 3 13 2 14 19 15 20 16 1 17 18 19 11 21 14 23
REMARK H PARENT 1 18 18 20 11 22 14 24
REMARK Flexibility Score: inf
ROOT
ATOM      1  C   UNL     1      -9.250 -21.174  -0.025  1.00  0.00     0.401 A 
ATOM      2  O   UNL     1      -9.018 -21.199   1.285  1.00  0.00    -0.202 OA
ATOM      3  C   UNL     1      -9.245 -20.164   2.086  1.00  0.00     0.368 A 
ATOM      4  C   UNL     1      -8.967 -20.287   3.450  1.00  0.00     0.162 A 
ATOM      5  C   UNL     1      -9.194 -19.213   4.316  1.00  0.00     0.128 A 
ATOM      6  C   UNL     1      -9.700 -18.011   3.816  1.00  0.00     0.093 A 
ATOM      7  C   UNL     1      -9.987 -17.863   2.453  1.00  0.00     0.136 A 
ATOM      8  C   UNL     1      -9.761 -18.951   1.570  1.00  0.00     0.125 A 
ATOM      9  C   UNL     1     -10.032 -18.898   0.193  1.00  0.00     0.078 A 
ATOM     10  C   UNL     1      -9.788 -20.013  -0.613  1.00  0.00     0.223 A 
ENDROOT
BRANCH   1  11
ATOM     11  C   UNL     1      -8.946 -22.389  -0.814  1.00  0.00     0.084 A 
ATOM     12  C   UNL     1      -7.732 -22.527  -1.511  1.00  0.00     0.022 A 
ATOM     13  C   UNL     1      -7.458 -23.694  -2.231  1.00  0.00     0.047 A 
ATOM     14  C   UNL     1      -8.387 -24.742  -2.252  1.00  0.00     0.115 A 
ATOM     15  C   UNL     1      -9.863 -23.454  -0.825  1.00  0.00     0.022 A 
ATOM     16  C   UNL     1      -9.587 -24.620  -1.546  1.00  0.00     0.047 A 
BRANCH  14  17
ATOM     17  O   UNL     1      -8.127 -25.909  -2.967  1.00  0.00    -0.508 OA
ATOM     18  H   UNL     1      -7.680 -25.884  -3.877  1.00  0.00     0.293 HD
ENDBRANCH  14  17
ENDBRANCH   1  11
BRANCH  10  19
ATOM     19  O   UNL     1     -10.103 -19.978  -1.971  1.00  0.00    -0.500 OA
ATOM     20  H   UNL     1     -11.060 -19.882  -2.294  1.00  0.00     0.294 HD
ENDBRANCH  10  19
BRANCH   5  21
ATOM     21  O   UNL     1      -8.919 -19.329   5.677  1.00  0.00    -0.507 OA
ATOM     22  H   UNL     1      -8.089 -18.918   6.087  1.00  0.00     0.293 HD
ENDBRANCH   5  21
BRANCH   7  23
ATOM     23  O   UNL     1     -10.488 -16.628   2.031  1.00  0.00    -0.507 OA
ATOM     24  H   UNL     1     -10.951 -15.964   2.633  1.00  0.00     0.293 HD
ENDBRANCH   7  23
TORSDOF 5
ENDMDL
