MODEL 1
REMARK VINA RESULT:    -6.689      0.000      0.000
REMARK INTER + INTRA:         -12.552
REMARK INTER:                  -9.230
REMARK INTRA:                  -3.322
REMARK UNBOUND:                -3.322
REMARK SMILES CC[C@H](CC[C@@H](C)[C@H]1CC[C@@H]2[C@H]3CC=C4C[C@@H](O)CC[C@@]4(C)[C@H]3CC[C@]21C)C(C)C
REMARK SMILES IDX 5 1 4 2 3 3 2 4 1 5 28 6 29 7 30 8 6 9 7 10 8 11 9 12 26 13
REMARK SMILES IDX 10 14 11 15 25 16 27 17 12 18 24 19 23 20 13 21 21 22 14 23
REMARK SMILES IDX 15 24 20 25 22 26 16 27 19 28 17 29 18 30
REMARK H PARENT 18 31
REMARK Flexibility Score: inf
ROOT
ATOM      1  C   UNL     1     183.792 -23.126  30.545  1.00  0.00     0.004 C 
ENDROOT
BRANCH   1   2
ATOM      2  C   UNL     1     184.022 -21.909  31.458  1.00  0.00     0.004 C 
BRANCH   2   3
ATOM      3  C   UNL     1     183.729 -22.171  32.965  1.00  0.00    -0.009 C 
BRANCH   3   4
ATOM      4  C   UNL     1     185.077 -22.340  33.721  1.00  0.00     0.000 C 
ATOM      5  C   UNL     1     185.983 -21.109  33.614  1.00  0.00     0.004 C 
ENDBRANCH   3   4
BRANCH   3   6
ATOM      6  C   UNL     1     182.824 -21.096  33.671  1.00  0.00    -0.014 C 
ATOM      7  C   UNL     1     181.429 -20.932  33.044  1.00  0.00     0.007 C 
ATOM      8  C   UNL     1     182.724 -21.303  35.191  1.00  0.00     0.007 C 
ENDBRANCH   3   6
ENDBRANCH   2   3
ENDBRANCH   1   2
BRANCH   1   9
ATOM      9  C   UNL     1     182.368 -23.737  30.716  1.00  0.00    -0.011 C 
ATOM     10  C   UNL     1     181.488 -23.484  29.477  1.00  0.00     0.008 C 
BRANCH   9  11
ATOM     11  C   UNL     1     182.389 -25.222  31.233  1.00  0.00    -0.002 C 
ATOM     12  C   UNL     1     183.804 -25.848  31.092  1.00  0.00     0.005 C 
ATOM     13  C   UNL     1     181.964 -25.570  32.705  1.00  0.00    -0.026 C 
ATOM     14  C   UNL     1     184.315 -26.173  32.500  1.00  0.00     0.005 C 
ATOM     15  C   UNL     1     183.305 -25.535  33.452  1.00  0.00    -0.001 C 
ATOM     16  C   UNL     1     180.948 -24.638  33.438  1.00  0.00     0.007 C 
ATOM     17  C   UNL     1     181.359 -27.013  32.659  1.00  0.00     0.012 C 
ATOM     18  C   UNL     1     183.232 -26.114  34.895  1.00  0.00     0.000 C 
ATOM     19  C   UNL     1     181.274 -24.407  34.937  1.00  0.00     0.005 C 
ATOM     20  C   UNL     1     181.911 -25.645  35.647  1.00  0.00     0.003 C 
ATOM     21  C   UNL     1     184.553 -25.790  35.658  1.00  0.00     0.031 C 
ATOM     22  C   UNL     1     182.122 -25.429  37.197  1.00  0.00    -0.008 C 
ATOM     23  C   UNL     1     184.420 -24.653  36.629  1.00  0.00    -0.027 C 
ATOM     24  C   UNL     1     183.320 -24.482  37.387  1.00  0.00    -0.065 C 
ATOM     25  C   UNL     1     180.807 -24.914  37.894  1.00  0.00     0.014 C 
ATOM     26  C   UNL     1     182.440 -26.796  37.869  1.00  0.00     0.016 C 
ATOM     27  C   UNL     1     183.286 -23.244  38.266  1.00  0.00     0.063 C 
ATOM     28  C   UNL     1     180.792 -23.415  38.197  1.00  0.00     0.033 C 
ATOM     29  C   UNL     1     181.992 -23.071  39.068  1.00  0.00     0.118 C 
BRANCH  29  30
ATOM     30  O   UNL     1     181.877 -21.744  39.509  1.00  0.00    -0.393 OA
ATOM     31  H   UNL     1     182.428 -21.666  40.331  1.00  0.00     0.210 HD
ENDBRANCH  29  30
ENDBRANCH   9  11
ENDBRANCH   1   9
TORSDOF 7
ENDMDL
MODEL 2
REMARK VINA RESULT:    -6.598      2.774      6.053
REMARK INTER + INTRA:         -12.426
REMARK INTER:                  -9.479
REMARK INTRA:                  -2.947
REMARK UNBOUND:                -3.322
REMARK SMILES CC[C@H](CC[C@@H](C)[C@H]1CC[C@@H]2[C@H]3CC=C4C[C@@H](O)CC[C@@]4(C)[C@H]3CC[C@]21C)C(C)C
REMARK SMILES IDX 5 1 4 2 3 3 2 4 1 5 28 6 29 7 30 8 6 9 7 10 8 11 9 12 26 13
REMARK SMILES IDX 10 14 11 15 25 16 27 17 12 18 24 19 23 20 13 21 21 22 14 23
REMARK SMILES IDX 15 24 20 25 22 26 16 27 19 28 17 29 18 30
REMARK H PARENT 18 31
REMARK Flexibility Score: inf
ROOT
ATOM      1  C   UNL     1     183.298 -22.411  35.274  1.00  0.00     0.004 C 
ENDROOT
BRANCH   1   2
ATOM      2  C   UNL     1     183.057 -23.507  34.221  1.00  0.00     0.004 C 
BRANCH   2   3
ATOM      3  C   UNL     1     183.070 -24.958  34.788  1.00  0.00    -0.009 C 
BRANCH   3   4
ATOM      4  C   UNL     1     181.728 -25.655  34.425  1.00  0.00     0.000 C 
ATOM      5  C   UNL     1     180.501 -24.792  34.737  1.00  0.00     0.004 C 
ENDBRANCH   3   4
BRANCH   3   6
ATOM      6  C   UNL     1     184.294 -25.841  34.348  1.00  0.00    -0.014 C 
ATOM      7  C   UNL     1     185.061 -26.488  35.513  1.00  0.00     0.007 C 
ATOM      8  C   UNL     1     183.926 -26.886  33.282  1.00  0.00     0.007 C 
ENDBRANCH   3   6
ENDBRANCH   2   3
ENDBRANCH   1   2
BRANCH   1   9
ATOM      9  C   UNL     1     184.221 -22.893  36.434  1.00  0.00    -0.011 C 
ATOM     10  C   UNL     1     185.669 -22.400  36.252  1.00  0.00     0.008 C 
BRANCH   9  11
ATOM     11  C   UNL     1     183.603 -22.650  37.859  1.00  0.00    -0.002 C 
ATOM     12  C   UNL     1     182.617 -21.450  37.849  1.00  0.00     0.005 C 
ATOM     13  C   UNL     1     182.812 -23.787  38.601  1.00  0.00    -0.026 C 
ATOM     14  C   UNL     1     181.222 -21.987  38.194  1.00  0.00     0.005 C 
ATOM     15  C   UNL     1     181.362 -23.507  38.179  1.00  0.00    -0.001 C 
ATOM     16  C   UNL     1     183.156 -25.276  38.285  1.00  0.00     0.007 C 
ATOM     17  C   UNL     1     183.030 -23.549  40.133  1.00  0.00     0.012 C 
ATOM     18  C   UNL     1     180.308 -24.321  38.987  1.00  0.00     0.000 C 
ATOM     19  C   UNL     1     181.917 -26.208  38.215  1.00  0.00     0.005 C 
ATOM     20  C   UNL     1     180.776 -25.825  39.211  1.00  0.00     0.003 C 
ATOM     21  C   UNL     1     178.908 -24.179  38.314  1.00  0.00     0.031 C 
ATOM     22  C   UNL     1     179.580 -26.855  39.208  1.00  0.00    -0.008 C 
ATOM     23  C   UNL     1     178.505 -25.381  37.511  1.00  0.00    -0.027 C 
ATOM     24  C   UNL     1     178.768 -26.638  37.919  1.00  0.00    -0.065 C 
ATOM     25  C   UNL     1     180.090 -28.335  39.380  1.00  0.00     0.014 C 
ATOM     26  C   UNL     1     178.666 -26.586  40.439  1.00  0.00     0.016 C 
ATOM     27  C   UNL     1     178.377 -27.756  36.970  1.00  0.00     0.063 C 
ATOM     28  C   UNL     1     180.131 -29.147  38.084  1.00  0.00     0.033 C 
ATOM     29  C   UNL     1     178.743 -29.161  37.460  1.00  0.00     0.118 C 
BRANCH  29  30
ATOM     30  O   UNL     1     178.730 -30.061  36.384  1.00  0.00    -0.393 OA
ATOM     31  H   UNL     1     178.202 -29.634  35.659  1.00  0.00     0.210 HD
ENDBRANCH  29  30
ENDBRANCH   9  11
ENDBRANCH   1   9
TORSDOF 7
ENDMDL
MODEL 3
REMARK VINA RESULT:    -6.534      1.945      4.511
REMARK INTER + INTRA:         -12.338
REMARK INTER:                  -8.944
REMARK INTRA:                  -3.394
REMARK UNBOUND:                -3.322
REMARK SMILES CC[C@H](CC[C@@H](C)[C@H]1CC[C@@H]2[C@H]3CC=C4C[C@@H](O)CC[C@@]4(C)[C@H]3CC[C@]21C)C(C)C
REMARK SMILES IDX 5 1 4 2 3 3 2 4 1 5 28 6 29 7 30 8 6 9 7 10 8 11 9 12 26 13
REMARK SMILES IDX 10 14 11 15 25 16 27 17 12 18 24 19 23 20 13 21 21 22 14 23
REMARK SMILES IDX 15 24 20 25 22 26 16 27 19 28 17 29 18 30
REMARK H PARENT 18 31
REMARK Flexibility Score: inf
ROOT
ATOM      1  C   UNL     1     182.258 -24.146  31.979  1.00  0.00     0.004 C 
ENDROOT
BRANCH   1   2
ATOM      2  C   UNL     1     180.873 -24.652  32.420  1.00  0.00     0.004 C 
BRANCH   2   3
ATOM      3  C   UNL     1     180.726 -24.868  33.955  1.00  0.00    -0.009 C 
BRANCH   3   4
ATOM      4  C   UNL     1     179.474 -24.093  34.457  1.00  0.00     0.000 C 
ATOM      5  C   UNL     1     179.557 -22.586  34.194  1.00  0.00     0.004 C 
ENDBRANCH   3   4
BRANCH   3   6
ATOM      6  C   UNL     1     180.679 -26.368  34.422  1.00  0.00    -0.014 C 
ATOM      7  C   UNL     1     179.790 -26.622  35.651  1.00  0.00     0.007 C 
ATOM      8  C   UNL     1     180.333 -27.340  33.281  1.00  0.00     0.007 C 
ENDBRANCH   3   6
ENDBRANCH   2   3
ENDBRANCH   1   2
BRANCH   1   9
ATOM      9  C   UNL     1     183.419 -24.824  32.768  1.00  0.00    -0.011 C 
ATOM     10  C   UNL     1     184.327 -25.655  31.842  1.00  0.00     0.008 C 
BRANCH   9  11
ATOM     11  C   UNL     1     184.169 -23.837  33.736  1.00  0.00    -0.002 C 
ATOM     12  C   UNL     1     183.670 -22.378  33.551  1.00  0.00     0.005 C 
ATOM     13  C   UNL     1     184.141 -24.055  35.291  1.00  0.00    -0.026 C 
ATOM     14  C   UNL     1     183.019 -21.935  34.868  1.00  0.00     0.005 C 
ATOM     15  C   UNL     1     182.942 -23.198  35.723  1.00  0.00    -0.001 C 
ATOM     16  C   UNL     1     183.960 -25.502  35.848  1.00  0.00     0.007 C 
ATOM     17  C   UNL     1     185.493 -23.486  35.840  1.00  0.00     0.012 C 
ATOM     18  C   UNL     1     182.836 -23.002  37.263  1.00  0.00     0.000 C 
ATOM     19  C   UNL     1     183.044 -25.586  37.097  1.00  0.00     0.005 C 
ATOM     20  C   UNL     1     183.151 -24.350  38.048  1.00  0.00     0.003 C 
ATOM     21  C   UNL     1     181.459 -22.361  37.617  1.00  0.00     0.031 C 
ATOM     22  C   UNL     1     182.304 -24.511  39.370  1.00  0.00    -0.008 C 
ATOM     23  C   UNL     1     180.464 -23.343  38.162  1.00  0.00    -0.027 C 
ATOM     24  C   UNL     1     180.819 -24.328  39.010  1.00  0.00    -0.065 C 
ATOM     25  C   UNL     1     182.605 -25.880  40.088  1.00  0.00     0.014 C 
ATOM     26  C   UNL     1     182.722 -23.410  40.386  1.00  0.00     0.016 C 
ATOM     27  C   UNL     1     179.725 -25.300  39.418  1.00  0.00     0.063 C 
ATOM     28  C   UNL     1     181.541 -26.959  39.873  1.00  0.00     0.033 C 
ATOM     29  C   UNL     1     180.193 -26.429  40.342  1.00  0.00     0.118 C 
BRANCH  29  30
ATOM     30  O   UNL     1     179.257 -27.474  40.331  1.00  0.00    -0.393 OA
ATOM     31  H   UNL     1     179.720 -28.278  40.685  1.00  0.00     0.210 HD
ENDBRANCH  29  30
ENDBRANCH   9  11
ENDBRANCH   1   9
TORSDOF 7
ENDMDL
MODEL 4
REMARK VINA RESULT:    -6.472      3.153      7.439
REMARK INTER + INTRA:         -12.253
REMARK INTER:                 -10.050
REMARK INTRA:                  -2.204
REMARK UNBOUND:                -3.322
REMARK SMILES CC[C@H](CC[C@@H](C)[C@H]1CC[C@@H]2[C@H]3CC=C4C[C@@H](O)CC[C@@]4(C)[C@H]3CC[C@]21C)C(C)C
REMARK SMILES IDX 5 1 4 2 3 3 2 4 1 5 28 6 29 7 30 8 6 9 7 10 8 11 9 12 26 13
REMARK SMILES IDX 10 14 11 15 25 16 27 17 12 18 24 19 23 20 13 21 21 22 14 23
REMARK SMILES IDX 15 24 20 25 22 26 16 27 19 28 17 29 18 30
REMARK H PARENT 18 31
REMARK Flexibility Score: inf
ROOT
ATOM      1  C   UNL     1     180.297 -27.679  39.211  1.00  0.00     0.004 C 
ENDROOT
BRANCH   1   2
ATOM      2  C   UNL     1     180.375 -28.194  37.763  1.00  0.00     0.004 C 
BRANCH   2   3
ATOM      3  C   UNL     1     178.991 -28.389  37.074  1.00  0.00    -0.009 C 
BRANCH   3   4
ATOM      4  C   UNL     1     178.946 -27.530  35.779  1.00  0.00     0.000 C 
ATOM      5  C   UNL     1     177.689 -26.659  35.681  1.00  0.00     0.004 C 
ENDBRANCH   3   4
BRANCH   3   6
ATOM      6  C   UNL     1     178.596 -29.879  36.770  1.00  0.00    -0.014 C 
ATOM      7  C   UNL     1     177.229 -30.300  37.335  1.00  0.00     0.007 C 
ATOM      8  C   UNL     1     178.711 -30.237  35.279  1.00  0.00     0.007 C 
ENDBRANCH   3   6
ENDBRANCH   2   3
ENDBRANCH   1   2
BRANCH   1   9
ATOM      9  C   UNL     1     179.628 -26.275  39.309  1.00  0.00    -0.011 C 
ATOM     10  C   UNL     1     178.495 -26.256  40.352  1.00  0.00     0.008 C 
BRANCH   9  11
ATOM     11  C   UNL     1     180.667 -25.100  39.424  1.00  0.00    -0.002 C 
ATOM     12  C   UNL     1     181.933 -25.541  40.209  1.00  0.00     0.005 C 
ATOM     13  C   UNL     1     181.239 -24.400  38.140  1.00  0.00    -0.026 C 
ATOM     14  C   UNL     1     183.128 -25.463  39.251  1.00  0.00     0.005 C 
ATOM     15  C   UNL     1     182.523 -25.199  37.874  1.00  0.00    -0.001 C 
ATOM     16  C   UNL     1     180.373 -24.380  36.841  1.00  0.00     0.007 C 
ATOM     17  C   UNL     1     181.547 -22.919  38.545  1.00  0.00     0.012 C 
ATOM     18  C   UNL     1     183.454 -24.552  36.807  1.00  0.00     0.000 C 
ATOM     19  C   UNL     1     181.187 -24.597  35.538  1.00  0.00     0.005 C 
ATOM     20  C   UNL     1     182.623 -23.982  35.575  1.00  0.00     0.003 C 
ATOM     21  C   UNL     1     184.578 -25.557  36.412  1.00  0.00     0.031 C 
ATOM     22  C   UNL     1     183.387 -24.109  34.199  1.00  0.00    -0.008 C 
ATOM     23  C   UNL     1     184.342 -26.230  35.091  1.00  0.00    -0.027 C 
ATOM     24  C   UNL     1     183.828 -25.574  34.033  1.00  0.00    -0.065 C 
ATOM     25  C   UNL     1     182.511 -23.584  33.000  1.00  0.00     0.014 C 
ATOM     26  C   UNL     1     184.646 -23.196  34.223  1.00  0.00     0.016 C 
ATOM     27  C   UNL     1     183.566 -26.398  32.784  1.00  0.00     0.063 C 
ATOM     28  C   UNL     1     181.854 -24.684  32.162  1.00  0.00     0.033 C 
ATOM     29  C   UNL     1     182.934 -25.615  31.629  1.00  0.00     0.118 C 
BRANCH  29  30
ATOM     30  O   UNL     1     182.362 -26.504  30.706  1.00  0.00    -0.393 OA
ATOM     31  H   UNL     1     182.845 -26.376  29.848  1.00  0.00     0.210 HD
ENDBRANCH  29  30
ENDBRANCH   9  11
ENDBRANCH   1   9
TORSDOF 7
ENDMDL
MODEL 5
REMARK VINA RESULT:    -6.411      2.220      6.194
REMARK INTER + INTRA:         -12.169
REMARK INTER:                  -8.846
REMARK INTRA:                  -3.323
REMARK UNBOUND:                -3.322
REMARK SMILES CC[C@H](CC[C@@H](C)[C@H]1CC[C@@H]2[C@H]3CC=C4C[C@@H](O)CC[C@@]4(C)[C@H]3CC[C@]21C)C(C)C
REMARK SMILES IDX 5 1 4 2 3 3 2 4 1 5 28 6 29 7 30 8 6 9 7 10 8 11 9 12 26 13
REMARK SMILES IDX 10 14 11 15 25 16 27 17 12 18 24 19 23 20 13 21 21 22 14 23
REMARK SMILES IDX 15 24 20 25 22 26 16 27 19 28 17 29 18 30
REMARK H PARENT 18 31
REMARK Flexibility Score: inf
ROOT
ATOM      1  C   UNL     1     180.731 -24.484  38.875  1.00  0.00     0.004 C 
ENDROOT
BRANCH   1   2
ATOM      2  C   UNL     1     180.471 -22.973  38.743  1.00  0.00     0.004 C 
BRANCH   2   3
ATOM      3  C   UNL     1     181.660 -22.165  38.146  1.00  0.00    -0.009 C 
BRANCH   3   4
ATOM      4  C   UNL     1     181.209 -21.516  36.807  1.00  0.00     0.000 C 
ATOM      5  C   UNL     1     179.940 -22.152  36.230  1.00  0.00     0.004 C 
ENDBRANCH   3   4
BRANCH   3   6
ATOM      6  C   UNL     1     182.291 -21.089  39.103  1.00  0.00    -0.014 C 
ATOM      7  C   UNL     1     183.417 -21.623  40.004  1.00  0.00     0.007 C 
ATOM      8  C   UNL     1     182.734 -19.815  38.362  1.00  0.00     0.007 C 
ENDBRANCH   3   6
ENDBRANCH   2   3
ENDBRANCH   1   2
BRANCH   1   9
ATOM      9  C   UNL     1     182.251 -24.819  38.976  1.00  0.00    -0.011 C 
ATOM     10  C   UNL     1     182.633 -25.305  40.387  1.00  0.00     0.008 C 
BRANCH   9  11
ATOM     11  C   UNL     1     182.766 -25.718  37.793  1.00  0.00    -0.002 C 
ATOM     12  C   UNL     1     181.594 -26.463  37.098  1.00  0.00     0.005 C 
ATOM     13  C   UNL     1     183.582 -25.096  36.603  1.00  0.00    -0.026 C 
ATOM     14  C   UNL     1     181.515 -25.963  35.650  1.00  0.00     0.005 C 
ATOM     15  C   UNL     1     182.482 -24.783  35.578  1.00  0.00    -0.001 C 
ATOM     16  C   UNL     1     184.424 -23.806  36.858  1.00  0.00     0.007 C 
ATOM     17  C   UNL     1     184.549 -26.219  36.097  1.00  0.00     0.012 C 
ATOM     18  C   UNL     1     183.028 -24.403  34.171  1.00  0.00     0.000 C 
ATOM     19  C   UNL     1     184.379 -22.785  35.690  1.00  0.00     0.005 C 
ATOM     20  C   UNL     1     184.292 -23.441  34.275  1.00  0.00     0.003 C 
ATOM     21  C   UNL     1     181.868 -23.846  33.291  1.00  0.00     0.031 C 
ATOM     22  C   UNL     1     184.369 -22.390  33.099  1.00  0.00    -0.008 C 
ATOM     23  C   UNL     1     181.879 -22.351  33.164  1.00  0.00    -0.027 C 
ATOM     24  C   UNL     1     183.022 -21.649  33.033  1.00  0.00    -0.065 C 
ATOM     25  C   UNL     1     185.602 -21.423  33.267  1.00  0.00     0.014 C 
ATOM     26  C   UNL     1     184.608 -23.137  31.756  1.00  0.00     0.016 C 
ATOM     27  C   UNL     1     182.891 -20.137  32.997  1.00  0.00     0.063 C 
ATOM     28  C   UNL     1     185.253 -20.037  33.812  1.00  0.00     0.033 C 
ATOM     29  C   UNL     1     184.223 -19.387  32.898  1.00  0.00     0.118 C 
BRANCH  29  30
ATOM     30  O   UNL     1     184.048 -18.048  33.279  1.00  0.00    -0.393 OA
ATOM     31  H   UNL     1     184.809 -17.817  33.874  1.00  0.00     0.210 HD
ENDBRANCH  29  30
ENDBRANCH   9  11
ENDBRANCH   1   9
TORSDOF 7
ENDMDL
MODEL 6
REMARK VINA RESULT:    -6.402      2.685      6.258
REMARK INTER + INTRA:         -12.157
REMARK INTER:                  -8.708
REMARK INTRA:                  -3.449
REMARK UNBOUND:                -3.322
REMARK SMILES CC[C@H](CC[C@@H](C)[C@H]1CC[C@@H]2[C@H]3CC=C4C[C@@H](O)CC[C@@]4(C)[C@H]3CC[C@]21C)C(C)C
REMARK SMILES IDX 5 1 4 2 3 3 2 4 1 5 28 6 29 7 30 8 6 9 7 10 8 11 9 12 26 13
REMARK SMILES IDX 10 14 11 15 25 16 27 17 12 18 24 19 23 20 13 21 21 22 14 23
REMARK SMILES IDX 15 24 20 25 22 26 16 27 19 28 17 29 18 30
REMARK H PARENT 18 31
REMARK Flexibility Score: inf
ROOT
ATOM      1  C   UNL     1     178.695 -27.991  36.904  1.00  0.00     0.004 C 
ENDROOT
BRANCH   1   2
ATOM      2  C   UNL     1     179.010 -28.115  35.402  1.00  0.00     0.004 C 
BRANCH   2   3
ATOM      3  C   UNL     1     179.322 -26.762  34.697  1.00  0.00    -0.009 C 
BRANCH   3   4
ATOM      4  C   UNL     1     180.682 -26.880  33.953  1.00  0.00     0.000 C 
ATOM      5  C   UNL     1     180.899 -25.770  32.920  1.00  0.00     0.004 C 
ENDBRANCH   3   4
BRANCH   3   6
ATOM      6  C   UNL     1     178.200 -26.234  33.730  1.00  0.00    -0.014 C 
ATOM      7  C   UNL     1     177.080 -27.248  33.444  1.00  0.00     0.007 C 
ATOM      8  C   UNL     1     177.619 -24.879  34.170  1.00  0.00     0.007 C 
ENDBRANCH   3   6
ENDBRANCH   2   3
ENDBRANCH   1   2
BRANCH   1   9
ATOM      9  C   UNL     1     178.555 -26.507  37.362  1.00  0.00    -0.011 C 
ATOM     10  C   UNL     1     177.127 -26.195  37.847  1.00  0.00     0.008 C 
BRANCH   9  11
ATOM     11  C   UNL     1     179.708 -26.046  38.326  1.00  0.00    -0.002 C 
ATOM     12  C   UNL     1     180.538 -27.257  38.834  1.00  0.00     0.005 C 
ATOM     13  C   UNL     1     180.792 -25.013  37.852  1.00  0.00    -0.026 C 
ATOM     14  C   UNL     1     181.971 -27.094  38.311  1.00  0.00     0.005 C 
ATOM     15  C   UNL     1     181.911 -25.926  37.329  1.00  0.00    -0.001 C 
ATOM     16  C   UNL     1     180.417 -23.981  36.742  1.00  0.00     0.007 C 
ATOM     17  C   UNL     1     181.235 -24.220  39.128  1.00  0.00     0.012 C 
ATOM     18  C   UNL     1     183.245 -25.178  37.039  1.00  0.00     0.000 C 
ATOM     19  C   UNL     1     181.551 -23.719  35.717  1.00  0.00     0.005 C 
ATOM     20  C   UNL     1     182.988 -23.778  36.328  1.00  0.00     0.003 C 
ATOM     21  C   UNL     1     184.217 -26.121  36.267  1.00  0.00     0.031 C 
ATOM     22  C   UNL     1     184.117 -23.390  35.295  1.00  0.00    -0.008 C 
ATOM     23  C   UNL     1     184.297 -25.825  34.798  1.00  0.00    -0.027 C 
ATOM     24  C   UNL     1     184.293 -24.566  34.318  1.00  0.00    -0.065 C 
ATOM     25  C   UNL     1     183.799 -22.026  34.575  1.00  0.00     0.014 C 
ATOM     26  C   UNL     1     185.453 -23.155  36.057  1.00  0.00     0.016 C 
ATOM     27  C   UNL     1     184.296 -24.414  32.807  1.00  0.00     0.063 C 
ATOM     28  C   UNL     1     183.249 -22.169  33.155  1.00  0.00     0.033 C 
ATOM     29  C   UNL     1     184.240 -22.964  32.316  1.00  0.00     0.118 C 
BRANCH  29  30
ATOM     30  O   UNL     1     183.837 -22.931  30.972  1.00  0.00    -0.393 OA
ATOM     31  H   UNL     1     182.928 -22.532  30.954  1.00  0.00     0.210 HD
ENDBRANCH  29  30
ENDBRANCH   9  11
ENDBRANCH   1   9
TORSDOF 7
ENDMDL
MODEL 7
REMARK VINA RESULT:    -6.362      2.174      4.121
REMARK INTER + INTRA:         -12.101
REMARK INTER:                  -8.590
REMARK INTRA:                  -3.511
REMARK UNBOUND:                -3.322
REMARK SMILES CC[C@H](CC[C@@H](C)[C@H]1CC[C@@H]2[C@H]3CC=C4C[C@@H](O)CC[C@@]4(C)[C@H]3CC[C@]21C)C(C)C
REMARK SMILES IDX 5 1 4 2 3 3 2 4 1 5 28 6 29 7 30 8 6 9 7 10 8 11 9 12 26 13
REMARK SMILES IDX 10 14 11 15 25 16 27 17 12 18 24 19 23 20 13 21 21 22 14 23
REMARK SMILES IDX 15 24 20 25 22 26 16 27 19 28 17 29 18 30
REMARK H PARENT 18 31
REMARK Flexibility Score: inf
ROOT
ATOM      1  C   UNL     1     183.002 -22.011  33.696  1.00  0.00     0.004 C 
ENDROOT
BRANCH   1   2
ATOM      2  C   UNL     1     181.577 -21.717  34.199  1.00  0.00     0.004 C 
BRANCH   2   3
ATOM      3  C   UNL     1     180.793 -22.973  34.681  1.00  0.00    -0.009 C 
BRANCH   3   4
ATOM      4  C   UNL     1     180.297 -22.732  36.135  1.00  0.00     0.000 C 
ATOM      5  C   UNL     1     181.037 -21.590  36.839  1.00  0.00     0.004 C 
ENDBRANCH   3   4
BRANCH   3   6
ATOM      6  C   UNL     1     179.606 -23.422  33.753  1.00  0.00    -0.014 C 
ATOM      7  C   UNL     1     179.595 -22.753  32.369  1.00  0.00     0.007 C 
ATOM      8  C   UNL     1     179.489 -24.950  33.628  1.00  0.00     0.007 C 
ENDBRANCH   3   6
ENDBRANCH   2   3
ENDBRANCH   1   2
BRANCH   1   9
ATOM      9  C   UNL     1     183.255 -23.534  33.483  1.00  0.00    -0.011 C 
ATOM     10  C   UNL     1     183.518 -23.866  32.002  1.00  0.00     0.008 C 
BRANCH   9  11
ATOM     11  C   UNL     1     184.291 -24.138  34.501  1.00  0.00    -0.002 C 
ATOM     12  C   UNL     1     185.011 -23.020  35.303  1.00  0.00     0.005 C 
ATOM     13  C   UNL     1     183.838 -25.164  35.601  1.00  0.00    -0.026 C 
ATOM     14  C   UNL     1     184.640 -23.190  36.781  1.00  0.00     0.005 C 
ATOM     15  C   UNL     1     183.543 -24.252  36.800  1.00  0.00    -0.001 C 
ATOM     16  C   UNL     1     182.592 -26.064  35.326  1.00  0.00     0.007 C 
ATOM     17  C   UNL     1     185.067 -26.097  35.866  1.00  0.00     0.012 C 
ATOM     18  C   UNL     1     183.330 -25.023  38.136  1.00  0.00     0.000 C 
ATOM     19  C   UNL     1     181.680 -26.271  36.564  1.00  0.00     0.005 C 
ATOM     20  C   UNL     1     182.453 -26.334  37.921  1.00  0.00     0.003 C 
ATOM     21  C   UNL     1     182.774 -24.051  39.221  1.00  0.00     0.031 C 
ATOM     22  C   UNL     1     181.520 -26.665  39.151  1.00  0.00    -0.008 C 
ATOM     23  C   UNL     1     181.301 -24.203  39.463  1.00  0.00    -0.027 C 
ATOM     24  C   UNL     1     180.696 -25.407  39.476  1.00  0.00    -0.065 C 
ATOM     25  C   UNL     1     180.632 -27.936  38.878  1.00  0.00     0.014 C 
ATOM     26  C   UNL     1     182.401 -27.031  40.380  1.00  0.00     0.016 C 
ATOM     27  C   UNL     1     179.188 -25.407  39.651  1.00  0.00     0.063 C 
ATOM     28  C   UNL     1     179.181 -27.629  38.502  1.00  0.00     0.033 C 
ATOM     29  C   UNL     1     178.546 -26.798  39.608  1.00  0.00     0.118 C 
BRANCH  29  30
ATOM     30  O   UNL     1     177.169 -26.681  39.365  1.00  0.00    -0.393 OA
ATOM     31  H   UNL     1     177.064 -26.492  38.396  1.00  0.00     0.210 HD
ENDBRANCH  29  30
ENDBRANCH   9  11
ENDBRANCH   1   9
TORSDOF 7
ENDMDL
MODEL 8
REMARK VINA RESULT:    -6.293      1.889      3.618
REMARK INTER + INTRA:         -12.006
REMARK INTER:                  -8.633
REMARK INTRA:                  -3.374
REMARK UNBOUND:                -3.322
REMARK SMILES CC[C@H](CC[C@@H](C)[C@H]1CC[C@@H]2[C@H]3CC=C4C[C@@H](O)CC[C@@]4(C)[C@H]3CC[C@]21C)C(C)C
REMARK SMILES IDX 5 1 4 2 3 3 2 4 1 5 28 6 29 7 30 8 6 9 7 10 8 11 9 12 26 13
REMARK SMILES IDX 10 14 11 15 25 16 27 17 12 18 24 19 23 20 13 21 21 22 14 23
REMARK SMILES IDX 15 24 20 25 22 26 16 27 19 28 17 29 18 30
REMARK H PARENT 18 31
REMARK Flexibility Score: inf
ROOT
ATOM      1  C   UNL     1     183.750 -25.667  32.402  1.00  0.00     0.004 C 
ENDROOT
BRANCH   1   2
ATOM      2  C   UNL     1     183.864 -24.161  32.102  1.00  0.00     0.004 C 
BRANCH   2   3
ATOM      3  C   UNL     1     182.773 -23.285  32.786  1.00  0.00    -0.009 C 
BRANCH   3   4
ATOM      4  C   UNL     1     183.460 -22.076  33.483  1.00  0.00     0.000 C 
ATOM      5  C   UNL     1     184.989 -22.134  33.414  1.00  0.00     0.004 C 
ENDBRANCH   3   4
BRANCH   3   6
ATOM      6  C   UNL     1     181.612 -22.800  31.844  1.00  0.00    -0.014 C 
ATOM      7  C   UNL     1     181.698 -23.335  30.404  1.00  0.00     0.007 C 
ATOM      8  C   UNL     1     180.216 -23.045  32.441  1.00  0.00     0.007 C 
ENDBRANCH   3   6
ENDBRANCH   2   3
ENDBRANCH   1   2
BRANCH   1   9
ATOM      9  C   UNL     1     182.565 -25.994  33.361  1.00  0.00    -0.011 C 
ATOM     10  C   UNL     1     181.604 -27.029  32.745  1.00  0.00     0.008 C 
BRANCH   9  11
ATOM     11  C   UNL     1     183.025 -26.298  34.833  1.00  0.00    -0.002 C 
ATOM     12  C   UNL     1     184.573 -26.249  34.962  1.00  0.00     0.005 C 
ATOM     13  C   UNL     1     182.516 -25.424  36.035  1.00  0.00    -0.026 C 
ATOM     14  C   UNL     1     184.927 -25.104  35.918  1.00  0.00     0.005 C 
ATOM     15  C   UNL     1     183.616 -24.360  36.158  1.00  0.00    -0.001 C 
ATOM     16  C   UNL     1     181.130 -24.714  35.918  1.00  0.00     0.007 C 
ATOM     17  C   UNL     1     182.477 -26.370  37.283  1.00  0.00     0.012 C 
ATOM     18  C   UNL     1     183.517 -23.504  37.455  1.00  0.00     0.000 C 
ATOM     19  C   UNL     1     181.103 -23.285  36.521  1.00  0.00     0.005 C 
ATOM     20  C   UNL     1     182.010 -23.107  37.780  1.00  0.00     0.003 C 
ATOM     21  C   UNL     1     184.493 -22.292  37.360  1.00  0.00     0.031 C 
ATOM     22  C   UNL     1     181.874 -21.683  38.447  1.00  0.00    -0.008 C 
ATOM     23  C   UNL     1     183.809 -20.997  37.035  1.00  0.00    -0.027 C 
ATOM     24  C   UNL     1     182.611 -20.667  37.555  1.00  0.00    -0.065 C 
ATOM     25  C   UNL     1     180.366 -21.305  38.703  1.00  0.00     0.014 C 
ATOM     26  C   UNL     1     182.540 -21.706  39.852  1.00  0.00     0.016 C 
ATOM     27  C   UNL     1     181.997 -19.363  37.076  1.00  0.00     0.063 C 
ATOM     28  C   UNL     1     179.772 -20.331  37.684  1.00  0.00     0.033 C 
ATOM     29  C   UNL     1     180.613 -19.062  37.660  1.00  0.00     0.118 C 
BRANCH  29  30
ATOM     30  O   UNL     1     179.965 -18.094  36.877  1.00  0.00    -0.393 OA
ATOM     31  H   UNL     1     179.879 -17.280  37.440  1.00  0.00     0.210 HD
ENDBRANCH  29  30
ENDBRANCH   9  11
ENDBRANCH   1   9
TORSDOF 7
ENDMDL
MODEL 9
REMARK VINA RESULT:    -6.291      7.132     10.669
REMARK INTER + INTRA:         -12.003
REMARK INTER:                  -8.503
REMARK INTRA:                  -3.500
REMARK UNBOUND:                -3.322
REMARK SMILES CC[C@H](CC[C@@H](C)[C@H]1CC[C@@H]2[C@H]3CC=C4C[C@@H](O)CC[C@@]4(C)[C@H]3CC[C@]21C)C(C)C
REMARK SMILES IDX 5 1 4 2 3 3 2 4 1 5 28 6 29 7 30 8 6 9 7 10 8 11 9 12 26 13
REMARK SMILES IDX 10 14 11 15 25 16 27 17 12 18 24 19 23 20 13 21 21 22 14 23
REMARK SMILES IDX 15 24 20 25 22 26 16 27 19 28 17 29 18 30
REMARK H PARENT 18 31
REMARK Flexibility Score: inf
ROOT
ATOM      1  C   UNL     1     184.295 -15.242  29.133  1.00  0.00     0.004 C 
ENDROOT
BRANCH   1   2
ATOM      2  C   UNL     1     184.689 -16.622  29.690  1.00  0.00     0.004 C 
BRANCH   2   3
ATOM      3  C   UNL     1     183.556 -17.689  29.624  1.00  0.00    -0.009 C 
BRANCH   3   4
ATOM      4  C   UNL     1     184.043 -18.891  28.766  1.00  0.00     0.000 C 
ATOM      5  C   UNL     1     183.315 -20.198  29.097  1.00  0.00     0.004 C 
ENDBRANCH   3   4
BRANCH   3   6
ATOM      6  C   UNL     1     183.012 -18.180  31.015  1.00  0.00    -0.014 C 
ATOM      7  C   UNL     1     183.939 -17.871  32.203  1.00  0.00     0.007 C 
ATOM      8  C   UNL     1     181.576 -17.706  31.297  1.00  0.00     0.007 C 
ENDBRANCH   3   6
ENDBRANCH   2   3
ENDBRANCH   1   2
BRANCH   1   9
ATOM      9  C   UNL     1     182.750 -15.066  29.016  1.00  0.00    -0.011 C 
ATOM     10  C   UNL     1     182.223 -14.007  30.003  1.00  0.00     0.008 C 
BRANCH   9  11
ATOM     11  C   UNL     1     182.256 -14.907  27.532  1.00  0.00    -0.002 C 
ATOM     12  C   UNL     1     183.446 -14.660  26.564  1.00  0.00     0.005 C 
ATOM     13  C   UNL     1     181.424 -16.041  26.832  1.00  0.00    -0.026 C 
ATOM     14  C   UNL     1     183.511 -15.844  25.592  1.00  0.00     0.005 C 
ATOM     15  C   UNL     1     182.515 -16.866  26.135  1.00  0.00    -0.001 C 
ATOM     16  C   UNL     1     180.551 -16.989  27.713  1.00  0.00     0.007 C 
ATOM     17  C   UNL     1     180.485 -15.327  25.803  1.00  0.00     0.012 C 
ATOM     18  C   UNL     1     181.958 -17.914  25.127  1.00  0.00     0.000 C 
ATOM     19  C   UNL     1     180.570 -18.471  27.251  1.00  0.00     0.005 C 
ATOM     20  C   UNL     1     180.672 -18.653  25.703  1.00  0.00     0.003 C 
ATOM     21  C   UNL     1     183.103 -18.874  24.682  1.00  0.00     0.031 C 
ATOM     22  C   UNL     1     180.567 -20.162  25.249  1.00  0.00    -0.008 C 
ATOM     23  C   UNL     1     183.056 -20.215  25.354  1.00  0.00    -0.027 C 
ATOM     24  C   UNL     1     181.896 -20.856  25.595  1.00  0.00    -0.065 C 
ATOM     25  C   UNL     1     179.312 -20.871  25.882  1.00  0.00     0.014 C 
ATOM     26  C   UNL     1     180.346 -20.222  23.710  1.00  0.00     0.016 C 
ATOM     27  C   UNL     1     181.990 -22.168  26.356  1.00  0.00     0.063 C 
ATOM     28  C   UNL     1     179.626 -21.776  27.075  1.00  0.00     0.033 C 
ATOM     29  C   UNL     1     180.639 -22.829  26.647  1.00  0.00     0.118 C 
BRANCH  29  30
ATOM     30  O   UNL     1     180.782 -23.775  27.674  1.00  0.00    -0.393 OA
ATOM     31  H   UNL     1     181.027 -23.273  28.495  1.00  0.00     0.210 HD
ENDBRANCH  29  30
ENDBRANCH   9  11
ENDBRANCH   1   9
TORSDOF 7
ENDMDL
