MODEL 1
REMARK VINA RESULT:     4.777      0.000      0.000
REMARK INTER + INTRA:           6.314
REMARK INTER:                   6.593
REMARK INTRA:                  -0.278
REMARK UNBOUND:                -0.278
REMARK SMILES CC[C@@H](CC[C@@H](C)[C@H]1CC[C@@H]2[C@H]3CC=C4C[C@H](O)CC[C@]4(C)[C@H]3CC[C@]21C)C(C)C
REMARK SMILES IDX 5 1 4 2 3 3 2 4 1 5 28 6 29 7 30 8 6 9 7 10 8 11 9 12 26 13
REMARK SMILES IDX 10 14 11 15 25 16 27 17 12 18 24 19 23 20 13 21 21 22 14 23
REMARK SMILES IDX 15 24 20 25 22 26 16 27 19 28 17 29 18 30
REMARK H PARENT 18 31
REMARK Flexibility Score: inf
ROOT
ATOM      1  C   UNL     1     139.374 123.670 141.131  1.00  0.00     0.004 C 
ENDROOT
BRANCH   1   2
ATOM      2  C   UNL     1     140.127 124.967 141.509  1.00  0.00     0.004 C 
BRANCH   2   3
ATOM      3  C   UNL     1     141.071 124.872 142.746  1.00  0.00    -0.009 C 
BRANCH   3   4
ATOM      4  C   UNL     1     140.288 125.226 144.043  1.00  0.00     0.000 C 
ATOM      5  C   UNL     1     138.958 124.475 144.160  1.00  0.00     0.004 C 
ENDBRANCH   3   4
BRANCH   3   6
ATOM      6  C   UNL     1     142.378 125.724 142.585  1.00  0.00    -0.014 C 
ATOM      7  C   UNL     1     142.643 126.667 143.770  1.00  0.00     0.007 C 
ATOM      8  C   UNL     1     143.617 124.856 142.309  1.00  0.00     0.007 C 
ENDBRANCH   3   6
ENDBRANCH   2   3
ENDBRANCH   1   2
BRANCH   1   9
ATOM      9  C   UNL     1     138.266 123.852 140.046  1.00  0.00    -0.011 C 
ATOM     10  C   UNL     1     138.659 123.009 138.808  1.00  0.00     0.008 C 
BRANCH   9  11
ATOM     11  C   UNL     1     136.847 123.440 140.570  1.00  0.00    -0.002 C 
ATOM     12  C   UNL     1     136.543 123.978 141.997  1.00  0.00     0.005 C 
ATOM     13  C   UNL     1     135.578 123.849 139.707  1.00  0.00    -0.026 C 
ATOM     14  C   UNL     1     135.090 124.424 142.016  1.00  0.00     0.005 C 
ATOM     15  C   UNL     1     134.879 124.898 140.595  1.00  0.00    -0.001 C 
ATOM     16  C   UNL     1     135.778 124.502 138.291  1.00  0.00     0.007 C 
ATOM     17  C   UNL     1     134.730 122.548 139.530  1.00  0.00     0.012 C 
ATOM     18  C   UNL     1     133.430 125.210 140.153  1.00  0.00     0.000 C 
ATOM     19  C   UNL     1     134.766 125.631 137.947  1.00  0.00     0.005 C 
ATOM     20  C   UNL     1     133.356 125.472 138.597  1.00  0.00     0.003 C 
ATOM     21  C   UNL     1     132.849 126.370 140.969  1.00  0.00     0.031 C 
ATOM     22  C   UNL     1     132.319 126.596 138.134  1.00  0.00    -0.008 C 
ATOM     23  C   UNL     1     131.473 126.697 140.484  1.00  0.00    -0.027 C 
ATOM     24  C   UNL     1     131.195 126.770 139.170  1.00  0.00    -0.065 C 
ATOM     25  C   UNL     1     131.708 126.159 136.760  1.00  0.00     0.014 C 
ATOM     26  C   UNL     1     132.997 127.983 137.958  1.00  0.00     0.016 C 
ATOM     27  C   UNL     1     129.856 127.355 138.762  1.00  0.00     0.063 C 
ATOM     28  C   UNL     1     130.453 126.943 136.353  1.00  0.00     0.033 C 
ATOM     29  C   UNL     1     129.358 126.811 137.417  1.00  0.00     0.118 C 
BRANCH  29  30
ATOM     30  O   UNL     1     128.969 125.465 137.543  1.00  0.00    -0.393 OA
ATOM     31  H   UNL     1     129.772 124.962 137.840  1.00  0.00     0.210 HD
ENDBRANCH  29  30
ENDBRANCH   9  11
ENDBRANCH   1   9
TORSDOF 7
ENDMDL
MODEL 2
REMARK VINA RESULT:     4.809      4.131      8.402
REMARK INTER + INTRA:           6.357
REMARK INTER:                   6.869
REMARK INTRA:                  -0.512
REMARK UNBOUND:                -0.278
REMARK SMILES CC[C@@H](CC[C@@H](C)[C@H]1CC[C@@H]2[C@H]3CC=C4C[C@H](O)CC[C@]4(C)[C@H]3CC[C@]21C)C(C)C
REMARK SMILES IDX 5 1 4 2 3 3 2 4 1 5 28 6 29 7 30 8 6 9 7 10 8 11 9 12 26 13
REMARK SMILES IDX 10 14 11 15 25 16 27 17 12 18 24 19 23 20 13 21 21 22 14 23
REMARK SMILES IDX 15 24 20 25 22 26 16 27 19 28 17 29 18 30
REMARK H PARENT 18 31
REMARK Flexibility Score: inf
ROOT
ATOM      1  C   UNL     1     131.730 130.549 138.496  1.00  0.00     0.004 C 
ENDROOT
BRANCH   1   2
ATOM      2  C   UNL     1     132.890 131.411 137.946  1.00  0.00     0.004 C 
BRANCH   2   3
ATOM      3  C   UNL     1     132.820 132.935 138.268  1.00  0.00    -0.009 C 
BRANCH   3   4
ATOM      4  C   UNL     1     132.306 133.719 137.027  1.00  0.00     0.000 C 
ATOM      5  C   UNL     1     131.604 135.029 137.398  1.00  0.00     0.004 C 
ENDBRANCH   3   4
BRANCH   3   6
ATOM      6  C   UNL     1     134.174 133.506 138.817  1.00  0.00    -0.014 C 
ATOM      7  C   UNL     1     134.006 134.373 140.076  1.00  0.00     0.007 C 
ATOM      8  C   UNL     1     135.219 132.405 139.066  1.00  0.00     0.007 C 
ENDBRANCH   3   6
ENDBRANCH   2   3
ENDBRANCH   1   2
BRANCH   1   9
ATOM      9  C   UNL     1     130.721 130.048 137.415  1.00  0.00    -0.011 C 
ATOM     10  C   UNL     1     130.811 130.995 136.192  1.00  0.00     0.008 C 
BRANCH   9  11
ATOM     11  C   UNL     1     130.993 128.564 136.989  1.00  0.00    -0.002 C 
ATOM     12  C   UNL     1     132.281 128.402 136.133  1.00  0.00     0.005 C 
ATOM     13  C   UNL     1     131.127 127.466 138.129  1.00  0.00    -0.026 C 
ATOM     14  C   UNL     1     132.971 127.125 136.587  1.00  0.00     0.005 C 
ATOM     15  C   UNL     1     132.615 127.070 138.056  1.00  0.00    -0.001 C 
ATOM     16  C   UNL     1     130.825 127.855 139.622  1.00  0.00     0.007 C 
ATOM     17  C   UNL     1     130.171 126.297 137.726  1.00  0.00     0.012 C 
ATOM     18  C   UNL     1     132.942 125.768 138.823  1.00  0.00     0.000 C 
ATOM     19  C   UNL     1     131.766 127.194 140.669  1.00  0.00     0.005 C 
ATOM     20  C   UNL     1     132.310 125.787 140.270  1.00  0.00     0.003 C 
ATOM     21  C   UNL     1     134.454 125.516 138.849  1.00  0.00     0.031 C 
ATOM     22  C   UNL     1     133.187 125.103 141.417  1.00  0.00    -0.008 C 
ATOM     23  C   UNL     1     134.754 124.288 139.648  1.00  0.00    -0.027 C 
ATOM     24  C   UNL     1     134.148 124.057 140.827  1.00  0.00    -0.065 C 
ATOM     25  C   UNL     1     132.213 124.413 142.430  1.00  0.00     0.014 C 
ATOM     26  C   UNL     1     134.055 126.137 142.187  1.00  0.00     0.016 C 
ATOM     27  C   UNL     1     134.690 122.934 141.692  1.00  0.00     0.063 C 
ATOM     28  C   UNL     1     132.896 123.426 143.386  1.00  0.00     0.033 C 
ATOM     29  C   UNL     1     133.620 122.324 142.606  1.00  0.00     0.118 C 
BRANCH  29  30
ATOM     30  O   UNL     1     132.694 121.580 141.852  1.00  0.00    -0.393 OA
ATOM     31  H   UNL     1     131.794 121.793 142.213  1.00  0.00     0.210 HD
ENDBRANCH  29  30
ENDBRANCH   9  11
ENDBRANCH   1   9
TORSDOF 7
ENDMDL
MODEL 3
REMARK VINA RESULT:     5.969      3.546      8.563
REMARK INTER + INTRA:           7.959
REMARK INTER:                   8.583
REMARK INTRA:                  -0.624
REMARK UNBOUND:                -0.278
REMARK SMILES CC[C@@H](CC[C@@H](C)[C@H]1CC[C@@H]2[C@H]3CC=C4C[C@H](O)CC[C@]4(C)[C@H]3CC[C@]21C)C(C)C
REMARK SMILES IDX 5 1 4 2 3 3 2 4 1 5 28 6 29 7 30 8 6 9 7 10 8 11 9 12 26 13
REMARK SMILES IDX 10 14 11 15 25 16 27 17 12 18 24 19 23 20 13 21 21 22 14 23
REMARK SMILES IDX 15 24 20 25 22 26 16 27 19 28 17 29 18 30
REMARK H PARENT 18 31
REMARK Flexibility Score: inf
ROOT
ATOM      1  C   UNL     1     130.949 130.632 137.760  1.00  0.00     0.004 C 
ENDROOT
BRANCH   1   2
ATOM      2  C   UNL     1     132.371 131.228 137.873  1.00  0.00     0.004 C 
BRANCH   2   3
ATOM      3  C   UNL     1     132.449 132.764 138.127  1.00  0.00    -0.009 C 
BRANCH   3   4
ATOM      4  C   UNL     1     131.933 133.537 136.880  1.00  0.00     0.000 C 
ATOM      5  C   UNL     1     131.590 134.998 137.184  1.00  0.00     0.004 C 
ENDBRANCH   3   4
BRANCH   3   6
ATOM      6  C   UNL     1     133.874 133.238 138.577  1.00  0.00    -0.014 C 
ATOM      7  C   UNL     1     133.852 134.165 139.803  1.00  0.00     0.007 C 
ATOM      8  C   UNL     1     134.837 132.062 138.818  1.00  0.00     0.007 C 
ENDBRANCH   3   6
ENDBRANCH   2   3
ENDBRANCH   1   2
BRANCH   1   9
ATOM      9  C   UNL     1     130.768 129.240 138.445  1.00  0.00    -0.011 C 
ATOM     10  C   UNL     1     129.286 129.102 138.876  1.00  0.00     0.008 C 
BRANCH   9  11
ATOM     11  C   UNL     1     131.186 128.056 137.507  1.00  0.00    -0.002 C 
ATOM     12  C   UNL     1     132.224 128.471 136.425  1.00  0.00     0.005 C 
ATOM     13  C   UNL     1     131.798 126.749 138.171  1.00  0.00    -0.026 C 
ATOM     14  C   UNL     1     133.223 127.333 136.294  1.00  0.00     0.005 C 
ATOM     15  C   UNL     1     133.265 126.776 137.699  1.00  0.00    -0.001 C 
ATOM     16  C   UNL     1     131.818 126.610 139.737  1.00  0.00     0.007 C 
ATOM     17  C   UNL     1     130.997 125.543 137.583  1.00  0.00     0.012 C 
ATOM     18  C   UNL     1     134.004 125.434 137.915  1.00  0.00     0.000 C 
ATOM     19  C   UNL     1     133.096 125.936 140.313  1.00  0.00     0.005 C 
ATOM     20  C   UNL     1     133.764 124.883 139.375  1.00  0.00     0.003 C 
ATOM     21  C   UNL     1     135.493 125.572 137.579  1.00  0.00     0.031 C 
ATOM     22  C   UNL     1     135.011 124.143 140.047  1.00  0.00    -0.008 C 
ATOM     23  C   UNL     1     136.200 124.283 137.853  1.00  0.00    -0.027 C 
ATOM     24  C   UNL     1     135.964 123.583 138.977  1.00  0.00    -0.065 C 
ATOM     25  C   UNL     1     134.465 122.973 140.933  1.00  0.00     0.014 C 
ATOM     26  C   UNL     1     135.845 125.098 140.946  1.00  0.00     0.016 C 
ATOM     27  C   UNL     1     136.899 122.433 139.304  1.00  0.00     0.063 C 
ATOM     28  C   UNL     1     135.532 121.959 141.363  1.00  0.00     0.033 C 
ATOM     29  C   UNL     1     136.222 121.341 140.142  1.00  0.00     0.118 C 
BRANCH  29  30
ATOM     30  O   UNL     1     135.284 120.635 139.366  1.00  0.00    -0.393 OA
ATOM     31  H   UNL     1     134.670 121.310 138.975  1.00  0.00     0.210 HD
ENDBRANCH  29  30
ENDBRANCH   9  11
ENDBRANCH   1   9
TORSDOF 7
ENDMDL
MODEL 4
REMARK VINA RESULT:     6.383      2.606      4.345
REMARK INTER + INTRA:           8.530
REMARK INTER:                   8.253
REMARK INTRA:                   0.277
REMARK UNBOUND:                -0.278
REMARK SMILES CC[C@@H](CC[C@@H](C)[C@H]1CC[C@@H]2[C@H]3CC=C4C[C@H](O)CC[C@]4(C)[C@H]3CC[C@]21C)C(C)C
REMARK SMILES IDX 5 1 4 2 3 3 2 4 1 5 28 6 29 7 30 8 6 9 7 10 8 11 9 12 26 13
REMARK SMILES IDX 10 14 11 15 25 16 27 17 12 18 24 19 23 20 13 21 21 22 14 23
REMARK SMILES IDX 15 24 20 25 22 26 16 27 19 28 17 29 18 30
REMARK H PARENT 18 31
REMARK Flexibility Score: inf
ROOT
ATOM      1  C   UNL     1     134.329 122.957 143.335  1.00  0.00     0.004 C 
ENDROOT
BRANCH   1   2
ATOM      2  C   UNL     1     134.728 124.439 143.522  1.00  0.00     0.004 C 
BRANCH   2   3
ATOM      3  C   UNL     1     136.202 124.699 143.957  1.00  0.00    -0.009 C 
BRANCH   3   4
ATOM      4  C   UNL     1     137.126 123.574 143.408  1.00  0.00     0.000 C 
ATOM      5  C   UNL     1     138.083 124.068 142.319  1.00  0.00     0.004 C 
ENDBRANCH   3   4
BRANCH   3   6
ATOM      6  C   UNL     1     136.356 124.896 145.505  1.00  0.00    -0.014 C 
ATOM      7  C   UNL     1     137.586 124.185 146.093  1.00  0.00     0.007 C 
ATOM      8  C   UNL     1     136.354 126.379 145.913  1.00  0.00     0.007 C 
ENDBRANCH   3   6
ENDBRANCH   2   3
ENDBRANCH   1   2
BRANCH   1   9
ATOM      9  C   UNL     1     134.124 122.519 141.850  1.00  0.00    -0.011 C 
ATOM     10  C   UNL     1     132.602 122.484 141.561  1.00  0.00     0.008 C 
BRANCH   9  11
ATOM     11  C   UNL     1     134.859 123.469 140.842  1.00  0.00    -0.002 C 
ATOM     12  C   UNL     1     135.106 122.813 139.454  1.00  0.00     0.005 C 
ATOM     13  C   UNL     1     134.195 124.873 140.512  1.00  0.00    -0.026 C 
ATOM     14  C   UNL     1     134.853 123.876 138.398  1.00  0.00     0.005 C 
ATOM     15  C   UNL     1     133.771 124.716 139.038  1.00  0.00    -0.001 C 
ATOM     16  C   UNL     1     132.925 125.340 141.312  1.00  0.00     0.007 C 
ATOM     17  C   UNL     1     135.316 125.945 140.706  1.00  0.00     0.012 C 
ATOM     18  C   UNL     1     133.410 126.058 138.357  1.00  0.00     0.000 C 
ATOM     19  C   UNL     1     131.862 126.093 140.461  1.00  0.00     0.005 C 
ATOM     20  C   UNL     1     132.437 126.910 139.263  1.00  0.00     0.003 C 
ATOM     21  C   UNL     1     132.845 125.821 136.952  1.00  0.00     0.031 C 
ATOM     22  C   UNL     1     131.324 127.749 138.481  1.00  0.00    -0.008 C 
ATOM     23  C   UNL     1     132.444 127.124 136.336  1.00  0.00    -0.027 C 
ATOM     24  C   UNL     1     131.769 128.050 137.040  1.00  0.00    -0.065 C 
ATOM     25  C   UNL     1     131.092 129.092 139.254  1.00  0.00     0.014 C 
ATOM     26  C   UNL     1     129.972 126.988 138.392  1.00  0.00     0.016 C 
ATOM     27  C   UNL     1     131.178 129.223 136.280  1.00  0.00     0.063 C 
ATOM     28  C   UNL     1     130.321 130.151 138.457  1.00  0.00     0.033 C 
ATOM     29  C   UNL     1     131.045 130.482 137.147  1.00  0.00     0.118 C 
BRANCH  29  30
ATOM     30  O   UNL     1     132.312 131.027 137.422  1.00  0.00    -0.393 OA
ATOM     31  H   UNL     1     132.908 130.758 136.675  1.00  0.00     0.210 HD
ENDBRANCH  29  30
ENDBRANCH   9  11
ENDBRANCH   1   9
TORSDOF 7
ENDMDL
MODEL 5
REMARK VINA RESULT:     6.557      2.223      3.678
REMARK INTER + INTRA:           8.771
REMARK INTER:                   8.931
REMARK INTRA:                  -0.160
REMARK UNBOUND:                -0.278
REMARK SMILES CC[C@@H](CC[C@@H](C)[C@H]1CC[C@@H]2[C@H]3CC=C4C[C@H](O)CC[C@]4(C)[C@H]3CC[C@]21C)C(C)C
REMARK SMILES IDX 5 1 4 2 3 3 2 4 1 5 28 6 29 7 30 8 6 9 7 10 8 11 9 12 26 13
REMARK SMILES IDX 10 14 11 15 25 16 27 17 12 18 24 19 23 20 13 21 21 22 14 23
REMARK SMILES IDX 15 24 20 25 22 26 16 27 19 28 17 29 18 30
REMARK H PARENT 18 31
REMARK Flexibility Score: inf
ROOT
ATOM      1  C   UNL     1     136.995 124.253 141.376  1.00  0.00     0.004 C 
ENDROOT
BRANCH   1   2
ATOM      2  C   UNL     1     138.083 123.540 140.540  1.00  0.00     0.004 C 
BRANCH   2   3
ATOM      3  C   UNL     1     138.209 123.994 139.054  1.00  0.00    -0.009 C 
BRANCH   3   4
ATOM      4  C   UNL     1     137.821 125.495 138.921  1.00  0.00     0.000 C 
ATOM      5  C   UNL     1     138.946 126.441 139.349  1.00  0.00     0.004 C 
ENDBRANCH   3   4
BRANCH   3   6
ATOM      6  C   UNL     1     137.405 123.079 138.066  1.00  0.00    -0.014 C 
ATOM      7  C   UNL     1     136.561 122.007 138.774  1.00  0.00     0.007 C 
ATOM      8  C   UNL     1     136.530 123.888 137.094  1.00  0.00     0.007 C 
ENDBRANCH   3   6
ENDBRANCH   2   3
ENDBRANCH   1   2
BRANCH   1   9
ATOM      9  C   UNL     1     136.563 123.493 142.670  1.00  0.00    -0.011 C 
ATOM     10  C   UNL     1     137.315 124.117 143.872  1.00  0.00     0.008 C 
BRANCH   9  11
ATOM     11  C   UNL     1     135.013 123.543 142.899  1.00  0.00    -0.002 C 
ATOM     12  C   UNL     1     134.591 124.556 144.001  1.00  0.00     0.005 C 
ATOM     13  C   UNL     1     134.079 123.885 141.660  1.00  0.00    -0.026 C 
ATOM     14  C   UNL     1     133.324 125.247 143.523  1.00  0.00     0.005 C 
ATOM     15  C   UNL     1     133.517 125.274 142.024  1.00  0.00    -0.001 C 
ATOM     16  C   UNL     1     134.706 124.001 140.223  1.00  0.00     0.007 C 
ATOM     17  C   UNL     1     132.976 122.778 141.624  1.00  0.00     0.012 C 
ATOM     18  C   UNL     1     132.308 125.693 141.154  1.00  0.00     0.000 C 
ATOM     19  C   UNL     1     134.102 125.130 139.339  1.00  0.00     0.005 C 
ATOM     20  C   UNL     1     132.601 125.453 139.621  1.00  0.00     0.003 C 
ATOM     21  C   UNL     1     131.899 127.140 141.452  1.00  0.00     0.031 C 
ATOM     22  C   UNL     1     131.994 126.543 138.623  1.00  0.00    -0.008 C 
ATOM     23  C   UNL     1     130.771 127.546 140.558  1.00  0.00    -0.027 C 
ATOM     24  C   UNL     1     130.777 127.246 139.246  1.00  0.00    -0.065 C 
ATOM     25  C   UNL     1     131.565 125.813 137.305  1.00  0.00     0.014 C 
ATOM     26  C   UNL     1     133.026 127.649 138.264  1.00  0.00     0.016 C 
ATOM     27  C   UNL     1     129.735 127.910 138.365  1.00  0.00     0.063 C 
ATOM     28  C   UNL     1     130.655 126.646 136.393  1.00  0.00     0.033 C 
ATOM     29  C   UNL     1     129.381 127.068 137.133  1.00  0.00     0.118 C 
BRANCH  29  30
ATOM     30  O   UNL     1     128.643 125.930 137.509  1.00  0.00    -0.393 OA
ATOM     31  H   UNL     1     129.303 125.229 137.750  1.00  0.00     0.210 HD
ENDBRANCH  29  30
ENDBRANCH   9  11
ENDBRANCH   1   9
TORSDOF 7
ENDMDL
MODEL 6
REMARK VINA RESULT:     7.507      0.987      2.177
REMARK INTER + INTRA:          10.081
REMARK INTER:                   6.831
REMARK INTRA:                   3.250
REMARK UNBOUND:                -0.278
REMARK SMILES CC[C@@H](CC[C@@H](C)[C@H]1CC[C@@H]2[C@H]3CC=C4C[C@H](O)CC[C@]4(C)[C@H]3CC[C@]21C)C(C)C
REMARK SMILES IDX 5 1 4 2 3 3 2 4 1 5 28 6 29 7 30 8 6 9 7 10 8 11 9 12 26 13
REMARK SMILES IDX 10 14 11 15 25 16 27 17 12 18 24 19 23 20 13 21 21 22 14 23
REMARK SMILES IDX 15 24 20 25 22 26 16 27 19 28 17 29 18 30
REMARK H PARENT 18 31
REMARK Flexibility Score: inf
ROOT
ATOM      1  C   UNL     1     139.081 123.362 140.491  1.00  0.00     0.004 C 
ENDROOT
BRANCH   1   2
ATOM      2  C   UNL     1     138.603 123.046 141.927  1.00  0.00     0.004 C 
BRANCH   2   3
ATOM      3  C   UNL     1     138.540 124.256 142.907  1.00  0.00    -0.009 C 
BRANCH   3   4
ATOM      4  C   UNL     1     139.972 124.630 143.386  1.00  0.00     0.000 C 
ATOM      5  C   UNL     1     140.895 125.045 142.237  1.00  0.00     0.004 C 
ENDBRANCH   3   4
BRANCH   3   6
ATOM      6  C   UNL     1     137.552 124.023 144.103  1.00  0.00    -0.014 C 
ATOM      7  C   UNL     1     138.234 124.077 145.480  1.00  0.00     0.007 C 
ATOM      8  C   UNL     1     136.349 124.981 144.068  1.00  0.00     0.007 C 
ENDBRANCH   3   6
ENDBRANCH   2   3
ENDBRANCH   1   2
BRANCH   1   9
ATOM      9  C   UNL     1     137.950 123.804 139.509  1.00  0.00    -0.011 C 
ATOM     10  C   UNL     1     138.260 123.207 138.114  1.00  0.00     0.008 C 
BRANCH   9  11
ATOM     11  C   UNL     1     136.529 123.360 140.000  1.00  0.00    -0.002 C 
ATOM     12  C   UNL     1     136.237 123.767 141.472  1.00  0.00     0.005 C 
ATOM     13  C   UNL     1     135.261 123.860 139.184  1.00  0.00    -0.026 C 
ATOM     14  C   UNL     1     134.788 124.223 141.539  1.00  0.00     0.005 C 
ATOM     15  C   UNL     1     134.577 124.829 140.169  1.00  0.00    -0.001 C 
ATOM     16  C   UNL     1     135.463 124.639 137.834  1.00  0.00     0.007 C 
ATOM     17  C   UNL     1     134.399 122.590 138.892  1.00  0.00     0.012 C 
ATOM     18  C   UNL     1     133.130 125.195 139.765  1.00  0.00     0.000 C 
ATOM     19  C   UNL     1     134.461 125.805 137.600  1.00  0.00     0.005 C 
ATOM     20  C   UNL     1     133.053 125.601 138.240  1.00  0.00     0.003 C 
ATOM     21  C   UNL     1     132.564 126.281 140.688  1.00  0.00     0.031 C 
ATOM     22  C   UNL     1     132.025 126.773 137.888  1.00  0.00    -0.008 C 
ATOM     23  C   UNL     1     131.189 126.665 140.242  1.00  0.00    -0.027 C 
ATOM     24  C   UNL     1     130.907 126.862 138.941  1.00  0.00    -0.065 C 
ATOM     25  C   UNL     1     131.404 126.472 136.482  1.00  0.00     0.014 C 
ATOM     26  C   UNL     1     132.717 128.164 137.838  1.00  0.00     0.016 C 
ATOM     27  C   UNL     1     129.572 127.496 138.595  1.00  0.00     0.063 C 
ATOM     28  C   UNL     1     130.156 127.303 136.156  1.00  0.00     0.033 C 
ATOM     29  C   UNL     1     129.064 127.084 137.208  1.00  0.00     0.118 C 
BRANCH  29  30
ATOM     30  O   UNL     1     128.662 125.736 137.211  1.00  0.00    -0.393 OA
ATOM     31  H   UNL     1     128.878 125.375 138.111  1.00  0.00     0.210 HD
ENDBRANCH  29  30
ENDBRANCH   9  11
ENDBRANCH   1   9
TORSDOF 7
ENDMDL
MODEL 7
REMARK VINA RESULT:     7.635      2.644      3.870
REMARK INTER + INTRA:          10.258
REMARK INTER:                   9.294
REMARK INTRA:                   0.963
REMARK UNBOUND:                -0.278
REMARK SMILES CC[C@@H](CC[C@@H](C)[C@H]1CC[C@@H]2[C@H]3CC=C4C[C@H](O)CC[C@]4(C)[C@H]3CC[C@]21C)C(C)C
REMARK SMILES IDX 5 1 4 2 3 3 2 4 1 5 28 6 29 7 30 8 6 9 7 10 8 11 9 12 26 13
REMARK SMILES IDX 10 14 11 15 25 16 27 17 12 18 24 19 23 20 13 21 21 22 14 23
REMARK SMILES IDX 15 24 20 25 22 26 16 27 19 28 17 29 18 30
REMARK H PARENT 18 31
REMARK Flexibility Score: inf
ROOT
ATOM      1  C   UNL     1     137.549 122.711 141.834  1.00  0.00     0.004 C 
ENDROOT
BRANCH   1   2
ATOM      2  C   UNL     1     137.290 124.096 142.470  1.00  0.00     0.004 C 
BRANCH   2   3
ATOM      3  C   UNL     1     136.418 124.101 143.763  1.00  0.00    -0.009 C 
BRANCH   3   4
ATOM      4  C   UNL     1     135.008 124.679 143.452  1.00  0.00     0.000 C 
ATOM      5  C   UNL     1     133.882 123.672 143.702  1.00  0.00     0.004 C 
ENDBRANCH   3   4
BRANCH   3   6
ATOM      6  C   UNL     1     137.112 124.831 144.965  1.00  0.00    -0.014 C 
ATOM      7  C   UNL     1     136.285 125.996 145.533  1.00  0.00     0.007 C 
ATOM      8  C   UNL     1     137.509 123.862 146.092  1.00  0.00     0.007 C 
ENDBRANCH   3   6
ENDBRANCH   2   3
ENDBRANCH   1   2
BRANCH   1   9
ATOM      9  C   UNL     1     136.727 122.425 140.537  1.00  0.00    -0.011 C 
ATOM     10  C   UNL     1     135.254 122.171 140.944  1.00  0.00     0.008 C 
BRANCH   9  11
ATOM     11  C   UNL     1     136.823 123.598 139.501  1.00  0.00    -0.002 C 
ATOM     12  C   UNL     1     136.793 123.111 138.024  1.00  0.00     0.005 C 
ATOM     13  C   UNL     1     135.733 124.751 139.568  1.00  0.00    -0.026 C 
ATOM     14  C   UNL     1     135.943 124.097 137.239  1.00  0.00     0.005 C 
ATOM     15  C   UNL     1     134.930 124.542 138.268  1.00  0.00    -0.001 C 
ATOM     16  C   UNL     1     134.699 124.776 140.752  1.00  0.00     0.007 C 
ATOM     17  C   UNL     1     136.522 126.100 139.579  1.00  0.00     0.012 C 
ATOM     18  C   UNL     1     134.024 125.744 137.908  1.00  0.00     0.000 C 
ATOM     19  C   UNL     1     133.261 125.214 140.350  1.00  0.00     0.005 C 
ATOM     20  C   UNL     1     133.188 126.220 139.160  1.00  0.00     0.003 C 
ATOM     21  C   UNL     1     133.135 125.413 136.703  1.00  0.00     0.031 C 
ATOM     22  C   UNL     1     131.703 126.721 138.849  1.00  0.00    -0.008 C 
ATOM     23  C   UNL     1     132.224 126.562 136.410  1.00  0.00    -0.027 C 
ATOM     24  C   UNL     1     131.577 127.209 137.396  1.00  0.00    -0.065 C 
ATOM     25  C   UNL     1     131.368 127.894 139.832  1.00  0.00     0.014 C 
ATOM     26  C   UNL     1     130.651 125.593 139.046  1.00  0.00     0.016 C 
ATOM     27  C   UNL     1     130.482 128.183 137.003  1.00  0.00     0.063 C 
ATOM     28  C   UNL     1     130.129 128.708 139.438  1.00  0.00     0.033 C 
ATOM     29  C   UNL     1     130.288 129.302 138.035  1.00  0.00     0.118 C 
BRANCH  29  30
ATOM     30  O   UNL     1     131.379 130.190 138.009  1.00  0.00    -0.393 OA
ATOM     31  H   UNL     1     131.515 130.449 137.060  1.00  0.00     0.210 HD
ENDBRANCH  29  30
ENDBRANCH   9  11
ENDBRANCH   1   9
TORSDOF 7
ENDMDL
