MODEL 1
REMARK VINA RESULT:    -6.659      0.000      0.000
REMARK INTER + INTRA:          -7.858
REMARK INTER:                  -7.827
REMARK INTRA:                  -0.031
REMARK UNBOUND:                -0.031
REMARK SMILES Oc1ccc(-c2[o+]c3cc(O)cc(O)c3cc2O)cc1
REMARK SMILES IDX 6 1 7 2 8 3 9 4 10 5 12 6 13 7 15 8 16 9 17 10 5 11 4 12
REMARK SMILES IDX 3 13 2 14 19 15 20 16 1 17 18 19 11 21 14 23
REMARK H PARENT 1 18 18 20 11 22 14 24
REMARK Flexibility Score: inf
ROOT
ATOM      1  C   UNL     1      50.149  77.652  26.232  1.00  0.00     0.401 A 
ATOM      2  O   UNL     1      48.948  77.248  26.639  1.00  0.00    -0.202 OA
ATOM      3  C   UNL     1      48.385  77.659  27.771  1.00  0.00     0.368 A 
ATOM      4  C   UNL     1      47.120  77.175  28.115  1.00  0.00     0.162 A 
ATOM      5  C   UNL     1      46.505  77.589  29.301  1.00  0.00     0.128 A 
ATOM      6  C   UNL     1      47.160  78.487  30.146  1.00  0.00     0.093 A 
ATOM      7  C   UNL     1      48.428  78.987  29.824  1.00  0.00     0.136 A 
ATOM      8  C   UNL     1      49.054  78.573  28.620  1.00  0.00     0.125 A 
ATOM      9  C   UNL     1      50.318  79.030  28.210  1.00  0.00     0.078 A 
ATOM     10  C   UNL     1      50.869  78.580  27.006  1.00  0.00     0.223 A 
ENDROOT
BRANCH   1  11
ATOM     11  C   UNL     1      50.672  77.114  24.956  1.00  0.00     0.084 A 
ATOM     12  C   UNL     1      51.971  76.580  24.863  1.00  0.00     0.022 A 
ATOM     13  C   UNL     1      52.435  76.056  23.653  1.00  0.00     0.047 A 
ATOM     14  C   UNL     1      51.604  76.048  22.524  1.00  0.00     0.115 A 
ATOM     15  C   UNL     1      49.840  77.083  23.825  1.00  0.00     0.022 A 
ATOM     16  C   UNL     1      50.307  76.559  22.615  1.00  0.00     0.047 A 
BRANCH  14  17
ATOM     17  O   UNL     1      52.057  75.530  21.313  1.00  0.00    -0.508 OA
ATOM     18  H   UNL     1      51.500  75.593  20.469  1.00  0.00     0.293 HD
ENDBRANCH  14  17
ENDBRANCH   1  11
BRANCH  10  19
ATOM     19  O   UNL     1      52.101  79.072  26.575  1.00  0.00    -0.500 OA
ATOM     20  H   UNL     1      52.171  79.905  26.003  1.00  0.00     0.294 HD
ENDBRANCH  10  19
BRANCH   5  21
ATOM     21  O   UNL     1      45.244  77.111  29.650  1.00  0.00    -0.507 OA
ATOM     22  H   UNL     1      45.119  76.448  30.406  1.00  0.00     0.293 HD
ENDBRANCH   5  21
BRANCH   7  23
ATOM     23  O   UNL     1      49.016  79.879  30.725  1.00  0.00    -0.507 OA
ATOM     24  H   UNL     1      49.376  80.788  30.474  1.00  0.00     0.293 HD
ENDBRANCH   7  23
TORSDOF 5
ENDMDL
MODEL 2
REMARK VINA RESULT:    -6.557      1.721      6.747
REMARK INTER + INTRA:          -7.739
REMARK INTER:                  -7.432
REMARK INTRA:                  -0.306
REMARK UNBOUND:                -0.031
REMARK SMILES Oc1ccc(-c2[o+]c3cc(O)cc(O)c3cc2O)cc1
REMARK SMILES IDX 6 1 7 2 8 3 9 4 10 5 12 6 13 7 15 8 16 9 17 10 5 11 4 12
REMARK SMILES IDX 3 13 2 14 19 15 20 16 1 17 18 19 11 21 14 23
REMARK H PARENT 1 18 18 20 11 22 14 24
REMARK Flexibility Score: inf
ROOT
ATOM      1  C   UNL     1      49.092  77.465  26.499  1.00  0.00     0.401 A 
ATOM      2  O   UNL     1      48.779  77.413  25.207  1.00  0.00    -0.202 OA
ATOM      3  C   UNL     1      49.645  77.064  24.261  1.00  0.00     0.368 A 
ATOM      4  C   UNL     1      49.223  77.042  22.929  1.00  0.00     0.162 A 
ATOM      5  C   UNL     1      50.113  76.679  21.913  1.00  0.00     0.128 A 
ATOM      6  C   UNL     1      51.431  76.340  22.232  1.00  0.00     0.093 A 
ATOM      7  C   UNL     1      51.878  76.354  23.559  1.00  0.00     0.136 A 
ATOM      8  C   UNL     1      50.977  76.718  24.593  1.00  0.00     0.125 A 
ATOM      9  C   UNL     1      51.333  76.748  25.952  1.00  0.00     0.078 A 
ATOM     10  C   UNL     1      50.388  77.112  26.916  1.00  0.00     0.223 A 
ENDROOT
BRANCH   1  11
ATOM     11  C   UNL     1      48.042  77.881  27.457  1.00  0.00     0.084 A 
ATOM     12  C   UNL     1      47.263  76.935  28.148  1.00  0.00     0.022 A 
ATOM     13  C   UNL     1      46.293  77.351  29.064  1.00  0.00     0.047 A 
ATOM     14  C   UNL     1      46.096  78.716  29.310  1.00  0.00     0.115 A 
ATOM     15  C   UNL     1      47.852  79.247  27.725  1.00  0.00     0.022 A 
ATOM     16  C   UNL     1      46.879  79.661  28.641  1.00  0.00     0.047 A 
BRANCH  14  17
ATOM     17  O   UNL     1      45.131  79.143  30.219  1.00  0.00    -0.508 OA
ATOM     18  H   UNL     1      44.339  79.703  29.927  1.00  0.00     0.293 HD
ENDBRANCH  14  17
ENDBRANCH   1  11
BRANCH  10  19
ATOM     19  O   UNL     1      50.728  77.094  28.269  1.00  0.00    -0.500 OA
ATOM     20  H   UNL     1      51.220  76.312  28.684  1.00  0.00     0.294 HD
ENDBRANCH  10  19
BRANCH   5  21
ATOM     21  O   UNL     1      49.700  76.655  20.583  1.00  0.00    -0.507 OA
ATOM     22  H   UNL     1      49.605  75.785  20.073  1.00  0.00     0.293 HD
ENDBRANCH   5  21
BRANCH   7  23
ATOM     23  O   UNL     1      53.211  76.005  23.793  1.00  0.00    -0.507 OA
ATOM     24  H   UNL     1      53.659  76.041  24.696  1.00  0.00     0.293 HD
ENDBRANCH   7  23
TORSDOF 5
ENDMDL
MODEL 3
REMARK VINA RESULT:    -6.553      1.866      7.102
REMARK INTER + INTRA:          -7.734
REMARK INTER:                  -7.462
REMARK INTRA:                  -0.272
REMARK UNBOUND:                -0.031
REMARK SMILES Oc1ccc(-c2[o+]c3cc(O)cc(O)c3cc2O)cc1
REMARK SMILES IDX 6 1 7 2 8 3 9 4 10 5 12 6 13 7 15 8 16 9 17 10 5 11 4 12
REMARK SMILES IDX 3 13 2 14 19 15 20 16 1 17 18 19 11 21 14 23
REMARK H PARENT 1 18 18 20 11 22 14 24
REMARK Flexibility Score: inf
ROOT
ATOM      1  C   UNL     1      48.202  77.719  25.771  1.00  0.00     0.401 A 
ATOM      2  O   UNL     1      49.469  77.328  25.875  1.00  0.00    -0.202 OA
ATOM      3  C   UNL     1      50.203  76.950  24.833  1.00  0.00     0.368 A 
ATOM      4  C   UNL     1      51.527  76.552  25.043  1.00  0.00     0.162 A 
ATOM      5  C   UNL     1      52.321  76.148  23.966  1.00  0.00     0.128 A 
ATOM      6  C   UNL     1      51.788  76.140  22.675  1.00  0.00     0.093 A 
ATOM      7  C   UNL     1      50.466  76.535  22.438  1.00  0.00     0.136 A 
ATOM      8  C   UNL     1      49.657  76.948  23.527  1.00  0.00     0.125 A 
ATOM      9  C   UNL     1      48.325  77.372  23.383  1.00  0.00     0.078 A 
ATOM     10  C   UNL     1      47.591  77.771  24.505  1.00  0.00     0.223 A 
ENDROOT
BRANCH   1  11
ATOM     11  C   UNL     1      47.486  78.106  27.008  1.00  0.00     0.084 A 
ATOM     12  C   UNL     1      47.009  77.139  27.913  1.00  0.00     0.022 A 
ATOM     13  C   UNL     1      46.357  77.529  29.086  1.00  0.00     0.047 A 
ATOM     14  C   UNL     1      46.183  78.889  29.376  1.00  0.00     0.115 A 
ATOM     15  C   UNL     1      47.325  79.467  27.317  1.00  0.00     0.022 A 
ATOM     16  C   UNL     1      46.671  79.855  28.491  1.00  0.00     0.047 A 
BRANCH  14  17
ATOM     17  O   UNL     1      45.532  79.290  30.541  1.00  0.00    -0.508 OA
ATOM     18  H   UNL     1      44.526  79.402  30.574  1.00  0.00     0.293 HD
ENDBRANCH  14  17
ENDBRANCH   1  11
BRANCH  10  19
ATOM     19  O   UNL     1      46.285  78.238  24.356  1.00  0.00    -0.500 OA
ATOM     20  H   UNL     1      45.998  78.763  23.539  1.00  0.00     0.294 HD
ENDBRANCH  10  19
BRANCH   5  21
ATOM     21  O   UNL     1      53.640  75.751  24.167  1.00  0.00    -0.507 OA
ATOM     22  H   UNL     1      54.097  75.094  23.546  1.00  0.00     0.293 HD
ENDBRANCH   5  21
BRANCH   7  23
ATOM     23  O   UNL     1      50.008  76.494  21.117  1.00  0.00    -0.507 OA
ATOM     24  H   UNL     1      50.607  76.527  20.306  1.00  0.00     0.293 HD
ENDBRANCH   7  23
TORSDOF 5
ENDMDL
MODEL 4
REMARK VINA RESULT:    -6.517      1.604      3.473
REMARK INTER + INTRA:          -7.691
REMARK INTER:                  -7.861
REMARK INTRA:                   0.170
REMARK UNBOUND:                -0.031
REMARK SMILES Oc1ccc(-c2[o+]c3cc(O)cc(O)c3cc2O)cc1
REMARK SMILES IDX 6 1 7 2 8 3 9 4 10 5 12 6 13 7 15 8 16 9 17 10 5 11 4 12
REMARK SMILES IDX 3 13 2 14 19 15 20 16 1 17 18 19 11 21 14 23
REMARK H PARENT 1 18 18 20 11 22 14 24
REMARK Flexibility Score: inf
ROOT
ATOM      1  C   UNL     1      50.629  77.506  26.187  1.00  0.00     0.401 A 
ATOM      2  O   UNL     1      51.625  77.999  26.918  1.00  0.00    -0.202 OA
ATOM      3  C   UNL     1      51.456  78.500  28.137  1.00  0.00     0.368 A 
ATOM      4  C   UNL     1      52.564  78.999  28.827  1.00  0.00     0.162 A 
ATOM      5  C   UNL     1      52.415  79.533  30.110  1.00  0.00     0.128 A 
ATOM      6  C   UNL     1      51.151  79.570  30.704  1.00  0.00     0.093 A 
ATOM      7  C   UNL     1      50.025  79.076  30.035  1.00  0.00     0.136 A 
ATOM      8  C   UNL     1      50.172  78.531  28.733  1.00  0.00     0.125 A 
ATOM      9  C   UNL     1      49.102  78.002  27.992  1.00  0.00     0.078 A 
ATOM     10  C   UNL     1      49.326  77.476  26.716  1.00  0.00     0.223 A 
ENDROOT
BRANCH   1  11
ATOM     11  C   UNL     1      50.944  76.987  24.836  1.00  0.00     0.084 A 
ATOM     12  C   UNL     1      50.028  77.103  23.773  1.00  0.00     0.022 A 
ATOM     13  C   UNL     1      50.357  76.625  22.502  1.00  0.00     0.047 A 
ATOM     14  C   UNL     1      51.609  76.037  22.272  1.00  0.00     0.115 A 
ATOM     15  C   UNL     1      52.203  76.414  24.592  1.00  0.00     0.022 A 
ATOM     16  C   UNL     1      52.530  75.936  23.318  1.00  0.00     0.047 A 
BRANCH  14  17
ATOM     17  O   UNL     1      51.947  75.556  21.009  1.00  0.00    -0.508 OA
ATOM     18  H   UNL     1      51.861  74.574  20.776  1.00  0.00     0.293 HD
ENDBRANCH  14  17
ENDBRANCH   1  11
BRANCH  10  19
ATOM     19  O   UNL     1      48.273  76.906  26.001  1.00  0.00    -0.500 OA
ATOM     20  H   UNL     1      48.347  76.709  25.010  1.00  0.00     0.294 HD
ENDBRANCH  10  19
BRANCH   5  21
ATOM     21  O   UNL     1      53.515  80.032  30.803  1.00  0.00    -0.507 OA
ATOM     22  H   UNL     1      53.405  80.642  31.605  1.00  0.00     0.293 HD
ENDBRANCH   5  21
BRANCH   7  23
ATOM     23  O   UNL     1      48.796  79.154  30.698  1.00  0.00    -0.507 OA
ATOM     24  H   UNL     1      47.898  79.106  30.240  1.00  0.00     0.293 HD
ENDBRANCH   7  23
TORSDOF 5
ENDMDL
MODEL 5
REMARK VINA RESULT:    -6.080      8.986     12.824
REMARK INTER + INTRA:          -7.178
REMARK INTER:                  -6.988
REMARK INTRA:                  -0.189
REMARK UNBOUND:                -0.031
REMARK SMILES Oc1ccc(-c2[o+]c3cc(O)cc(O)c3cc2O)cc1
REMARK SMILES IDX 6 1 7 2 8 3 9 4 10 5 12 6 13 7 15 8 16 9 17 10 5 11 4 12
REMARK SMILES IDX 3 13 2 14 19 15 20 16 1 17 18 19 11 21 14 23
REMARK H PARENT 1 18 18 20 11 22 14 24
REMARK Flexibility Score: inf
ROOT
ATOM      1  C   UNL     1      53.842  68.998  17.810  1.00  0.00     0.401 A 
ATOM      2  O   UNL     1      53.858  69.139  19.133  1.00  0.00    -0.202 OA
ATOM      3  C   UNL     1      53.782  70.319  19.741  1.00  0.00     0.368 A 
ATOM      4  C   UNL     1      53.809  70.365  21.138  1.00  0.00     0.162 A 
ATOM      5  C   UNL     1      53.733  71.593  21.804  1.00  0.00     0.128 A 
ATOM      6  C   UNL     1      53.631  72.776  21.069  1.00  0.00     0.093 A 
ATOM      7  C   UNL     1      53.600  72.756  19.669  1.00  0.00     0.136 A 
ATOM      8  C   UNL     1      53.675  71.513  18.989  1.00  0.00     0.125 A 
ATOM      9  C   UNL     1      53.639  71.396  17.590  1.00  0.00     0.078 A 
ATOM     10  C   UNL     1      53.712  70.134  16.991  1.00  0.00     0.223 A 
ENDROOT
BRANCH   1  11
ATOM     11  C   UNL     1      53.944  67.630  17.251  1.00  0.00     0.084 A 
ATOM     12  C   UNL     1      55.039  67.242  16.457  1.00  0.00     0.022 A 
ATOM     13  C   UNL     1      55.125  65.939  15.960  1.00  0.00     0.047 A 
ATOM     14  C   UNL     1      54.126  65.003  16.260  1.00  0.00     0.115 A 
ATOM     15  C   UNL     1      52.957  66.680  17.564  1.00  0.00     0.022 A 
ATOM     16  C   UNL     1      53.045  65.377  17.065  1.00  0.00     0.047 A 
BRANCH  14  17
ATOM     17  O   UNL     1      54.200  63.702  15.769  1.00  0.00    -0.508 OA
ATOM     18  H   UNL     1      54.126  63.504  14.779  1.00  0.00     0.293 HD
ENDBRANCH  14  17
ENDBRANCH   1  11
BRANCH  10  19
ATOM     19  O   UNL     1      53.626  70.014  15.603  1.00  0.00    -0.500 OA
ATOM     20  H   UNL     1      52.894  69.472  15.160  1.00  0.00     0.294 HD
ENDBRANCH  10  19
BRANCH   5  21
ATOM     21  O   UNL     1      53.760  71.647  23.195  1.00  0.00    -0.507 OA
ATOM     22  H   UNL     1      54.331  71.012  23.740  1.00  0.00     0.293 HD
ENDBRANCH   5  21
BRANCH   7  23
ATOM     23  O   UNL     1      53.500  73.985  19.010  1.00  0.00    -0.507 OA
ATOM     24  H   UNL     1      54.182  74.725  19.078  1.00  0.00     0.293 HD
ENDBRANCH   7  23
TORSDOF 5
ENDMDL
MODEL 6
REMARK VINA RESULT:    -5.597     10.751     13.798
REMARK INTER + INTRA:          -6.610
REMARK INTER:                  -6.646
REMARK INTRA:                   0.036
REMARK UNBOUND:                -0.031
REMARK SMILES Oc1ccc(-c2[o+]c3cc(O)cc(O)c3cc2O)cc1
REMARK SMILES IDX 6 1 7 2 8 3 9 4 10 5 12 6 13 7 15 8 16 9 17 10 5 11 4 12
REMARK SMILES IDX 3 13 2 14 19 15 20 16 1 17 18 19 11 21 14 23
REMARK H PARENT 1 18 18 20 11 22 14 24
REMARK Flexibility Score: inf
ROOT
ATOM      1  C   UNL     1      54.228  69.328  17.221  1.00  0.00     0.401 A 
ATOM      2  O   UNL     1      54.161  70.264  16.278  1.00  0.00    -0.202 OA
ATOM      3  C   UNL     1      54.101  71.565  16.544  1.00  0.00     0.368 A 
ATOM      4  C   UNL     1      54.029  72.473  15.484  1.00  0.00     0.162 A 
ATOM      5  C   UNL     1      53.963  73.847  15.735  1.00  0.00     0.128 A 
ATOM      6  C   UNL     1      53.966  74.313  17.052  1.00  0.00     0.093 A 
ATOM      7  C   UNL     1      54.037  73.424  18.132  1.00  0.00     0.136 A 
ATOM      8  C   UNL     1      54.108  72.029  17.882  1.00  0.00     0.125 A 
ATOM      9  C   UNL     1      54.195  71.065  18.900  1.00  0.00     0.078 A 
ATOM     10  C   UNL     1      54.266  69.707  18.575  1.00  0.00     0.223 A 
ENDROOT
BRANCH   1  11
ATOM     11  C   UNL     1      54.280  67.910  16.797  1.00  0.00     0.084 A 
ATOM     12  C   UNL     1      53.505  66.925  17.435  1.00  0.00     0.022 A 
ATOM     13  C   UNL     1      53.553  65.597  17.002  1.00  0.00     0.047 A 
ATOM     14  C   UNL     1      54.366  65.239  15.918  1.00  0.00     0.115 A 
ATOM     15  C   UNL     1      55.077  67.546  15.699  1.00  0.00     0.022 A 
ATOM     16  C   UNL     1      55.124  66.216  15.267  1.00  0.00     0.047 A 
BRANCH  14  17
ATOM     17  O   UNL     1      54.423  63.918  15.479  1.00  0.00    -0.508 OA
ATOM     18  H   UNL     1      55.014  63.233  15.934  1.00  0.00     0.293 HD
ENDBRANCH  14  17
ENDBRANCH   1  11
BRANCH  10  19
ATOM     19  O   UNL     1      54.402  68.753  19.584  1.00  0.00    -0.500 OA
ATOM     20  H   UNL     1      53.723  68.013  19.712  1.00  0.00     0.294 HD
ENDBRANCH  10  19
BRANCH   5  21
ATOM     21  O   UNL     1      53.891  74.757  14.684  1.00  0.00    -0.507 OA
ATOM     22  H   UNL     1      54.711  75.013  14.147  1.00  0.00     0.293 HD
ENDBRANCH   5  21
BRANCH   7  23
ATOM     23  O   UNL     1      54.032  73.971  19.418  1.00  0.00    -0.507 OA
ATOM     24  H   UNL     1      54.861  74.140  19.969  1.00  0.00     0.293 HD
ENDBRANCH   7  23
TORSDOF 5
ENDMDL
MODEL 7
REMARK VINA RESULT:    -5.485     11.186     13.233
REMARK INTER + INTRA:          -6.478
REMARK INTER:                  -6.405
REMARK INTRA:                  -0.073
REMARK UNBOUND:                -0.031
REMARK SMILES Oc1ccc(-c2[o+]c3cc(O)cc(O)c3cc2O)cc1
REMARK SMILES IDX 6 1 7 2 8 3 9 4 10 5 12 6 13 7 15 8 16 9 17 10 5 11 4 12
REMARK SMILES IDX 3 13 2 14 19 15 20 16 1 17 18 19 11 21 14 23
REMARK H PARENT 1 18 18 20 11 22 14 24
REMARK Flexibility Score: inf
ROOT
ATOM      1  C   UNL     1      54.070  72.859  15.913  1.00  0.00     0.401 A 
ATOM      2  O   UNL     1      54.046  71.544  15.713  1.00  0.00    -0.202 OA
ATOM      3  C   UNL     1      54.023  70.657  16.703  1.00  0.00     0.368 A 
ATOM      4  C   UNL     1      54.002  69.294  16.393  1.00  0.00     0.162 A 
ATOM      5  C   UNL     1      53.979  68.339  17.415  1.00  0.00     0.128 A 
ATOM      6  C   UNL     1      53.978  68.750  18.750  1.00  0.00     0.093 A 
ATOM      7  C   UNL     1      53.998  70.109  19.086  1.00  0.00     0.136 A 
ATOM      8  C   UNL     1      54.019  71.082  18.054  1.00  0.00     0.125 A 
ATOM      9  C   UNL     1      54.027  72.466  18.296  1.00  0.00     0.078 A 
ATOM     10  C   UNL     1      54.042  73.364  17.225  1.00  0.00     0.223 A 
ENDROOT
BRANCH   1  11
ATOM     11  C   UNL     1      54.107  73.745  14.727  1.00  0.00     0.084 A 
ATOM     12  C   UNL     1      55.124  73.637  13.761  1.00  0.00     0.022 A 
ATOM     13  C   UNL     1      55.125  74.469  12.638  1.00  0.00     0.047 A 
ATOM     14  C   UNL     1      54.103  75.411  12.459  1.00  0.00     0.115 A 
ATOM     15  C   UNL     1      53.075  74.678  14.529  1.00  0.00     0.022 A 
ATOM     16  C   UNL     1      53.078  75.511  13.405  1.00  0.00     0.047 A 
BRANCH  14  17
ATOM     17  O   UNL     1      54.094  76.247  11.345  1.00  0.00    -0.508 OA
ATOM     18  H   UNL     1      53.613  75.988  10.492  1.00  0.00     0.293 HD
ENDBRANCH  14  17
ENDBRANCH   1  11
BRANCH  10  19
ATOM     19  O   UNL     1      54.000  74.738  17.465  1.00  0.00    -0.500 OA
ATOM     20  H   UNL     1      53.123  75.238  17.543  1.00  0.00     0.294 HD
ENDBRANCH  10  19
BRANCH   5  21
ATOM     21  O   UNL     1      53.958  66.980  17.114  1.00  0.00    -0.507 OA
ATOM     22  H   UNL     1      53.835  66.648  16.164  1.00  0.00     0.293 HD
ENDBRANCH   5  21
BRANCH   7  23
ATOM     23  O   UNL     1      53.999  70.436  20.446  1.00  0.00    -0.507 OA
ATOM     24  H   UNL     1      54.757  70.908  20.917  1.00  0.00     0.293 HD
ENDBRANCH   7  23
TORSDOF 5
ENDMDL
MODEL 8
REMARK VINA RESULT:    -5.183      1.756      2.471
REMARK INTER + INTRA:          -6.123
REMARK INTER:                  -5.921
REMARK INTRA:                  -0.202
REMARK UNBOUND:                -0.031
REMARK SMILES Oc1ccc(-c2[o+]c3cc(O)cc(O)c3cc2O)cc1
REMARK SMILES IDX 6 1 7 2 8 3 9 4 10 5 12 6 13 7 15 8 16 9 17 10 5 11 4 12
REMARK SMILES IDX 3 13 2 14 19 15 20 16 1 17 18 19 11 21 14 23
REMARK H PARENT 1 18 18 20 11 22 14 24
REMARK Flexibility Score: inf
ROOT
ATOM      1  C   UNL     1      48.274  77.944  27.398  1.00  0.00     0.401 A 
ATOM      2  O   UNL     1      47.409  77.045  27.860  1.00  0.00    -0.202 OA
ATOM      3  C   UNL     1      46.535  77.304  28.828  1.00  0.00     0.368 A 
ATOM      4  C   UNL     1      45.668  76.292  29.248  1.00  0.00     0.162 A 
ATOM      5  C   UNL     1      44.740  76.536  30.266  1.00  0.00     0.128 A 
ATOM      6  C   UNL     1      44.682  77.797  30.865  1.00  0.00     0.093 A 
ATOM      7  C   UNL     1      45.539  78.827  30.461  1.00  0.00     0.136 A 
ATOM      8  C   UNL     1      46.480  78.585  29.427  1.00  0.00     0.125 A 
ATOM      9  C   UNL     1      47.370  79.561  28.949  1.00  0.00     0.078 A 
ATOM     10  C   UNL     1      48.267  79.249  27.922  1.00  0.00     0.223 A 
ENDROOT
BRANCH   1  11
ATOM     11  C   UNL     1      49.205  77.530  26.324  1.00  0.00     0.084 A 
ATOM     12  C   UNL     1      50.596  77.484  26.536  1.00  0.00     0.022 A 
ATOM     13  C   UNL     1      51.454  77.068  25.514  1.00  0.00     0.047 A 
ATOM     14  C   UNL     1      50.933  76.681  24.271  1.00  0.00     0.115 A 
ATOM     15  C   UNL     1      48.691  77.122  25.082  1.00  0.00     0.022 A 
ATOM     16  C   UNL     1      49.552  76.707  24.060  1.00  0.00     0.047 A 
BRANCH  14  17
ATOM     17  O   UNL     1      51.778  76.267  23.245  1.00  0.00    -0.508 OA
ATOM     18  H   UNL     1      52.030  76.885  22.483  1.00  0.00     0.293 HD
ENDBRANCH  14  17
ENDBRANCH   1  11
BRANCH  10  19
ATOM     19  O   UNL     1      49.117  80.232  27.414  1.00  0.00    -0.500 OA
ATOM     20  H   UNL     1      49.262  81.111  27.896  1.00  0.00     0.294 HD
ENDBRANCH  10  19
BRANCH   5  21
ATOM     21  O   UNL     1      43.873  75.533  30.690  1.00  0.00    -0.507 OA
ATOM     22  H   UNL     1      44.126  74.893  31.434  1.00  0.00     0.293 HD
ENDBRANCH   5  21
BRANCH   7  23
ATOM     23  O   UNL     1      45.419  80.058  31.113  1.00  0.00    -0.507 OA
ATOM     24  H   UNL     1      46.189  80.686  31.292  1.00  0.00     0.293 HD
ENDBRANCH   7  23
TORSDOF 5
ENDMDL
