MODEL 1
REMARK VINA RESULT:    -5.817      0.000      0.000
REMARK INTER + INTRA:          -9.807
REMARK INTER:                  -8.027
REMARK INTRA:                  -1.781
REMARK UNBOUND:                -1.781
REMARK SMILES CC[C@@H](CC[C@@H](C)[C@@H]1CC[C@@H]2[C@@H]3CC=C4C[C@@H](O)CC[C@@]4(C)[C@@H]3CC[C@@]21C)C(C)C
REMARK SMILES IDX 5 1 4 2 3 3 2 4 1 5 28 6 29 7 30 8 6 9 7 10 8 11 9 12 26 13
REMARK SMILES IDX 10 14 11 15 25 16 27 17 12 18 24 19 23 20 13 21 21 22 14 23
REMARK SMILES IDX 15 24 20 25 22 26 16 27 19 28 17 29 18 30
REMARK H PARENT 18 31
REMARK Flexibility Score: inf
ROOT
ATOM      1  C   UNL     1      21.845 -14.135  46.528  1.00  0.00     0.004 C 
ENDROOT
BRANCH   1   2
ATOM      2  C   UNL     1      23.319 -14.612  46.517  1.00  0.00     0.004 C 
BRANCH   2   3
ATOM      3  C   UNL     1      23.629 -15.570  45.325  1.00  0.00    -0.009 C 
BRANCH   3   4
ATOM      4  C   UNL     1      24.270 -16.896  45.840  1.00  0.00     0.000 C 
ATOM      5  C   UNL     1      24.748 -16.863  47.299  1.00  0.00     0.004 C 
ENDBRANCH   3   4
BRANCH   3   6
ATOM      6  C   UNL     1      24.446 -14.873  44.179  1.00  0.00    -0.014 C 
ATOM      7  C   UNL     1      25.092 -13.554  44.652  1.00  0.00     0.007 C 
ATOM      8  C   UNL     1      23.570 -14.558  42.949  1.00  0.00     0.007 C 
ENDBRANCH   3   6
ENDBRANCH   2   3
ENDBRANCH   1   2
BRANCH   1   9
ATOM      9  C   UNL     1      21.644 -12.621  46.249  1.00  0.00    -0.011 C 
ATOM     10  C   UNL     1      22.637 -11.782  47.079  1.00  0.00     0.008 C 
BRANCH   9  11
ATOM     11  C   UNL     1      21.623 -12.288  44.706  1.00  0.00    -0.002 C 
ATOM     12  C   UNL     1      22.197 -10.927  44.265  1.00  0.00     0.005 C 
ATOM     13  C   UNL     1      20.235 -12.354  44.008  1.00  0.00    -0.026 C 
ATOM     14  C   UNL     1      21.542 -10.607  42.914  1.00  0.00     0.005 C 
ATOM     15  C   UNL     1      20.578 -11.768  42.622  1.00  0.00    -0.001 C 
ATOM     16  C   UNL     1      19.158 -11.484  44.760  1.00  0.00     0.007 C 
ATOM     17  C   UNL     1      19.759 -13.818  43.878  1.00  0.00     0.012 C 
ATOM     18  C   UNL     1      19.343 -11.462  41.719  1.00  0.00     0.000 C 
ATOM     19  C   UNL     1      18.365 -10.499  43.882  1.00  0.00     0.005 C 
ATOM     20  C   UNL     1      18.042 -11.063  42.487  1.00  0.00     0.003 C 
ATOM     21  C   UNL     1      19.671 -10.501  40.571  1.00  0.00     0.031 C 
ATOM     22  C   UNL     1      17.009 -10.172  41.655  1.00  0.00    -0.008 C 
ATOM     23  C   UNL     1      18.493 -10.410  39.654  1.00  0.00    -0.027 C 
ATOM     24  C   UNL     1      17.239 -10.320  40.140  1.00  0.00    -0.065 C 
ATOM     25  C   UNL     1      15.561 -10.638  42.022  1.00  0.00     0.014 C 
ATOM     26  C   UNL     1      17.143  -8.659  41.984  1.00  0.00     0.016 C 
ATOM     27  C   UNL     1      16.121 -10.034  39.154  1.00  0.00     0.063 C 
ATOM     28  C   UNL     1      14.480 -10.120  41.065  1.00  0.00     0.033 C 
ATOM     29  C   UNL     1      14.767 -10.564  39.626  1.00  0.00     0.118 C 
BRANCH  29  30
ATOM     30  O   UNL     1      14.754 -11.968  39.533  1.00  0.00    -0.393 OA
ATOM     31  H   UNL     1      15.614 -12.238  39.111  1.00  0.00     0.210 HD
ENDBRANCH  29  30
ENDBRANCH   9  11
ENDBRANCH   1   9
TORSDOF 7
ENDMDL
MODEL 2
REMARK VINA RESULT:    -5.773      1.604      3.191
REMARK INTER + INTRA:          -9.748
REMARK INTER:                  -7.570
REMARK INTRA:                  -2.178
REMARK UNBOUND:                -1.781
REMARK SMILES CC[C@@H](CC[C@@H](C)[C@@H]1CC[C@@H]2[C@@H]3CC=C4C[C@@H](O)CC[C@@]4(C)[C@@H]3CC[C@@]21C)C(C)C
REMARK SMILES IDX 5 1 4 2 3 3 2 4 1 5 28 6 29 7 30 8 6 9 7 10 8 11 9 12 26 13
REMARK SMILES IDX 10 14 11 15 25 16 27 17 12 18 24 19 23 20 13 21 21 22 14 23
REMARK SMILES IDX 15 24 20 25 22 26 16 27 19 28 17 29 18 30
REMARK H PARENT 18 31
REMARK Flexibility Score: inf
ROOT
ATOM      1  C   UNL     1      24.246 -14.252  43.568  1.00  0.00     0.004 C 
ENDROOT
BRANCH   1   2
ATOM      2  C   UNL     1      24.615 -12.926  44.277  1.00  0.00     0.004 C 
BRANCH   2   3
ATOM      3  C   UNL     1      24.969 -13.131  45.783  1.00  0.00    -0.009 C 
BRANCH   3   4
ATOM      4  C   UNL     1      24.826 -14.634  46.179  1.00  0.00     0.000 C 
ATOM      5  C   UNL     1      23.508 -15.000  46.876  1.00  0.00     0.004 C 
ENDBRANCH   3   4
BRANCH   3   6
ATOM      6  C   UNL     1      24.193 -12.149  46.732  1.00  0.00    -0.014 C 
ATOM      7  C   UNL     1      23.508 -11.010  45.946  1.00  0.00     0.007 C 
ATOM      8  C   UNL     1      25.119 -11.507  47.787  1.00  0.00     0.007 C 
ENDBRANCH   3   6
ENDBRANCH   2   3
ENDBRANCH   1   2
BRANCH   1   9
ATOM      9  C   UNL     1      22.747 -14.397  43.187  1.00  0.00    -0.011 C 
ATOM     10  C   UNL     1      22.244 -15.820  43.504  1.00  0.00     0.008 C 
BRANCH   9  11
ATOM     11  C   UNL     1      21.859 -13.233  43.777  1.00  0.00    -0.002 C 
ATOM     12  C   UNL     1      20.787 -13.614  44.816  1.00  0.00     0.005 C 
ATOM     13  C   UNL     1      21.087 -12.368  42.742  1.00  0.00    -0.026 C 
ATOM     14  C   UNL     1      19.731 -12.501  44.766  1.00  0.00     0.005 C 
ATOM     15  C   UNL     1      20.195 -11.522  43.676  1.00  0.00    -0.001 C 
ATOM     16  C   UNL     1      20.231 -13.251  41.759  1.00  0.00     0.007 C 
ATOM     17  C   UNL     1      22.060 -11.463  41.952  1.00  0.00     0.012 C 
ATOM     18  C   UNL     1      19.095 -10.687  42.949  1.00  0.00     0.000 C 
ATOM     19  C   UNL     1      18.754 -12.844  41.609  1.00  0.00     0.005 C 
ATOM     20  C   UNL     1      18.546 -11.319  41.630  1.00  0.00     0.003 C 
ATOM     21  C   UNL     1      17.979 -10.227  43.894  1.00  0.00     0.031 C 
ATOM     22  C   UNL     1      17.070 -10.864  41.222  1.00  0.00    -0.008 C 
ATOM     23  C   UNL     1      17.075  -9.285  43.164  1.00  0.00    -0.027 C 
ATOM     24  C   UNL     1      16.691  -9.532  41.897  1.00  0.00    -0.065 C 
ATOM     25  C   UNL     1      17.022 -10.705  39.667  1.00  0.00     0.014 C 
ATOM     26  C   UNL     1      15.998 -11.904  41.650  1.00  0.00     0.016 C 
ATOM     27  C   UNL     1      15.621  -8.637  41.299  1.00  0.00     0.063 C 
ATOM     28  C   UNL     1      15.787  -9.954  39.156  1.00  0.00     0.033 C 
ATOM     29  C   UNL     1      15.706  -8.553  39.774  1.00  0.00     0.118 C 
BRANCH  29  30
ATOM     30  O   UNL     1      16.828  -7.788  39.407  1.00  0.00    -0.393 OA
ATOM     31  H   UNL     1      17.220  -8.216  38.599  1.00  0.00     0.210 HD
ENDBRANCH  29  30
ENDBRANCH   9  11
ENDBRANCH   1   9
TORSDOF 7
ENDMDL
MODEL 3
REMARK VINA RESULT:    -5.752      2.487      8.506
REMARK INTER + INTRA:          -9.719
REMARK INTER:                  -7.451
REMARK INTRA:                  -2.268
REMARK UNBOUND:                -1.781
REMARK SMILES CC[C@@H](CC[C@@H](C)[C@@H]1CC[C@@H]2[C@@H]3CC=C4C[C@@H](O)CC[C@@]4(C)[C@@H]3CC[C@@]21C)C(C)C
REMARK SMILES IDX 5 1 4 2 3 3 2 4 1 5 28 6 29 7 30 8 6 9 7 10 8 11 9 12 26 13
REMARK SMILES IDX 10 14 11 15 25 16 27 17 12 18 24 19 23 20 13 21 21 22 14 23
REMARK SMILES IDX 15 24 20 25 22 26 16 27 19 28 17 29 18 30
REMARK H PARENT 18 31
REMARK Flexibility Score: inf
ROOT
ATOM      1  C   UNL     1      17.829  -9.705  39.232  1.00  0.00     0.004 C 
ENDROOT
BRANCH   1   2
ATOM      2  C   UNL     1      17.114 -11.079  39.207  1.00  0.00     0.004 C 
BRANCH   2   3
ATOM      3  C   UNL     1      15.605 -10.975  39.591  1.00  0.00    -0.009 C 
BRANCH   3   4
ATOM      4  C   UNL     1      15.257  -9.528  40.060  1.00  0.00     0.000 C 
ATOM      5  C   UNL     1      14.136  -8.840  39.269  1.00  0.00     0.004 C 
ENDBRANCH   3   4
BRANCH   3   6
ATOM      6  C   UNL     1      15.153 -12.094  40.598  1.00  0.00    -0.014 C 
ATOM      7  C   UNL     1      14.804 -11.514  41.985  1.00  0.00     0.007 C 
ATOM      8  C   UNL     1      16.239 -13.173  40.794  1.00  0.00     0.007 C 
ENDBRANCH   3   6
ENDBRANCH   2   3
ENDBRANCH   1   2
BRANCH   1   9
ATOM      9  C   UNL     1      18.755  -9.469  40.456  1.00  0.00    -0.011 C 
ATOM     10  C   UNL     1      18.703  -7.991  40.896  1.00  0.00     0.008 C 
BRANCH   9  11
ATOM     11  C   UNL     1      18.505 -10.513  41.613  1.00  0.00    -0.002 C 
ATOM     12  C   UNL     1      17.965  -9.975  42.953  1.00  0.00     0.005 C 
ATOM     13  C   UNL     1      19.723 -11.387  42.024  1.00  0.00    -0.026 C 
ATOM     14  C   UNL     1      18.372 -11.002  44.019  1.00  0.00     0.005 C 
ATOM     15  C   UNL     1      19.168 -12.090  43.281  1.00  0.00    -0.001 C 
ATOM     16  C   UNL     1      20.989 -10.512  42.356  1.00  0.00     0.007 C 
ATOM     17  C   UNL     1      20.050 -12.421  40.922  1.00  0.00     0.012 C 
ATOM     18  C   UNL     1      20.226 -12.885  44.106  1.00  0.00     0.000 C 
ATOM     19  C   UNL     1      21.674 -10.810  43.702  1.00  0.00     0.005 C 
ATOM     20  C   UNL     1      21.677 -12.309  44.054  1.00  0.00     0.003 C 
ATOM     21  C   UNL     1      19.760 -13.186  45.535  1.00  0.00     0.031 C 
ATOM     22  C   UNL     1      22.598 -12.673  45.308  1.00  0.00    -0.008 C 
ATOM     23  C   UNL     1      20.744 -14.104  46.189  1.00  0.00    -0.027 C 
ATOM     24  C   UNL     1      22.070 -13.919  46.044  1.00  0.00    -0.065 C 
ATOM     25  C   UNL     1      24.049 -12.939  44.785  1.00  0.00     0.014 C 
ATOM     26  C   UNL     1      22.649 -11.523  46.352  1.00  0.00     0.016 C 
ATOM     27  C   UNL     1      22.997 -14.767  46.895  1.00  0.00     0.063 C 
ATOM     28  C   UNL     1      24.963 -13.625  45.807  1.00  0.00     0.033 C 
ATOM     29  C   UNL     1      24.371 -14.966  46.254  1.00  0.00     0.118 C 
BRANCH  29  30
ATOM     30  O   UNL     1      24.255 -15.842  45.159  1.00  0.00    -0.393 OA
ATOM     31  H   UNL     1      23.284 -16.010  45.023  1.00  0.00     0.210 HD
ENDBRANCH  29  30
ENDBRANCH   9  11
ENDBRANCH   1   9
TORSDOF 7
ENDMDL
MODEL 4
REMARK VINA RESULT:    -5.725      1.658      3.105
REMARK INTER + INTRA:          -9.681
REMARK INTER:                  -7.427
REMARK INTRA:                  -2.255
REMARK UNBOUND:                -1.781
REMARK SMILES CC[C@@H](CC[C@@H](C)[C@@H]1CC[C@@H]2[C@@H]3CC=C4C[C@@H](O)CC[C@@]4(C)[C@@H]3CC[C@@]21C)C(C)C
REMARK SMILES IDX 5 1 4 2 3 3 2 4 1 5 28 6 29 7 30 8 6 9 7 10 8 11 9 12 26 13
REMARK SMILES IDX 10 14 11 15 25 16 27 17 12 18 24 19 23 20 13 21 21 22 14 23
REMARK SMILES IDX 15 24 20 25 22 26 16 27 19 28 17 29 18 30
REMARK H PARENT 18 31
REMARK Flexibility Score: inf
ROOT
ATOM      1  C   UNL     1      23.561 -15.683  43.925  1.00  0.00     0.004 C 
ENDROOT
BRANCH   1   2
ATOM      2  C   UNL     1      24.300 -14.381  44.325  1.00  0.00     0.004 C 
BRANCH   2   3
ATOM      3  C   UNL     1      24.505 -14.260  45.867  1.00  0.00    -0.009 C 
BRANCH   3   4
ATOM      4  C   UNL     1      23.791 -15.432  46.609  1.00  0.00     0.000 C 
ATOM      5  C   UNL     1      24.731 -16.457  47.260  1.00  0.00     0.004 C 
ENDBRANCH   3   4
BRANCH   3   6
ATOM      6  C   UNL     1      24.133 -12.838  46.422  1.00  0.00    -0.014 C 
ATOM      7  C   UNL     1      22.826 -12.865  47.243  1.00  0.00     0.007 C 
ATOM      8  C   UNL     1      23.964 -11.799  45.293  1.00  0.00     0.007 C 
ENDBRANCH   3   6
ENDBRANCH   2   3
ENDBRANCH   1   2
BRANCH   1   9
ATOM      9  C   UNL     1      22.100 -15.483  43.436  1.00  0.00    -0.011 C 
ATOM     10  C   UNL     1      21.283 -16.776  43.633  1.00  0.00     0.008 C 
BRANCH   9  11
ATOM     11  C   UNL     1      21.435 -14.181  44.033  1.00  0.00    -0.002 C 
ATOM     12  C   UNL     1      20.327 -14.369  45.088  1.00  0.00     0.005 C 
ATOM     13  C   UNL     1      20.811 -13.196  43.005  1.00  0.00    -0.026 C 
ATOM     14  C   UNL     1      19.480 -13.089  45.048  1.00  0.00     0.005 C 
ATOM     15  C   UNL     1      20.093 -12.207  43.948  1.00  0.00    -0.001 C 
ATOM     16  C   UNL     1      19.802 -13.918  42.037  1.00  0.00     0.007 C 
ATOM     17  C   UNL     1      21.916 -12.475  42.200  1.00  0.00     0.012 C 
ATOM     18  C   UNL     1      19.145 -11.194  43.233  1.00  0.00     0.000 C 
ATOM     19  C   UNL     1      18.416 -13.261  41.905  1.00  0.00     0.005 C 
ATOM     20  C   UNL     1      18.477 -11.723  41.923  1.00  0.00     0.003 C 
ATOM     21  C   UNL     1      18.139 -10.547  44.191  1.00  0.00     0.031 C 
ATOM     22  C   UNL     1      17.097 -11.018  41.534  1.00  0.00    -0.008 C 
ATOM     23  C   UNL     1      17.402  -9.462  43.470  1.00  0.00    -0.027 C 
ATOM     24  C   UNL     1      16.964  -9.641  42.208  1.00  0.00    -0.065 C 
ATOM     25  C   UNL     1      17.056 -10.856  39.978  1.00  0.00     0.014 C 
ATOM     26  C   UNL     1      15.866 -11.856  41.979  1.00  0.00     0.016 C 
ATOM     27  C   UNL     1      16.058  -8.573  41.621  1.00  0.00     0.063 C 
ATOM     28  C   UNL     1      15.964  -9.902  39.481  1.00  0.00     0.033 C 
ATOM     29  C   UNL     1      16.135  -8.508  40.095  1.00  0.00     0.118 C 
BRANCH  29  30
ATOM     30  O   UNL     1      17.369  -7.950  39.711  1.00  0.00    -0.393 OA
ATOM     31  H   UNL     1      17.379  -7.011  40.041  1.00  0.00     0.210 HD
ENDBRANCH  29  30
ENDBRANCH   9  11
ENDBRANCH   1   9
TORSDOF 7
ENDMDL
MODEL 5
REMARK VINA RESULT:    -5.560      1.541      3.073
REMARK INTER + INTRA:          -9.453
REMARK INTER:                  -7.620
REMARK INTRA:                  -1.833
REMARK UNBOUND:                -1.781
REMARK SMILES CC[C@@H](CC[C@@H](C)[C@@H]1CC[C@@H]2[C@@H]3CC=C4C[C@@H](O)CC[C@@]4(C)[C@@H]3CC[C@@]21C)C(C)C
REMARK SMILES IDX 5 1 4 2 3 3 2 4 1 5 28 6 29 7 30 8 6 9 7 10 8 11 9 12 26 13
REMARK SMILES IDX 10 14 11 15 25 16 27 17 12 18 24 19 23 20 13 21 21 22 14 23
REMARK SMILES IDX 15 24 20 25 22 26 16 27 19 28 17 29 18 30
REMARK H PARENT 18 31
REMARK Flexibility Score: inf
ROOT
ATOM      1  C   UNL     1      23.052 -13.279  43.511  1.00  0.00     0.004 C 
ENDROOT
BRANCH   1   2
ATOM      2  C   UNL     1      23.611 -12.110  44.360  1.00  0.00     0.004 C 
BRANCH   2   3
ATOM      3  C   UNL     1      24.565 -12.598  45.495  1.00  0.00    -0.009 C 
BRANCH   3   4
ATOM      4  C   UNL     1      24.838 -14.128  45.361  1.00  0.00     0.000 C 
ATOM      5  C   UNL     1      24.418 -14.972  46.573  1.00  0.00     0.004 C 
ENDBRANCH   3   4
BRANCH   3   6
ATOM      6  C   UNL     1      24.084 -12.163  46.926  1.00  0.00    -0.014 C 
ATOM      7  C   UNL     1      22.739 -11.405  46.876  1.00  0.00     0.007 C 
ATOM      8  C   UNL     1      25.113 -11.256  47.634  1.00  0.00     0.007 C 
ENDBRANCH   3   6
ENDBRANCH   2   3
ENDBRANCH   1   2
BRANCH   1   9
ATOM      9  C   UNL     1      21.513 -13.472  43.594  1.00  0.00    -0.011 C 
ATOM     10  C   UNL     1      21.154 -14.465  44.718  1.00  0.00     0.008 C 
BRANCH   9  11
ATOM     11  C   UNL     1      20.734 -12.100  43.647  1.00  0.00    -0.002 C 
ATOM     12  C   UNL     1      19.765 -11.879  44.825  1.00  0.00     0.005 C 
ATOM     13  C   UNL     1      19.888 -11.743  42.393  1.00  0.00    -0.026 C 
ATOM     14  C   UNL     1      18.750 -10.830  44.350  1.00  0.00     0.005 C 
ATOM     15  C   UNL     1      19.130 -10.496  42.898  1.00  0.00    -0.001 C 
ATOM     16  C   UNL     1      18.902 -12.905  41.998  1.00  0.00     0.007 C 
ATOM     17  C   UNL     1      20.804 -11.378  41.203  1.00  0.00     0.012 C 
ATOM     18  C   UNL     1      17.990  -9.998  41.956  1.00  0.00     0.000 C 
ATOM     19  C   UNL     1      17.433 -12.494  41.793  1.00  0.00     0.005 C 
ATOM     20  C   UNL     1      17.283 -11.116  41.124  1.00  0.00     0.003 C 
ATOM     21  C   UNL     1      16.997  -9.071  42.666  1.00  0.00     0.031 C 
ATOM     22  C   UNL     1      15.788 -10.780  40.669  1.00  0.00    -0.008 C 
ATOM     23  C   UNL     1      16.055  -8.496  41.657  1.00  0.00    -0.027 C 
ATOM     24  C   UNL     1      15.530  -9.262  40.680  1.00  0.00    -0.065 C 
ATOM     25  C   UNL     1      15.582 -11.344  39.224  1.00  0.00     0.014 C 
ATOM     26  C   UNL     1      14.731 -11.422  41.609  1.00  0.00     0.016 C 
ATOM     27  C   UNL     1      14.436  -8.655  39.821  1.00  0.00     0.063 C 
ATOM     28  C   UNL     1      14.327 -10.812  38.522  1.00  0.00     0.033 C 
ATOM     29  C   UNL     1      14.361  -9.282  38.429  1.00  0.00     0.118 C 
BRANCH  29  30
ATOM     30  O   UNL     1      15.466  -8.861  37.665  1.00  0.00    -0.393 OA
ATOM     31  H   UNL     1      16.283  -9.169  38.141  1.00  0.00     0.210 HD
ENDBRANCH  29  30
ENDBRANCH   9  11
ENDBRANCH   1   9
TORSDOF 7
ENDMDL
MODEL 6
REMARK VINA RESULT:    -5.499      2.716      8.708
REMARK INTER + INTRA:          -9.369
REMARK INTER:                  -7.282
REMARK INTRA:                  -2.087
REMARK UNBOUND:                -1.781
REMARK SMILES CC[C@@H](CC[C@@H](C)[C@@H]1CC[C@@H]2[C@@H]3CC=C4C[C@@H](O)CC[C@@]4(C)[C@@H]3CC[C@@]21C)C(C)C
REMARK SMILES IDX 5 1 4 2 3 3 2 4 1 5 28 6 29 7 30 8 6 9 7 10 8 11 9 12 26 13
REMARK SMILES IDX 10 14 11 15 25 16 27 17 12 18 24 19 23 20 13 21 21 22 14 23
REMARK SMILES IDX 15 24 20 25 22 26 16 27 19 28 17 29 18 30
REMARK H PARENT 18 31
REMARK Flexibility Score: inf
ROOT
ATOM      1  C   UNL     1      15.670 -10.407  41.834  1.00  0.00     0.004 C 
ENDROOT
BRANCH   1   2
ATOM      2  C   UNL     1      16.179  -8.966  42.086  1.00  0.00     0.004 C 
BRANCH   2   3
ATOM      3  C   UNL     1      15.768  -7.979  40.949  1.00  0.00    -0.009 C 
BRANCH   3   4
ATOM      4  C   UNL     1      14.613  -8.582  40.091  1.00  0.00     0.000 C 
ATOM      5  C   UNL     1      13.739  -7.552  39.361  1.00  0.00     0.004 C 
ENDBRANCH   3   4
BRANCH   3   6
ATOM      6  C   UNL     1      16.993  -7.479  40.102  1.00  0.00    -0.014 C 
ATOM      7  C   UNL     1      17.345  -8.461  38.964  1.00  0.00     0.007 C 
ATOM      8  C   UNL     1      18.256  -7.282  40.967  1.00  0.00     0.007 C 
ENDBRANCH   3   6
ENDBRANCH   2   3
ENDBRANCH   1   2
BRANCH   1   9
ATOM      9  C   UNL     1      16.783 -11.465  41.606  1.00  0.00    -0.011 C 
ATOM     10  C   UNL     1      16.537 -12.235  40.292  1.00  0.00     0.008 C 
BRANCH   9  11
ATOM     11  C   UNL     1      18.233 -10.859  41.757  1.00  0.00    -0.002 C 
ATOM     12  C   UNL     1      19.229 -11.103  40.606  1.00  0.00     0.005 C 
ATOM     13  C   UNL     1      19.022 -11.275  43.030  1.00  0.00    -0.026 C 
ATOM     14  C   UNL     1      20.630 -10.969  41.220  1.00  0.00     0.005 C 
ATOM     15  C   UNL     1      20.414 -10.688  42.716  1.00  0.00    -0.001 C 
ATOM     16  C   UNL     1      19.073 -12.839  43.205  1.00  0.00     0.007 C 
ATOM     17  C   UNL     1      18.420 -10.606  44.287  1.00  0.00     0.012 C 
ATOM     18  C   UNL     1      21.546 -11.128  43.697  1.00  0.00     0.000 C 
ATOM     19  C   UNL     1      20.472 -13.440  43.437  1.00  0.00     0.005 C 
ATOM     20  C   UNL     1      21.368 -12.551  44.317  1.00  0.00     0.003 C 
ATOM     21  C   UNL     1      22.948 -10.903  43.122  1.00  0.00     0.031 C 
ATOM     22  C   UNL     1      22.722 -13.261  44.783  1.00  0.00    -0.008 C 
ATOM     23  C   UNL     1      23.964 -11.172  44.187  1.00  0.00    -0.027 C 
ATOM     24  C   UNL     1      23.842 -12.230  45.012  1.00  0.00    -0.065 C 
ATOM     25  C   UNL     1      22.432 -14.037  46.110  1.00  0.00     0.014 C 
ATOM     26  C   UNL     1      23.249 -14.268  43.723  1.00  0.00     0.016 C 
ATOM     27  C   UNL     1      25.009 -12.545  45.930  1.00  0.00     0.063 C 
ATOM     28  C   UNL     1      23.694 -14.484  46.857  1.00  0.00     0.033 C 
ATOM     29  C   UNL     1      24.581 -13.282  47.199  1.00  0.00     0.118 C 
BRANCH  29  30
ATOM     30  O   UNL     1      23.897 -12.393  48.050  1.00  0.00    -0.393 OA
ATOM     31  H   UNL     1      24.356 -11.513  47.979  1.00  0.00     0.210 HD
ENDBRANCH  29  30
ENDBRANCH   9  11
ENDBRANCH   1   9
TORSDOF 7
ENDMDL
MODEL 7
REMARK VINA RESULT:    -5.449     11.833     13.858
REMARK INTER + INTRA:          -9.301
REMARK INTER:                  -7.586
REMARK INTRA:                  -1.714
REMARK UNBOUND:                -1.781
REMARK SMILES CC[C@@H](CC[C@@H](C)[C@@H]1CC[C@@H]2[C@@H]3CC=C4C[C@@H](O)CC[C@@]4(C)[C@@H]3CC[C@@]21C)C(C)C
REMARK SMILES IDX 5 1 4 2 3 3 2 4 1 5 28 6 29 7 30 8 6 9 7 10 8 11 9 12 26 13
REMARK SMILES IDX 10 14 11 15 25 16 27 17 12 18 24 19 23 20 13 21 21 22 14 23
REMARK SMILES IDX 15 24 20 25 22 26 16 27 19 28 17 29 18 30
REMARK H PARENT 18 31
REMARK Flexibility Score: inf
ROOT
ATOM      1  C   UNL     1      11.506  -3.778  42.030  1.00  0.00     0.004 C 
ENDROOT
BRANCH   1   2
ATOM      2  C   UNL     1      10.141  -4.382  42.444  1.00  0.00     0.004 C 
BRANCH   2   3
ATOM      3  C   UNL     1       9.173  -4.559  41.232  1.00  0.00    -0.009 C 
BRANCH   3   4
ATOM      4  C   UNL     1       8.146  -3.386  41.176  1.00  0.00     0.000 C 
ATOM      5  C   UNL     1       7.841  -2.856  39.767  1.00  0.00     0.004 C 
ENDBRANCH   3   4
BRANCH   3   6
ATOM      6  C   UNL     1       8.512  -5.983  41.181  1.00  0.00    -0.014 C 
ATOM      7  C   UNL     1       7.461  -6.171  42.296  1.00  0.00     0.007 C 
ATOM      8  C   UNL     1       9.555  -7.113  41.317  1.00  0.00     0.007 C 
ENDBRANCH   3   6
ENDBRANCH   2   3
ENDBRANCH   1   2
BRANCH   1   9
ATOM      9  C   UNL     1      11.454  -2.810  40.817  1.00  0.00    -0.011 C 
ATOM     10  C   UNL     1      11.363  -1.347  41.298  1.00  0.00     0.008 C 
BRANCH   9  11
ATOM     11  C   UNL     1      12.599  -3.093  39.768  1.00  0.00    -0.002 C 
ATOM     12  C   UNL     1      13.138  -1.894  38.963  1.00  0.00     0.005 C 
ATOM     13  C   UNL     1      12.287  -4.163  38.684  1.00  0.00    -0.026 C 
ATOM     14  C   UNL     1      13.742  -2.481  37.679  1.00  0.00     0.005 C 
ATOM     15  C   UNL     1      13.506  -3.998  37.752  1.00  0.00    -0.001 C 
ATOM     16  C   UNL     1      10.935  -3.864  37.935  1.00  0.00     0.007 C 
ATOM     17  C   UNL     1      12.264  -5.578  39.305  1.00  0.00     0.012 C 
ATOM     18  C   UNL     1      13.405  -4.772  36.401  1.00  0.00     0.000 C 
ATOM     19  C   UNL     1      11.008  -3.867  36.397  1.00  0.00     0.005 C 
ATOM     20  C   UNL     1      11.956  -4.947  35.844  1.00  0.00     0.003 C 
ATOM     21  C   UNL     1      14.386  -4.251  35.345  1.00  0.00     0.031 C 
ATOM     22  C   UNL     1      11.856  -5.142  34.261  1.00  0.00    -0.008 C 
ATOM     23  C   UNL     1      14.356  -5.159  34.156  1.00  0.00    -0.027 C 
ATOM     24  C   UNL     1      13.191  -5.635  33.675  1.00  0.00    -0.065 C 
ATOM     25  C   UNL     1      10.728  -6.186  33.971  1.00  0.00     0.014 C 
ATOM     26  C   UNL     1      11.507  -3.816  33.529  1.00  0.00     0.016 C 
ATOM     27  C   UNL     1      13.229  -6.385  32.356  1.00  0.00     0.063 C 
ATOM     28  C   UNL     1      10.739  -6.731  32.537  1.00  0.00     0.033 C 
ATOM     29  C   UNL     1      12.085  -7.390  32.215  1.00  0.00     0.118 C 
BRANCH  29  30
ATOM     30  O   UNL     1      12.314  -8.485  33.068  1.00  0.00    -0.393 OA
ATOM     31  H   UNL     1      12.704  -8.122  33.908  1.00  0.00     0.210 HD
ENDBRANCH  29  30
ENDBRANCH   9  11
ENDBRANCH   1   9
TORSDOF 7
ENDMDL
MODEL 8
REMARK VINA RESULT:    -5.272      1.994      3.811
REMARK INTER + INTRA:          -9.056
REMARK INTER:                  -7.114
REMARK INTRA:                  -1.942
REMARK UNBOUND:                -1.781
REMARK SMILES CC[C@@H](CC[C@@H](C)[C@@H]1CC[C@@H]2[C@@H]3CC=C4C[C@@H](O)CC[C@@]4(C)[C@@H]3CC[C@@]21C)C(C)C
REMARK SMILES IDX 5 1 4 2 3 3 2 4 1 5 28 6 29 7 30 8 6 9 7 10 8 11 9 12 26 13
REMARK SMILES IDX 10 14 11 15 25 16 27 17 12 18 24 19 23 20 13 21 21 22 14 23
REMARK SMILES IDX 15 24 20 25 22 26 16 27 19 28 17 29 18 30
REMARK H PARENT 18 31
REMARK Flexibility Score: inf
ROOT
ATOM      1  C   UNL     1      23.828 -15.204  43.678  1.00  0.00     0.004 C 
ENDROOT
BRANCH   1   2
ATOM      2  C   UNL     1      23.280 -15.358  45.119  1.00  0.00     0.004 C 
BRANCH   2   3
ATOM      3  C   UNL     1      23.702 -14.179  46.049  1.00  0.00    -0.009 C 
BRANCH   3   4
ATOM      4  C   UNL     1      24.953 -14.570  46.896  1.00  0.00     0.000 C 
ATOM      5  C   UNL     1      25.121 -16.075  47.150  1.00  0.00     0.004 C 
ENDBRANCH   3   4
BRANCH   3   6
ATOM      6  C   UNL     1      22.509 -13.617  46.903  1.00  0.00    -0.014 C 
ATOM      7  C   UNL     1      21.166 -14.273  46.517  1.00  0.00     0.007 C 
ATOM      8  C   UNL     1      22.353 -12.089  46.748  1.00  0.00     0.007 C 
ENDBRANCH   3   6
ENDBRANCH   2   3
ENDBRANCH   1   2
BRANCH   1   9
ATOM      9  C   UNL     1      22.756 -14.886  42.600  1.00  0.00    -0.011 C 
ATOM     10  C   UNL     1      22.363 -16.167  41.836  1.00  0.00     0.008 C 
BRANCH   9  11
ATOM     11  C   UNL     1      21.542 -14.060  43.179  1.00  0.00    -0.002 C 
ATOM     12  C   UNL     1      20.133 -14.668  43.031  1.00  0.00     0.005 C 
ATOM     13  C   UNL     1      21.382 -12.609  42.645  1.00  0.00    -0.026 C 
ATOM     14  C   UNL     1      19.152 -13.490  43.098  1.00  0.00     0.005 C 
ATOM     15  C   UNL     1      20.014 -12.226  43.247  1.00  0.00    -0.001 C 
ATOM     16  C   UNL     1      21.362 -12.560  41.071  1.00  0.00     0.007 C 
ATOM     17  C   UNL     1      22.497 -11.696  43.204  1.00  0.00     0.012 C 
ATOM     18  C   UNL     1      19.417 -10.886  42.713  1.00  0.00     0.000 C 
ATOM     19  C   UNL     1      20.191 -11.786  40.442  1.00  0.00     0.005 C 
ATOM     20  C   UNL     1      19.803 -10.529  41.242  1.00  0.00     0.003 C 
ATOM     21  C   UNL     1      17.913 -10.761  42.977  1.00  0.00     0.031 C 
ATOM     22  C   UNL     1      18.771  -9.574  40.482  1.00  0.00    -0.008 C 
ATOM     23  C   UNL     1      17.462  -9.383  42.606  1.00  0.00    -0.027 C 
ATOM     24  C   UNL     1      17.901  -8.788  41.480  1.00  0.00    -0.065 C 
ATOM     25  C   UNL     1      19.591  -8.581  39.594  1.00  0.00     0.014 C 
ATOM     26  C   UNL     1      17.799 -10.372  39.569  1.00  0.00     0.016 C 
ATOM     27  C   UNL     1      17.248  -7.479  41.076  1.00  0.00     0.063 C 
ATOM     28  C   UNL     1      18.774  -7.394  39.071  1.00  0.00     0.033 C 
ATOM     29  C   UNL     1      18.168  -6.596  40.232  1.00  0.00     0.118 C 
BRANCH  29  30
ATOM     30  O   UNL     1      19.185  -6.064  41.046  1.00  0.00    -0.393 OA
ATOM     31  H   UNL     1      19.946  -5.835  40.448  1.00  0.00     0.210 HD
ENDBRANCH  29  30
ENDBRANCH   9  11
ENDBRANCH   1   9
TORSDOF 7
ENDMDL
MODEL 9
REMARK VINA RESULT:    -5.247      2.459      4.296
REMARK INTER + INTRA:          -9.022
REMARK INTER:                  -7.293
REMARK INTRA:                  -1.729
REMARK UNBOUND:                -1.781
REMARK SMILES CC[C@@H](CC[C@@H](C)[C@@H]1CC[C@@H]2[C@@H]3CC=C4C[C@@H](O)CC[C@@]4(C)[C@@H]3CC[C@@]21C)C(C)C
REMARK SMILES IDX 5 1 4 2 3 3 2 4 1 5 28 6 29 7 30 8 6 9 7 10 8 11 9 12 26 13
REMARK SMILES IDX 10 14 11 15 25 16 27 17 12 18 24 19 23 20 13 21 21 22 14 23
REMARK SMILES IDX 15 24 20 25 22 26 16 27 19 28 17 29 18 30
REMARK H PARENT 18 31
REMARK Flexibility Score: inf
ROOT
ATOM      1  C   UNL     1      23.499 -14.769  46.534  1.00  0.00     0.004 C 
ENDROOT
BRANCH   1   2
ATOM      2  C   UNL     1      23.268 -13.313  47.010  1.00  0.00     0.004 C 
BRANCH   2   3
ATOM      3  C   UNL     1      23.706 -12.259  45.947  1.00  0.00    -0.009 C 
BRANCH   3   4
ATOM      4  C   UNL     1      24.893 -11.399  46.483  1.00  0.00     0.000 C 
ATOM      5  C   UNL     1      25.125 -11.486  47.998  1.00  0.00     0.004 C 
ENDBRANCH   3   4
BRANCH   3   6
ATOM      6  C   UNL     1      22.504 -11.408  45.399  1.00  0.00    -0.014 C 
ATOM      7  C   UNL     1      22.979 -10.091  44.750  1.00  0.00     0.007 C 
ATOM      8  C   UNL     1      21.491 -11.053  46.508  1.00  0.00     0.007 C 
ENDBRANCH   3   6
ENDBRANCH   2   3
ENDBRANCH   1   2
BRANCH   1   9
ATOM      9  C   UNL     1      23.495 -14.963  44.993  1.00  0.00    -0.011 C 
ATOM     10  C   UNL     1      24.867 -15.476  44.509  1.00  0.00     0.008 C 
BRANCH   9  11
ATOM     11  C   UNL     1      22.258 -15.807  44.493  1.00  0.00    -0.002 C 
ATOM     12  C   UNL     1      22.462 -16.705  43.257  1.00  0.00     0.005 C 
ATOM     13  C   UNL     1      20.967 -15.005  44.165  1.00  0.00    -0.026 C 
ATOM     14  C   UNL     1      21.069 -16.914  42.648  1.00  0.00     0.005 C 
ATOM     15  C   UNL     1      20.096 -16.104  43.521  1.00  0.00    -0.001 C 
ATOM     16  C   UNL     1      21.249 -13.822  43.164  1.00  0.00     0.007 C 
ATOM     17  C   UNL     1      20.308 -14.477  45.459  1.00  0.00     0.012 C 
ATOM     18  C   UNL     1      18.788 -15.589  42.844  1.00  0.00     0.000 C 
ATOM     19  C   UNL     1      20.327 -13.754  41.933  1.00  0.00     0.005 C 
ATOM     20  C   UNL     1      18.873 -14.146  42.250  1.00  0.00     0.003 C 
ATOM     21  C   UNL     1      18.191 -16.600  41.860  1.00  0.00     0.031 C 
ATOM     22  C   UNL     1      17.850 -13.841  41.061  1.00  0.00    -0.008 C 
ATOM     23  C   UNL     1      16.854 -16.111  41.403  1.00  0.00    -0.027 C 
ATOM     24  C   UNL     1      16.658 -14.816  41.086  1.00  0.00    -0.065 C 
ATOM     25  C   UNL     1      17.339 -12.371  41.225  1.00  0.00     0.014 C 
ATOM     26  C   UNL     1      18.516 -13.983  39.664  1.00  0.00     0.016 C 
ATOM     27  C   UNL     1      15.335 -14.440  40.446  1.00  0.00     0.063 C 
ATOM     28  C   UNL     1      16.108 -12.042  40.372  1.00  0.00     0.033 C 
ATOM     29  C   UNL     1      14.945 -12.984  40.706  1.00  0.00     0.118 C 
BRANCH  29  30
ATOM     30  O   UNL     1      14.561 -12.834  42.051  1.00  0.00    -0.393 OA
ATOM     31  H   UNL     1      14.577 -13.740  42.460  1.00  0.00     0.210 HD
ENDBRANCH  29  30
ENDBRANCH   9  11
ENDBRANCH   1   9
TORSDOF 7
ENDMDL
