MODEL 1
REMARK VINA RESULT:    -7.614      0.000      0.000
REMARK INTER + INTRA:         -12.276
REMARK INTER:                 -10.508
REMARK INTRA:                  -1.769
REMARK UNBOUND:                -1.769
REMARK SMILES CC[C@H](CC[C@H](C)[C@@H]1CC[C@@H]2[C@@H]3CC=C4C[C@H](O)CC[C@]4(C)[C@@H]3CC[C@]21C)C(C)C
REMARK SMILES IDX 5 1 4 2 3 3 2 4 1 5 28 6 29 7 30 8 6 9 7 10 8 11 9 12 26 13
REMARK SMILES IDX 10 14 11 15 25 16 27 17 12 18 24 19 23 20 13 21 21 22 14 23
REMARK SMILES IDX 15 24 20 25 22 26 16 27 19 28 17 29 18 30
REMARK H PARENT 18 31
REMARK Flexibility Score: inf
ROOT
ATOM      1  C   UNL     1      13.289  -8.326  25.611  1.00  0.00     0.004 C 
ENDROOT
BRANCH   1   2
ATOM      2  C   UNL     1      13.683  -8.834  24.205  1.00  0.00     0.004 C 
BRANCH   2   3
ATOM      3  C   UNL     1      15.210  -9.092  24.042  1.00  0.00    -0.009 C 
BRANCH   3   4
ATOM      4  C   UNL     1      15.500 -10.618  23.953  1.00  0.00     0.000 C 
ATOM      5  C   UNL     1      16.450 -11.116  25.045  1.00  0.00     0.004 C 
ENDBRANCH   3   4
BRANCH   3   6
ATOM      6  C   UNL     1      15.832  -8.298  22.842  1.00  0.00    -0.014 C 
ATOM      7  C   UNL     1      17.371  -8.265  22.854  1.00  0.00     0.007 C 
ATOM      8  C   UNL     1      15.273  -6.867  22.743  1.00  0.00     0.007 C 
ENDBRANCH   3   6
ENDBRANCH   2   3
ENDBRANCH   1   2
BRANCH   1   9
ATOM      9  C   UNL     1      12.270  -9.247  26.342  1.00  0.00    -0.011 C 
ATOM     10  C   UNL     1      11.005  -8.440  26.695  1.00  0.00     0.008 C 
BRANCH   9  11
ATOM     11  C   UNL     1      12.929  -9.879  27.621  1.00  0.00    -0.002 C 
ATOM     12  C   UNL     1      14.453  -9.568  27.717  1.00  0.00     0.005 C 
ATOM     13  C   UNL     1      12.864 -11.428  27.843  1.00  0.00    -0.026 C 
ATOM     14  C   UNL     1      15.120 -10.730  28.468  1.00  0.00     0.005 C 
ATOM     15  C   UNL     1      13.944 -11.558  28.942  1.00  0.00    -0.001 C 
ATOM     16  C   UNL     1      11.547 -11.975  28.449  1.00  0.00     0.007 C 
ATOM     17  C   UNL     1      13.185 -12.170  26.509  1.00  0.00     0.012 C 
ATOM     18  C   UNL     1      14.197 -12.956  29.553  1.00  0.00     0.000 C 
ATOM     19  C   UNL     1      11.714 -13.414  29.012  1.00  0.00     0.005 C 
ATOM     20  C   UNL     1      12.849 -13.542  30.073  1.00  0.00     0.003 C 
ATOM     21  C   UNL     1      15.015 -13.919  28.671  1.00  0.00     0.031 C 
ATOM     22  C   UNL     1      13.044 -14.976  30.719  1.00  0.00    -0.008 C 
ATOM     23  C   UNL     1      14.910 -15.363  29.067  1.00  0.00    -0.027 C 
ATOM     24  C   UNL     1      13.965 -15.871  29.883  1.00  0.00    -0.065 C 
ATOM     25  C   UNL     1      11.672 -15.701  30.918  1.00  0.00     0.014 C 
ATOM     26  C   UNL     1      13.708 -14.790  32.112  1.00  0.00     0.016 C 
ATOM     27  C   UNL     1      14.039 -17.352  30.218  1.00  0.00     0.063 C 
ATOM     28  C   UNL     1      11.797 -17.165  31.368  1.00  0.00     0.033 C 
ATOM     29  C   UNL     1      12.650 -17.976  30.380  1.00  0.00     0.118 C 
BRANCH  29  30
ATOM     30  O   UNL     1      12.021 -18.045  29.124  1.00  0.00    -0.393 OA
ATOM     31  H   UNL     1      12.724 -18.278  28.462  1.00  0.00     0.210 HD
ENDBRANCH  29  30
ENDBRANCH   9  11
ENDBRANCH   1   9
TORSDOF 7
ENDMDL
MODEL 2
REMARK VINA RESULT:    -7.516      2.449      8.494
REMARK INTER + INTRA:         -12.140
REMARK INTER:                 -10.667
REMARK INTRA:                  -1.473
REMARK UNBOUND:                -1.769
REMARK SMILES CC[C@H](CC[C@H](C)[C@@H]1CC[C@@H]2[C@@H]3CC=C4C[C@H](O)CC[C@]4(C)[C@@H]3CC[C@]21C)C(C)C
REMARK SMILES IDX 5 1 4 2 3 3 2 4 1 5 28 6 29 7 30 8 6 9 7 10 8 11 9 12 26 13
REMARK SMILES IDX 10 14 11 15 25 16 27 17 12 18 24 19 23 20 13 21 21 22 14 23
REMARK SMILES IDX 15 24 20 25 22 26 16 27 19 28 17 29 18 30
REMARK H PARENT 18 31
REMARK Flexibility Score: inf
ROOT
ATOM      1  C   UNL     1      13.130 -16.314  31.239  1.00  0.00     0.004 C 
ENDROOT
BRANCH   1   2
ATOM      2  C   UNL     1      14.179 -17.440  31.096  1.00  0.00     0.004 C 
BRANCH   2   3
ATOM      3  C   UNL     1      14.341 -17.957  29.636  1.00  0.00    -0.009 C 
BRANCH   3   4
ATOM      4  C   UNL     1      15.797 -17.732  29.136  1.00  0.00     0.000 C 
ATOM      5  C   UNL     1      16.857 -18.161  30.153  1.00  0.00     0.004 C 
ENDBRANCH   3   4
BRANCH   3   6
ATOM      6  C   UNL     1      13.878 -19.445  29.468  1.00  0.00    -0.014 C 
ATOM      7  C   UNL     1      12.480 -19.589  28.839  1.00  0.00     0.007 C 
ATOM      8  C   UNL     1      13.944 -20.225  30.793  1.00  0.00     0.007 C 
ENDBRANCH   3   6
ENDBRANCH   2   3
ENDBRANCH   1   2
BRANCH   1   9
ATOM      9  C   UNL     1      13.753 -14.890  31.323  1.00  0.00    -0.011 C 
ATOM     10  C   UNL     1      13.663 -14.372  32.773  1.00  0.00     0.008 C 
BRANCH   9  11
ATOM     11  C   UNL     1      13.035 -13.921  30.316  1.00  0.00    -0.002 C 
ATOM     12  C   UNL     1      11.875 -14.622  29.546  1.00  0.00     0.005 C 
ATOM     13  C   UNL     1      13.860 -13.236  29.175  1.00  0.00    -0.026 C 
ATOM     14  C   UNL     1      11.745 -13.940  28.177  1.00  0.00     0.005 C 
ATOM     15  C   UNL     1      12.689 -12.760  28.284  1.00  0.00    -0.001 C 
ATOM     16  C   UNL     1      14.655 -11.968  29.576  1.00  0.00     0.007 C 
ATOM     17  C   UNL     1      14.816 -14.276  28.511  1.00  0.00     0.012 C 
ATOM     18  C   UNL     1      13.024 -11.938  27.018  1.00  0.00     0.000 C 
ATOM     19  C   UNL     1      15.092 -11.135  28.340  1.00  0.00     0.005 C 
ATOM     20  C   UNL     1      13.907 -10.716  27.418  1.00  0.00     0.003 C 
ATOM     21  C   UNL     1      13.563 -12.755  25.828  1.00  0.00     0.031 C 
ATOM     22  C   UNL     1      14.279  -9.826  26.160  1.00  0.00    -0.008 C 
ATOM     23  C   UNL     1      14.258 -11.937  24.780  1.00  0.00    -0.027 C 
ATOM     24  C   UNL     1      14.691 -10.672  24.950  1.00  0.00    -0.065 C 
ATOM     25  C   UNL     1      15.430  -8.821  26.496  1.00  0.00     0.014 C 
ATOM     26  C   UNL     1      13.018  -9.013  25.756  1.00  0.00     0.016 C 
ATOM     27  C   UNL     1      15.331  -9.975  23.760  1.00  0.00     0.063 C 
ATOM     28  C   UNL     1      15.968  -8.056  25.276  1.00  0.00     0.033 C 
ATOM     29  C   UNL     1      16.454  -9.024  24.186  1.00  0.00     0.118 C 
BRANCH  29  30
ATOM     30  O   UNL     1      17.552  -9.775  24.644  1.00  0.00    -0.393 OA
ATOM     31  H   UNL     1      17.894  -9.319  25.458  1.00  0.00     0.210 HD
ENDBRANCH  29  30
ENDBRANCH   9  11
ENDBRANCH   1   9
TORSDOF 7
ENDMDL
MODEL 3
REMARK VINA RESULT:    -7.385      2.908      8.737
REMARK INTER + INTRA:         -11.960
REMARK INTER:                 -10.827
REMARK INTRA:                  -1.133
REMARK UNBOUND:                -1.769
REMARK SMILES CC[C@H](CC[C@H](C)[C@@H]1CC[C@@H]2[C@@H]3CC=C4C[C@H](O)CC[C@]4(C)[C@@H]3CC[C@]21C)C(C)C
REMARK SMILES IDX 5 1 4 2 3 3 2 4 1 5 28 6 29 7 30 8 6 9 7 10 8 11 9 12 26 13
REMARK SMILES IDX 10 14 11 15 25 16 27 17 12 18 24 19 23 20 13 21 21 22 14 23
REMARK SMILES IDX 15 24 20 25 22 26 16 27 19 28 17 29 18 30
REMARK H PARENT 18 31
REMARK Flexibility Score: inf
ROOT
ATOM      1  C   UNL     1      13.531 -15.175  31.701  1.00  0.00     0.004 C 
ENDROOT
BRANCH   1   2
ATOM      2  C   UNL     1      13.949 -14.129  32.760  1.00  0.00     0.004 C 
BRANCH   2   3
ATOM      3  C   UNL     1      13.264 -14.336  34.143  1.00  0.00    -0.009 C 
BRANCH   3   4
ATOM      4  C   UNL     1      13.599 -15.743  34.714  1.00  0.00     0.000 C 
ATOM      5  C   UNL     1      14.684 -15.714  35.793  1.00  0.00     0.004 C 
ENDBRANCH   3   4
BRANCH   3   6
ATOM      6  C   UNL     1      13.597 -13.188  35.158  1.00  0.00    -0.014 C 
ATOM      7  C   UNL     1      12.382 -12.717  35.977  1.00  0.00     0.007 C 
ATOM      8  C   UNL     1      14.271 -11.987  34.472  1.00  0.00     0.007 C 
ENDBRANCH   3   6
ENDBRANCH   2   3
ENDBRANCH   1   2
BRANCH   1   9
ATOM      9  C   UNL     1      12.511 -14.633  30.659  1.00  0.00    -0.011 C 
ATOM     10  C   UNL     1      11.339 -15.625  30.518  1.00  0.00     0.008 C 
BRANCH   9  11
ATOM     11  C   UNL     1      13.223 -14.377  29.282  1.00  0.00    -0.002 C 
ATOM     12  C   UNL     1      14.641 -15.021  29.221  1.00  0.00     0.005 C 
ATOM     13  C   UNL     1      13.474 -12.909  28.798  1.00  0.00    -0.026 C 
ATOM     14  C   UNL     1      15.499 -14.171  28.273  1.00  0.00     0.005 C 
ATOM     15  C   UNL     1      14.501 -13.198  27.679  1.00  0.00    -0.001 C 
ATOM     16  C   UNL     1      12.274 -12.198  28.125  1.00  0.00     0.007 C 
ATOM     17  C   UNL     1      14.012 -12.044  29.981  1.00  0.00     0.012 C 
ATOM     18  C   UNL     1      15.013 -12.008  26.834  1.00  0.00     0.000 C 
ATOM     19  C   UNL     1      12.712 -10.942  27.321  1.00  0.00     0.005 C 
ATOM     20  C   UNL     1      13.794 -11.239  26.239  1.00  0.00     0.003 C 
ATOM     21  C   UNL     1      16.058 -11.113  27.526  1.00  0.00     0.031 C 
ATOM     22  C   UNL     1      14.254 -10.007  25.354  1.00  0.00    -0.008 C 
ATOM     23  C   UNL     1      16.239  -9.766  26.890  1.00  0.00    -0.027 C 
ATOM     24  C   UNL     1      15.383  -9.207  26.011  1.00  0.00    -0.065 C 
ATOM     25  C   UNL     1      13.057  -9.046  25.052  1.00  0.00     0.014 C 
ATOM     26  C   UNL     1      14.793 -10.560  24.005  1.00  0.00     0.016 C 
ATOM     27  C   UNL     1      15.751  -7.853  25.426  1.00  0.00     0.063 C 
ATOM     28  C   UNL     1      13.465  -7.738  24.356  1.00  0.00     0.033 C 
ATOM     29  C   UNL     1      14.518  -6.979  25.178  1.00  0.00     0.118 C 
BRANCH  29  30
ATOM     30  O   UNL     1      13.982  -6.570  26.412  1.00  0.00    -0.393 OA
ATOM     31  H   UNL     1      14.052  -7.345  27.029  1.00  0.00     0.210 HD
ENDBRANCH  29  30
ENDBRANCH   9  11
ENDBRANCH   1   9
TORSDOF 7
ENDMDL
MODEL 4
REMARK VINA RESULT:    -7.072      3.958      7.768
REMARK INTER + INTRA:         -11.528
REMARK INTER:                 -10.002
REMARK INTRA:                  -1.526
REMARK UNBOUND:                -1.769
REMARK SMILES CC[C@H](CC[C@H](C)[C@@H]1CC[C@@H]2[C@@H]3CC=C4C[C@H](O)CC[C@]4(C)[C@@H]3CC[C@]21C)C(C)C
REMARK SMILES IDX 5 1 4 2 3 3 2 4 1 5 28 6 29 7 30 8 6 9 7 10 8 11 9 12 26 13
REMARK SMILES IDX 10 14 11 15 25 16 27 17 12 18 24 19 23 20 13 21 21 22 14 23
REMARK SMILES IDX 15 24 20 25 22 26 16 27 19 28 17 29 18 30
REMARK H PARENT 18 31
REMARK Flexibility Score: inf
ROOT
ATOM      1  C   UNL     1      16.607 -11.644  28.401  1.00  0.00     0.004 C 
ENDROOT
BRANCH   1   2
ATOM      2  C   UNL     1      16.102 -12.927  27.701  1.00  0.00     0.004 C 
BRANCH   2   3
ATOM      3  C   UNL     1      16.429 -12.975  26.180  1.00  0.00    -0.009 C 
BRANCH   3   4
ATOM      4  C   UNL     1      17.290 -14.227  25.845  1.00  0.00     0.000 C 
ATOM      5  C   UNL     1      17.262 -14.599  24.361  1.00  0.00     0.004 C 
ENDBRANCH   3   4
BRANCH   3   6
ATOM      6  C   UNL     1      15.146 -12.879  25.284  1.00  0.00    -0.014 C 
ATOM      7  C   UNL     1      15.126 -11.645  24.364  1.00  0.00     0.007 C 
ATOM      8  C   UNL     1      13.853 -12.940  26.116  1.00  0.00     0.007 C 
ENDBRANCH   3   6
ENDBRANCH   2   3
ENDBRANCH   1   2
BRANCH   1   9
ATOM      9  C   UNL     1      15.465 -10.670  28.812  1.00  0.00    -0.011 C 
ATOM     10  C   UNL     1      14.442 -11.415  29.692  1.00  0.00     0.008 C 
BRANCH   9  11
ATOM     11  C   UNL     1      14.789 -10.052  27.535  1.00  0.00    -0.002 C 
ATOM     12  C   UNL     1      15.780  -9.183  26.703  1.00  0.00     0.005 C 
ATOM     13  C   UNL     1      13.539  -9.122  27.691  1.00  0.00    -0.026 C 
ATOM     14  C   UNL     1      14.962  -8.096  25.991  1.00  0.00     0.005 C 
ATOM     15  C   UNL     1      13.529  -8.495  26.277  1.00  0.00    -0.001 C 
ATOM     16  C   UNL     1      12.175  -9.836  27.869  1.00  0.00     0.007 C 
ATOM     17  C   UNL     1      13.769  -8.113  28.860  1.00  0.00     0.012 C 
ATOM     18  C   UNL     1      12.384  -7.519  25.921  1.00  0.00     0.000 C 
ATOM     19  C   UNL     1      10.977  -8.884  27.601  1.00  0.00     0.005 C 
ATOM     20  C   UNL     1      11.014  -8.212  26.195  1.00  0.00     0.003 C 
ATOM     21  C   UNL     1      12.517  -6.105  26.519  1.00  0.00     0.031 C 
ATOM     22  C   UNL     1       9.796  -7.261  25.842  1.00  0.00    -0.008 C 
ATOM     23  C   UNL     1      11.244  -5.310  26.520  1.00  0.00    -0.027 C 
ATOM     24  C   UNL     1      10.012  -5.828  26.340  1.00  0.00    -0.065 C 
ATOM     25  C   UNL     1       8.457  -7.810  26.435  1.00  0.00     0.014 C 
ATOM     26  C   UNL     1       9.663  -7.206  24.295  1.00  0.00     0.016 C 
ATOM     27  C   UNL     1       8.835  -4.866  26.320  1.00  0.00     0.063 C 
ATOM     28  C   UNL     1       7.267  -6.847  26.290  1.00  0.00     0.033 C 
ATOM     29  C   UNL     1       7.576  -5.486  26.933  1.00  0.00     0.118 C 
BRANCH  29  30
ATOM     30  O   UNL     1       7.752  -5.623  28.321  1.00  0.00    -0.393 OA
ATOM     31  H   UNL     1       8.577  -6.159  28.456  1.00  0.00     0.210 HD
ENDBRANCH  29  30
ENDBRANCH   9  11
ENDBRANCH   1   9
TORSDOF 7
ENDMDL
MODEL 5
REMARK VINA RESULT:    -7.031      4.213      8.284
REMARK INTER + INTRA:         -11.471
REMARK INTER:                 -10.097
REMARK INTRA:                  -1.374
REMARK UNBOUND:                -1.769
REMARK SMILES CC[C@H](CC[C@H](C)[C@@H]1CC[C@@H]2[C@@H]3CC=C4C[C@H](O)CC[C@]4(C)[C@@H]3CC[C@]21C)C(C)C
REMARK SMILES IDX 5 1 4 2 3 3 2 4 1 5 28 6 29 7 30 8 6 9 7 10 8 11 9 12 26 13
REMARK SMILES IDX 10 14 11 15 25 16 27 17 12 18 24 19 23 20 13 21 21 22 14 23
REMARK SMILES IDX 15 24 20 25 22 26 16 27 19 28 17 29 18 30
REMARK H PARENT 18 31
REMARK Flexibility Score: inf
ROOT
ATOM      1  C   UNL     1      17.766 -10.235  25.396  1.00  0.00     0.004 C 
ENDROOT
BRANCH   1   2
ATOM      2  C   UNL     1      17.660 -11.731  25.773  1.00  0.00     0.004 C 
BRANCH   2   3
ATOM      3  C   UNL     1      16.820 -12.569  24.765  1.00  0.00    -0.009 C 
BRANCH   3   4
ATOM      4  C   UNL     1      17.729 -13.573  23.999  1.00  0.00     0.000 C 
ATOM      5  C   UNL     1      17.300 -15.031  24.177  1.00  0.00     0.004 C 
ENDBRANCH   3   4
BRANCH   3   6
ATOM      6  C   UNL     1      15.594 -13.273  25.441  1.00  0.00    -0.014 C 
ATOM      7  C   UNL     1      14.253 -12.562  25.183  1.00  0.00     0.007 C 
ATOM      8  C   UNL     1      15.803 -13.475  26.952  1.00  0.00     0.007 C 
ENDBRANCH   3   6
ENDBRANCH   2   3
ENDBRANCH   1   2
BRANCH   1   9
ATOM      9  C   UNL     1      16.675  -9.347  26.061  1.00  0.00    -0.011 C 
ATOM     10  C   UNL     1      16.172 -10.025  27.351  1.00  0.00     0.008 C 
BRANCH   9  11
ATOM     11  C   UNL     1      15.500  -9.079  25.052  1.00  0.00    -0.002 C 
ATOM     12  C   UNL     1      15.977  -8.322  23.776  1.00  0.00     0.005 C 
ATOM     13  C   UNL     1      14.252  -8.253  25.515  1.00  0.00    -0.026 C 
ATOM     14  C   UNL     1      14.795  -7.490  23.258  1.00  0.00     0.005 C 
ATOM     15  C   UNL     1      13.641  -7.945  24.128  1.00  0.00    -0.001 C 
ATOM     16  C   UNL     1      13.175  -9.032  26.310  1.00  0.00     0.007 C 
ATOM     17  C   UNL     1      14.714  -7.002  26.326  1.00  0.00     0.012 C 
ATOM     18  C   UNL     1      12.302  -7.175  24.076  1.00  0.00     0.000 C 
ATOM     19  C   UNL     1      11.822  -8.271  26.364  1.00  0.00     0.005 C 
ATOM     20  C   UNL     1      11.250  -7.913  24.959  1.00  0.00     0.003 C 
ATOM     21  C   UNL     1      12.406  -5.659  24.337  1.00  0.00     0.031 C 
ATOM     22  C   UNL     1       9.848  -7.173  24.942  1.00  0.00    -0.008 C 
ATOM     23  C   UNL     1      11.105  -5.001  24.690  1.00  0.00    -0.027 C 
ATOM     24  C   UNL     1       9.990  -5.653  25.077  1.00  0.00    -0.065 C 
ATOM     25  C   UNL     1       8.913  -7.701  26.080  1.00  0.00     0.014 C 
ATOM     26  C   UNL     1       9.169  -7.461  23.574  1.00  0.00     0.016 C 
ATOM     27  C   UNL     1       8.743  -4.827  25.347  1.00  0.00     0.063 C 
ATOM     28  C   UNL     1       7.610  -6.902  26.239  1.00  0.00     0.033 C 
ATOM     29  C   UNL     1       7.901  -5.413  26.485  1.00  0.00     0.118 C 
BRANCH  29  30
ATOM     30  O   UNL     1       8.576  -5.234  27.705  1.00  0.00    -0.393 OA
ATOM     31  H   UNL     1       7.885  -5.040  28.391  1.00  0.00     0.210 HD
ENDBRANCH  29  30
ENDBRANCH   9  11
ENDBRANCH   1   9
TORSDOF 7
ENDMDL
MODEL 6
REMARK VINA RESULT:    -6.945      2.853      9.244
REMARK INTER + INTRA:         -11.353
REMARK INTER:                 -10.200
REMARK INTRA:                  -1.153
REMARK UNBOUND:                -1.769
REMARK SMILES CC[C@H](CC[C@H](C)[C@@H]1CC[C@@H]2[C@@H]3CC=C4C[C@H](O)CC[C@]4(C)[C@@H]3CC[C@]21C)C(C)C
REMARK SMILES IDX 5 1 4 2 3 3 2 4 1 5 28 6 29 7 30 8 6 9 7 10 8 11 9 12 26 13
REMARK SMILES IDX 10 14 11 15 25 16 27 17 12 18 24 19 23 20 13 21 21 22 14 23
REMARK SMILES IDX 15 24 20 25 22 26 16 27 19 28 17 29 18 30
REMARK H PARENT 18 31
REMARK Flexibility Score: inf
ROOT
ATOM      1  C   UNL     1      12.665 -15.855  31.832  1.00  0.00     0.004 C 
ENDROOT
BRANCH   1   2
ATOM      2  C   UNL     1      12.766 -16.292  33.311  1.00  0.00     0.004 C 
BRANCH   2   3
ATOM      3  C   UNL     1      11.498 -15.953  34.149  1.00  0.00    -0.009 C 
BRANCH   3   4
ATOM      4  C   UNL     1      10.442 -17.088  34.025  1.00  0.00     0.000 C 
ATOM      5  C   UNL     1       9.794 -17.457  35.361  1.00  0.00     0.004 C 
ENDBRANCH   3   4
BRANCH   3   6
ATOM      6  C   UNL     1      11.834 -15.614  35.642  1.00  0.00    -0.014 C 
ATOM      7  C   UNL     1      11.510 -14.161  36.033  1.00  0.00     0.007 C 
ATOM      8  C   UNL     1      13.296 -15.944  35.995  1.00  0.00     0.007 C 
ENDBRANCH   3   6
ENDBRANCH   2   3
ENDBRANCH   1   2
BRANCH   1   9
ATOM      9  C   UNL     1      13.583 -14.650  31.475  1.00  0.00    -0.011 C 
ATOM     10  C   UNL     1      13.912 -13.854  32.754  1.00  0.00     0.008 C 
BRANCH   9  11
ATOM     11  C   UNL     1      12.896 -13.745  30.390  1.00  0.00    -0.002 C 
ATOM     12  C   UNL     1      11.782 -14.502  29.606  1.00  0.00     0.005 C 
ATOM     13  C   UNL     1      13.762 -13.103  29.253  1.00  0.00    -0.026 C 
ATOM     14  C   UNL     1      11.704 -13.891  28.200  1.00  0.00     0.005 C 
ATOM     15  C   UNL     1      12.625 -12.692  28.289  1.00  0.00    -0.001 C 
ATOM     16  C   UNL     1      14.520 -11.804  29.624  1.00  0.00     0.007 C 
ATOM     17  C   UNL     1      14.761 -14.159  28.685  1.00  0.00     0.012 C 
ATOM     18  C   UNL     1      13.004 -11.928  26.999  1.00  0.00     0.000 C 
ATOM     19  C   UNL     1      14.999 -11.026  28.367  1.00  0.00     0.005 C 
ATOM     20  C   UNL     1      13.850 -10.674  27.374  1.00  0.00     0.003 C 
ATOM     21  C   UNL     1      13.607 -12.795  25.876  1.00  0.00     0.031 C 
ATOM     22  C   UNL     1      14.265  -9.842  26.090  1.00  0.00    -0.008 C 
ATOM     23  C   UNL     1      14.336 -12.018  24.819  1.00  0.00    -0.027 C 
ATOM     24  C   UNL     1      14.743 -10.739  24.944  1.00  0.00    -0.065 C 
ATOM     25  C   UNL     1      15.385  -8.802  26.425  1.00  0.00     0.014 C 
ATOM     26  C   UNL     1      13.011  -9.070  25.592  1.00  0.00     0.016 C 
ATOM     27  C   UNL     1      15.425 -10.092  23.750  1.00  0.00     0.063 C 
ATOM     28  C   UNL     1      15.965  -8.090  25.193  1.00  0.00     0.033 C 
ATOM     29  C   UNL     1      16.514  -9.103  24.176  1.00  0.00     0.118 C 
BRANCH  29  30
ATOM     30  O   UNL     1      17.600  -9.811  24.718  1.00  0.00    -0.393 OA
ATOM     31  H   UNL     1      17.613 -10.702  24.279  1.00  0.00     0.210 HD
ENDBRANCH  29  30
ENDBRANCH   9  11
ENDBRANCH   1   9
TORSDOF 7
ENDMDL
MODEL 7
REMARK VINA RESULT:    -6.896      3.922      8.192
REMARK INTER + INTRA:         -11.285
REMARK INTER:                  -9.075
REMARK INTRA:                  -2.210
REMARK UNBOUND:                -1.769
REMARK SMILES CC[C@H](CC[C@H](C)[C@@H]1CC[C@@H]2[C@@H]3CC=C4C[C@H](O)CC[C@]4(C)[C@@H]3CC[C@]21C)C(C)C
REMARK SMILES IDX 5 1 4 2 3 3 2 4 1 5 28 6 29 7 30 8 6 9 7 10 8 11 9 12 26 13
REMARK SMILES IDX 10 14 11 15 25 16 27 17 12 18 24 19 23 20 13 21 21 22 14 23
REMARK SMILES IDX 15 24 20 25 22 26 16 27 19 28 17 29 18 30
REMARK H PARENT 18 31
REMARK Flexibility Score: inf
ROOT
ATOM      1  C   UNL     1      16.191 -11.838  28.052  1.00  0.00     0.004 C 
ENDROOT
BRANCH   1   2
ATOM      2  C   UNL     1      17.442 -11.069  28.537  1.00  0.00     0.004 C 
BRANCH   2   3
ATOM      3  C   UNL     1      17.126  -9.641  29.071  1.00  0.00    -0.009 C 
BRANCH   3   4
ATOM      4  C   UNL     1      17.374  -9.564  30.604  1.00  0.00     0.000 C 
ATOM      5  C   UNL     1      16.091  -9.363  31.414  1.00  0.00     0.004 C 
ENDBRANCH   3   4
BRANCH   3   6
ATOM      6  C   UNL     1      17.894  -8.521  28.288  1.00  0.00    -0.014 C 
ATOM      7  C   UNL     1      17.461  -7.094  28.669  1.00  0.00     0.007 C 
ATOM      8  C   UNL     1      17.800  -8.713  26.763  1.00  0.00     0.007 C 
ENDBRANCH   3   6
ENDBRANCH   2   3
ENDBRANCH   1   2
BRANCH   1   9
ATOM      9  C   UNL     1      14.850 -11.159  28.453  1.00  0.00    -0.011 C 
ATOM     10  C   UNL     1      14.059 -12.092  29.392  1.00  0.00     0.008 C 
BRANCH   9  11
ATOM     11  C   UNL     1      14.020 -10.792  27.169  1.00  0.00    -0.002 C 
ATOM     12  C   UNL     1      14.918 -10.666  25.901  1.00  0.00     0.005 C 
ATOM     13  C   UNL     1      13.173  -9.475  27.143  1.00  0.00    -0.026 C 
ATOM     14  C   UNL     1      14.252  -9.653  24.958  1.00  0.00     0.005 C 
ATOM     15  C   UNL     1      12.916  -9.386  25.620  1.00  0.00    -0.001 C 
ATOM     16  C   UNL     1      11.783  -9.544  27.823  1.00  0.00     0.007 C 
ATOM     17  C   UNL     1      14.002  -8.297  27.743  1.00  0.00     0.012 C 
ATOM     18  C   UNL     1      12.026  -8.235  25.097  1.00  0.00     0.000 C 
ATOM     19  C   UNL     1      10.864  -8.366  27.399  1.00  0.00     0.005 C 
ATOM     20  C   UNL     1      10.665  -8.252  25.857  1.00  0.00     0.003 C 
ATOM     21  C   UNL     1      12.708  -6.854  25.037  1.00  0.00     0.031 C 
ATOM     22  C   UNL     1       9.702  -7.095  25.359  1.00  0.00    -0.008 C 
ATOM     23  C   UNL     1      11.757  -5.698  24.930  1.00  0.00    -0.027 C 
ATOM     24  C   UNL     1      10.435  -5.761  25.187  1.00  0.00    -0.065 C 
ATOM     25  C   UNL     1       8.501  -6.894  26.342  1.00  0.00     0.014 C 
ATOM     26  C   UNL     1       9.138  -7.504  23.971  1.00  0.00     0.016 C 
ATOM     27  C   UNL     1       9.612  -4.500  24.978  1.00  0.00     0.063 C 
ATOM     28  C   UNL     1       7.630  -5.669  26.021  1.00  0.00     0.033 C 
ATOM     29  C   UNL     1       8.471  -4.384  25.994  1.00  0.00     0.118 C 
BRANCH  29  30
ATOM     30  O   UNL     1       9.005  -4.113  27.266  1.00  0.00    -0.393 OA
ATOM     31  H   UNL     1       8.921  -3.135  27.412  1.00  0.00     0.210 HD
ENDBRANCH  29  30
ENDBRANCH   9  11
ENDBRANCH   1   9
TORSDOF 7
ENDMDL
MODEL 8
REMARK VINA RESULT:    -6.894      3.616      8.750
REMARK INTER + INTRA:         -11.283
REMARK INTER:                  -9.722
REMARK INTRA:                  -1.561
REMARK UNBOUND:                -1.769
REMARK SMILES CC[C@H](CC[C@H](C)[C@@H]1CC[C@@H]2[C@@H]3CC=C4C[C@H](O)CC[C@]4(C)[C@@H]3CC[C@]21C)C(C)C
REMARK SMILES IDX 5 1 4 2 3 3 2 4 1 5 28 6 29 7 30 8 6 9 7 10 8 11 9 12 26 13
REMARK SMILES IDX 10 14 11 15 25 16 27 17 12 18 24 19 23 20 13 21 21 22 14 23
REMARK SMILES IDX 15 24 20 25 22 26 16 27 19 28 17 29 18 30
REMARK H PARENT 18 31
REMARK Flexibility Score: inf
ROOT
ATOM      1  C   UNL     1      17.972 -12.051  26.396  1.00  0.00     0.004 C 
ENDROOT
BRANCH   1   2
ATOM      2  C   UNL     1      17.504 -12.677  27.731  1.00  0.00     0.004 C 
BRANCH   2   3
ATOM      3  C   UNL     1      16.282 -13.628  27.576  1.00  0.00    -0.009 C 
BRANCH   3   4
ATOM      4  C   UNL     1      16.625 -15.049  28.107  1.00  0.00     0.000 C 
ATOM      5  C   UNL     1      18.125 -15.352  28.094  1.00  0.00     0.004 C 
ENDBRANCH   3   4
BRANCH   3   6
ATOM      6  C   UNL     1      14.980 -13.048  28.228  1.00  0.00    -0.014 C 
ATOM      7  C   UNL     1      13.867 -12.734  27.212  1.00  0.00     0.007 C 
ATOM      8  C   UNL     1      15.269 -11.809  29.095  1.00  0.00     0.007 C 
ENDBRANCH   3   6
ENDBRANCH   2   3
ENDBRANCH   1   2
BRANCH   1   9
ATOM      9  C   UNL     1      17.010 -12.332  25.206  1.00  0.00    -0.011 C 
ATOM     10  C   UNL     1      17.572 -13.483  24.348  1.00  0.00     0.008 C 
BRANCH   9  11
ATOM     11  C   UNL     1      16.799 -11.027  24.357  1.00  0.00    -0.002 C 
ATOM     12  C   UNL     1      18.115 -10.209  24.192  1.00  0.00     0.005 C 
ATOM     13  C   UNL     1      15.764  -9.950  24.832  1.00  0.00    -0.026 C 
ATOM     14  C   UNL     1      17.730  -8.729  24.050  1.00  0.00     0.005 C 
ATOM     15  C   UNL     1      16.220  -8.771  23.941  1.00  0.00    -0.001 C 
ATOM     16  C   UNL     1      14.282 -10.226  24.477  1.00  0.00     0.007 C 
ATOM     17  C   UNL     1      15.910  -9.714  26.367  1.00  0.00     0.012 C 
ATOM     18  C   UNL     1      15.417  -7.452  24.012  1.00  0.00     0.000 C 
ATOM     19  C   UNL     1      13.402  -8.953  24.606  1.00  0.00     0.005 C 
ATOM     20  C   UNL     1      13.909  -7.753  23.750  1.00  0.00     0.003 C 
ATOM     21  C   UNL     1      15.689  -6.584  25.256  1.00  0.00     0.031 C 
ATOM     22  C   UNL     1      13.031  -6.434  23.803  1.00  0.00    -0.008 C 
ATOM     23  C   UNL     1      14.642  -5.543  25.526  1.00  0.00    -0.027 C 
ATOM     24  C   UNL     1      13.410  -5.529  24.980  1.00  0.00    -0.065 C 
ATOM     25  C   UNL     1      11.506  -6.771  23.890  1.00  0.00     0.014 C 
ATOM     26  C   UNL     1      13.285  -5.635  22.495  1.00  0.00     0.016 C 
ATOM     27  C   UNL     1      12.493  -4.367  25.328  1.00  0.00     0.063 C 
ATOM     28  C   UNL     1      10.608  -5.547  24.130  1.00  0.00     0.033 C 
ATOM     29  C   UNL     1      11.025  -4.797  25.404  1.00  0.00     0.118 C 
BRANCH  29  30
ATOM     30  O   UNL     1      10.833  -5.603  26.540  1.00  0.00    -0.393 OA
ATOM     31  H   UNL     1      11.174  -6.508  26.312  1.00  0.00     0.210 HD
ENDBRANCH  29  30
ENDBRANCH   9  11
ENDBRANCH   1   9
TORSDOF 7
ENDMDL
MODEL 9
REMARK VINA RESULT:    -6.816      5.510      8.490
REMARK INTER + INTRA:         -11.175
REMARK INTER:                  -9.023
REMARK INTRA:                  -2.152
REMARK UNBOUND:                -1.769
REMARK SMILES CC[C@H](CC[C@H](C)[C@@H]1CC[C@@H]2[C@@H]3CC=C4C[C@H](O)CC[C@]4(C)[C@@H]3CC[C@]21C)C(C)C
REMARK SMILES IDX 5 1 4 2 3 3 2 4 1 5 28 6 29 7 30 8 6 9 7 10 8 11 9 12 26 13
REMARK SMILES IDX 10 14 11 15 25 16 27 17 12 18 24 19 23 20 13 21 21 22 14 23
REMARK SMILES IDX 15 24 20 25 22 26 16 27 19 28 17 29 18 30
REMARK H PARENT 18 31
REMARK Flexibility Score: inf
ROOT
ATOM      1  C   UNL     1       7.618  -5.697  26.315  1.00  0.00     0.004 C 
ENDROOT
BRANCH   1   2
ATOM      2  C   UNL     1       7.607  -4.544  27.345  1.00  0.00     0.004 C 
BRANCH   2   3
ATOM      3  C   UNL     1       9.029  -4.070  27.764  1.00  0.00    -0.009 C 
BRANCH   3   4
ATOM      4  C   UNL     1       9.241  -2.577  27.383  1.00  0.00     0.000 C 
ATOM      5  C   UNL     1      10.182  -2.386  26.192  1.00  0.00     0.004 C 
ENDBRANCH   3   4
BRANCH   3   6
ATOM      6  C   UNL     1       9.337  -4.348  29.275  1.00  0.00    -0.014 C 
ATOM      7  C   UNL     1      10.664  -3.734  29.759  1.00  0.00     0.007 C 
ATOM      8  C   UNL     1       9.297  -5.850  29.608  1.00  0.00     0.007 C 
ENDBRANCH   3   6
ENDBRANCH   2   3
ENDBRANCH   1   2
BRANCH   1   9
ATOM      9  C   UNL     1       8.824  -5.642  25.333  1.00  0.00    -0.011 C 
ATOM     10  C   UNL     1       8.323  -5.285  23.919  1.00  0.00     0.008 C 
BRANCH   9  11
ATOM     11  C   UNL     1       9.600  -7.008  25.345  1.00  0.00    -0.002 C 
ATOM     12  C   UNL     1       9.239  -7.882  26.584  1.00  0.00     0.005 C 
ATOM     13  C   UNL     1      11.166  -7.012  25.346  1.00  0.00    -0.026 C 
ATOM     14  C   UNL     1      10.464  -8.745  26.919  1.00  0.00     0.005 C 
ATOM     15  C   UNL     1      11.402  -8.484  25.758  1.00  0.00    -0.001 C 
ATOM     16  C   UNL     1      11.850  -6.823  23.969  1.00  0.00     0.007 C 
ATOM     17  C   UNL     1      11.700  -5.950  26.357  1.00  0.00     0.012 C 
ATOM     18  C   UNL     1      12.859  -8.997  25.828  1.00  0.00     0.000 C 
ATOM     19  C   UNL     1      13.344  -7.247  23.993  1.00  0.00     0.005 C 
ATOM     20  C   UNL     1      13.570  -8.714  24.470  1.00  0.00     0.003 C 
ATOM     21  C   UNL     1      13.652  -8.550  27.072  1.00  0.00     0.031 C 
ATOM     22  C   UNL     1      15.070  -9.225  24.477  1.00  0.00    -0.008 C 
ATOM     23  C   UNL     1      15.140  -8.695  26.942  1.00  0.00    -0.027 C 
ATOM     24  C   UNL     1      15.799  -8.875  25.779  1.00  0.00    -0.065 C 
ATOM     25  C   UNL     1      15.875  -8.639  23.270  1.00  0.00     0.014 C 
ATOM     26  C   UNL     1      15.052 -10.773  24.350  1.00  0.00     0.016 C 
ATOM     27  C   UNL     1      17.307  -9.053  25.839  1.00  0.00     0.063 C 
ATOM     28  C   UNL     1      17.381  -8.943  23.316  1.00  0.00     0.033 C 
ATOM     29  C   UNL     1      18.007  -8.436  24.624  1.00  0.00     0.118 C 
BRANCH  29  30
ATOM     30  O   UNL     1      17.928  -7.035  24.702  1.00  0.00    -0.393 OA
ATOM     31  H   UNL     1      17.424  -6.820  25.531  1.00  0.00     0.210 HD
ENDBRANCH  29  30
ENDBRANCH   9  11
ENDBRANCH   1   9
TORSDOF 7
ENDMDL
