MODEL 1
REMARK VINA RESULT:    -7.580      0.000      0.000
REMARK INTER + INTRA:         -12.283
REMARK INTER:                 -10.460
REMARK INTRA:                  -1.823
REMARK UNBOUND:                -1.823
REMARK SMILES CC[C@@H](CC[C@@H](C)[C@@H]1CC[C@@H]2[C@@H]3CC=C4C[C@H](O)CC[C@@]4(C)[C@@H]3CC[C@@]21C)C(C)C
REMARK SMILES IDX 5 1 4 2 3 3 2 4 1 5 28 6 29 7 30 8 6 9 7 10 8 11 9 12 26 13
REMARK SMILES IDX 10 14 11 15 25 16 27 17 12 18 24 19 23 20 13 21 21 22 14 23
REMARK SMILES IDX 15 24 20 25 22 26 16 27 19 28 17 29 18 30
REMARK H PARENT 18 31
REMARK Flexibility Score: inf
ROOT
ATOM      1  C   UNL     1      25.119 -16.394  30.069  1.00  0.00     0.004 C 
ENDROOT
BRANCH   1   2
ATOM      2  C   UNL     1      26.607 -16.738  30.336  1.00  0.00     0.004 C 
BRANCH   2   3
ATOM      3  C   UNL     1      26.821 -17.853  31.406  1.00  0.00    -0.009 C 
BRANCH   3   4
ATOM      4  C   UNL     1      27.002 -17.169  32.792  1.00  0.00     0.000 C 
ATOM      5  C   UNL     1      25.929 -17.546  33.814  1.00  0.00     0.004 C 
ENDBRANCH   3   4
BRANCH   3   6
ATOM      6  C   UNL     1      27.996 -18.875  31.126  1.00  0.00    -0.014 C 
ATOM      7  C   UNL     1      29.064 -18.792  32.232  1.00  0.00     0.007 C 
ATOM      8  C   UNL     1      27.603 -20.352  30.944  1.00  0.00     0.007 C 
ENDBRANCH   3   6
ENDBRANCH   2   3
ENDBRANCH   1   2
BRANCH   1   9
ATOM      9  C   UNL     1      24.143 -17.602  30.126  1.00  0.00    -0.011 C 
ATOM     10  C   UNL     1      23.130 -17.399  31.274  1.00  0.00     0.008 C 
BRANCH   9  11
ATOM     11  C   UNL     1      23.434 -17.916  28.755  1.00  0.00    -0.002 C 
ATOM     12  C   UNL     1      22.109 -18.659  28.941  1.00  0.00     0.005 C 
ATOM     13  C   UNL     1      24.201 -18.772  27.677  1.00  0.00    -0.026 C 
ATOM     14  C   UNL     1      21.730 -19.134  27.558  1.00  0.00     0.005 C 
ATOM     15  C   UNL     1      23.055 -19.474  26.861  1.00  0.00    -0.001 C 
ATOM     16  C   UNL     1      25.150 -19.820  28.324  1.00  0.00     0.007 C 
ATOM     17  C   UNL     1      25.023 -17.848  26.739  1.00  0.00     0.012 C 
ATOM     18  C   UNL     1      23.255 -20.996  26.544  1.00  0.00     0.000 C 
ATOM     19  C   UNL     1      25.659 -20.921  27.369  1.00  0.00     0.005 C 
ATOM     20  C   UNL     1      24.727 -21.261  26.166  1.00  0.00     0.003 C 
ATOM     21  C   UNL     1      22.796 -22.008  27.622  1.00  0.00     0.031 C 
ATOM     22  C   UNL     1      24.935 -22.720  25.593  1.00  0.00    -0.008 C 
ATOM     23  C   UNL     1      23.172 -23.424  27.270  1.00  0.00    -0.027 C 
ATOM     24  C   UNL     1      24.151 -23.760  26.397  1.00  0.00    -0.065 C 
ATOM     25  C   UNL     1      24.416 -22.801  24.119  1.00  0.00     0.014 C 
ATOM     26  C   UNL     1      26.453 -23.071  25.592  1.00  0.00     0.016 C 
ATOM     27  C   UNL     1      24.209 -25.186  25.897  1.00  0.00     0.063 C 
ATOM     28  C   UNL     1      24.384 -24.237  23.544  1.00  0.00     0.033 C 
ATOM     29  C   UNL     1      23.645 -25.226  24.466  1.00  0.00     0.118 C 
BRANCH  29  30
ATOM     30  O   UNL     1      23.769 -26.522  23.941  1.00  0.00    -0.393 OA
ATOM     31  H   UNL     1      24.197 -26.430  23.050  1.00  0.00     0.210 HD
ENDBRANCH  29  30
ENDBRANCH   9  11
ENDBRANCH   1   9
TORSDOF 7
ENDMDL
MODEL 2
REMARK VINA RESULT:    -7.477      1.683      4.105
REMARK INTER + INTRA:         -12.141
REMARK INTER:                 -10.082
REMARK INTRA:                  -2.059
REMARK UNBOUND:                -1.823
REMARK SMILES CC[C@@H](CC[C@@H](C)[C@@H]1CC[C@@H]2[C@@H]3CC=C4C[C@H](O)CC[C@@]4(C)[C@@H]3CC[C@@]21C)C(C)C
REMARK SMILES IDX 5 1 4 2 3 3 2 4 1 5 28 6 29 7 30 8 6 9 7 10 8 11 9 12 26 13
REMARK SMILES IDX 10 14 11 15 25 16 27 17 12 18 24 19 23 20 13 21 21 22 14 23
REMARK SMILES IDX 15 24 20 25 22 26 16 27 19 28 17 29 18 30
REMARK H PARENT 18 31
REMARK Flexibility Score: inf
ROOT
ATOM      1  C   UNL     1      26.413 -19.476  31.982  1.00  0.00     0.004 C 
ENDROOT
BRANCH   1   2
ATOM      2  C   UNL     1      25.530 -18.300  31.493  1.00  0.00     0.004 C 
BRANCH   2   3
ATOM      3  C   UNL     1      25.953 -17.718  30.109  1.00  0.00    -0.009 C 
BRANCH   3   4
ATOM      4  C   UNL     1      26.854 -16.474  30.360  1.00  0.00     0.000 C 
ATOM      5  C   UNL     1      26.864 -16.000  31.813  1.00  0.00     0.004 C 
ENDBRANCH   3   4
BRANCH   3   6
ATOM      6  C   UNL     1      24.778 -17.367  29.109  1.00  0.00    -0.014 C 
ATOM      7  C   UNL     1      25.261 -17.452  27.649  1.00  0.00     0.007 C 
ATOM      8  C   UNL     1      23.486 -18.194  29.239  1.00  0.00     0.007 C 
ENDBRANCH   3   6
ENDBRANCH   2   3
ENDBRANCH   1   2
BRANCH   1   9
ATOM      9  C   UNL     1      27.315 -20.121  30.892  1.00  0.00    -0.011 C 
ATOM     10  C   UNL     1      28.800 -19.857  31.224  1.00  0.00     0.008 C 
BRANCH   9  11
ATOM     11  C   UNL     1      27.022 -21.648  30.641  1.00  0.00    -0.002 C 
ATOM     12  C   UNL     1      28.243 -22.393  30.095  1.00  0.00     0.005 C 
ATOM     13  C   UNL     1      25.861 -22.050  29.654  1.00  0.00    -0.026 C 
ATOM     14  C   UNL     1      27.711 -23.730  29.638  1.00  0.00     0.005 C 
ATOM     15  C   UNL     1      26.303 -23.452  29.096  1.00  0.00    -0.001 C 
ATOM     16  C   UNL     1      25.682 -21.020  28.504  1.00  0.00     0.007 C 
ATOM     17  C   UNL     1      24.522 -22.192  30.426  1.00  0.00     0.012 C 
ATOM     18  C   UNL     1      26.141 -23.671  27.552  1.00  0.00     0.000 C 
ATOM     19  C   UNL     1      24.827 -21.507  27.315  1.00  0.00     0.005 C 
ATOM     20  C   UNL     1      24.814 -23.048  27.073  1.00  0.00     0.003 C 
ATOM     21  C   UNL     1      27.304 -23.197  26.646  1.00  0.00     0.031 C 
ATOM     22  C   UNL     1      24.476 -23.455  25.583  1.00  0.00    -0.008 C 
ATOM     23  C   UNL     1      26.973 -23.326  25.182  1.00  0.00    -0.027 C 
ATOM     24  C   UNL     1      25.715 -23.401  24.687  1.00  0.00    -0.065 C 
ATOM     25  C   UNL     1      23.943 -24.926  25.533  1.00  0.00     0.014 C 
ATOM     26  C   UNL     1      23.363 -22.519  25.024  1.00  0.00     0.016 C 
ATOM     27  C   UNL     1      25.533 -23.845  23.253  1.00  0.00     0.063 C 
ATOM     28  C   UNL     1      23.784 -25.485  24.099  1.00  0.00     0.033 C 
ATOM     29  C   UNL     1      25.058 -25.308  23.250  1.00  0.00     0.118 C 
BRANCH  29  30
ATOM     30  O   UNL     1      24.793 -25.721  21.935  1.00  0.00    -0.393 OA
ATOM     31  H   UNL     1      25.648 -26.065  21.565  1.00  0.00     0.210 HD
ENDBRANCH  29  30
ENDBRANCH   9  11
ENDBRANCH   1   9
TORSDOF 7
ENDMDL
MODEL 3
REMARK VINA RESULT:    -7.377      3.375      8.175
REMARK INTER + INTRA:         -12.004
REMARK INTER:                  -9.625
REMARK INTRA:                  -2.379
REMARK UNBOUND:                -1.823
REMARK SMILES CC[C@@H](CC[C@@H](C)[C@@H]1CC[C@@H]2[C@@H]3CC=C4C[C@H](O)CC[C@@]4(C)[C@@H]3CC[C@@]21C)C(C)C
REMARK SMILES IDX 5 1 4 2 3 3 2 4 1 5 28 6 29 7 30 8 6 9 7 10 8 11 9 12 26 13
REMARK SMILES IDX 10 14 11 15 25 16 27 17 12 18 24 19 23 20 13 21 21 22 14 23
REMARK SMILES IDX 15 24 20 25 22 26 16 27 19 28 17 29 18 30
REMARK H PARENT 18 31
REMARK Flexibility Score: inf
ROOT
ATOM      1  C   UNL     1      24.932 -25.753  26.459  1.00  0.00     0.004 C 
ENDROOT
BRANCH   1   2
ATOM      2  C   UNL     1      24.877 -25.083  25.062  1.00  0.00     0.004 C 
BRANCH   2   3
ATOM      3  C   UNL     1      24.640 -23.542  25.104  1.00  0.00    -0.009 C 
BRANCH   3   4
ATOM      4  C   UNL     1      23.198 -23.258  24.590  1.00  0.00     0.000 C 
ATOM      5  C   UNL     1      22.303 -22.560  25.614  1.00  0.00     0.004 C 
ENDBRANCH   3   4
BRANCH   3   6
ATOM      6  C   UNL     1      25.696 -22.650  24.334  1.00  0.00    -0.014 C 
ATOM      7  C   UNL     1      25.788 -21.248  24.963  1.00  0.00     0.007 C 
ATOM      8  C   UNL     1      27.121 -23.217  24.207  1.00  0.00     0.007 C 
ENDBRANCH   3   6
ENDBRANCH   2   3
ENDBRANCH   1   2
BRANCH   1   9
ATOM      9  C   UNL     1      24.467 -24.855  27.640  1.00  0.00    -0.011 C 
ATOM     10  C   UNL     1      23.187 -25.447  28.270  1.00  0.00     0.008 C 
BRANCH   9  11
ATOM     11  C   UNL     1      25.586 -24.579  28.712  1.00  0.00    -0.002 C 
ATOM     12  C   UNL     1      25.097 -24.824  30.141  1.00  0.00     0.005 C 
ATOM     13  C   UNL     1      26.244 -23.149  28.777  1.00  0.00    -0.026 C 
ATOM     14  C   UNL     1      26.168 -24.235  31.027  1.00  0.00     0.005 C 
ATOM     15  C   UNL     1      26.694 -23.003  30.277  1.00  0.00    -0.001 C 
ATOM     16  C   UNL     1      25.249 -22.023  28.378  1.00  0.00     0.007 C 
ATOM     17  C   UNL     1      27.488 -23.084  27.849  1.00  0.00     0.012 C 
ATOM     18  C   UNL     1      26.379 -21.632  30.970  1.00  0.00     0.000 C 
ATOM     19  C   UNL     1      25.693 -20.593  28.753  1.00  0.00     0.005 C 
ATOM     20  C   UNL     1      26.644 -20.476  29.983  1.00  0.00     0.003 C 
ATOM     21  C   UNL     1      24.979 -21.469  31.610  1.00  0.00     0.031 C 
ATOM     22  C   UNL     1      26.590 -19.067  30.698  1.00  0.00    -0.008 C 
ATOM     23  C   UNL     1      24.743 -20.068  32.112  1.00  0.00    -0.027 C 
ATOM     24  C   UNL     1      25.424 -18.979  31.686  1.00  0.00    -0.065 C 
ATOM     25  C   UNL     1      27.900 -18.827  31.518  1.00  0.00     0.014 C 
ATOM     26  C   UNL     1      26.477 -17.941  29.627  1.00  0.00     0.016 C 
ATOM     27  C   UNL     1      25.314 -17.703  32.490  1.00  0.00     0.063 C 
ATOM     28  C   UNL     1      27.853 -17.570  32.420  1.00  0.00     0.033 C 
ATOM     29  C   UNL     1      26.600 -17.533  33.317  1.00  0.00     0.118 C 
BRANCH  29  30
ATOM     30  O   UNL     1      26.566 -16.310  34.006  1.00  0.00    -0.393 OA
ATOM     31  H   UNL     1      27.310 -16.330  34.662  1.00  0.00     0.210 HD
ENDBRANCH  29  30
ENDBRANCH   9  11
ENDBRANCH   1   9
TORSDOF 7
ENDMDL
MODEL 4
REMARK VINA RESULT:    -7.325      1.357      2.566
REMARK INTER + INTRA:         -11.931
REMARK INTER:                  -9.902
REMARK INTRA:                  -2.030
REMARK UNBOUND:                -1.823
REMARK SMILES CC[C@@H](CC[C@@H](C)[C@@H]1CC[C@@H]2[C@@H]3CC=C4C[C@H](O)CC[C@@]4(C)[C@@H]3CC[C@@]21C)C(C)C
REMARK SMILES IDX 5 1 4 2 3 3 2 4 1 5 28 6 29 7 30 8 6 9 7 10 8 11 9 12 26 13
REMARK SMILES IDX 10 14 11 15 25 16 27 17 12 18 24 19 23 20 13 21 21 22 14 23
REMARK SMILES IDX 15 24 20 25 22 26 16 27 19 28 17 29 18 30
REMARK H PARENT 18 31
REMARK Flexibility Score: inf
ROOT
ATOM      1  C   UNL     1      24.254 -18.972  32.231  1.00  0.00     0.004 C 
ENDROOT
BRANCH   1   2
ATOM      2  C   UNL     1      24.968 -17.603  32.362  1.00  0.00     0.004 C 
BRANCH   2   3
ATOM      3  C   UNL     1      26.324 -17.516  31.595  1.00  0.00    -0.009 C 
BRANCH   3   4
ATOM      4  C   UNL     1      27.477 -17.565  32.639  1.00  0.00     0.000 C 
ATOM      5  C   UNL     1      28.553 -18.605  32.326  1.00  0.00     0.004 C 
ENDBRANCH   3   4
BRANCH   3   6
ATOM      6  C   UNL     1      26.500 -16.281  30.622  1.00  0.00    -0.014 C 
ATOM      7  C   UNL     1      27.278 -16.688  29.358  1.00  0.00     0.007 C 
ATOM      8  C   UNL     1      25.216 -15.554  30.185  1.00  0.00     0.007 C 
ENDBRANCH   3   6
ENDBRANCH   2   3
ENDBRANCH   1   2
BRANCH   1   9
ATOM      9  C   UNL     1      23.553 -19.223  30.866  1.00  0.00    -0.011 C 
ATOM     10  C   UNL     1      22.326 -18.294  30.735  1.00  0.00     0.008 C 
BRANCH   9  11
ATOM     11  C   UNL     1      24.515 -19.117  29.624  1.00  0.00    -0.002 C 
ATOM     12  C   UNL     1      23.830 -18.490  28.408  1.00  0.00     0.005 C 
ATOM     13  C   UNL     1      25.171 -20.431  29.053  1.00  0.00    -0.026 C 
ATOM     14  C   UNL     1      24.774 -18.741  27.256  1.00  0.00     0.005 C 
ATOM     15  C   UNL     1      25.410 -20.110  27.533  1.00  0.00    -0.001 C 
ATOM     16  C   UNL     1      24.252 -21.673  29.227  1.00  0.00     0.007 C 
ATOM     17  C   UNL     1      26.532 -20.702  29.751  1.00  0.00     0.012 C 
ATOM     18  C   UNL     1      25.015 -21.233  26.512  1.00  0.00     0.000 C 
ATOM     19  C   UNL     1      24.652 -22.907  28.391  1.00  0.00     0.005 C 
ATOM     20  C   UNL     1      25.425 -22.612  27.069  1.00  0.00     0.003 C 
ATOM     21  C   UNL     1      23.541 -21.272  26.040  1.00  0.00     0.031 C 
ATOM     22  C   UNL     1      25.285 -23.752  25.982  1.00  0.00    -0.008 C 
ATOM     23  C   UNL     1      23.251 -22.475  25.180  1.00  0.00    -0.027 C 
ATOM     24  C   UNL     1      23.995 -23.605  25.173  1.00  0.00    -0.065 C 
ATOM     25  C   UNL     1      26.471 -23.676  24.965  1.00  0.00     0.014 C 
ATOM     26  C   UNL     1      25.332 -25.146  26.677  1.00  0.00     0.016 C 
ATOM     27  C   UNL     1      23.786 -24.595  24.048  1.00  0.00     0.063 C 
ATOM     28  C   UNL     1      26.311 -24.615  23.745  1.00  0.00     0.033 C 
ATOM     29  C   UNL     1      24.946 -24.451  23.048  1.00  0.00     0.118 C 
BRANCH  29  30
ATOM     30  O   UNL     1      24.829 -25.419  22.039  1.00  0.00    -0.393 OA
ATOM     31  H   UNL     1      23.995 -25.214  21.540  1.00  0.00     0.210 HD
ENDBRANCH  29  30
ENDBRANCH   9  11
ENDBRANCH   1   9
TORSDOF 7
ENDMDL
MODEL 5
REMARK VINA RESULT:    -7.226     11.825     15.234
REMARK INTER + INTRA:         -11.796
REMARK INTER:                 -10.080
REMARK INTRA:                  -1.715
REMARK UNBOUND:                -1.823
REMARK SMILES CC[C@@H](CC[C@@H](C)[C@@H]1CC[C@@H]2[C@@H]3CC=C4C[C@H](O)CC[C@@]4(C)[C@@H]3CC[C@@]21C)C(C)C
REMARK SMILES IDX 5 1 4 2 3 3 2 4 1 5 28 6 29 7 30 8 6 9 7 10 8 11 9 12 26 13
REMARK SMILES IDX 10 14 11 15 25 16 27 17 12 18 24 19 23 20 13 21 21 22 14 23
REMARK SMILES IDX 15 24 20 25 22 26 16 27 19 28 17 29 18 30
REMARK H PARENT 18 31
REMARK Flexibility Score: inf
ROOT
ATOM      1  C   UNL     1      21.906 -33.008  36.704  1.00  0.00     0.004 C 
ENDROOT
BRANCH   1   2
ATOM      2  C   UNL     1      22.967 -33.047  35.575  1.00  0.00     0.004 C 
BRANCH   2   3
ATOM      3  C   UNL     1      22.386 -33.383  34.167  1.00  0.00    -0.009 C 
BRANCH   3   4
ATOM      4  C   UNL     1      22.690 -32.187  33.218  1.00  0.00     0.000 C 
ATOM      5  C   UNL     1      23.395 -31.017  33.904  1.00  0.00     0.004 C 
ENDBRANCH   3   4
BRANCH   3   6
ATOM      6  C   UNL     1      20.851 -33.764  34.115  1.00  0.00    -0.014 C 
ATOM      7  C   UNL     1      20.043 -32.673  33.390  1.00  0.00     0.007 C 
ATOM      8  C   UNL     1      20.495 -35.125  33.490  1.00  0.00     0.007 C 
ENDBRANCH   3   6
ENDBRANCH   2   3
ENDBRANCH   1   2
BRANCH   1   9
ATOM      9  C   UNL     1      21.368 -31.593  37.055  1.00  0.00    -0.011 C 
ATOM     10  C   UNL     1      19.824 -31.597  37.010  1.00  0.00     0.008 C 
BRANCH   9  11
ATOM     11  C   UNL     1      21.923 -31.016  38.412  1.00  0.00    -0.002 C 
ATOM     12  C   UNL     1      21.053 -29.883  38.962  1.00  0.00     0.005 C 
ATOM     13  C   UNL     1      23.383 -30.425  38.449  1.00  0.00    -0.026 C 
ATOM     14  C   UNL     1      21.874 -29.264  40.068  1.00  0.00     0.005 C 
ATOM     15  C   UNL     1      23.333 -29.357  39.602  1.00  0.00    -0.001 C 
ATOM     16  C   UNL     1      23.790 -29.773  37.098  1.00  0.00     0.007 C 
ATOM     17  C   UNL     1      24.406 -31.536  38.808  1.00  0.00     0.012 C 
ATOM     18  C   UNL     1      24.014 -27.976  39.304  1.00  0.00     0.000 C 
ATOM     19  C   UNL     1      25.040 -28.870  37.156  1.00  0.00     0.005 C 
ATOM     20  C   UNL     1      25.332 -28.200  38.533  1.00  0.00     0.003 C 
ATOM     21  C   UNL     1      23.156 -26.906  38.584  1.00  0.00     0.031 C 
ATOM     22  C   UNL     1      26.185 -26.872  38.428  1.00  0.00    -0.008 C 
ATOM     23  C   UNL     1      23.959 -25.683  38.223  1.00  0.00    -0.027 C 
ATOM     24  C   UNL     1      25.307 -25.660  38.109  1.00  0.00    -0.065 C 
ATOM     25  C   UNL     1      26.892 -26.575  39.792  1.00  0.00     0.014 C 
ATOM     26  C   UNL     1      27.286 -27.044  37.340  1.00  0.00     0.016 C 
ATOM     27  C   UNL     1      26.001 -24.317  38.059  1.00  0.00     0.063 C 
ATOM     28  C   UNL     1      27.579 -25.190  39.852  1.00  0.00     0.033 C 
ATOM     29  C   UNL     1      26.638 -24.044  39.433  1.00  0.00     0.118 C 
BRANCH  29  30
ATOM     30  O   UNL     1      27.367 -22.845  39.391  1.00  0.00    -0.393 OA
ATOM     31  H   UNL     1      27.213 -22.448  38.494  1.00  0.00     0.210 HD
ENDBRANCH  29  30
ENDBRANCH   9  11
ENDBRANCH   1   9
TORSDOF 7
ENDMDL
MODEL 6
REMARK VINA RESULT:    -7.180      2.510      4.732
REMARK INTER + INTRA:         -11.732
REMARK INTER:                  -9.876
REMARK INTRA:                  -1.856
REMARK UNBOUND:                -1.823
REMARK SMILES CC[C@@H](CC[C@@H](C)[C@@H]1CC[C@@H]2[C@@H]3CC=C4C[C@H](O)CC[C@@]4(C)[C@@H]3CC[C@@]21C)C(C)C
REMARK SMILES IDX 5 1 4 2 3 3 2 4 1 5 28 6 29 7 30 8 6 9 7 10 8 11 9 12 26 13
REMARK SMILES IDX 10 14 11 15 25 16 27 17 12 18 24 19 23 20 13 21 21 22 14 23
REMARK SMILES IDX 15 24 20 25 22 26 16 27 19 28 17 29 18 30
REMARK H PARENT 18 31
REMARK Flexibility Score: inf
ROOT
ATOM      1  C   UNL     1      20.469 -18.332  28.634  1.00  0.00     0.004 C 
ENDROOT
BRANCH   1   2
ATOM      2  C   UNL     1      20.893 -18.004  30.089  1.00  0.00     0.004 C 
BRANCH   2   3
ATOM      3  C   UNL     1      21.526 -16.589  30.264  1.00  0.00    -0.009 C 
BRANCH   3   4
ATOM      4  C   UNL     1      22.847 -16.745  31.074  1.00  0.00     0.000 C 
ATOM      5  C   UNL     1      22.993 -18.101  31.764  1.00  0.00     0.004 C 
ENDBRANCH   3   4
BRANCH   3   6
ATOM      6  C   UNL     1      20.599 -15.482  30.911  1.00  0.00    -0.014 C 
ATOM      7  C   UNL     1      19.658 -14.875  29.855  1.00  0.00     0.007 C 
ATOM      8  C   UNL     1      19.754 -15.908  32.124  1.00  0.00     0.007 C 
ENDBRANCH   3   6
ENDBRANCH   2   3
ENDBRANCH   1   2
BRANCH   1   9
ATOM      9  C   UNL     1      21.642 -18.599  27.650  1.00  0.00    -0.011 C 
ATOM     10  C   UNL     1      21.873 -17.353  26.767  1.00  0.00     0.008 C 
BRANCH   9  11
ATOM     11  C   UNL     1      22.966 -19.086  28.350  1.00  0.00    -0.002 C 
ATOM     12  C   UNL     1      24.202 -18.340  27.843  1.00  0.00     0.005 C 
ATOM     13  C   UNL     1      23.371 -20.605  28.243  1.00  0.00    -0.026 C 
ATOM     14  C   UNL     1      25.377 -19.121  28.380  1.00  0.00     0.005 C 
ATOM     15  C   UNL     1      24.938 -20.592  28.361  1.00  0.00    -0.001 C 
ATOM     16  C   UNL     1      22.916 -21.244  26.901  1.00  0.00     0.007 C 
ATOM     17  C   UNL     1      22.763 -21.411  29.423  1.00  0.00     0.012 C 
ATOM     18  C   UNL     1      25.723 -21.496  27.348  1.00  0.00     0.000 C 
ATOM     19  C   UNL     1      23.571 -22.600  26.564  1.00  0.00     0.005 C 
ATOM     20  C   UNL     1      24.987 -22.840  27.170  1.00  0.00     0.003 C 
ATOM     21  C   UNL     1      26.049 -20.885  25.963  1.00  0.00     0.031 C 
ATOM     22  C   UNL     1      25.857 -23.885  26.363  1.00  0.00    -0.008 C 
ATOM     23  C   UNL     1      26.671 -21.892  25.030  1.00  0.00    -0.027 C 
ATOM     24  C   UNL     1      26.560 -23.234  25.171  1.00  0.00    -0.065 C 
ATOM     25  C   UNL     1      26.975 -24.481  27.281  1.00  0.00     0.014 C 
ATOM     26  C   UNL     1      24.951 -25.058  25.881  1.00  0.00     0.016 C 
ATOM     27  C   UNL     1      27.485 -24.118  24.365  1.00  0.00     0.063 C 
ATOM     28  C   UNL     1      28.006 -25.354  26.526  1.00  0.00     0.033 C 
ATOM     29  C   UNL     1      28.595 -24.641  25.294  1.00  0.00     0.118 C 
BRANCH  29  30
ATOM     30  O   UNL     1      29.418 -25.538  24.595  1.00  0.00    -0.393 OA
ATOM     31  H   UNL     1      29.387 -25.271  23.640  1.00  0.00     0.210 HD
ENDBRANCH  29  30
ENDBRANCH   9  11
ENDBRANCH   1   9
TORSDOF 7
ENDMDL
MODEL 7
REMARK VINA RESULT:    -7.178      1.970      4.400
REMARK INTER + INTRA:         -11.729
REMARK INTER:                  -9.768
REMARK INTRA:                  -1.961
REMARK UNBOUND:                -1.823
REMARK SMILES CC[C@@H](CC[C@@H](C)[C@@H]1CC[C@@H]2[C@@H]3CC=C4C[C@H](O)CC[C@@]4(C)[C@@H]3CC[C@@]21C)C(C)C
REMARK SMILES IDX 5 1 4 2 3 3 2 4 1 5 28 6 29 7 30 8 6 9 7 10 8 11 9 12 26 13
REMARK SMILES IDX 10 14 11 15 25 16 27 17 12 18 24 19 23 20 13 21 21 22 14 23
REMARK SMILES IDX 15 24 20 25 22 26 16 27 19 28 17 29 18 30
REMARK H PARENT 18 31
REMARK Flexibility Score: inf
ROOT
ATOM      1  C   UNL     1      23.238 -17.535  31.173  1.00  0.00     0.004 C 
ENDROOT
BRANCH   1   2
ATOM      2  C   UNL     1      21.711 -17.276  31.130  1.00  0.00     0.004 C 
BRANCH   2   3
ATOM      3  C   UNL     1      21.253 -16.356  29.956  1.00  0.00    -0.009 C 
BRANCH   3   4
ATOM      4  C   UNL     1      20.424 -15.182  30.555  1.00  0.00     0.000 C 
ATOM      5  C   UNL     1      19.903 -15.449  31.966  1.00  0.00     0.004 C 
ENDBRANCH   3   4
BRANCH   3   6
ATOM      6  C   UNL     1      20.462 -17.060  28.782  1.00  0.00    -0.014 C 
ATOM      7  C   UNL     1      21.226 -16.927  27.452  1.00  0.00     0.007 C 
ATOM      8  C   UNL     1      20.098 -18.542  28.982  1.00  0.00     0.007 C 
ENDBRANCH   3   6
ENDBRANCH   2   3
ENDBRANCH   1   2
BRANCH   1   9
ATOM      9  C   UNL     1      23.868 -17.987  29.826  1.00  0.00    -0.011 C 
ATOM     10  C   UNL     1      24.908 -16.943  29.362  1.00  0.00     0.008 C 
BRANCH   9  11
ATOM     11  C   UNL     1      24.461 -19.446  29.854  1.00  0.00    -0.002 C 
ATOM     12  C   UNL     1      25.901 -19.500  29.338  1.00  0.00     0.005 C 
ATOM     13  C   UNL     1      23.727 -20.584  29.048  1.00  0.00    -0.026 C 
ATOM     14  C   UNL     1      26.194 -20.970  29.154  1.00  0.00     0.005 C 
ATOM     15  C   UNL     1      24.872 -21.601  28.693  1.00  0.00    -0.001 C 
ATOM     16  C   UNL     1      23.037 -20.046  27.764  1.00  0.00     0.007 C 
ATOM     17  C   UNL     1      22.667 -21.281  29.943  1.00  0.00     0.012 C 
ATOM     18  C   UNL     1      24.887 -22.151  27.225  1.00  0.00     0.000 C 
ATOM     19  C   UNL     1      22.610 -21.125  26.747  1.00  0.00     0.005 C 
ATOM     20  C   UNL     1      23.444 -22.443  26.763  1.00  0.00     0.003 C 
ATOM     21  C   UNL     1      25.621 -21.301  26.159  1.00  0.00     0.031 C 
ATOM     22  C   UNL     1      23.412 -23.234  25.395  1.00  0.00    -0.008 C 
ATOM     23  C   UNL     1      25.442 -21.854  24.769  1.00  0.00    -0.027 C 
ATOM     24  C   UNL     1      24.439 -22.685  24.401  1.00  0.00    -0.065 C 
ATOM     25  C   UNL     1      23.769 -24.738  25.632  1.00  0.00     0.014 C 
ATOM     26  C   UNL     1      21.980 -23.167  24.785  1.00  0.00     0.016 C 
ATOM     27  C   UNL     1      24.556 -23.411  23.080  1.00  0.00     0.063 C 
ATOM     28  C   UNL     1      23.969 -25.548  24.328  1.00  0.00     0.033 C 
ATOM     29  C   UNL     1      24.956 -24.871  23.358  1.00  0.00     0.118 C 
BRANCH  29  30
ATOM     30  O   UNL     1      24.985 -25.595  22.155  1.00  0.00    -0.393 OA
ATOM     31  H   UNL     1      25.049 -26.555  22.400  1.00  0.00     0.210 HD
ENDBRANCH  29  30
ENDBRANCH   9  11
ENDBRANCH   1   9
TORSDOF 7
ENDMDL
MODEL 8
REMARK VINA RESULT:    -7.133      5.731      9.008
REMARK INTER + INTRA:         -11.667
REMARK INTER:                  -9.688
REMARK INTRA:                  -1.979
REMARK UNBOUND:                -1.823
REMARK SMILES CC[C@@H](CC[C@@H](C)[C@@H]1CC[C@@H]2[C@@H]3CC=C4C[C@H](O)CC[C@@]4(C)[C@@H]3CC[C@@]21C)C(C)C
REMARK SMILES IDX 5 1 4 2 3 3 2 4 1 5 28 6 29 7 30 8 6 9 7 10 8 11 9 12 26 13
REMARK SMILES IDX 10 14 11 15 25 16 27 17 12 18 24 19 23 20 13 21 21 22 14 23
REMARK SMILES IDX 15 24 20 25 22 26 16 27 19 28 17 29 18 30
REMARK H PARENT 18 31
REMARK Flexibility Score: inf
ROOT
ATOM      1  C   UNL     1      28.389 -23.907  26.964  1.00  0.00     0.004 C 
ENDROOT
BRANCH   1   2
ATOM      2  C   UNL     1      28.221 -24.824  25.725  1.00  0.00     0.004 C 
BRANCH   2   3
ATOM      3  C   UNL     1      27.533 -24.130  24.509  1.00  0.00    -0.009 C 
BRANCH   3   4
ATOM      4  C   UNL     1      27.904 -22.619  24.538  1.00  0.00     0.000 C 
ATOM      5  C   UNL     1      29.127 -22.265  23.693  1.00  0.00     0.004 C 
ENDBRANCH   3   4
BRANCH   3   6
ATOM      6  C   UNL     1      25.967 -24.322  24.388  1.00  0.00    -0.014 C 
ATOM      7  C   UNL     1      25.237 -22.981  24.583  1.00  0.00     0.007 C 
ATOM      8  C   UNL     1      25.446 -24.971  23.093  1.00  0.00     0.007 C 
ENDBRANCH   3   6
ENDBRANCH   2   3
ENDBRANCH   1   2
BRANCH   1   9
ATOM      9  C   UNL     1      27.298 -24.073  28.059  1.00  0.00    -0.011 C 
ATOM     10  C   UNL     1      26.391 -22.824  28.082  1.00  0.00     0.008 C 
BRANCH   9  11
ATOM     11  C   UNL     1      26.471 -25.408  27.942  1.00  0.00    -0.002 C 
ATOM     12  C   UNL     1      24.964 -25.155  27.862  1.00  0.00     0.005 C 
ATOM     13  C   UNL     1      26.613 -26.495  29.074  1.00  0.00    -0.026 C 
ATOM     14  C   UNL     1      24.330 -26.511  28.057  1.00  0.00     0.005 C 
ATOM     15  C   UNL     1      25.234 -27.252  29.051  1.00  0.00    -0.001 C 
ATOM     16  C   UNL     1      26.883 -25.864  30.468  1.00  0.00     0.007 C 
ATOM     17  C   UNL     1      27.759 -27.485  28.731  1.00  0.00     0.012 C 
ATOM     18  C   UNL     1      24.575 -27.543  30.444  1.00  0.00     0.000 C 
ATOM     19  C   UNL     1      26.681 -26.813  31.668  1.00  0.00     0.005 C 
ATOM     20  C   UNL     1      25.659 -27.971  31.455  1.00  0.00     0.003 C 
ATOM     21  C   UNL     1      23.695 -26.425  31.056  1.00  0.00     0.031 C 
ATOM     22  C   UNL     1      25.028 -28.519  32.797  1.00  0.00    -0.008 C 
ATOM     23  C   UNL     1      23.239 -26.761  32.452  1.00  0.00    -0.027 C 
ATOM     24  C   UNL     1      23.847 -27.663  33.258  1.00  0.00    -0.065 C 
ATOM     25  C   UNL     1      24.482 -29.970  32.584  1.00  0.00     0.014 C 
ATOM     26  C   UNL     1      26.122 -28.572  33.905  1.00  0.00     0.016 C 
ATOM     27  C   UNL     1      23.111 -28.133  34.492  1.00  0.00     0.063 C 
ATOM     28  C   UNL     1      23.661 -30.511  33.779  1.00  0.00     0.033 C 
ATOM     29  C   UNL     1      22.550 -29.540  34.221  1.00  0.00     0.118 C 
BRANCH  29  30
ATOM     30  O   UNL     1      21.938 -30.041  35.381  1.00  0.00    -0.393 OA
ATOM     31  H   UNL     1      21.977 -31.032  35.321  1.00  0.00     0.210 HD
ENDBRANCH  29  30
ENDBRANCH   9  11
ENDBRANCH   1   9
TORSDOF 7
ENDMDL
MODEL 9
REMARK VINA RESULT:    -7.115      7.664      9.835
REMARK INTER + INTRA:         -11.643
REMARK INTER:                 -10.558
REMARK INTRA:                  -1.085
REMARK UNBOUND:                -1.823
REMARK SMILES CC[C@@H](CC[C@@H](C)[C@@H]1CC[C@@H]2[C@@H]3CC=C4C[C@H](O)CC[C@@]4(C)[C@@H]3CC[C@@]21C)C(C)C
REMARK SMILES IDX 5 1 4 2 3 3 2 4 1 5 28 6 29 7 30 8 6 9 7 10 8 11 9 12 26 13
REMARK SMILES IDX 10 14 11 15 25 16 27 17 12 18 24 19 23 20 13 21 21 22 14 23
REMARK SMILES IDX 15 24 20 25 22 26 16 27 19 28 17 29 18 30
REMARK H PARENT 18 31
REMARK Flexibility Score: inf
ROOT
ATOM      1  C   UNL     1      26.692 -29.079  36.008  1.00  0.00     0.004 C 
ENDROOT
BRANCH   1   2
ATOM      2  C   UNL     1      27.182 -28.740  37.439  1.00  0.00     0.004 C 
BRANCH   2   3
ATOM      3  C   UNL     1      26.144 -27.951  38.297  1.00  0.00    -0.009 C 
BRANCH   3   4
ATOM      4  C   UNL     1      26.821 -26.639  38.791  1.00  0.00     0.000 C 
ATOM      5  C   UNL     1      27.297 -25.725  37.661  1.00  0.00     0.004 C 
ENDBRANCH   3   4
BRANCH   3   6
ATOM      6  C   UNL     1      25.495 -28.737  39.507  1.00  0.00    -0.014 C 
ATOM      7  C   UNL     1      25.873 -30.228  39.455  1.00  0.00     0.007 C 
ATOM      8  C   UNL     1      25.800 -28.210  40.920  1.00  0.00     0.007 C 
ENDBRANCH   3   6
ENDBRANCH   2   3
ENDBRANCH   1   2
BRANCH   1   9
ATOM      9  C   UNL     1      27.472 -28.378  34.861  1.00  0.00    -0.011 C 
ATOM     10  C   UNL     1      28.981 -28.369  35.189  1.00  0.00     0.008 C 
BRANCH   9  11
ATOM     11  C   UNL     1      27.176 -28.969  33.432  1.00  0.00    -0.002 C 
ATOM     12  C   UNL     1      28.339 -28.755  32.461  1.00  0.00     0.005 C 
ATOM     13  C   UNL     1      25.919 -28.451  32.637  1.00  0.00    -0.026 C 
ATOM     14  C   UNL     1      27.781 -29.099  31.100  1.00  0.00     0.005 C 
ATOM     15  C   UNL     1      26.316 -28.640  31.127  1.00  0.00    -0.001 C 
ATOM     16  C   UNL     1      25.596 -26.963  32.949  1.00  0.00     0.007 C 
ATOM     17  C   UNL     1      24.676 -29.322  32.965  1.00  0.00     0.012 C 
ATOM     18  C   UNL     1      25.986 -27.448  30.163  1.00  0.00     0.000 C 
ATOM     19  C   UNL     1      24.621 -26.283  31.965  1.00  0.00     0.005 C 
ATOM     20  C   UNL     1      24.604 -26.860  30.516  1.00  0.00     0.003 C 
ATOM     21  C   UNL     1      27.033 -26.312  30.062  1.00  0.00     0.031 C 
ATOM     22  C   UNL     1      24.108 -25.828  29.425  1.00  0.00    -0.008 C 
ATOM     23  C   UNL     1      26.542 -25.160  29.224  1.00  0.00    -0.027 C 
ATOM     24  C   UNL     1      25.238 -24.905  28.964  1.00  0.00    -0.065 C 
ATOM     25  C   UNL     1      23.595 -26.588  28.157  1.00  0.00     0.014 C 
ATOM     26  C   UNL     1      22.926 -24.990  29.998  1.00  0.00     0.016 C 
ATOM     27  C   UNL     1      24.904 -23.924  27.864  1.00  0.00     0.063 C 
ATOM     28  C   UNL     1      23.285 -25.663  26.956  1.00  0.00     0.033 C 
ATOM     29  C   UNL     1      24.453 -24.715  26.623  1.00  0.00     0.118 C 
BRANCH  29  30
ATOM     30  O   UNL     1      24.049 -23.827  25.613  1.00  0.00    -0.393 OA
ATOM     31  H   UNL     1      24.865 -23.581  25.104  1.00  0.00     0.210 HD
ENDBRANCH  29  30
ENDBRANCH   9  11
ENDBRANCH   1   9
TORSDOF 7
ENDMDL
