MODEL 1
REMARK VINA RESULT:    -7.560      0.000      0.000
REMARK INTER + INTRA:         -15.344
REMARK INTER:                 -15.958
REMARK INTRA:                   0.614
REMARK UNBOUND:                 0.614
REMARK SMILES CCC(=O)CCCCC[C@H]1NC(=O)[C@H]2CCCCN2C(=O)[C@H]([C@H](C)CC)NC(=O)[C@H](Cc2cn(OC)c3ccccc23)NC1=O
REMARK SMILES IDX 9 1 10 2 44 3 43 4 45 6 30 7 28 8 27 9 29 11 22 12 23 14
REMARK SMILES IDX 24 15 25 16 26 17 31 18 32 19 33 20 42 21 34 22 37 23 41 24
REMARK SMILES IDX 38 25 40 26 39 27 35 28 36 29 11 30 12 31 13 33 14 34 19 35
REMARK SMILES IDX 15 36 18 37 16 38 17 39 20 40 21 41 8 43 7 44 6 45 5 46 3 47
REMARK SMILES IDX 4 48 2 49 1 50
REMARK H PARENT 43 5 27 10 11 32
REMARK Flexibility Score: 80.00
ROOT
ATOM      1  C   UNL     1      15.718  72.595  71.895  1.00  0.00     0.035 C 
ENDROOT
BRANCH   1   2
ATOM      2  C   UNL     1      16.347  71.622  72.909  1.00  0.00     0.171 C 
BRANCH   2   3
ATOM      3  C   UNL     1      16.141  72.090  74.327  1.00  0.00     0.243 C 
ATOM      4  N   UNL     1      16.065  71.136  75.392  1.00  0.00    -0.342 N 
ATOM      5  H   UNL     1      15.806  70.157  75.143  1.00  0.00     0.164 HD
ATOM      6  O   UNL     1      16.120  73.324  74.584  1.00  0.00    -0.273 OA
BRANCH   4   7
ATOM      7  C   UNL     1      16.701  71.399  76.686  1.00  0.00     0.175 C 
BRANCH   7   8
ATOM      8  C   UNL     1      18.201  71.498  76.526  1.00  0.00     0.243 C 
ATOM      9  N   UNL     1      18.865  70.859  75.423  1.00  0.00    -0.342 N 
ATOM     10  H   UNL     1      18.364  70.099  74.910  1.00  0.00     0.164 HD
ATOM     11  O   UNL     1      18.867  72.150  77.373  1.00  0.00    -0.273 OA
BRANCH   9  12
ATOM     12  C   UNL     1      20.205  71.256  74.974  1.00  0.00     0.174 CG0
ATOM     13  G   UNL     1      20.391  70.837  73.525  1.00  0.00     0.000 G0
BRANCH  12  14
ATOM     14  C   UNL     1      21.288  70.695  75.949  1.00  0.00     0.018 C 
ATOM     15  C   UNL     1      22.619  70.450  75.219  1.00  0.00     0.010 C 
BRANCH  14  16
ATOM     16  C   UNL     1      20.824  69.435  76.723  1.00  0.00     0.002 C 
ATOM     17  C   UNL     1      21.915  68.849  77.620  1.00  0.00     0.004 C 
ENDBRANCH  14  16
ENDBRANCH  12  14
ENDBRANCH   9  12
ENDBRANCH   7   8
BRANCH   7  18
ATOM     18  C   UNL     1      16.291  70.352  77.738  1.00  0.00     0.073 C 
BRANCH  18  19
ATOM     19  C   UNL     1      16.853  70.617  79.110  1.00  0.00    -0.016 A 
ATOM     20  C   UNL     1      16.629  71.744  79.895  1.00  0.00     0.134 A 
ATOM     21  C   UNL     1      17.749  69.834  79.818  1.00  0.00     0.006 A 
ATOM     22  N   UNL     1      17.349  71.656  81.040  1.00  0.00    -0.191 N 
ATOM     23  C   UNL     1      18.030  70.502  80.984  1.00  0.00     0.087 A 
ATOM     24  C   UNL     1      18.368  68.622  79.500  1.00  0.00     0.011 A 
ATOM     25  C   UNL     1      18.949  70.007  81.910  1.00  0.00     0.030 A 
ATOM     26  C   UNL     1      19.300  68.101  80.415  1.00  0.00     0.001 A 
ATOM     27  C   UNL     1      19.592  68.790  81.612  1.00  0.00     0.002 A 
BRANCH  22  28
ATOM     28  O   UNL     1      17.427  72.585  82.061  1.00  0.00    -0.417 OA
ATOM     29  C   UNL     1      16.362  72.802  82.976  1.00  0.00     0.313 C 
ENDBRANCH  22  28
ENDBRANCH  18  19
ENDBRANCH   7  18
ENDBRANCH   4   7
ENDBRANCH   2   3
BRANCH   2  30
ATOM     30  N   UNL     1      17.782  71.479  72.657  1.00  0.00    -0.343 N 
ATOM     31  C   UNL     1      18.563  72.516  72.045  1.00  0.00     0.243 C 
ATOM     32  H   UNL     1      18.240  70.556  72.833  1.00  0.00     0.164 HD
ATOM     33  O   UNL     1      18.118  73.695  71.985  1.00  0.00    -0.273 OA
BRANCH  31  34
ATOM     34  C   UNL     1      19.919  72.198  71.462  1.00  0.00     0.174 C 
ATOM     35  N   UNL     1      20.871  71.787  72.524  1.00  0.00    -0.329 N 
ATOM     36  C   UNL     1      20.413  73.429  70.677  1.00  0.00     0.035 C 
ATOM     37  C   UNL     1      22.316  71.808  72.237  1.00  0.00     0.120 C 
ATOM     38  C   UNL     1      21.867  73.271  70.253  1.00  0.00     0.004 C 
ATOM     39  C   UNL     1      22.735  73.072  71.489  1.00  0.00     0.022 C 
BRANCH  35  40
ATOM     40  C   UNL     1      20.419  70.837  73.518  1.00  0.00     0.246 CG0
ATOM     41  O   UNL     1      20.111  69.669  73.157  1.00  0.00    -0.272 OA
ATOM     42  G   UNL     1      20.195  71.250  74.965  1.00  0.00     0.000 G0
ENDBRANCH  35  40
ENDBRANCH  31  34
ENDBRANCH   2  30
ENDBRANCH   1   2
BRANCH   1  43
ATOM     43  C   UNL     1      14.186  72.611  72.009  1.00  0.00     0.003 C 
BRANCH  43  44
ATOM     44  C   UNL     1      13.623  71.200  72.203  1.00  0.00     0.001 C 
BRANCH  44  45
ATOM     45  C   UNL     1      12.100  71.244  72.396  1.00  0.00     0.008 C 
BRANCH  45  46
ATOM     46  C   UNL     1      11.417  72.182  71.391  1.00  0.00     0.075 C 
BRANCH  46  47
ATOM     47  C   UNL     1      10.203  71.543  70.765  1.00  0.00     0.132 C 
ATOM     48  O   UNL     1       9.640  72.105  69.837  1.00  0.00    -0.300 OA
BRANCH  47  49
ATOM     49  C   UNL     1       9.663  70.230  71.272  1.00  0.00     0.072 C 
ATOM     50  C   UNL     1       8.374  70.447  72.065  1.00  0.00     0.012 C 
ENDBRANCH  47  49
ENDBRANCH  46  47
ENDBRANCH  45  46
ENDBRANCH  44  45
ENDBRANCH  43  44
ENDBRANCH   1  43
TORSDOF 12
ENDMDL
MODEL 2
REMARK VINA RESULT:    -7.280      1.406      2.257
REMARK INTER + INTRA:         -14.751
REMARK INTER:                 -14.084
REMARK INTRA:                  -0.668
REMARK UNBOUND:                 0.614
REMARK SMILES CCC(=O)CCCCC[C@H]1NC(=O)[C@H]2CCCCN2C(=O)[C@H]([C@H](C)CC)NC(=O)[C@H](Cc2cn(OC)c3ccccc23)NC1=O
REMARK SMILES IDX 9 1 10 2 44 3 43 4 45 6 30 7 28 8 27 9 29 11 22 12 23 14
REMARK SMILES IDX 24 15 25 16 26 17 31 18 32 19 33 20 42 21 34 22 37 23 41 24
REMARK SMILES IDX 38 25 40 26 39 27 35 28 36 29 11 30 12 31 13 33 14 34 19 35
REMARK SMILES IDX 15 36 18 37 16 38 17 39 20 40 21 41 8 43 7 44 6 45 5 46 3 47
REMARK SMILES IDX 4 48 2 49 1 50
REMARK H PARENT 43 5 27 10 11 32
REMARK Flexibility Score: 80.00
ROOT
ATOM      1  C   UNL     1      16.079  72.139  72.034  1.00  0.00     0.035 C 
ENDROOT
BRANCH   1   2
ATOM      2  C   UNL     1      16.991  71.549  73.125  1.00  0.00     0.171 C 
BRANCH   2   3
ATOM      3  C   UNL     1      16.605  72.040  74.497  1.00  0.00     0.243 C 
ATOM      4  N   UNL     1      16.227  71.105  75.512  1.00  0.00    -0.342 N 
ATOM      5  H   UNL     1      15.892  70.167  75.202  1.00  0.00     0.164 HD
ATOM      6  O   UNL     1      16.697  73.267  74.772  1.00  0.00    -0.273 OA
BRANCH   4   7
ATOM      7  C   UNL     1      16.659  71.285  76.901  1.00  0.00     0.175 C 
BRANCH   7   8
ATOM      8  C   UNL     1      18.168  71.331  76.982  1.00  0.00     0.243 C 
ATOM      9  N   UNL     1      18.974  70.470  76.161  1.00  0.00    -0.342 N 
ATOM     10  H   UNL     1      18.529  69.625  75.736  1.00  0.00     0.164 HD
ATOM     11  O   UNL     1      18.715  72.138  77.780  1.00  0.00    -0.273 OA
BRANCH   9  12
ATOM     12  C   UNL     1      20.386  70.749  75.876  1.00  0.00     0.174 CG0
ATOM     13  G   UNL     1      20.691  70.363  74.438  1.00  0.00     0.000 G0
BRANCH  12  14
ATOM     14  C   UNL     1      21.298  70.054  76.935  1.00  0.00     0.018 C 
ATOM     15  C   UNL     1      22.642  69.632  76.319  1.00  0.00     0.010 C 
BRANCH  14  16
ATOM     16  C   UNL     1      20.607  68.868  77.657  1.00  0.00     0.002 C 
ATOM     17  C   UNL     1      20.684  68.969  79.181  1.00  0.00     0.004 C 
ENDBRANCH  14  16
ENDBRANCH  12  14
ENDBRANCH   9  12
ENDBRANCH   7   8
BRANCH   7  18
ATOM     18  C   UNL     1      16.055  70.209  77.823  1.00  0.00     0.073 C 
BRANCH  18  19
ATOM     19  C   UNL     1      16.615  70.223  79.220  1.00  0.00    -0.016 A 
ATOM     20  C   UNL     1      17.445  69.262  79.792  1.00  0.00     0.134 A 
ATOM     21  C   UNL     1      16.359  71.146  80.221  1.00  0.00     0.006 A 
ATOM     22  N   UNL     1      17.695  69.583  81.085  1.00  0.00    -0.191 N 
ATOM     23  C   UNL     1      17.029  70.719  81.340  1.00  0.00     0.087 A 
ATOM     24  C   UNL     1      15.553  72.286  80.239  1.00  0.00     0.011 A 
ATOM     25  C   UNL     1      16.938  71.401  82.554  1.00  0.00     0.030 A 
ATOM     26  C   UNL     1      15.442  72.992  81.450  1.00  0.00     0.001 A 
ATOM     27  C   UNL     1      16.128  72.551  82.603  1.00  0.00     0.002 A 
BRANCH  22  28
ATOM     28  O   UNL     1      18.444  68.868  82.002  1.00  0.00    -0.417 OA
ATOM     29  C   UNL     1      18.597  67.457  81.925  1.00  0.00     0.313 C 
ENDBRANCH  22  28
ENDBRANCH  18  19
ENDBRANCH   7  18
ENDBRANCH   4   7
ENDBRANCH   2   3
BRANCH   2  30
ATOM     30  N   UNL     1      18.389  71.899  72.868  1.00  0.00    -0.343 N 
ATOM     31  C   UNL     1      19.232  71.119  72.007  1.00  0.00     0.243 C 
ATOM     32  H   UNL     1      18.824  72.684  73.404  1.00  0.00     0.164 HD
ATOM     33  O   UNL     1      18.725  70.290  71.202  1.00  0.00    -0.273 OA
BRANCH  31  34
ATOM     34  C   UNL     1      20.731  71.281  72.067  1.00  0.00     0.174 C 
ATOM     35  N   UNL     1      21.204  71.341  73.474  1.00  0.00    -0.329 N 
ATOM     36  C   UNL     1      21.119  72.539  71.266  1.00  0.00     0.035 C 
ATOM     37  C   UNL     1      22.548  71.874  73.755  1.00  0.00     0.120 C 
ATOM     38  C   UNL     1      22.585  72.898  71.468  1.00  0.00     0.004 C 
ATOM     39  C   UNL     1      22.845  73.137  72.950  1.00  0.00     0.022 C 
BRANCH  35  40
ATOM     40  C   UNL     1      20.676  70.376  74.415  1.00  0.00     0.246 CG0
ATOM     41  O   UNL     1      20.346  69.231  74.001  1.00  0.00    -0.272 OA
ATOM     42  G   UNL     1      20.400  70.749  75.863  1.00  0.00     0.000 G0
ENDBRANCH  35  40
ENDBRANCH  31  34
ENDBRANCH   2  30
ENDBRANCH   1   2
BRANCH   1  43
ATOM     43  C   UNL     1      14.595  71.954  72.382  1.00  0.00     0.003 C 
BRANCH  43  44
ATOM     44  C   UNL     1      13.794  73.232  72.118  1.00  0.00     0.001 C 
BRANCH  44  45
ATOM     45  C   UNL     1      12.285  72.948  72.170  1.00  0.00     0.008 C 
BRANCH  45  46
ATOM     46  C   UNL     1      11.682  72.768  70.770  1.00  0.00     0.075 C 
BRANCH  46  47
ATOM     47  C   UNL     1      11.135  71.377  70.569  1.00  0.00     0.132 C 
ATOM     48  O   UNL     1      11.834  70.413  70.844  1.00  0.00    -0.300 OA
BRANCH  47  49
ATOM     49  C   UNL     1       9.748  71.155  70.024  1.00  0.00     0.072 C 
ATOM     50  C   UNL     1       9.414  72.199  68.960  1.00  0.00     0.012 C 
ENDBRANCH  47  49
ENDBRANCH  46  47
ENDBRANCH  45  46
ENDBRANCH  44  45
ENDBRANCH  43  44
ENDBRANCH   1  43
TORSDOF 12
ENDMDL
MODEL 3
REMARK VINA RESULT:    -7.052      3.079      7.889
REMARK INTER + INTRA:         -14.271
REMARK INTER:                 -12.640
REMARK INTRA:                  -1.631
REMARK UNBOUND:                 0.614
REMARK SMILES CCC(=O)CCCCC[C@H]1NC(=O)[C@H]2CCCCN2C(=O)[C@H]([C@H](C)CC)NC(=O)[C@H](Cc2cn(OC)c3ccccc23)NC1=O
REMARK SMILES IDX 9 1 10 2 44 3 43 4 45 6 30 7 28 8 27 9 29 11 22 12 23 14
REMARK SMILES IDX 24 15 25 16 26 17 31 18 32 19 33 20 42 21 34 22 37 23 41 24
REMARK SMILES IDX 38 25 40 26 39 27 35 28 36 29 11 30 12 31 13 33 14 34 19 35
REMARK SMILES IDX 15 36 18 37 16 38 17 39 20 40 21 41 8 43 7 44 6 45 5 46 3 47
REMARK SMILES IDX 4 48 2 49 1 50
REMARK H PARENT 43 5 27 10 11 32
REMARK Flexibility Score: 80.00
ROOT
ATOM      1  C   UNL     1      16.707  72.544  71.745  1.00  0.00     0.035 C 
ENDROOT
BRANCH   1   2
ATOM      2  C   UNL     1      15.883  72.820  73.016  1.00  0.00     0.171 C 
BRANCH   2   3
ATOM      3  C   UNL     1      16.205  71.834  74.110  1.00  0.00     0.243 C 
ATOM      4  N   UNL     1      15.639  72.000  75.414  1.00  0.00    -0.342 N 
ATOM      5  H   UNL     1      15.311  72.955  75.678  1.00  0.00     0.164 HD
ATOM      6  O   UNL     1      16.908  70.818  73.852  1.00  0.00    -0.273 OA
BRANCH   4   7
ATOM      7  C   UNL     1      15.166  70.845  76.182  1.00  0.00     0.175 C 
BRANCH   7   8
ATOM      8  C   UNL     1      13.668  70.697  76.045  1.00  0.00     0.243 C 
ATOM      9  N   UNL     1      12.833  71.848  75.830  1.00  0.00    -0.342 N 
ATOM     10  H   UNL     1      13.217  72.793  76.059  1.00  0.00     0.164 HD
ATOM     11  O   UNL     1      13.154  69.550  76.120  1.00  0.00    -0.273 OA
BRANCH   9  12
ATOM     12  C   UNL     1      11.479  71.745  75.274  1.00  0.00     0.174 CG0
ATOM     13  G   UNL     1      11.481  72.278  73.850  1.00  0.00     0.000 G0
BRANCH  12  14
ATOM     14  C   UNL     1      10.454  72.447  76.220  1.00  0.00     0.018 C 
ATOM     15  C   UNL     1      11.164  73.131  77.400  1.00  0.00     0.010 C 
BRANCH  14  16
ATOM     16  C   UNL     1       9.323  71.505  76.707  1.00  0.00     0.002 C 
ATOM     17  C   UNL     1       8.045  71.625  75.876  1.00  0.00     0.004 C 
ENDBRANCH  14  16
ENDBRANCH  12  14
ENDBRANCH   9  12
ENDBRANCH   7   8
BRANCH   7  18
ATOM     18  C   UNL     1      15.615  70.925  77.653  1.00  0.00     0.073 C 
BRANCH  18  19
ATOM     19  C   UNL     1      17.073  70.609  77.861  1.00  0.00    -0.016 A 
ATOM     20  C   UNL     1      18.104  70.810  76.948  1.00  0.00     0.134 A 
ATOM     21  C   UNL     1      17.653  69.998  78.960  1.00  0.00     0.006 A 
ATOM     22  N   UNL     1      19.270  70.350  77.464  1.00  0.00    -0.191 N 
ATOM     23  C   UNL     1      18.989  69.854  78.679  1.00  0.00     0.087 A 
ATOM     24  C   UNL     1      17.098  69.520  80.150  1.00  0.00     0.011 A 
ATOM     25  C   UNL     1      19.860  69.219  79.565  1.00  0.00     0.030 A 
ATOM     26  C   UNL     1      17.954  68.875  81.060  1.00  0.00     0.001 A 
ATOM     27  C   UNL     1      19.327  68.722  80.769  1.00  0.00     0.002 A 
BRANCH  22  28
ATOM     28  O   UNL     1      20.513  70.334  76.859  1.00  0.00    -0.417 OA
ATOM     29  C   UNL     1      20.671  70.279  75.447  1.00  0.00     0.313 C 
ENDBRANCH  22  28
ENDBRANCH  18  19
ENDBRANCH   7  18
ENDBRANCH   4   7
ENDBRANCH   2   3
BRANCH   2  30
ATOM     30  N   UNL     1      14.451  72.755  72.721  1.00  0.00    -0.343 N 
ATOM     31  C   UNL     1      13.803  71.540  72.318  1.00  0.00     0.243 C 
ATOM     32  H   UNL     1      13.895  73.640  72.702  1.00  0.00     0.164 HD
ATOM     33  O   UNL     1      14.368  70.427  72.501  1.00  0.00    -0.273 OA
BRANCH  31  34
ATOM     34  C   UNL     1      12.443  71.588  71.665  1.00  0.00     0.174 C 
ATOM     35  N   UNL     1      11.362  71.507  72.681  1.00  0.00    -0.329 N 
ATOM     36  C   UNL     1      12.358  70.450  70.629  1.00  0.00     0.035 C 
ATOM     37  C   UNL     1       9.999  71.153  72.249  1.00  0.00     0.120 C 
ATOM     38  C   UNL     1      10.942  70.290  70.093  1.00  0.00     0.004 C 
ATOM     39  C   UNL     1       9.995  69.998  71.250  1.00  0.00     0.022 C 
BRANCH  35  40
ATOM     40  C   UNL     1      11.476  72.326  73.868  1.00  0.00     0.246 CG0
ATOM     41  O   UNL     1      11.678  73.565  73.743  1.00  0.00    -0.272 OA
ATOM     42  G   UNL     1      11.477  71.712  75.259  1.00  0.00     0.000 G0
ENDBRANCH  35  40
ENDBRANCH  31  34
ENDBRANCH   2  30
ENDBRANCH   1   2
BRANCH   1  43
ATOM     43  C   UNL     1      17.521  73.777  71.325  1.00  0.00     0.003 C 
BRANCH  43  44
ATOM     44  C   UNL     1      19.021  73.472  71.287  1.00  0.00     0.001 C 
BRANCH  44  45
ATOM     45  C   UNL     1      19.278  71.974  71.509  1.00  0.00     0.008 C 
BRANCH  45  46
ATOM     46  C   UNL     1      20.582  71.506  70.850  1.00  0.00     0.075 C 
BRANCH  46  47
ATOM     47  C   UNL     1      21.790  72.161  71.472  1.00  0.00     0.132 C 
ATOM     48  O   UNL     1      22.260  71.699  72.502  1.00  0.00    -0.300 OA
BRANCH  47  49
ATOM     49  C   UNL     1      22.421  73.382  70.854  1.00  0.00     0.072 C 
ATOM     50  C   UNL     1      23.243  73.000  69.624  1.00  0.00     0.012 C 
ENDBRANCH  47  49
ENDBRANCH  46  47
ENDBRANCH  45  46
ENDBRANCH  44  45
ENDBRANCH  43  44
ENDBRANCH   1  43
TORSDOF 12
ENDMDL
MODEL 4
REMARK VINA RESULT:    -6.004      3.214      7.609
REMARK INTER + INTRA:         -12.059
REMARK INTER:                 -11.107
REMARK INTRA:                  -0.952
REMARK UNBOUND:                 0.614
REMARK SMILES CCC(=O)CCCCC[C@H]1NC(=O)[C@H]2CCCCN2C(=O)[C@H]([C@H](C)CC)NC(=O)[C@H](Cc2cn(OC)c3ccccc23)NC1=O
REMARK SMILES IDX 9 1 10 2 44 3 43 4 45 6 30 7 28 8 27 9 29 11 22 12 23 14
REMARK SMILES IDX 24 15 25 16 26 17 31 18 32 19 33 20 42 21 34 22 37 23 41 24
REMARK SMILES IDX 38 25 40 26 39 27 35 28 36 29 11 30 12 31 13 33 14 34 19 35
REMARK SMILES IDX 15 36 18 37 16 38 17 39 20 40 21 41 8 43 7 44 6 45 5 46 3 47
REMARK SMILES IDX 4 48 2 49 1 50
REMARK H PARENT 43 5 27 10 11 32
REMARK Flexibility Score: 80.00
ROOT
ATOM      1  C   UNL     1      16.427  72.265  71.617  1.00  0.00     0.035 C 
ENDROOT
BRANCH   1   2
ATOM      2  C   UNL     1      15.340  72.211  72.705  1.00  0.00     0.171 C 
BRANCH   2   3
ATOM      3  C   UNL     1      15.667  71.193  73.767  1.00  0.00     0.243 C 
ATOM      4  N   UNL     1      15.783  71.595  75.136  1.00  0.00    -0.342 N 
ATOM      5  H   UNL     1      15.984  72.602  75.326  1.00  0.00     0.164 HD
ATOM      6  O   UNL     1      15.756  69.973  73.459  1.00  0.00    -0.273 OA
BRANCH   4   7
ATOM      7  C   UNL     1      15.254  70.757  76.215  1.00  0.00     0.175 C 
BRANCH   7   8
ATOM      8  C   UNL     1      13.764  70.565  76.052  1.00  0.00     0.243 C 
ATOM      9  N   UNL     1      12.918  71.667  75.681  1.00  0.00    -0.342 N 
ATOM     10  H   UNL     1      13.279  72.640  75.810  1.00  0.00     0.164 HD
ATOM     11  O   UNL     1      13.267  69.424  76.245  1.00  0.00    -0.273 OA
BRANCH   9  12
ATOM     12  C   UNL     1      11.584  71.475  75.101  1.00  0.00     0.174 CG0
ATOM     13  G   UNL     1      11.423  72.393  73.900  1.00  0.00     0.000 G0
BRANCH  12  14
ATOM     14  C   UNL     1      10.488  71.655  76.199  1.00  0.00     0.018 C 
ATOM     15  C   UNL     1       9.078  71.618  75.587  1.00  0.00     0.010 C 
BRANCH  14  16
ATOM     16  C   UNL     1      10.696  72.919  77.072  1.00  0.00     0.002 C 
ATOM     17  C   UNL     1       9.386  73.491  77.617  1.00  0.00     0.004 C 
ENDBRANCH  14  16
ENDBRANCH  12  14
ENDBRANCH   9  12
ENDBRANCH   7   8
BRANCH   7  18
ATOM     18  C   UNL     1      15.625  71.322  77.600  1.00  0.00     0.073 C 
BRANCH  18  19
ATOM     19  C   UNL     1      16.726  70.561  78.290  1.00  0.00    -0.016 A 
ATOM     20  C   UNL     1      16.676  70.000  79.563  1.00  0.00     0.134 A 
ATOM     21  C   UNL     1      18.012  70.336  77.827  1.00  0.00     0.006 A 
ATOM     22  N   UNL     1      17.876  69.448  79.868  1.00  0.00    -0.191 N 
ATOM     23  C   UNL     1      18.682  69.661  78.817  1.00  0.00     0.087 A 
ATOM     24  C   UNL     1      18.645  70.718  76.642  1.00  0.00     0.011 A 
ATOM     25  C   UNL     1      20.030  69.324  78.692  1.00  0.00     0.030 A 
ATOM     26  C   UNL     1      20.005  70.392  76.490  1.00  0.00     0.001 A 
ATOM     27  C   UNL     1      20.695  69.702  77.510  1.00  0.00     0.002 A 
BRANCH  22  28
ATOM     28  O   UNL     1      18.243  68.827  81.047  1.00  0.00    -0.417 OA
ATOM     29  C   UNL     1      17.646  69.150  82.296  1.00  0.00     0.313 C 
ENDBRANCH  22  28
ENDBRANCH  18  19
ENDBRANCH   7  18
ENDBRANCH   4   7
ENDBRANCH   2   3
BRANCH   2  30
ATOM     30  N   UNL     1      14.041  71.886  72.115  1.00  0.00    -0.343 N 
ATOM     31  C   UNL     1      13.144  72.893  71.624  1.00  0.00     0.243 C 
ATOM     32  H   UNL     1      13.704  70.896  72.141  1.00  0.00     0.164 HD
ATOM     33  O   UNL     1      13.564  74.061  71.398  1.00  0.00    -0.273 OA
BRANCH  31  34
ATOM     34  C   UNL     1      11.692  72.561  71.384  1.00  0.00     0.174 C 
ATOM     35  N   UNL     1      11.104  71.868  72.558  1.00  0.00    -0.329 N 
ATOM     36  C   UNL     1      11.589  71.721  70.096  1.00  0.00     0.035 C 
ATOM     37  C   UNL     1       9.842  71.125  72.393  1.00  0.00     0.120 C 
ATOM     38  C   UNL     1      10.188  71.155  69.911  1.00  0.00     0.004 C 
ATOM     39  C   UNL     1       9.829  70.291  71.114  1.00  0.00     0.022 C 
BRANCH  35  40
ATOM     40  C   UNL     1      11.378  72.400  73.876  1.00  0.00     0.246 CG0
ATOM     41  O   UNL     1      11.541  73.644  74.014  1.00  0.00    -0.272 OA
ATOM     42  G   UNL     1      11.590  71.487  75.072  1.00  0.00     0.000 G0
ENDBRANCH  35  40
ENDBRANCH  31  34
ENDBRANCH   2  30
ENDBRANCH   1   2
BRANCH   1  43
ATOM     43  C   UNL     1      16.977  73.688  71.442  1.00  0.00     0.003 C 
BRANCH  43  44
ATOM     44  C   UNL     1      18.138  73.963  72.401  1.00  0.00     0.001 C 
BRANCH  44  45
ATOM     45  C   UNL     1      19.091  72.760  72.460  1.00  0.00     0.008 C 
BRANCH  45  46
ATOM     46  C   UNL     1      19.966  72.652  71.204  1.00  0.00     0.075 C 
BRANCH  46  47
ATOM     47  C   UNL     1      20.605  71.292  71.080  1.00  0.00     0.132 C 
ATOM     48  O   UNL     1      21.262  71.026  70.085  1.00  0.00    -0.300 OA
BRANCH  47  49
ATOM     49  C   UNL     1      20.437  70.250  72.157  1.00  0.00     0.072 C 
ATOM     50  C   UNL     1      21.797  69.747  72.637  1.00  0.00     0.012 C 
ENDBRANCH  47  49
ENDBRANCH  46  47
ENDBRANCH  45  46
ENDBRANCH  44  45
ENDBRANCH  43  44
ENDBRANCH   1  43
TORSDOF 12
ENDMDL
MODEL 5
REMARK VINA RESULT:    -5.951      2.379      8.558
REMARK INTER + INTRA:         -11.947
REMARK INTER:                 -12.268
REMARK INTRA:                   0.321
REMARK UNBOUND:                 0.614
REMARK SMILES CCC(=O)CCCCC[C@H]1NC(=O)[C@H]2CCCCN2C(=O)[C@H]([C@H](C)CC)NC(=O)[C@H](Cc2cn(OC)c3ccccc23)NC1=O
REMARK SMILES IDX 9 1 10 2 44 3 43 4 45 6 30 7 28 8 27 9 29 11 22 12 23 14
REMARK SMILES IDX 24 15 25 16 26 17 31 18 32 19 33 20 42 21 34 22 37 23 41 24
REMARK SMILES IDX 38 25 40 26 39 27 35 28 36 29 11 30 12 31 13 33 14 34 19 35
REMARK SMILES IDX 15 36 18 37 16 38 17 39 20 40 21 41 8 43 7 44 6 45 5 46 3 47
REMARK SMILES IDX 4 48 2 49 1 50
REMARK H PARENT 43 5 27 10 11 32
REMARK Flexibility Score: 80.00
ROOT
ATOM      1  C   UNL     1      15.647  70.670  78.691  1.00  0.00     0.035 C 
ENDROOT
BRANCH   1   2
ATOM      2  C   UNL     1      15.984  70.674  77.189  1.00  0.00     0.171 C 
BRANCH   2   3
ATOM      3  C   UNL     1      17.181  71.541  76.891  1.00  0.00     0.243 C 
ATOM      4  N   UNL     1      18.464  70.943  76.678  1.00  0.00    -0.342 N 
ATOM      5  H   UNL     1      18.620  69.987  77.067  1.00  0.00     0.164 HD
ATOM      6  O   UNL     1      17.034  72.786  76.748  1.00  0.00    -0.273 OA
BRANCH   4   7
ATOM      7  C   UNL     1      19.367  71.447  75.639  1.00  0.00     0.175 C 
BRANCH   7   8
ATOM      8  C   UNL     1      18.576  72.003  74.477  1.00  0.00     0.243 C 
ATOM      9  N   UNL     1      17.385  71.343  74.018  1.00  0.00    -0.342 N 
ATOM     10  H   UNL     1      17.231  70.345  74.286  1.00  0.00     0.164 HD
ATOM     11  O   UNL     1      18.973  73.057  73.912  1.00  0.00    -0.273 OA
BRANCH   9  12
ATOM     12  C   UNL     1      16.365  72.029  73.215  1.00  0.00     0.174 CG0
ATOM     13  G   UNL     1      15.108  71.175  73.168  1.00  0.00     0.000 G0
BRANCH  12  14
ATOM     14  C   UNL     1      16.943  72.398  71.812  1.00  0.00     0.018 C 
ATOM     15  C   UNL     1      18.107  71.469  71.428  1.00  0.00     0.010 C 
BRANCH  14  16
ATOM     16  C   UNL     1      17.342  73.891  71.685  1.00  0.00     0.002 C 
ATOM     17  C   UNL     1      18.540  74.113  70.761  1.00  0.00     0.004 C 
ENDBRANCH  14  16
ENDBRANCH  12  14
ENDBRANCH   9  12
ENDBRANCH   7   8
BRANCH   7  18
ATOM     18  C   UNL     1      20.377  70.371  75.200  1.00  0.00     0.073 C 
BRANCH  18  19
ATOM     19  C   UNL     1      20.812  70.497  73.764  1.00  0.00    -0.016 A 
ATOM     20  C   UNL     1      20.504  69.626  72.723  1.00  0.00     0.134 A 
ATOM     21  C   UNL     1      21.655  71.453  73.221  1.00  0.00     0.006 A 
ATOM     22  N   UNL     1      21.122  70.031  71.587  1.00  0.00    -0.191 N 
ATOM     23  C   UNL     1      21.822  71.133  71.897  1.00  0.00     0.087 A 
ATOM     24  C   UNL     1      22.316  72.537  73.803  1.00  0.00     0.011 A 
ATOM     25  C   UNL     1      22.664  71.872  71.065  1.00  0.00     0.030 A 
ATOM     26  C   UNL     1      23.172  73.298  72.987  1.00  0.00     0.001 A 
ATOM     27  C   UNL     1      23.349  72.966  71.627  1.00  0.00     0.002 A 
BRANCH  22  28
ATOM     28  O   UNL     1      21.097  69.419  70.348  1.00  0.00    -0.417 OA
ATOM     29  C   UNL     1      19.904  68.892  69.783  1.00  0.00     0.313 C 
ENDBRANCH  22  28
ENDBRANCH  18  19
ENDBRANCH   7  18
ENDBRANCH   4   7
ENDBRANCH   2   3
BRANCH   2  30
ATOM     30  N   UNL     1      14.842  71.154  76.410  1.00  0.00    -0.343 N 
ATOM     31  C   UNL     1      13.976  70.266  75.687  1.00  0.00     0.243 C 
ATOM     32  H   UNL     1      14.704  72.183  76.289  1.00  0.00     0.164 HD
ATOM     33  O   UNL     1      13.977  69.031  75.942  1.00  0.00    -0.273 OA
BRANCH  31  34
ATOM     34  C   UNL     1      13.066  70.806  74.611  1.00  0.00     0.174 C 
ATOM     35  N   UNL     1      13.821  71.654  73.653  1.00  0.00    -0.329 N 
ATOM     36  C   UNL     1      11.912  71.572  75.286  1.00  0.00     0.035 C 
ATOM     37  C   UNL     1      13.079  72.574  72.773  1.00  0.00     0.120 C 
ATOM     38  C   UNL     1      11.080  72.337  74.266  1.00  0.00     0.004 C 
ATOM     39  C   UNL     1      11.976  73.319  73.521  1.00  0.00     0.022 C 
BRANCH  35  40
ATOM     40  C   UNL     1      15.092  71.167  73.162  1.00  0.00     0.246 CG0
ATOM     41  O   UNL     1      15.175  69.981  72.741  1.00  0.00    -0.272 OA
ATOM     42  G   UNL     1      16.354  72.011  73.252  1.00  0.00     0.000 G0
ENDBRANCH  35  40
ENDBRANCH  31  34
ENDBRANCH   2  30
ENDBRANCH   1   2
BRANCH   1  43
ATOM     43  C   UNL     1      16.501  71.689  79.461  1.00  0.00     0.003 C 
BRANCH  43  44
ATOM     44  C   UNL     1      16.130  71.722  80.946  1.00  0.00     0.001 C 
BRANCH  44  45
ATOM     45  C   UNL     1      17.076  70.830  81.763  1.00  0.00     0.008 C 
BRANCH  45  46
ATOM     46  C   UNL     1      18.546  71.032  81.370  1.00  0.00     0.075 C 
BRANCH  46  47
ATOM     47  C   UNL     1      19.063  69.892  80.528  1.00  0.00     0.132 C 
ATOM     48  O   UNL     1      20.137  70.008  79.956  1.00  0.00    -0.300 OA
BRANCH  47  49
ATOM     49  C   UNL     1      18.273  68.618  80.371  1.00  0.00     0.072 C 
ATOM     50  C   UNL     1      18.823  67.783  79.214  1.00  0.00     0.012 C 
ENDBRANCH  47  49
ENDBRANCH  46  47
ENDBRANCH  45  46
ENDBRANCH  44  45
ENDBRANCH  43  44
ENDBRANCH   1  43
TORSDOF 12
ENDMDL
MODEL 6
REMARK VINA RESULT:    -5.484      2.816      7.963
REMARK INTER + INTRA:         -10.961
REMARK INTER:                 -11.481
REMARK INTRA:                   0.520
REMARK UNBOUND:                 0.614
REMARK SMILES CCC(=O)CCCCC[C@H]1NC(=O)[C@H]2CCCCN2C(=O)[C@H]([C@H](C)CC)NC(=O)[C@H](Cc2cn(OC)c3ccccc23)NC1=O
REMARK SMILES IDX 9 1 10 2 44 3 43 4 45 6 30 7 28 8 27 9 29 11 22 12 23 14
REMARK SMILES IDX 24 15 25 16 26 17 31 18 32 19 33 20 42 21 34 22 37 23 41 24
REMARK SMILES IDX 38 25 40 26 39 27 35 28 36 29 11 30 12 31 13 33 14 34 19 35
REMARK SMILES IDX 15 36 18 37 16 38 17 39 20 40 21 41 8 43 7 44 6 45 5 46 3 47
REMARK SMILES IDX 4 48 2 49 1 50
REMARK H PARENT 43 5 27 10 11 32
REMARK Flexibility Score: 80.00
ROOT
ATOM      1  C   UNL     1      15.183  71.208  77.933  1.00  0.00     0.035 C 
ENDROOT
BRANCH   1   2
ATOM      2  C   UNL     1      16.471  71.225  78.777  1.00  0.00     0.171 C 
BRANCH   2   3
ATOM      3  C   UNL     1      17.267  69.957  78.600  1.00  0.00     0.243 C 
ATOM      4  N   UNL     1      18.595  70.013  78.069  1.00  0.00    -0.342 N 
ATOM      5  H   UNL     1      18.852  70.851  77.503  1.00  0.00     0.164 HD
ATOM      6  O   UNL     1      16.793  68.858  78.997  1.00  0.00    -0.273 OA
BRANCH   4   7
ATOM      7  C   UNL     1      19.660  69.165  78.612  1.00  0.00     0.175 C 
BRANCH   7   8
ATOM      8  C   UNL     1      19.702  69.270  80.120  1.00  0.00     0.243 C 
ATOM      9  N   UNL     1      19.106  70.391  80.794  1.00  0.00    -0.342 N 
ATOM     10  H   UNL     1      18.910  71.258  80.244  1.00  0.00     0.164 HD
ATOM     11  O   UNL     1      20.265  68.360  80.783  1.00  0.00    -0.273 OA
BRANCH   9  12
ATOM     12  C   UNL     1      18.736  70.350  82.213  1.00  0.00     0.174 CG0
ATOM     13  G   UNL     1      17.228  70.200  82.333  1.00  0.00     0.000 G0
BRANCH  12  14
ATOM     14  C   UNL     1      19.319  71.592  82.958  1.00  0.00     0.018 C 
ATOM     15  C   UNL     1      20.245  72.407  82.040  1.00  0.00     0.010 C 
BRANCH  14  16
ATOM     16  C   UNL     1      20.017  71.235  84.296  1.00  0.00     0.002 C 
ATOM     17  C   UNL     1      19.934  69.746  84.635  1.00  0.00     0.004 C 
ENDBRANCH  14  16
ENDBRANCH  12  14
ENDBRANCH   9  12
ENDBRANCH   7   8
BRANCH   7  18
ATOM     18  C   UNL     1      21.020  69.485  77.964  1.00  0.00     0.073 C 
BRANCH  18  19
ATOM     19  C   UNL     1      20.912  70.063  76.578  1.00  0.00    -0.016 A 
ATOM     20  C   UNL     1      19.792  70.033  75.752  1.00  0.00     0.134 A 
ATOM     21  C   UNL     1      21.914  70.666  75.837  1.00  0.00     0.006 A 
ATOM     22  N   UNL     1      20.089  70.599  74.556  1.00  0.00    -0.191 N 
ATOM     23  C   UNL     1      21.377  70.974  74.612  1.00  0.00     0.087 A 
ATOM     24  C   UNL     1      23.257  70.916  76.132  1.00  0.00     0.011 A 
ATOM     25  C   UNL     1      22.143  71.548  73.598  1.00  0.00     0.030 A 
ATOM     26  C   UNL     1      24.053  71.493  75.127  1.00  0.00     0.001 A 
ATOM     27  C   UNL     1      23.501  71.805  73.866  1.00  0.00     0.002 A 
BRANCH  22  28
ATOM     28  O   UNL     1      19.263  70.731  73.456  1.00  0.00    -0.417 OA
ATOM     29  C   UNL     1      18.613  71.954  73.134  1.00  0.00     0.313 C 
ENDBRANCH  22  28
ENDBRANCH  18  19
ENDBRANCH   7  18
ENDBRANCH   4   7
ENDBRANCH   2   3
BRANCH   2  30
ATOM     30  N   UNL     1      16.151  71.393  80.195  1.00  0.00    -0.343 N 
ATOM     31  C   UNL     1      16.458  72.596  80.916  1.00  0.00     0.243 C 
ATOM     32  H   UNL     1      15.777  70.578  80.733  1.00  0.00     0.164 HD
ATOM     33  O   UNL     1      16.729  73.658  80.292  1.00  0.00    -0.273 OA
BRANCH  31  34
ATOM     34  C   UNL     1      16.468  72.592  82.425  1.00  0.00     0.174 C 
ATOM     35  N   UNL     1      16.377  71.208  82.954  1.00  0.00    -0.329 N 
ATOM     36  C   UNL     1      15.314  73.485  82.923  1.00  0.00     0.035 C 
ATOM     37  C   UNL     1      15.987  71.003  84.359  1.00  0.00     0.120 C 
ATOM     38  C   UNL     1      15.115  73.351  84.426  1.00  0.00     0.004 C 
ATOM     39  C   UNL     1      14.818  71.896  84.768  1.00  0.00     0.022 C 
BRANCH  35  40
ATOM     40  C   UNL     1      17.215  70.190  82.356  1.00  0.00     0.246 CG0
ATOM     41  O   UNL     1      16.702  69.085  82.029  1.00  0.00    -0.272 OA
ATOM     42  G   UNL     1      18.718  70.379  82.223  1.00  0.00     0.000 G0
ENDBRANCH  35  40
ENDBRANCH  31  34
ENDBRANCH   2  30
ENDBRANCH   1   2
BRANCH   1  43
ATOM     43  C   UNL     1      15.455  70.716  76.504  1.00  0.00     0.003 C 
BRANCH  43  44
ATOM     44  C   UNL     1      14.355  69.768  76.019  1.00  0.00     0.001 C 
BRANCH  44  45
ATOM     45  C   UNL     1      13.447  70.466  74.996  1.00  0.00     0.008 C 
BRANCH  45  46
ATOM     46  C   UNL     1      14.126  70.618  73.628  1.00  0.00     0.075 C 
BRANCH  46  47
ATOM     47  C   UNL     1      13.481  71.700  72.799  1.00  0.00     0.132 C 
ATOM     48  O   UNL     1      14.153  72.308  71.979  1.00  0.00    -0.300 OA
BRANCH  47  49
ATOM     49  C   UNL     1      12.027  72.054  72.973  1.00  0.00     0.072 C 
ATOM     50  C   UNL     1      11.777  73.513  72.593  1.00  0.00     0.012 C 
ENDBRANCH  47  49
ENDBRANCH  46  47
ENDBRANCH  45  46
ENDBRANCH  44  45
ENDBRANCH  43  44
ENDBRANCH   1  43
TORSDOF 12
ENDMDL
MODEL 7
REMARK VINA RESULT:    -5.399      2.024      8.020
REMARK INTER + INTRA:         -10.781
REMARK INTER:                 -11.080
REMARK INTRA:                   0.299
REMARK UNBOUND:                 0.614
REMARK SMILES CCC(=O)CCCCC[C@H]1NC(=O)[C@H]2CCCCN2C(=O)[C@H]([C@H](C)CC)NC(=O)[C@H](Cc2cn(OC)c3ccccc23)NC1=O
REMARK SMILES IDX 9 1 10 2 44 3 43 4 45 6 30 7 28 8 27 9 29 11 22 12 23 14
REMARK SMILES IDX 24 15 25 16 26 17 31 18 32 19 33 20 42 21 34 22 37 23 41 24
REMARK SMILES IDX 38 25 40 26 39 27 35 28 36 29 11 30 12 31 13 33 14 34 19 35
REMARK SMILES IDX 15 36 18 37 16 38 17 39 20 40 21 41 8 43 7 44 6 45 5 46 3 47
REMARK SMILES IDX 4 48 2 49 1 50
REMARK H PARENT 43 5 27 10 11 32
REMARK Flexibility Score: 80.00
ROOT
ATOM      1  C   UNL     1      17.476  71.330  77.882  1.00  0.00     0.035 C 
ENDROOT
BRANCH   1   2
ATOM      2  C   UNL     1      17.309  72.091  76.555  1.00  0.00     0.171 C 
BRANCH   2   3
ATOM      3  C   UNL     1      16.200  71.509  75.717  1.00  0.00     0.243 C 
ATOM      4  N   UNL     1      15.575  72.302  74.703  1.00  0.00    -0.342 N 
ATOM      5  H   UNL     1      15.645  73.340  74.793  1.00  0.00     0.164 HD
ATOM      6  O   UNL     1      15.882  70.296  75.853  1.00  0.00    -0.273 OA
BRANCH   4   7
ATOM      7  C   UNL     1      15.213  71.721  73.407  1.00  0.00     0.175 C 
BRANCH   7   8
ATOM      8  C   UNL     1      16.452  71.452  72.584  1.00  0.00     0.243 C 
ATOM      9  N   UNL     1      17.638  72.244  72.763  1.00  0.00    -0.342 N 
ATOM     10  H   UNL     1      17.552  73.172  73.236  1.00  0.00     0.164 HD
ATOM     11  O   UNL     1      16.436  70.520  71.737  1.00  0.00    -0.273 OA
BRANCH   9  12
ATOM     12  C   UNL     1      18.963  71.785  72.333  1.00  0.00     0.174 CG0
ATOM     13  G   UNL     1      20.005  72.255  73.336  1.00  0.00     0.000 G0
BRANCH  12  14
ATOM     14  C   UNL     1      19.239  72.233  70.864  1.00  0.00     0.018 C 
ATOM     15  C   UNL     1      20.393  71.427  70.244  1.00  0.00     0.010 C 
BRANCH  14  16
ATOM     16  C   UNL     1      19.473  73.759  70.720  1.00  0.00     0.002 C 
ATOM     17  C   UNL     1      20.696  74.101  69.869  1.00  0.00     0.004 C 
ENDBRANCH  14  16
ENDBRANCH  12  14
ENDBRANCH   9  12
ENDBRANCH   7   8
BRANCH   7  18
ATOM     18  C   UNL     1      14.193  72.601  72.660  1.00  0.00     0.073 C 
BRANCH  18  19
ATOM     19  C   UNL     1      12.759  72.275  72.982  1.00  0.00    -0.016 A 
ATOM     20  C   UNL     1      12.120  72.456  74.205  1.00  0.00     0.134 A 
ATOM     21  C   UNL     1      11.827  71.670  72.154  1.00  0.00     0.006 A 
ATOM     22  N   UNL     1      10.849  71.991  74.133  1.00  0.00    -0.191 N 
ATOM     23  C   UNL     1      10.680  71.511  72.891  1.00  0.00     0.087 A 
ATOM     24  C   UNL     1      11.923  71.209  70.839  1.00  0.00     0.011 A 
ATOM     25  C   UNL     1       9.553  70.878  72.367  1.00  0.00     0.030 A 
ATOM     26  C   UNL     1      10.801  70.567  70.285  1.00  0.00     0.001 A 
ATOM     27  C   UNL     1       9.624  70.398  71.045  1.00  0.00     0.002 A 
BRANCH  22  28
ATOM     28  O   UNL     1       9.904  71.958  75.141  1.00  0.00    -0.417 OA
ATOM     29  C   UNL     1      10.099  72.609  76.390  1.00  0.00     0.313 C 
ENDBRANCH  22  28
ENDBRANCH  18  19
ENDBRANCH   7  18
ENDBRANCH   4   7
ENDBRANCH   2   3
BRANCH   2  30
ATOM     30  N   UNL     1      18.555  72.061  75.788  1.00  0.00    -0.343 N 
ATOM     31  C   UNL     1      19.515  71.002  75.921  1.00  0.00     0.243 C 
ATOM     32  H   UNL     1      18.809  72.884  75.196  1.00  0.00     0.164 HD
ATOM     33  O   UNL     1      19.186  69.912  76.464  1.00  0.00    -0.273 OA
BRANCH  31  34
ATOM     34  C   UNL     1      20.925  71.192  75.419  1.00  0.00     0.174 C 
ATOM     35  N   UNL     1      20.946  71.360  73.943  1.00  0.00    -0.329 N 
ATOM     36  C   UNL     1      21.774  69.992  75.882  1.00  0.00     0.035 C 
ATOM     37  C   UNL     1      22.216  71.174  73.220  1.00  0.00     0.120 C 
ATOM     38  C   UNL     1      23.148  69.995  75.225  1.00  0.00     0.004 C 
ATOM     39  C   UNL     1      22.983  69.948  73.711  1.00  0.00     0.022 C 
BRANCH  35  40
ATOM     40  C   UNL     1      19.981  72.256  73.343  1.00  0.00     0.246 CG0
ATOM     41  O   UNL     1      19.923  73.452  73.738  1.00  0.00    -0.272 OA
ATOM     42  G   UNL     1      18.958  71.758  72.334  1.00  0.00     0.000 G0
ENDBRANCH  35  40
ENDBRANCH  31  34
ENDBRANCH   2  30
ENDBRANCH   1   2
BRANCH   1  43
ATOM     43  C   UNL     1      18.090  72.224  78.969  1.00  0.00     0.003 C 
BRANCH  43  44
ATOM     44  C   UNL     1      18.013  71.564  80.349  1.00  0.00     0.001 C 
BRANCH  44  45
ATOM     45  C   UNL     1      16.634  70.924  80.569  1.00  0.00     0.008 C 
BRANCH  45  46
ATOM     46  C   UNL     1      16.633  69.424  80.242  1.00  0.00     0.075 C 
BRANCH  46  47
ATOM     47  C   UNL     1      17.964  68.783  80.547  1.00  0.00     0.132 C 
ATOM     48  O   UNL     1      18.259  68.537  81.708  1.00  0.00    -0.300 OA
BRANCH  47  49
ATOM     49  C   UNL     1      18.941  68.453  79.449  1.00  0.00     0.072 C 
ATOM     50  C   UNL     1      20.377  68.518  79.966  1.00  0.00     0.012 C 
ENDBRANCH  47  49
ENDBRANCH  46  47
ENDBRANCH  45  46
ENDBRANCH  44  45
ENDBRANCH  43  44
ENDBRANCH   1  43
TORSDOF 12
ENDMDL
MODEL 8
REMARK VINA RESULT:    -5.277      2.072      8.391
REMARK INTER + INTRA:         -10.524
REMARK INTER:                  -8.322
REMARK INTRA:                  -2.202
REMARK UNBOUND:                 0.614
REMARK SMILES CCC(=O)CCCCC[C@H]1NC(=O)[C@H]2CCCCN2C(=O)[C@H]([C@H](C)CC)NC(=O)[C@H](Cc2cn(OC)c3ccccc23)NC1=O
REMARK SMILES IDX 9 1 10 2 44 3 43 4 45 6 30 7 28 8 27 9 29 11 22 12 23 14
REMARK SMILES IDX 24 15 25 16 26 17 31 18 32 19 33 20 42 21 34 22 37 23 41 24
REMARK SMILES IDX 38 25 40 26 39 27 35 28 36 29 11 30 12 31 13 33 14 34 19 35
REMARK SMILES IDX 15 36 18 37 16 38 17 39 20 40 21 41 8 43 7 44 6 45 5 46 3 47
REMARK SMILES IDX 4 48 2 49 1 50
REMARK H PARENT 43 5 27 10 11 32
REMARK Flexibility Score: 80.00
ROOT
ATOM      1  C   UNL     1      15.832  70.764  78.451  1.00  0.00     0.035 C 
ENDROOT
BRANCH   1   2
ATOM      2  C   UNL     1      16.346  71.276  77.094  1.00  0.00     0.171 C 
BRANCH   2   3
ATOM      3  C   UNL     1      15.434  70.868  75.965  1.00  0.00     0.243 C 
ATOM      4  N   UNL     1      14.949  71.851  75.045  1.00  0.00    -0.342 N 
ATOM      5  H   UNL     1      14.942  72.845  75.362  1.00  0.00     0.164 HD
ATOM      6  O   UNL     1      15.168  69.648  75.784  1.00  0.00    -0.273 OA
BRANCH   4   7
ATOM      7  C   UNL     1      14.850  71.558  73.612  1.00  0.00     0.175 C 
BRANCH   7   8
ATOM      8  C   UNL     1      16.226  71.500  72.989  1.00  0.00     0.243 C 
ATOM      9  N   UNL     1      17.276  72.367  73.448  1.00  0.00    -0.342 N 
ATOM     10  H   UNL     1      17.018  73.220  73.993  1.00  0.00     0.164 HD
ATOM     11  O   UNL     1      16.445  70.678  72.060  1.00  0.00    -0.273 OA
BRANCH   9  12
ATOM     12  C   UNL     1      18.695  72.081  73.205  1.00  0.00     0.174 CG0
ATOM     13  G   UNL     1      19.470  72.259  74.501  1.00  0.00     0.000 G0
BRANCH  12  14
ATOM     14  C   UNL     1      19.224  72.945  72.018  1.00  0.00     0.018 C 
ATOM     15  C   UNL     1      18.068  73.642  71.280  1.00  0.00     0.010 C 
BRANCH  14  16
ATOM     16  C   UNL     1      20.129  72.155  71.038  1.00  0.00     0.002 C 
ATOM     17  C   UNL     1      19.819  70.658  71.012  1.00  0.00     0.004 C 
ENDBRANCH  14  16
ENDBRANCH  12  14
ENDBRANCH   9  12
ENDBRANCH   7   8
BRANCH   7  18
ATOM     18  C   UNL     1      13.924  72.558  72.895  1.00  0.00     0.073 C 
BRANCH  18  19
ATOM     19  C   UNL     1      12.516  72.057  72.712  1.00  0.00    -0.016 A 
ATOM     20  C   UNL     1      11.937  71.623  71.523  1.00  0.00     0.134 A 
ATOM     21  C   UNL     1      11.512  72.000  73.665  1.00  0.00     0.006 A 
ATOM     22  N   UNL     1      10.636  71.305  71.735  1.00  0.00    -0.191 N 
ATOM     23  C   UNL     1      10.384  71.542  73.031  1.00  0.00     0.087 A 
ATOM     24  C   UNL     1      11.499  72.362  75.014  1.00  0.00     0.011 A 
ATOM     25  C   UNL     1       9.166  71.418  73.700  1.00  0.00     0.030 A 
ATOM     26  C   UNL     1      10.284  72.247  75.713  1.00  0.00     0.001 A 
ATOM     27  C   UNL     1       9.123  71.781  75.059  1.00  0.00     0.002 A 
BRANCH  22  28
ATOM     28  O   UNL     1       9.711  70.870  70.804  1.00  0.00    -0.417 OA
ATOM     29  C   UNL     1      10.092  70.367  69.530  1.00  0.00     0.313 C 
ENDBRANCH  22  28
ENDBRANCH  18  19
ENDBRANCH   7  18
ENDBRANCH   4   7
ENDBRANCH   2   3
BRANCH   2  30
ATOM     30  N   UNL     1      17.691  70.764  76.830  1.00  0.00    -0.343 N 
ATOM     31  C   UNL     1      18.876  71.471  77.228  1.00  0.00     0.243 C 
ATOM     32  H   UNL     1      17.803  69.905  76.244  1.00  0.00     0.164 HD
ATOM     33  O   UNL     1      18.807  72.394  78.084  1.00  0.00    -0.273 OA
BRANCH  31  34
ATOM     34  C   UNL     1      20.209  71.117  76.616  1.00  0.00     0.174 C 
ATOM     35  N   UNL     1      20.135  71.132  75.133  1.00  0.00    -0.329 N 
ATOM     36  C   UNL     1      20.650  69.746  77.166  1.00  0.00     0.035 C 
ATOM     37  C   UNL     1      21.187  70.454  74.357  1.00  0.00     0.120 C 
ATOM     38  C   UNL     1      21.871  69.216  76.426  1.00  0.00     0.004 C 
ATOM     39  C   UNL     1      21.546  69.090  74.942  1.00  0.00     0.022 C 
BRANCH  35  40
ATOM     40  C   UNL     1      19.468  72.246  74.492  1.00  0.00     0.246 CG0
ATOM     41  O   UNL     1      19.469  73.372  75.061  1.00  0.00    -0.272 OA
ATOM     42  G   UNL     1      18.669  72.062  73.212  1.00  0.00     0.000 G0
ENDBRANCH  35  40
ENDBRANCH  31  34
ENDBRANCH   2  30
ENDBRANCH   1   2
BRANCH   1  43
ATOM     43  C   UNL     1      15.911  71.854  79.530  1.00  0.00     0.003 C 
BRANCH  43  44
ATOM     44  C   UNL     1      16.154  71.253  80.917  1.00  0.00     0.001 C 
BRANCH  44  45
ATOM     45  C   UNL     1      17.642  70.932  81.119  1.00  0.00     0.008 C 
BRANCH  45  46
ATOM     46  C   UNL     1      17.865  69.892  82.225  1.00  0.00     0.075 C 
BRANCH  46  47
ATOM     47  C   UNL     1      18.609  68.683  81.716  1.00  0.00     0.132 C 
ATOM     48  O   UNL     1      18.691  67.688  82.421  1.00  0.00    -0.300 OA
BRANCH  47  49
ATOM     49  C   UNL     1      19.264  68.684  80.358  1.00  0.00     0.072 C 
ATOM     50  C   UNL     1      18.503  67.776  79.392  1.00  0.00     0.012 C 
ENDBRANCH  47  49
ENDBRANCH  46  47
ENDBRANCH  45  46
ENDBRANCH  44  45
ENDBRANCH  43  44
ENDBRANCH   1  43
TORSDOF 12
ENDMDL
MODEL 9
REMARK VINA RESULT:    -5.115      2.205      8.094
REMARK INTER + INTRA:         -10.182
REMARK INTER:                 -10.258
REMARK INTRA:                   0.076
REMARK UNBOUND:                 0.614
REMARK SMILES CCC(=O)CCCCC[C@H]1NC(=O)[C@H]2CCCCN2C(=O)[C@H]([C@H](C)CC)NC(=O)[C@H](Cc2cn(OC)c3ccccc23)NC1=O
REMARK SMILES IDX 9 1 10 2 44 3 43 4 45 6 30 7 28 8 27 9 29 11 22 12 23 14
REMARK SMILES IDX 24 15 25 16 26 17 31 18 32 19 33 20 42 21 34 22 37 23 41 24
REMARK SMILES IDX 38 25 40 26 39 27 35 28 36 29 11 30 12 31 13 33 14 34 19 35
REMARK SMILES IDX 15 36 18 37 16 38 17 39 20 40 21 41 8 43 7 44 6 45 5 46 3 47
REMARK SMILES IDX 4 48 2 49 1 50
REMARK H PARENT 43 5 27 10 11 32
REMARK Flexibility Score: 80.00
ROOT
ATOM      1  C   UNL     1      16.772  71.056  78.338  1.00  0.00     0.035 C 
ENDROOT
BRANCH   1   2
ATOM      2  C   UNL     1      16.742  71.789  76.985  1.00  0.00     0.171 C 
BRANCH   2   3
ATOM      3  C   UNL     1      15.703  71.206  76.061  1.00  0.00     0.243 C 
ATOM      4  N   UNL     1      15.185  71.988  74.980  1.00  0.00    -0.342 N 
ATOM      5  H   UNL     1      15.266  73.026  75.055  1.00  0.00     0.164 HD
ATOM      6  O   UNL     1      15.352  70.001  76.192  1.00  0.00    -0.273 OA
BRANCH   4   7
ATOM      7  C   UNL     1      14.931  71.385  73.668  1.00  0.00     0.175 C 
BRANCH   7   8
ATOM      8  C   UNL     1      16.234  71.035  72.986  1.00  0.00     0.243 C 
ATOM      9  N   UNL     1      17.410  71.833  73.199  1.00  0.00    -0.342 N 
ATOM     10  H   UNL     1      17.297  72.800  73.580  1.00  0.00     0.164 HD
ATOM     11  O   UNL     1      16.279  70.032  72.226  1.00  0.00    -0.273 OA
BRANCH   9  12
ATOM     12  C   UNL     1      18.762  71.328  72.932  1.00  0.00     0.174 CG0
ATOM     13  G   UNL     1      19.709  71.841  74.005  1.00  0.00     0.000 G0
BRANCH  12  14
ATOM     14  C   UNL     1      19.191  71.683  71.473  1.00  0.00     0.018 C 
ATOM     15  C   UNL     1      19.625  70.427  70.700  1.00  0.00     0.010 C 
BRANCH  14  16
ATOM     16  C   UNL     1      20.271  72.794  71.404  1.00  0.00     0.002 C 
ATOM     17  C   UNL     1      21.361  72.505  70.371  1.00  0.00     0.004 C 
ENDBRANCH  14  16
ENDBRANCH  12  14
ENDBRANCH   9  12
ENDBRANCH   7   8
BRANCH   7  18
ATOM     18  C   UNL     1      14.037  72.288  72.797  1.00  0.00     0.073 C 
BRANCH  18  19
ATOM     19  C   UNL     1      12.563  72.104  73.046  1.00  0.00    -0.016 A 
ATOM     20  C   UNL     1      11.870  72.428  74.209  1.00  0.00     0.134 A 
ATOM     21  C   UNL     1      11.634  71.517  72.202  1.00  0.00     0.006 A 
ATOM     22  N   UNL     1      10.570  72.063  74.084  1.00  0.00    -0.191 N 
ATOM     23  C   UNL     1      10.436  71.507  72.871  1.00  0.00     0.087 A 
ATOM     24  C   UNL     1      11.770  70.954  70.931  1.00  0.00     0.011 A 
ATOM     25  C   UNL     1       9.292  70.931  72.318  1.00  0.00     0.030 A 
ATOM     26  C   UNL     1      10.632  70.365  70.350  1.00  0.00     0.001 A 
ATOM     27  C   UNL     1       9.401  70.350  71.040  1.00  0.00     0.002 A 
BRANCH  22  28
ATOM     28  O   UNL     1       9.567  72.181  75.028  1.00  0.00    -0.417 OA
ATOM     29  C   UNL     1       9.816  72.060  76.423  1.00  0.00     0.313 C 
ENDBRANCH  22  28
ENDBRANCH  18  19
ENDBRANCH   7  18
ENDBRANCH   4   7
ENDBRANCH   2   3
BRANCH   2  30
ATOM     30  N   UNL     1      18.051  71.717  76.336  1.00  0.00    -0.343 N 
ATOM     31  C   UNL     1      18.987  70.662  76.604  1.00  0.00     0.243 C 
ATOM     32  H   UNL     1      18.364  72.511  75.731  1.00  0.00     0.164 HD
ATOM     33  O   UNL     1      18.603  69.600  77.165  1.00  0.00    -0.273 OA
BRANCH  31  34
ATOM     34  C   UNL     1      20.439  70.823  76.224  1.00  0.00     0.174 C 
ATOM     35  N   UNL     1      20.592  70.942  74.751  1.00  0.00    -0.329 N 
ATOM     36  C   UNL     1      21.230  69.632  76.800  1.00  0.00     0.035 C 
ATOM     37  C   UNL     1      21.919  70.721  74.150  1.00  0.00     0.120 C 
ATOM     38  C   UNL     1      22.656  69.602  76.268  1.00  0.00     0.004 C 
ATOM     39  C   UNL     1      22.625  69.506  74.748  1.00  0.00     0.022 C 
BRANCH  35  40
ATOM     40  C   UNL     1      19.694  71.825  74.039  1.00  0.00     0.246 CG0
ATOM     41  O   UNL     1      19.604  73.031  74.398  1.00  0.00    -0.272 OA
ATOM     42  G   UNL     1      18.772  71.306  72.947  1.00  0.00     0.000 G0
ENDBRANCH  35  40
ENDBRANCH  31  34
ENDBRANCH   2  30
ENDBRANCH   1   2
BRANCH   1  43
ATOM     43  C   UNL     1      16.064  71.869  79.432  1.00  0.00     0.003 C 
BRANCH  43  44
ATOM     44  C   UNL     1      16.909  71.946  80.708  1.00  0.00     0.001 C 
BRANCH  44  45
ATOM     45  C   UNL     1      16.139  72.665  81.826  1.00  0.00     0.008 C 
BRANCH  45  46
ATOM     46  C   UNL     1      14.621  72.611  81.611  1.00  0.00     0.075 C 
BRANCH  46  47
ATOM     47  C   UNL     1      13.865  73.057  82.837  1.00  0.00     0.132 C 
ATOM     48  O   UNL     1      12.846  73.720  82.706  1.00  0.00    -0.300 OA
BRANCH  47  49
ATOM     49  C   UNL     1      14.350  72.711  84.222  1.00  0.00     0.072 C 
ATOM     50  C   UNL     1      14.559  73.977  85.052  1.00  0.00     0.012 C 
ENDBRANCH  47  49
ENDBRANCH  46  47
ENDBRANCH  45  46
ENDBRANCH  44  45
ENDBRANCH  43  44
ENDBRANCH   1  43
TORSDOF 12
ENDMDL
