MODEL 1
REMARK VINA RESULT:    -6.773      0.000      0.000
REMARK INTER + INTRA:         -11.295
REMARK INTER:                  -9.347
REMARK INTRA:                  -1.948
REMARK UNBOUND:                -1.948
REMARK SMILES CC[C@@H](CC[C@H](C)[C@H]1CC[C@@H]2[C@H]3CC=C4C[C@@H](O)CC[C@]4(C)[C@@H]3CC[C@@]21C)C(C)C
REMARK SMILES IDX 5 1 4 2 3 3 2 4 1 5 28 6 29 7 30 8 6 9 7 10 8 11 9 12 26 13
REMARK SMILES IDX 10 14 11 15 25 16 27 17 12 18 24 19 23 20 13 21 21 22 14 23
REMARK SMILES IDX 15 24 20 25 22 26 16 27 19 28 17 29 18 30
REMARK H PARENT 18 31
REMARK Flexibility Score: inf
ROOT
ATOM      1  C   UNL     1     146.037 134.444 147.260  1.00  0.00     0.004 C 
ENDROOT
BRANCH   1   2
ATOM      2  C   UNL     1     146.341 135.805 146.573  1.00  0.00     0.004 C 
BRANCH   2   3
ATOM      3  C   UNL     1     145.481 137.058 146.938  1.00  0.00    -0.009 C 
BRANCH   3   4
ATOM      4  C   UNL     1     144.644 137.544 145.715  1.00  0.00     0.000 C 
ATOM      5  C   UNL     1     143.407 136.680 145.451  1.00  0.00     0.004 C 
ENDBRANCH   3   4
BRANCH   3   6
ATOM      6  C   UNL     1     146.278 138.198 147.671  1.00  0.00    -0.014 C 
ATOM      7  C   UNL     1     147.788 137.892 147.751  1.00  0.00     0.007 C 
ATOM      8  C   UNL     1     145.762 138.444 149.099  1.00  0.00     0.007 C 
ENDBRANCH   3   6
ENDBRANCH   2   3
ENDBRANCH   1   2
BRANCH   1   9
ATOM      9  C   UNL     1     145.463 134.522 148.707  1.00  0.00    -0.011 C 
ATOM     10  C   UNL     1     146.592 134.178 149.710  1.00  0.00     0.008 C 
BRANCH   9  11
ATOM     11  C   UNL     1     144.242 133.552 148.940  1.00  0.00    -0.002 C 
ATOM     12  C   UNL     1     144.334 132.835 150.291  1.00  0.00     0.005 C 
ATOM     13  C   UNL     1     142.766 134.130 148.877  1.00  0.00    -0.026 C 
ATOM     14  C   UNL     1     142.940 132.334 150.566  1.00  0.00     0.005 C 
ATOM     15  C   UNL     1     142.037 133.474 150.115  1.00  0.00    -0.001 C 
ATOM     16  C   UNL     1     142.118 133.796 147.478  1.00  0.00     0.007 C 
ATOM     17  C   UNL     1     142.707 135.667 149.085  1.00  0.00     0.012 C 
ATOM     18  C   UNL     1     140.547 133.004 149.970  1.00  0.00     0.000 C 
ATOM     19  C   UNL     1     140.966 132.798 147.524  1.00  0.00     0.005 C 
ATOM     20  C   UNL     1     139.945 133.245 148.578  1.00  0.00     0.003 C 
ATOM     21  C   UNL     1     139.636 133.685 151.001  1.00  0.00     0.031 C 
ATOM     22  C   UNL     1     138.513 132.590 148.432  1.00  0.00    -0.008 C 
ATOM     23  C   UNL     1     138.231 133.167 150.893  1.00  0.00    -0.027 C 
ATOM     24  C   UNL     1     137.705 132.693 149.741  1.00  0.00    -0.065 C 
ATOM     25  C   UNL     1     138.607 131.075 148.059  1.00  0.00     0.014 C 
ATOM     26  C   UNL     1     137.753 133.359 147.318  1.00  0.00     0.016 C 
ATOM     27  C   UNL     1     136.354 132.009 149.787  1.00  0.00     0.063 C 
ATOM     28  C   UNL     1     137.253 130.338 148.096  1.00  0.00     0.033 C 
ATOM     29  C   UNL     1     136.535 130.522 149.446  1.00  0.00     0.118 C 
BRANCH  29  30
ATOM     30  O   UNL     1     135.295 129.859 149.443  1.00  0.00    -0.393 OA
ATOM     31  H   UNL     1     135.417 128.991 149.908  1.00  0.00     0.210 HD
ENDBRANCH  29  30
ENDBRANCH   9  11
ENDBRANCH   1   9
TORSDOF 7
ENDMDL
MODEL 2
REMARK VINA RESULT:    -6.390      3.847      9.748
REMARK INTER + INTRA:         -10.766
REMARK INTER:                  -9.764
REMARK INTRA:                  -1.002
REMARK UNBOUND:                -1.948
REMARK SMILES CC[C@@H](CC[C@H](C)[C@H]1CC[C@@H]2[C@H]3CC=C4C[C@@H](O)CC[C@]4(C)[C@@H]3CC[C@@]21C)C(C)C
REMARK SMILES IDX 5 1 4 2 3 3 2 4 1 5 28 6 29 7 30 8 6 9 7 10 8 11 9 12 26 13
REMARK SMILES IDX 10 14 11 15 25 16 27 17 12 18 24 19 23 20 13 21 21 22 14 23
REMARK SMILES IDX 15 24 20 25 22 26 16 27 19 28 17 29 18 30
REMARK H PARENT 18 31
REMARK Flexibility Score: inf
ROOT
ATOM      1  C   UNL     1     141.393 134.329 149.477  1.00  0.00     0.004 C 
ENDROOT
BRANCH   1   2
ATOM      2  C   UNL     1     140.045 133.733 148.979  1.00  0.00     0.004 C 
BRANCH   2   3
ATOM      3  C   UNL     1     138.843 133.622 149.971  1.00  0.00    -0.009 C 
BRANCH   3   4
ATOM      4  C   UNL     1     139.150 132.611 151.118  1.00  0.00     0.000 C 
ATOM      5  C   UNL     1     139.717 133.280 152.375  1.00  0.00     0.004 C 
ENDBRANCH   3   4
BRANCH   3   6
ATOM      6  C   UNL     1     137.449 133.408 149.276  1.00  0.00    -0.014 C 
ATOM      7  C   UNL     1     136.690 132.198 149.858  1.00  0.00     0.007 C 
ATOM      8  C   UNL     1     137.580 133.208 147.756  1.00  0.00     0.007 C 
ENDBRANCH   3   6
ENDBRANCH   2   3
ENDBRANCH   1   2
BRANCH   1   9
ATOM      9  C   UNL     1     142.661 133.463 149.215  1.00  0.00    -0.011 C 
ATOM     10  C   UNL     1     142.647 132.253 150.181  1.00  0.00     0.008 C 
BRANCH   9  11
ATOM     11  C   UNL     1     144.006 134.265 149.399  1.00  0.00    -0.002 C 
ATOM     12  C   UNL     1     145.080 133.422 150.095  1.00  0.00     0.005 C 
ATOM     13  C   UNL     1     144.724 134.885 148.128  1.00  0.00    -0.026 C 
ATOM     14  C   UNL     1     146.382 134.118 149.792  1.00  0.00     0.005 C 
ATOM     15  C   UNL     1     146.250 134.541 148.335  1.00  0.00    -0.001 C 
ATOM     16  C   UNL     1     144.404 136.427 148.031  1.00  0.00     0.007 C 
ATOM     17  C   UNL     1     144.288 134.214 146.799  1.00  0.00     0.012 C 
ATOM     18  C   UNL     1     147.339 135.601 147.944  1.00  0.00     0.000 C 
ATOM     19  C   UNL     1     145.595 137.348 148.271  1.00  0.00     0.005 C 
ATOM     20  C   UNL     1     146.766 136.911 147.382  1.00  0.00     0.003 C 
ATOM     21  C   UNL     1     148.329 135.041 146.913  1.00  0.00     0.031 C 
ATOM     22  C   UNL     1     147.888 138.007 147.179  1.00  0.00    -0.008 C 
ATOM     23  C   UNL     1     149.404 136.045 146.608  1.00  0.00    -0.027 C 
ATOM     24  C   UNL     1     149.214 137.381 146.701  1.00  0.00    -0.065 C 
ATOM     25  C   UNL     1     148.187 138.779 148.504  1.00  0.00     0.014 C 
ATOM     26  C   UNL     1     147.389 138.998 146.093  1.00  0.00     0.016 C 
ATOM     27  C   UNL     1     150.414 138.295 146.570  1.00  0.00     0.063 C 
ATOM     28  C   UNL     1     149.405 139.722 148.416  1.00  0.00     0.033 C 
ATOM     29  C   UNL     1     150.664 138.988 147.919  1.00  0.00     0.118 C 
BRANCH  29  30
ATOM     30  O   UNL     1     151.751 139.875 147.827  1.00  0.00    -0.393 OA
ATOM     31  H   UNL     1     151.646 140.555 148.543  1.00  0.00     0.210 HD
ENDBRANCH  29  30
ENDBRANCH   9  11
ENDBRANCH   1   9
TORSDOF 7
ENDMDL
MODEL 3
REMARK VINA RESULT:    -6.254      3.477      8.879
REMARK INTER + INTRA:         -10.579
REMARK INTER:                  -8.925
REMARK INTRA:                  -1.654
REMARK UNBOUND:                -1.948
REMARK SMILES CC[C@@H](CC[C@H](C)[C@H]1CC[C@@H]2[C@H]3CC=C4C[C@@H](O)CC[C@]4(C)[C@@H]3CC[C@@]21C)C(C)C
REMARK SMILES IDX 5 1 4 2 3 3 2 4 1 5 28 6 29 7 30 8 6 9 7 10 8 11 9 12 26 13
REMARK SMILES IDX 10 14 11 15 25 16 27 17 12 18 24 19 23 20 13 21 21 22 14 23
REMARK SMILES IDX 15 24 20 25 22 26 16 27 19 28 17 29 18 30
REMARK H PARENT 18 31
REMARK Flexibility Score: inf
ROOT
ATOM      1  C   UNL     1     140.716 133.069 151.096  1.00  0.00     0.004 C 
ENDROOT
BRANCH   1   2
ATOM      2  C   UNL     1     139.745 133.984 150.296  1.00  0.00     0.004 C 
BRANCH   2   3
ATOM      3  C   UNL     1     138.603 133.335 149.449  1.00  0.00    -0.009 C 
BRANCH   3   4
ATOM      4  C   UNL     1     137.944 132.143 150.208  1.00  0.00     0.000 C 
ATOM      5  C   UNL     1     136.414 132.155 150.135  1.00  0.00     0.004 C 
ENDBRANCH   3   4
BRANCH   3   6
ATOM      6  C   UNL     1     139.004 133.013 147.963  1.00  0.00    -0.014 C 
ATOM      7  C   UNL     1     137.895 133.404 146.965  1.00  0.00     0.007 C 
ATOM      8  C   UNL     1     139.332 131.524 147.758  1.00  0.00     0.007 C 
ENDBRANCH   3   6
ENDBRANCH   2   3
ENDBRANCH   1   2
BRANCH   1   9
ATOM      9  C   UNL     1     141.873 132.420 150.278  1.00  0.00    -0.011 C 
ATOM     10  C   UNL     1     142.210 131.042 150.898  1.00  0.00     0.008 C 
BRANCH   9  11
ATOM     11  C   UNL     1     143.175 133.310 150.239  1.00  0.00    -0.002 C 
ATOM     12  C   UNL     1     144.417 132.518 150.660  1.00  0.00     0.005 C 
ATOM     13  C   UNL     1     143.583 134.034 148.888  1.00  0.00    -0.026 C 
ATOM     14  C   UNL     1     145.586 133.318 150.146  1.00  0.00     0.005 C 
ATOM     15  C   UNL     1     145.139 133.792 148.770  1.00  0.00    -0.001 C 
ATOM     16  C   UNL     1     143.155 135.552 148.944  1.00  0.00     0.007 C 
ATOM     17  C   UNL     1     142.933 133.391 147.635  1.00  0.00     0.012 C 
ATOM     18  C   UNL     1     146.058 134.945 148.233  1.00  0.00     0.000 C 
ATOM     19  C   UNL     1     144.310 136.545 148.996  1.00  0.00     0.005 C 
ATOM     20  C   UNL     1     145.304 136.232 147.870  1.00  0.00     0.003 C 
ATOM     21  C   UNL     1     146.855 134.503 146.997  1.00  0.00     0.031 C 
ATOM     22  C   UNL     1     146.292 137.414 147.512  1.00  0.00    -0.008 C 
ATOM     23  C   UNL     1     147.781 135.593 146.543  1.00  0.00    -0.027 C 
ATOM     24  C   UNL     1     147.531 136.907 146.747  1.00  0.00    -0.065 C 
ATOM     25  C   UNL     1     146.802 138.149 148.794  1.00  0.00     0.014 C 
ATOM     26  C   UNL     1     145.524 138.412 146.604  1.00  0.00     0.016 C 
ATOM     27  C   UNL     1     148.622 137.911 146.435  1.00  0.00     0.063 C 
ATOM     28  C   UNL     1     147.916 139.179 148.521  1.00  0.00     0.033 C 
ATOM     29  C   UNL     1     149.094 138.561 147.744  1.00  0.00     0.118 C 
BRANCH  29  30
ATOM     30  O   UNL     1     150.082 139.527 147.490  1.00  0.00    -0.393 OA
ATOM     31  H   UNL     1     150.211 140.052 148.323  1.00  0.00     0.210 HD
ENDBRANCH  29  30
ENDBRANCH   9  11
ENDBRANCH   1   9
TORSDOF 7
ENDMDL
MODEL 4
REMARK VINA RESULT:    -6.193      3.058      8.704
REMARK INTER + INTRA:         -10.494
REMARK INTER:                  -8.644
REMARK INTRA:                  -1.850
REMARK UNBOUND:                -1.948
REMARK SMILES CC[C@@H](CC[C@H](C)[C@H]1CC[C@@H]2[C@H]3CC=C4C[C@@H](O)CC[C@]4(C)[C@@H]3CC[C@@]21C)C(C)C
REMARK SMILES IDX 5 1 4 2 3 3 2 4 1 5 28 6 29 7 30 8 6 9 7 10 8 11 9 12 26 13
REMARK SMILES IDX 10 14 11 15 25 16 27 17 12 18 24 19 23 20 13 21 21 22 14 23
REMARK SMILES IDX 15 24 20 25 22 26 16 27 19 28 17 29 18 30
REMARK H PARENT 18 31
REMARK Flexibility Score: inf
ROOT
ATOM      1  C   UNL     1     138.839 129.758 148.232  1.00  0.00     0.004 C 
ENDROOT
BRANCH   1   2
ATOM      2  C   UNL     1     137.956 131.039 148.225  1.00  0.00     0.004 C 
BRANCH   2   3
ATOM      3  C   UNL     1     136.629 131.059 149.049  1.00  0.00    -0.009 C 
BRANCH   3   4
ATOM      4  C   UNL     1     136.724 132.052 150.248  1.00  0.00     0.000 C 
ATOM      5  C   UNL     1     137.455 133.352 149.898  1.00  0.00     0.004 C 
ENDBRANCH   3   4
BRANCH   3   6
ATOM      6  C   UNL     1     136.082 129.635 149.430  1.00  0.00    -0.014 C 
ATOM      7  C   UNL     1     134.828 129.257 148.615  1.00  0.00     0.007 C 
ATOM      8  C   UNL     1     135.734 129.526 150.925  1.00  0.00     0.007 C 
ENDBRANCH   3   6
ENDBRANCH   2   3
ENDBRANCH   1   2
BRANCH   1   9
ATOM      9  C   UNL     1     140.030 129.754 149.236  1.00  0.00    -0.011 C 
ATOM     10  C   UNL     1     139.509 129.314 150.626  1.00  0.00     0.008 C 
BRANCH   9  11
ATOM     11  C   UNL     1     140.735 131.159 149.362  1.00  0.00    -0.002 C 
ATOM     12  C   UNL     1     140.650 131.713 150.788  1.00  0.00     0.005 C 
ATOM     13  C   UNL     1     142.260 131.304 148.951  1.00  0.00    -0.026 C 
ATOM     14  C   UNL     1     141.716 132.775 150.862  1.00  0.00     0.005 C 
ATOM     15  C   UNL     1     142.894 132.174 150.106  1.00  0.00    -0.001 C 
ATOM     16  C   UNL     1     142.370 131.941 147.512  1.00  0.00     0.007 C 
ATOM     17  C   UNL     1     143.017 129.950 148.943  1.00  0.00     0.012 C 
ATOM     18  C   UNL     1     143.964 133.266 149.749  1.00  0.00     0.000 C 
ATOM     19  C   UNL     1     142.960 133.346 147.471  1.00  0.00     0.005 C 
ATOM     20  C   UNL     1     144.282 133.367 148.250  1.00  0.00     0.003 C 
ATOM     21  C   UNL     1     145.284 133.029 150.495  1.00  0.00     0.031 C 
ATOM     22  C   UNL     1     145.221 134.597 147.927  1.00  0.00    -0.008 C 
ATOM     23  C   UNL     1     146.268 134.124 150.196  1.00  0.00    -0.027 C 
ATOM     24  C   UNL     1     146.266 134.822 149.038  1.00  0.00    -0.065 C 
ATOM     25  C   UNL     1     144.405 135.922 147.778  1.00  0.00     0.014 C 
ATOM     26  C   UNL     1     145.966 134.287 146.601  1.00  0.00     0.016 C 
ATOM     27  C   UNL     1     147.165 136.036 148.921  1.00  0.00     0.063 C 
ATOM     28  C   UNL     1     145.282 137.185 147.658  1.00  0.00     0.033 C 
ATOM     29  C   UNL     1     146.292 137.296 148.816  1.00  0.00     0.118 C 
BRANCH  29  30
ATOM     30  O   UNL     1     147.092 138.442 148.668  1.00  0.00    -0.393 OA
ATOM     31  H   UNL     1     146.486 139.215 148.524  1.00  0.00     0.210 HD
ENDBRANCH  29  30
ENDBRANCH   9  11
ENDBRANCH   1   9
TORSDOF 7
ENDMDL
MODEL 5
REMARK VINA RESULT:    -6.192      3.463      8.729
REMARK INTER + INTRA:         -10.493
REMARK INTER:                  -8.767
REMARK INTRA:                  -1.726
REMARK UNBOUND:                -1.948
REMARK SMILES CC[C@@H](CC[C@H](C)[C@H]1CC[C@@H]2[C@H]3CC=C4C[C@@H](O)CC[C@]4(C)[C@@H]3CC[C@@]21C)C(C)C
REMARK SMILES IDX 5 1 4 2 3 3 2 4 1 5 28 6 29 7 30 8 6 9 7 10 8 11 9 12 26 13
REMARK SMILES IDX 10 14 11 15 25 16 27 17 12 18 24 19 23 20 13 21 21 22 14 23
REMARK SMILES IDX 15 24 20 25 22 26 16 27 19 28 17 29 18 30
REMARK H PARENT 18 31
REMARK Flexibility Score: inf
ROOT
ATOM      1  C   UNL     1     140.971 131.184 149.168  1.00  0.00     0.004 C 
ENDROOT
BRANCH   1   2
ATOM      2  C   UNL     1     139.679 131.713 149.854  1.00  0.00     0.004 C 
BRANCH   2   3
ATOM      3  C   UNL     1     139.262 133.205 149.656  1.00  0.00    -0.009 C 
BRANCH   3   4
ATOM      4  C   UNL     1     139.675 134.075 150.883  1.00  0.00     0.000 C 
ATOM      5  C   UNL     1     139.736 133.280 152.191  1.00  0.00     0.004 C 
ENDBRANCH   3   4
BRANCH   3   6
ATOM      6  C   UNL     1     137.772 133.404 149.194  1.00  0.00    -0.014 C 
ATOM      7  C   UNL     1     136.780 132.633 150.088  1.00  0.00     0.007 C 
ATOM      8  C   UNL     1     137.550 132.962 147.737  1.00  0.00     0.007 C 
ENDBRANCH   3   6
ENDBRANCH   2   3
ENDBRANCH   1   2
BRANCH   1   9
ATOM      9  C   UNL     1     141.252 131.722 147.733  1.00  0.00    -0.011 C 
ATOM     10  C   UNL     1     141.186 130.540 146.735  1.00  0.00     0.008 C 
BRANCH   9  11
ATOM     11  C   UNL     1     142.652 132.438 147.605  1.00  0.00    -0.002 C 
ATOM     12  C   UNL     1     143.343 132.102 146.280  1.00  0.00     0.005 C 
ATOM     13  C   UNL     1     142.733 134.017 147.728  1.00  0.00    -0.026 C 
ATOM     14  C   UNL     1     144.390 133.171 146.101  1.00  0.00     0.005 C 
ATOM     15  C   UNL     1     143.701 134.450 146.559  1.00  0.00    -0.001 C 
ATOM     16  C   UNL     1     143.224 134.418 149.172  1.00  0.00     0.007 C 
ATOM     17  C   UNL     1     141.373 134.716 147.465  1.00  0.00     0.012 C 
ATOM     18  C   UNL     1     144.736 135.604 146.804  1.00  0.00     0.000 C 
ATOM     19  C   UNL     1     144.609 135.052 149.229  1.00  0.00     0.005 C 
ATOM     20  C   UNL     1     144.686 136.203 148.217  1.00  0.00     0.003 C 
ATOM     21  C   UNL     1     144.553 136.750 145.800  1.00  0.00     0.031 C 
ATOM     22  C   UNL     1     145.864 137.227 148.467  1.00  0.00    -0.008 C 
ATOM     23  C   UNL     1     145.598 137.809 146.004  1.00  0.00    -0.027 C 
ATOM     24  C   UNL     1     146.180 138.050 147.201  1.00  0.00    -0.065 C 
ATOM     25  C   UNL     1     147.181 136.499 148.891  1.00  0.00     0.014 C 
ATOM     26  C   UNL     1     145.415 138.199 149.591  1.00  0.00     0.016 C 
ATOM     27  C   UNL     1     147.362 138.995 147.256  1.00  0.00     0.063 C 
ATOM     28  C   UNL     1     148.412 137.425 148.957  1.00  0.00     0.033 C 
ATOM     29  C   UNL     1     148.620 138.201 147.643  1.00  0.00     0.118 C 
BRANCH  29  30
ATOM     30  O   UNL     1     149.734 139.052 147.740  1.00  0.00    -0.393 OA
ATOM     31  H   UNL     1     149.523 139.748 148.417  1.00  0.00     0.210 HD
ENDBRANCH  29  30
ENDBRANCH   9  11
ENDBRANCH   1   9
TORSDOF 7
ENDMDL
MODEL 6
REMARK VINA RESULT:    -6.189      1.544      3.044
REMARK INTER + INTRA:         -10.489
REMARK INTER:                  -9.089
REMARK INTRA:                  -1.400
REMARK UNBOUND:                -1.948
REMARK SMILES CC[C@@H](CC[C@H](C)[C@H]1CC[C@@H]2[C@H]3CC=C4C[C@@H](O)CC[C@]4(C)[C@@H]3CC[C@@]21C)C(C)C
REMARK SMILES IDX 5 1 4 2 3 3 2 4 1 5 28 6 29 7 30 8 6 9 7 10 8 11 9 12 26 13
REMARK SMILES IDX 10 14 11 15 25 16 27 17 12 18 24 19 23 20 13 21 21 22 14 23
REMARK SMILES IDX 15 24 20 25 22 26 16 27 19 28 17 29 18 30
REMARK H PARENT 18 31
REMARK Flexibility Score: inf
ROOT
ATOM      1  C   UNL     1     146.044 137.163 147.187  1.00  0.00     0.004 C 
ENDROOT
BRANCH   1   2
ATOM      2  C   UNL     1     146.765 138.112 148.188  1.00  0.00     0.004 C 
BRANCH   2   3
ATOM      3  C   UNL     1     148.029 138.901 147.720  1.00  0.00    -0.009 C 
BRANCH   3   4
ATOM      4  C   UNL     1     148.025 139.109 146.174  1.00  0.00     0.000 C 
ATOM      5  C   UNL     1     149.145 138.344 145.461  1.00  0.00     0.004 C 
ENDBRANCH   3   4
BRANCH   3   6
ATOM      6  C   UNL     1     149.385 138.350 148.295  1.00  0.00    -0.014 C 
ATOM      7  C   UNL     1     149.173 137.124 149.206  1.00  0.00     0.007 C 
ATOM      8  C   UNL     1     150.154 139.416 149.095  1.00  0.00     0.007 C 
ENDBRANCH   3   6
ENDBRANCH   2   3
ENDBRANCH   1   2
BRANCH   1   9
ATOM      9  C   UNL     1     146.120 135.642 147.513  1.00  0.00    -0.011 C 
ATOM     10  C   UNL     1     147.125 134.973 146.542  1.00  0.00     0.008 C 
BRANCH   9  11
ATOM     11  C   UNL     1     144.724 134.916 147.402  1.00  0.00    -0.002 C 
ATOM     12  C   UNL     1     144.781 133.715 146.452  1.00  0.00     0.005 C 
ATOM     13  C   UNL     1     144.022 134.373 148.716  1.00  0.00    -0.026 C 
ATOM     14  C   UNL     1     143.571 132.885 146.795  1.00  0.00     0.005 C 
ATOM     15  C   UNL     1     143.499 132.938 148.316  1.00  0.00    -0.001 C 
ATOM     16  C   UNL     1     142.897 135.378 149.178  1.00  0.00     0.007 C 
ATOM     17  C   UNL     1     145.012 134.177 149.895  1.00  0.00     0.012 C 
ATOM     18  C   UNL     1     142.103 132.453 148.842  1.00  0.00     0.000 C 
ATOM     19  C   UNL     1     141.472 134.852 149.052  1.00  0.00     0.005 C 
ATOM     20  C   UNL     1     141.374 133.477 149.724  1.00  0.00     0.003 C 
ATOM     21  C   UNL     1     142.223 131.146 149.639  1.00  0.00     0.031 C 
ATOM     22  C   UNL     1     139.903 133.014 150.074  1.00  0.00    -0.008 C 
ATOM     23  C   UNL     1     140.869 130.661 150.071  1.00  0.00    -0.027 C 
ATOM     24  C   UNL     1     139.823 131.490 150.292  1.00  0.00    -0.065 C 
ATOM     25  C   UNL     1     138.898 133.376 148.932  1.00  0.00     0.014 C 
ATOM     26  C   UNL     1     139.484 133.725 151.388  1.00  0.00     0.016 C 
ATOM     27  C   UNL     1     138.454 130.885 150.524  1.00  0.00     0.063 C 
ATOM     28  C   UNL     1     137.490 132.777 149.128  1.00  0.00     0.033 C 
ATOM     29  C   UNL     1     137.538 131.253 149.347  1.00  0.00     0.118 C 
BRANCH  29  30
ATOM     30  O   UNL     1     136.245 130.739 149.545  1.00  0.00    -0.393 OA
ATOM     31  H   UNL     1     135.609 131.501 149.500  1.00  0.00     0.210 HD
ENDBRANCH  29  30
ENDBRANCH   9  11
ENDBRANCH   1   9
TORSDOF 7
ENDMDL
MODEL 7
REMARK VINA RESULT:    -6.176      2.490      5.442
REMARK INTER + INTRA:         -10.471
REMARK INTER:                  -8.814
REMARK INTRA:                  -1.656
REMARK UNBOUND:                -1.948
REMARK SMILES CC[C@@H](CC[C@H](C)[C@H]1CC[C@@H]2[C@H]3CC=C4C[C@@H](O)CC[C@]4(C)[C@@H]3CC[C@@]21C)C(C)C
REMARK SMILES IDX 5 1 4 2 3 3 2 4 1 5 28 6 29 7 30 8 6 9 7 10 8 11 9 12 26 13
REMARK SMILES IDX 10 14 11 15 25 16 27 17 12 18 24 19 23 20 13 21 21 22 14 23
REMARK SMILES IDX 15 24 20 25 22 26 16 27 19 28 17 29 18 30
REMARK H PARENT 18 31
REMARK Flexibility Score: inf
ROOT
ATOM      1  C   UNL     1     149.669 136.537 148.689  1.00  0.00     0.004 C 
ENDROOT
BRANCH   1   2
ATOM      2  C   UNL     1     149.994 136.589 150.209  1.00  0.00     0.004 C 
BRANCH   2   3
ATOM      3  C   UNL     1     150.310 135.262 150.971  1.00  0.00    -0.009 C 
BRANCH   3   4
ATOM      4  C   UNL     1     150.489 134.071 149.981  1.00  0.00     0.000 C 
ATOM      5  C   UNL     1     151.760 133.256 150.242  1.00  0.00     0.004 C 
ENDBRANCH   3   4
BRANCH   3   6
ATOM      6  C   UNL     1     149.346 134.962 152.176  1.00  0.00    -0.014 C 
ATOM      7  C   UNL     1     150.062 135.077 153.536  1.00  0.00     0.007 C 
ATOM      8  C   UNL     1     148.714 133.563 152.082  1.00  0.00     0.007 C 
ENDBRANCH   3   6
ENDBRANCH   2   3
ENDBRANCH   1   2
BRANCH   1   9
ATOM      9  C   UNL     1     148.402 137.321 148.234  1.00  0.00    -0.011 C 
ATOM     10  C   UNL     1     148.605 138.824 148.547  1.00  0.00     0.008 C 
BRANCH   9  11
ATOM     11  C   UNL     1     147.080 136.814 148.930  1.00  0.00    -0.002 C 
ATOM     12  C   UNL     1     146.056 137.942 149.093  1.00  0.00     0.005 C 
ATOM     13  C   UNL     1     146.273 135.611 148.285  1.00  0.00    -0.026 C 
ATOM     14  C   UNL     1     144.740 137.246 149.325  1.00  0.00     0.005 C 
ATOM     15  C   UNL     1     144.764 136.068 148.360  1.00  0.00    -0.001 C 
ATOM     16  C   UNL     1     146.595 134.274 149.060  1.00  0.00     0.007 C 
ATOM     17  C   UNL     1     146.603 135.394 146.785  1.00  0.00     0.012 C 
ATOM     18  C   UNL     1     143.656 135.014 148.713  1.00  0.00     0.000 C 
ATOM     19  C   UNL     1     145.432 133.696 149.858  1.00  0.00     0.005 C 
ATOM     20  C   UNL     1     144.194 133.596 148.957  1.00  0.00     0.003 C 
ATOM     21  C   UNL     1     142.587 134.928 147.615  1.00  0.00     0.031 C 
ATOM     22  C   UNL     1     143.068 132.620 149.486  1.00  0.00    -0.008 C 
ATOM     23  C   UNL     1     141.500 133.969 148.004  1.00  0.00    -0.027 C 
ATOM     24  C   UNL     1     141.706 132.915 148.826  1.00  0.00    -0.065 C 
ATOM     25  C   UNL     1     142.875 132.746 151.032  1.00  0.00     0.014 C 
ATOM     26  C   UNL     1     143.491 131.171 149.125  1.00  0.00     0.016 C 
ATOM     27  C   UNL     1     140.505 132.132 149.317  1.00  0.00     0.063 C 
ATOM     28  C   UNL     1     141.661 131.966 151.575  1.00  0.00     0.033 C 
ATOM     29  C   UNL     1     140.362 132.335 150.833  1.00  0.00     0.118 C 
BRANCH  29  30
ATOM     30  O   UNL     1     139.278 131.593 151.333  1.00  0.00    -0.393 OA
ATOM     31  H   UNL     1     138.451 131.948 150.913  1.00  0.00     0.210 HD
ENDBRANCH  29  30
ENDBRANCH   9  11
ENDBRANCH   1   9
TORSDOF 7
ENDMDL
MODEL 8
REMARK VINA RESULT:    -6.072      3.338      8.413
REMARK INTER + INTRA:         -10.327
REMARK INTER:                  -8.294
REMARK INTRA:                  -2.033
REMARK UNBOUND:                -1.948
REMARK SMILES CC[C@@H](CC[C@H](C)[C@H]1CC[C@@H]2[C@H]3CC=C4C[C@@H](O)CC[C@]4(C)[C@@H]3CC[C@@]21C)C(C)C
REMARK SMILES IDX 5 1 4 2 3 3 2 4 1 5 28 6 29 7 30 8 6 9 7 10 8 11 9 12 26 13
REMARK SMILES IDX 10 14 11 15 25 16 27 17 12 18 24 19 23 20 13 21 21 22 14 23
REMARK SMILES IDX 15 24 20 25 22 26 16 27 19 28 17 29 18 30
REMARK H PARENT 18 31
REMARK Flexibility Score: inf
ROOT
ATOM      1  C   UNL     1     139.213 132.155 147.125  1.00  0.00     0.004 C 
ENDROOT
BRANCH   1   2
ATOM      2  C   UNL     1     139.076 133.375 148.081  1.00  0.00     0.004 C 
BRANCH   2   3
ATOM      3  C   UNL     1     138.742 133.134 149.589  1.00  0.00    -0.009 C 
BRANCH   3   4
ATOM      4  C   UNL     1     137.226 133.364 149.875  1.00  0.00     0.000 C 
ATOM      5  C   UNL     1     136.438 132.060 150.031  1.00  0.00     0.004 C 
ENDBRANCH   3   4
BRANCH   3   6
ATOM      6  C   UNL     1     139.708 133.866 150.590  1.00  0.00    -0.014 C 
ATOM      7  C   UNL     1     140.629 134.875 149.875  1.00  0.00     0.007 C 
ATOM      8  C   UNL     1     140.592 132.879 151.372  1.00  0.00     0.007 C 
ENDBRANCH   3   6
ENDBRANCH   2   3
ENDBRANCH   1   2
BRANCH   1   9
ATOM      9  C   UNL     1     140.667 131.749 146.740  1.00  0.00    -0.011 C 
ATOM     10  C   UNL     1     140.910 130.285 147.183  1.00  0.00     0.008 C 
BRANCH   9  11
ATOM     11  C   UNL     1     141.761 132.681 147.390  1.00  0.00    -0.002 C 
ATOM     12  C   UNL     1     142.651 131.914 148.373  1.00  0.00     0.005 C 
ATOM     13  C   UNL     1     142.766 133.473 146.452  1.00  0.00    -0.026 C 
ATOM     14  C   UNL     1     143.877 132.772 148.546  1.00  0.00     0.005 C 
ATOM     15  C   UNL     1     144.173 133.287 147.143  1.00  0.00    -0.001 C 
ATOM     16  C   UNL     1     142.296 134.973 146.309  1.00  0.00     0.007 C 
ATOM     17  C   UNL     1     142.879 132.861 145.031  1.00  0.00     0.012 C 
ATOM     18  C   UNL     1     145.181 134.490 147.174  1.00  0.00     0.000 C 
ATOM     19  C   UNL     1     143.212 136.000 146.963  1.00  0.00     0.005 C 
ATOM     20  C   UNL     1     144.656 135.766 146.500  1.00  0.00     0.003 C 
ATOM     21  C   UNL     1     146.517 134.125 146.513  1.00  0.00     0.031 C 
ATOM     22  C   UNL     1     145.628 136.993 146.720  1.00  0.00    -0.008 C 
ATOM     23  C   UNL     1     147.491 135.263 146.618  1.00  0.00    -0.027 C 
ATOM     24  C   UNL     1     147.107 136.558 146.689  1.00  0.00    -0.065 C 
ATOM     25  C   UNL     1     145.375 137.691 148.095  1.00  0.00     0.014 C 
ATOM     26  C   UNL     1     145.385 138.002 145.565  1.00  0.00     0.016 C 
ATOM     27  C   UNL     1     148.154 137.609 146.997  1.00  0.00     0.063 C 
ATOM     28  C   UNL     1     146.421 138.768 148.450  1.00  0.00     0.033 C 
ATOM     29  C   UNL     1     147.858 138.221 148.375  1.00  0.00     0.118 C 
BRANCH  29  30
ATOM     30  O   UNL     1     148.789 139.228 148.681  1.00  0.00    -0.393 OA
ATOM     31  H   UNL     1     148.623 139.518 149.616  1.00  0.00     0.210 HD
ENDBRANCH  29  30
ENDBRANCH   9  11
ENDBRANCH   1   9
TORSDOF 7
ENDMDL
MODEL 9
REMARK VINA RESULT:    -6.031      4.071      6.311
REMARK INTER + INTRA:         -10.271
REMARK INTER:                  -8.507
REMARK INTRA:                  -1.764
REMARK UNBOUND:                -1.948
REMARK SMILES CC[C@@H](CC[C@H](C)[C@H]1CC[C@@H]2[C@H]3CC=C4C[C@@H](O)CC[C@]4(C)[C@@H]3CC[C@@]21C)C(C)C
REMARK SMILES IDX 5 1 4 2 3 3 2 4 1 5 28 6 29 7 30 8 6 9 7 10 8 11 9 12 26 13
REMARK SMILES IDX 10 14 11 15 25 16 27 17 12 18 24 19 23 20 13 21 21 22 14 23
REMARK SMILES IDX 15 24 20 25 22 26 16 27 19 28 17 29 18 30
REMARK H PARENT 18 31
REMARK Flexibility Score: inf
ROOT
ATOM      1  C   UNL     1     142.401 133.378 141.261  1.00  0.00     0.004 C 
ENDROOT
BRANCH   1   2
ATOM      2  C   UNL     1     143.378 132.641 142.221  1.00  0.00     0.004 C 
BRANCH   2   3
ATOM      3  C   UNL     1     143.613 131.107 142.045  1.00  0.00    -0.009 C 
BRANCH   3   4
ATOM      4  C   UNL     1     142.261 130.335 141.954  1.00  0.00     0.000 C 
ATOM      5  C   UNL     1     141.851 130.006 140.515  1.00  0.00     0.004 C 
ENDBRANCH   3   4
BRANCH   3   6
ATOM      6  C   UNL     1     144.643 130.490 143.061  1.00  0.00    -0.014 C 
ATOM      7  C   UNL     1     144.899 131.420 144.264  1.00  0.00     0.007 C 
ATOM      8  C   UNL     1     145.996 130.175 142.400  1.00  0.00     0.007 C 
ENDBRANCH   3   6
ENDBRANCH   2   3
ENDBRANCH   1   2
BRANCH   1   9
ATOM      9  C   UNL     1     140.941 133.557 141.777  1.00  0.00    -0.011 C 
ATOM     10  C   UNL     1     140.260 134.686 140.965  1.00  0.00     0.008 C 
BRANCH   9  11
ATOM     11  C   UNL     1     140.868 133.900 143.314  1.00  0.00    -0.002 C 
ATOM     12  C   UNL     1     140.241 135.277 143.560  1.00  0.00     0.005 C 
ATOM     13  C   UNL     1     140.105 132.915 144.296  1.00  0.00    -0.026 C 
ATOM     14  C   UNL     1     139.825 135.265 145.008  1.00  0.00     0.005 C 
ATOM     15  C   UNL     1     139.255 133.869 145.223  1.00  0.00    -0.001 C 
ATOM     16  C   UNL     1     141.146 132.010 145.062  1.00  0.00     0.007 C 
ATOM     17  C   UNL     1     139.100 131.988 143.565  1.00  0.00     0.012 C 
ATOM     18  C   UNL     1     139.114 133.535 146.750  1.00  0.00     0.000 C 
ATOM     19  C   UNL     1     141.256 132.279 146.558  1.00  0.00     0.005 C 
ATOM     20  C   UNL     1     139.856 132.262 147.185  1.00  0.00     0.003 C 
ATOM     21  C   UNL     1     137.644 133.387 147.163  1.00  0.00     0.031 C 
ATOM     22  C   UNL     1     139.835 132.074 148.755  1.00  0.00    -0.008 C 
ATOM     23  C   UNL     1     137.528 133.140 148.640  1.00  0.00    -0.027 C 
ATOM     24  C   UNL     1     138.494 132.531 149.364  1.00  0.00    -0.065 C 
ATOM     25  C   UNL     1     140.969 132.895 149.449  1.00  0.00     0.014 C 
ATOM     26  C   UNL     1     140.024 130.562 149.051  1.00  0.00     0.016 C 
ATOM     27  C   UNL     1     138.368 132.515 150.873  1.00  0.00     0.063 C 
ATOM     28  C   UNL     1     140.877 132.908 150.989  1.00  0.00     0.033 C 
ATOM     29  C   UNL     1     139.492 133.370 151.479  1.00  0.00     0.118 C 
BRANCH  29  30
ATOM     30  O   UNL     1     139.430 133.349 152.883  1.00  0.00    -0.393 OA
ATOM     31  H   UNL     1     140.066 134.032 153.222  1.00  0.00     0.210 HD
ENDBRANCH  29  30
ENDBRANCH   9  11
ENDBRANCH   1   9
TORSDOF 7
ENDMDL
