MODEL 1
REMARK VINA RESULT:    37.868      0.000      0.000
REMARK INTER + INTRA:          52.742
REMARK INTER:                  52.257
REMARK INTRA:                   0.485
REMARK UNBOUND:                 0.485
REMARK SMILES CC[C@H](CC[C@@H](C)[C@H]1CC[C@H]2[C@@H]3CC=C4C[C@@H](O)CC[C@]4(C)[C@@H]3CC[C@]12C)C(C)C
REMARK SMILES IDX 5 1 4 2 3 3 2 4 1 5 28 6 29 7 30 8 6 9 7 10 8 11 9 12 26 13
REMARK SMILES IDX 10 14 11 15 25 16 27 17 12 18 24 19 23 20 13 21 21 22 14 23
REMARK SMILES IDX 15 24 20 25 22 26 16 27 19 28 17 29 18 30
REMARK H PARENT 18 31
REMARK Flexibility Score: inf
ROOT
ATOM      1  C   UNL     1      -1.747  59.706  -6.797  1.00  0.00     0.004 C 
ENDROOT
BRANCH   1   2
ATOM      2  C   UNL     1      -3.052  58.876  -6.786  1.00  0.00     0.004 C 
BRANCH   2   3
ATOM      3  C   UNL     1      -4.348  59.727  -6.667  1.00  0.00    -0.009 C 
BRANCH   3   4
ATOM      4  C   UNL     1      -5.113  59.386  -5.352  1.00  0.00     0.000 C 
ATOM      5  C   UNL     1      -4.219  59.032  -4.160  1.00  0.00     0.004 C 
ENDBRANCH   3   4
BRANCH   3   6
ATOM      6  C   UNL     1      -3.987  61.243  -6.863  1.00  0.00    -0.014 C 
ATOM      7  C   UNL     1      -3.869  62.020  -5.543  1.00  0.00     0.007 C 
ATOM      8  C   UNL     1      -4.918  61.967  -7.853  1.00  0.00     0.007 C 
ENDBRANCH   3   6
ENDBRANCH   2   3
ENDBRANCH   1   2
BRANCH   1   9
ATOM      9  C   UNL     1      -0.418  58.892  -6.712  1.00  0.00    -0.011 C 
ATOM     10  C   UNL     1       0.202  58.908  -8.125  1.00  0.00     0.008 C 
BRANCH   9  11
ATOM     11  C   UNL     1       0.549  59.501  -5.635  1.00  0.00    -0.002 C 
ATOM     12  C   UNL     1       1.559  60.509  -6.246  1.00  0.00     0.005 C 
ATOM     13  C   UNL     1      -0.044  60.275  -4.421  1.00  0.00    -0.026 C 
ATOM     14  C   UNL     1       1.936  61.502  -5.141  1.00  0.00     0.005 C 
ATOM     15  C   UNL     1       1.235  60.968  -3.904  1.00  0.00    -0.001 C 
ATOM     16  C   UNL     1      -0.633  59.376  -3.285  1.00  0.00     0.007 C 
ATOM     17  C   UNL     1      -1.106  61.319  -4.879  1.00  0.00     0.012 C 
ATOM     18  C   UNL     1       0.965  61.929  -2.734  1.00  0.00     0.000 C 
ATOM     19  C   UNL     1      -0.048  59.669  -1.886  1.00  0.00     0.005 C 
ATOM     20  C   UNL     1       0.145  61.189  -1.604  1.00  0.00     0.003 C 
ATOM     21  C   UNL     1       2.263  62.556  -2.240  1.00  0.00     0.031 C 
ATOM     22  C   UNL     1       0.602  61.486  -0.112  1.00  0.00    -0.008 C 
ATOM     23  C   UNL     1       2.040  63.338  -0.990  1.00  0.00    -0.027 C 
ATOM     24  C   UNL     1       1.288  62.848   0.022  1.00  0.00    -0.065 C 
ATOM     25  C   UNL     1       1.636  60.449   0.443  1.00  0.00     0.014 C 
ATOM     26  C   UNL     1      -0.677  61.450   0.774  1.00  0.00     0.016 C 
ATOM     27  C   UNL     1       1.657  63.280   1.413  1.00  0.00     0.063 C 
ATOM     28  C   UNL     1       2.189  60.808   1.837  1.00  0.00     0.033 C 
ATOM     29  C   UNL     1       2.686  62.272   1.960  1.00  0.00     0.118 C 
BRANCH  29  30
ATOM     30  O   UNL     1       2.966  62.553   3.304  1.00  0.00    -0.393 OA
ATOM     31  H   UNL     1       2.930  63.539   3.417  1.00  0.00     0.210 HD
ENDBRANCH  29  30
ENDBRANCH   9  11
ENDBRANCH   1   9
TORSDOF 7
ENDMDL
MODEL 2
REMARK VINA RESULT:    39.747      1.712      4.476
REMARK INTER + INTRA:          55.336
REMARK INTER:                  52.151
REMARK INTRA:                   3.184
REMARK UNBOUND:                 0.485
REMARK SMILES CC[C@H](CC[C@@H](C)[C@H]1CC[C@H]2[C@@H]3CC=C4C[C@@H](O)CC[C@]4(C)[C@@H]3CC[C@]12C)C(C)C
REMARK SMILES IDX 5 1 4 2 3 3 2 4 1 5 28 6 29 7 30 8 6 9 7 10 8 11 9 12 26 13
REMARK SMILES IDX 10 14 11 15 25 16 27 17 12 18 24 19 23 20 13 21 21 22 14 23
REMARK SMILES IDX 15 24 20 25 22 26 16 27 19 28 17 29 18 30
REMARK H PARENT 18 31
REMARK Flexibility Score: inf
ROOT
ATOM      1  C   UNL     1       0.414  59.380  -6.572  1.00  0.00     0.004 C 
ENDROOT
BRANCH   1   2
ATOM      2  C   UNL     1       0.923  59.564  -8.020  1.00  0.00     0.004 C 
BRANCH   2   3
ATOM      3  C   UNL     1       2.403  60.030  -8.122  1.00  0.00    -0.009 C 
BRANCH   3   4
ATOM      4  C   UNL     1       2.559  61.489  -7.595  1.00  0.00     0.000 C 
ATOM      5  C   UNL     1       2.451  61.640  -6.075  1.00  0.00     0.004 C 
ENDBRANCH   3   4
BRANCH   3   6
ATOM      6  C   UNL     1       3.326  58.962  -7.433  1.00  0.00    -0.014 C 
ATOM      7  C   UNL     1       3.179  58.919  -5.903  1.00  0.00     0.007 C 
ATOM      8  C   UNL     1       4.805  59.078  -7.846  1.00  0.00     0.007 C 
ENDBRANCH   3   6
ENDBRANCH   2   3
ENDBRANCH   1   2
BRANCH   1   9
ATOM      9  C   UNL     1      -1.005  59.957  -6.267  1.00  0.00    -0.011 C 
ATOM     10  C   UNL     1      -2.023  58.881  -6.701  1.00  0.00     0.008 C 
BRANCH   9  11
ATOM     11  C   UNL     1      -1.148  60.329  -4.748  1.00  0.00    -0.002 C 
ATOM     12  C   UNL     1      -2.135  59.394  -3.999  1.00  0.00     0.005 C 
ATOM     13  C   UNL     1       0.113  60.330  -3.835  1.00  0.00    -0.026 C 
ATOM     14  C   UNL     1      -1.703  59.363  -2.529  1.00  0.00     0.005 C 
ATOM     15  C   UNL     1      -0.568  60.368  -2.451  1.00  0.00    -0.001 C 
ATOM     16  C   UNL     1       1.039  61.582  -3.985  1.00  0.00     0.007 C 
ATOM     17  C   UNL     1       0.946  59.027  -4.020  1.00  0.00     0.012 C 
ATOM     18  C   UNL     1       0.434  60.265  -1.287  1.00  0.00     0.000 C 
ATOM     19  C   UNL     1       1.326  62.311  -2.654  1.00  0.00     0.005 C 
ATOM     20  C   UNL     1       1.576  61.341  -1.461  1.00  0.00     0.003 C 
ATOM     21  C   UNL     1      -0.287  60.345   0.053  1.00  0.00     0.031 C 
ATOM     22  C   UNL     1       2.020  62.097  -0.136  1.00  0.00    -0.008 C 
ATOM     23  C   UNL     1       0.685  60.438   1.180  1.00  0.00    -0.027 C 
ATOM     24  C   UNL     1       1.754  61.265   1.121  1.00  0.00    -0.065 C 
ATOM     25  C   UNL     1       1.262  63.448   0.098  1.00  0.00     0.014 C 
ATOM     26  C   UNL     1       3.544  62.386  -0.263  1.00  0.00     0.016 C 
ATOM     27  C   UNL     1       2.243  61.837   2.422  1.00  0.00     0.063 C 
ATOM     28  C   UNL     1       1.586  64.116   1.449  1.00  0.00     0.033 C 
ATOM     29  C   UNL     1       1.490  63.158   2.665  1.00  0.00     0.118 C 
BRANCH  29  30
ATOM     30  O   UNL     1       2.002  63.801   3.800  1.00  0.00    -0.393 OA
ATOM     31  H   UNL     1       1.857  63.199   4.576  1.00  0.00     0.210 HD
ENDBRANCH  29  30
ENDBRANCH   9  11
ENDBRANCH   1   9
TORSDOF 7
ENDMDL
