MODEL 1
REMARK VINA RESULT:    -6.805      0.000      0.000
REMARK INTER + INTRA:         -11.670
REMARK INTER:                  -9.391
REMARK INTRA:                  -2.279
REMARK UNBOUND:                -2.279
REMARK SMILES CC[C@H](CC[C@H](C)[C@H]1CC[C@H]2[C@@H]3CC=C4C[C@H](O)CC[C@]4(C)[C@@H]3CC[C@@]12C)C(C)C
REMARK SMILES IDX 5 1 4 2 3 3 2 4 1 5 28 6 29 7 30 8 6 9 7 10 8 11 9 12 26 13
REMARK SMILES IDX 10 14 11 15 25 16 27 17 12 18 24 19 23 20 13 21 21 22 14 23
REMARK SMILES IDX 15 24 20 25 22 26 16 27 19 28 17 29 18 30
REMARK H PARENT 18 31
REMARK Flexibility Score: inf
ROOT
ATOM      1  C   UNL     1     114.922 121.909 127.643  1.00  0.00     0.004 C 
ENDROOT
BRANCH   1   2
ATOM      2  C   UNL     1     115.507 123.070 126.808  1.00  0.00     0.004 C 
BRANCH   2   3
ATOM      3  C   UNL     1     114.477 124.209 126.569  1.00  0.00    -0.009 C 
BRANCH   3   4
ATOM      4  C   UNL     1     114.202 124.357 125.042  1.00  0.00     0.000 C 
ATOM      5  C   UNL     1     115.378 123.958 124.149  1.00  0.00     0.004 C 
ENDBRANCH   3   4
BRANCH   3   6
ATOM      6  C   UNL     1     113.201 123.982 127.450  1.00  0.00    -0.014 C 
ATOM      7  C   UNL     1     111.893 123.917 126.646  1.00  0.00     0.007 C 
ATOM      8  C   UNL     1     113.070 124.980 128.610  1.00  0.00     0.007 C 
ENDBRANCH   3   6
ENDBRANCH   2   3
ENDBRANCH   1   2
BRANCH   1   9
ATOM      9  C   UNL     1     114.658 120.641 126.787  1.00  0.00    -0.011 C 
ATOM     10  C   UNL     1     115.802 120.484 125.769  1.00  0.00     0.008 C 
BRANCH   9  11
ATOM     11  C   UNL     1     113.219 120.679 126.148  1.00  0.00    -0.002 C 
ATOM     12  C   UNL     1     113.131 120.903 124.647  1.00  0.00     0.005 C 
ATOM     13  C   UNL     1     112.222 119.519 126.460  1.00  0.00    -0.026 C 
ATOM     14  C   UNL     1     111.654 120.713 124.340  1.00  0.00     0.005 C 
ATOM     15  C   UNL     1     111.111 119.686 125.366  1.00  0.00    -0.001 C 
ATOM     16  C   UNL     1     112.846 118.087 126.427  1.00  0.00     0.007 C 
ATOM     17  C   UNL     1     111.639 119.752 127.880  1.00  0.00     0.012 C 
ATOM     18  C   UNL     1     110.658 118.368 124.666  1.00  0.00     0.000 C 
ATOM     19  C   UNL     1     113.057 117.475 125.030  1.00  0.00     0.005 C 
ATOM     20  C   UNL     1     111.853 117.597 124.046  1.00  0.00     0.003 C 
ATOM     21  C   UNL     1     109.749 117.484 125.570  1.00  0.00     0.031 C 
ATOM     22  C   UNL     1     111.400 116.216 123.450  1.00  0.00    -0.008 C 
ATOM     23  C   UNL     1     110.022 115.998 125.523  1.00  0.00    -0.027 C 
ATOM     24  C   UNL     1     110.770 115.392 124.577  1.00  0.00    -0.065 C 
ATOM     25  C   UNL     1     112.622 115.509 122.739  1.00  0.00     0.014 C 
ATOM     26  C   UNL     1     110.301 116.426 122.372  1.00  0.00     0.016 C 
ATOM     27  C   UNL     1     110.936 113.887 124.676  1.00  0.00     0.063 C 
ATOM     28  C   UNL     1     113.012 114.146 123.317  1.00  0.00     0.033 C 
ATOM     29  C   UNL     1     111.767 113.292 123.540  1.00  0.00     0.118 C 
BRANCH  29  30
ATOM     30  O   UNL     1     112.137 111.981 123.881  1.00  0.00    -0.393 OA
ATOM     31  H   UNL     1     111.946 111.414 123.088  1.00  0.00     0.210 HD
ENDBRANCH  29  30
ENDBRANCH   9  11
ENDBRANCH   1   9
TORSDOF 7
ENDMDL
MODEL 2
REMARK VINA RESULT:    -6.697      3.606      7.835
REMARK INTER + INTRA:         -11.521
REMARK INTER:                  -9.502
REMARK INTRA:                  -2.019
REMARK UNBOUND:                -2.279
REMARK SMILES CC[C@H](CC[C@H](C)[C@H]1CC[C@H]2[C@@H]3CC=C4C[C@H](O)CC[C@]4(C)[C@@H]3CC[C@@]12C)C(C)C
REMARK SMILES IDX 5 1 4 2 3 3 2 4 1 5 28 6 29 7 30 8 6 9 7 10 8 11 9 12 26 13
REMARK SMILES IDX 10 14 11 15 25 16 27 17 12 18 24 19 23 20 13 21 21 22 14 23
REMARK SMILES IDX 15 24 20 25 22 26 16 27 19 28 17 29 18 30
REMARK H PARENT 18 31
REMARK Flexibility Score: inf
ROOT
ATOM      1  C   UNL     1     110.017 116.906 127.396  1.00  0.00     0.004 C 
ENDROOT
BRANCH   1   2
ATOM      2  C   UNL     1     110.754 116.189 128.550  1.00  0.00     0.004 C 
BRANCH   2   3
ATOM      3  C   UNL     1     111.817 117.095 129.231  1.00  0.00    -0.009 C 
BRANCH   3   4
ATOM      4  C   UNL     1     111.310 117.532 130.640  1.00  0.00     0.000 C 
ATOM      5  C   UNL     1     109.932 116.981 131.012  1.00  0.00     0.004 C 
ENDBRANCH   3   4
BRANCH   3   6
ATOM      6  C   UNL     1     113.217 116.391 129.224  1.00  0.00    -0.014 C 
ATOM      7  C   UNL     1     113.333 115.226 130.218  1.00  0.00     0.007 C 
ATOM      8  C   UNL     1     114.394 117.364 129.396  1.00  0.00     0.007 C 
ENDBRANCH   3   6
ENDBRANCH   2   3
ENDBRANCH   1   2
BRANCH   1   9
ATOM      9  C   UNL     1     110.432 118.396 127.267  1.00  0.00    -0.011 C 
ATOM     10  C   UNL     1     109.228 119.280 127.641  1.00  0.00     0.008 C 
BRANCH   9  11
ATOM     11  C   UNL     1     111.040 118.692 125.845  1.00  0.00    -0.002 C 
ATOM     12  C   UNL     1     110.294 119.680 124.961  1.00  0.00     0.005 C 
ATOM     13  C   UNL     1     112.548 119.083 125.733  1.00  0.00    -0.026 C 
ATOM     14  C   UNL     1     111.218 119.865 123.768  1.00  0.00     0.005 C 
ATOM     15  C   UNL     1     112.666 119.680 124.288  1.00  0.00    -0.001 C 
ATOM     16  C   UNL     1     113.048 120.096 126.813  1.00  0.00     0.007 C 
ATOM     17  C   UNL     1     113.394 117.789 125.867  1.00  0.00     0.012 C 
ATOM     18  C   UNL     1     113.483 121.003 124.176  1.00  0.00     0.000 C 
ATOM     19  C   UNL     1     112.688 121.573 126.569  1.00  0.00     0.005 C 
ATOM     20  C   UNL     1     112.943 122.105 125.126  1.00  0.00     0.003 C 
ATOM     21  C   UNL     1     115.019 120.778 124.296  1.00  0.00     0.031 C 
ATOM     22  C   UNL     1     113.846 123.390 125.090  1.00  0.00    -0.008 C 
ATOM     23  C   UNL     1     115.770 121.796 125.124  1.00  0.00    -0.027 C 
ATOM     24  C   UNL     1     115.265 122.989 125.504  1.00  0.00    -0.065 C 
ATOM     25  C   UNL     1     113.207 124.522 125.988  1.00  0.00     0.014 C 
ATOM     26  C   UNL     1     113.936 123.948 123.644  1.00  0.00     0.016 C 
ATOM     27  C   UNL     1     116.159 123.894 126.329  1.00  0.00     0.063 C 
ATOM     28  C   UNL     1     114.080 125.000 127.153  1.00  0.00     0.033 C 
ATOM     29  C   UNL     1     115.511 125.235 126.677  1.00  0.00     0.118 C 
BRANCH  29  30
ATOM     30  O   UNL     1     116.260 125.857 127.689  1.00  0.00    -0.393 OA
ATOM     31  H   UNL     1     116.884 125.171 128.047  1.00  0.00     0.210 HD
ENDBRANCH  29  30
ENDBRANCH   9  11
ENDBRANCH   1   9
TORSDOF 7
ENDMDL
MODEL 3
REMARK VINA RESULT:    -6.656      3.113      8.256
REMARK INTER + INTRA:         -11.463
REMARK INTER:                  -9.409
REMARK INTRA:                  -2.054
REMARK UNBOUND:                -2.279
REMARK SMILES CC[C@H](CC[C@H](C)[C@H]1CC[C@H]2[C@@H]3CC=C4C[C@H](O)CC[C@]4(C)[C@@H]3CC[C@@]12C)C(C)C
REMARK SMILES IDX 5 1 4 2 3 3 2 4 1 5 28 6 29 7 30 8 6 9 7 10 8 11 9 12 26 13
REMARK SMILES IDX 10 14 11 15 25 16 27 17 12 18 24 19 23 20 13 21 21 22 14 23
REMARK SMILES IDX 15 24 20 25 22 26 16 27 19 28 17 29 18 30
REMARK H PARENT 18 31
REMARK Flexibility Score: inf
ROOT
ATOM      1  C   UNL     1     112.518 115.887 126.873  1.00  0.00     0.004 C 
ENDROOT
BRANCH   1   2
ATOM      2  C   UNL     1     112.971 115.385 125.482  1.00  0.00     0.004 C 
BRANCH   2   3
ATOM      3  C   UNL     1     111.837 114.646 124.718  1.00  0.00    -0.009 C 
BRANCH   3   4
ATOM      4  C   UNL     1     110.450 115.154 125.218  1.00  0.00     0.000 C 
ATOM      5  C   UNL     1     109.686 116.002 124.201  1.00  0.00     0.004 C 
ENDBRANCH   3   4
BRANCH   3   6
ATOM      6  C   UNL     1     112.061 114.758 123.171  1.00  0.00    -0.014 C 
ATOM      7  C   UNL     1     112.127 113.401 122.452  1.00  0.00     0.007 C 
ATOM      8  C   UNL     1     113.268 115.628 122.788  1.00  0.00     0.007 C 
ENDBRANCH   3   6
ENDBRANCH   2   3
ENDBRANCH   1   2
BRANCH   1   9
ATOM      9  C   UNL     1     112.772 117.406 127.063  1.00  0.00    -0.011 C 
ATOM     10  C   UNL     1     112.135 117.852 128.391  1.00  0.00     0.008 C 
BRANCH   9  11
ATOM     11  C   UNL     1     112.291 118.221 125.804  1.00  0.00    -0.002 C 
ATOM     12  C   UNL     1     110.905 118.843 125.867  1.00  0.00     0.005 C 
ATOM     13  C   UNL     1     113.223 119.329 125.218  1.00  0.00    -0.026 C 
ATOM     14  C   UNL     1     110.829 119.681 124.600  1.00  0.00     0.005 C 
ATOM     15  C   UNL     1     112.270 120.157 124.288  1.00  0.00    -0.001 C 
ATOM     16  C   UNL     1     113.915 120.239 126.283  1.00  0.00     0.007 C 
ATOM     17  C   UNL     1     114.337 118.634 124.390  1.00  0.00     0.012 C 
ATOM     18  C   UNL     1     112.397 121.706 124.411  1.00  0.00     0.000 C 
ATOM     19  C   UNL     1     113.042 121.352 126.889  1.00  0.00     0.005 C 
ATOM     20  C   UNL     1     112.211 122.193 125.873  1.00  0.00     0.003 C 
ATOM     21  C   UNL     1     113.681 122.264 123.729  1.00  0.00     0.031 C 
ATOM     22  C   UNL     1     112.459 123.739 126.000  1.00  0.00    -0.008 C 
ATOM     23  C   UNL     1     114.409 123.350 124.487  1.00  0.00    -0.027 C 
ATOM     24  C   UNL     1     113.885 124.036 125.525  1.00  0.00    -0.065 C 
ATOM     25  C   UNL     1     112.160 124.212 127.478  1.00  0.00     0.014 C 
ATOM     26  C   UNL     1     111.496 124.521 125.065  1.00  0.00     0.016 C 
ATOM     27  C   UNL     1     114.753 125.100 126.169  1.00  0.00     0.063 C 
ATOM     28  C   UNL     1     113.347 124.841 128.213  1.00  0.00     0.033 C 
ATOM     29  C   UNL     1     114.057 125.844 127.308  1.00  0.00     0.118 C 
BRANCH  29  30
ATOM     30  O   UNL     1     115.016 126.561 128.041  1.00  0.00    -0.393 OA
ATOM     31  H   UNL     1     115.896 126.375 127.619  1.00  0.00     0.210 HD
ENDBRANCH  29  30
ENDBRANCH   9  11
ENDBRANCH   1   9
TORSDOF 7
ENDMDL
MODEL 4
REMARK VINA RESULT:    -6.632      2.237      3.666
REMARK INTER + INTRA:         -11.431
REMARK INTER:                 -10.062
REMARK INTRA:                  -1.369
REMARK UNBOUND:                -2.279
REMARK SMILES CC[C@H](CC[C@H](C)[C@H]1CC[C@H]2[C@@H]3CC=C4C[C@H](O)CC[C@]4(C)[C@@H]3CC[C@@]12C)C(C)C
REMARK SMILES IDX 5 1 4 2 3 3 2 4 1 5 28 6 29 7 30 8 6 9 7 10 8 11 9 12 26 13
REMARK SMILES IDX 10 14 11 15 25 16 27 17 12 18 24 19 23 20 13 21 21 22 14 23
REMARK SMILES IDX 15 24 20 25 22 26 16 27 19 28 17 29 18 30
REMARK H PARENT 18 31
REMARK Flexibility Score: inf
ROOT
ATOM      1  C   UNL     1     115.981 124.044 126.578  1.00  0.00     0.004 C 
ENDROOT
BRANCH   1   2
ATOM      2  C   UNL     1     115.206 125.121 125.785  1.00  0.00     0.004 C 
BRANCH   2   3
ATOM      3  C   UNL     1     114.825 126.346 126.662  1.00  0.00    -0.009 C 
BRANCH   3   4
ATOM      4  C   UNL     1     114.563 125.881 128.127  1.00  0.00     0.000 C 
ATOM      5  C   UNL     1     113.129 125.421 128.396  1.00  0.00     0.004 C 
ENDBRANCH   3   4
BRANCH   3   6
ATOM      6  C   UNL     1     115.898 127.478 126.511  1.00  0.00    -0.014 C 
ATOM      7  C   UNL     1     115.302 128.869 126.245  1.00  0.00     0.007 C 
ATOM      8  C   UNL     1     116.990 127.155 125.480  1.00  0.00     0.007 C 
ENDBRANCH   3   6
ENDBRANCH   2   3
ENDBRANCH   1   2
BRANCH   1   9
ATOM      9  C   UNL     1     115.126 122.775 126.839  1.00  0.00    -0.011 C 
ATOM     10  C   UNL     1     116.029 121.685 127.445  1.00  0.00     0.008 C 
BRANCH   9  11
ATOM     11  C   UNL     1     114.357 122.334 125.538  1.00  0.00    -0.002 C 
ATOM     12  C   UNL     1     114.977 121.221 124.707  1.00  0.00     0.005 C 
ATOM     13  C   UNL     1     112.838 121.987 125.637  1.00  0.00    -0.026 C 
ATOM     14  C   UNL     1     113.923 120.929 123.651  1.00  0.00     0.005 C 
ATOM     15  C   UNL     1     112.546 121.227 124.297  1.00  0.00    -0.001 C 
ATOM     16  C   UNL     1     112.437 121.130 126.880  1.00  0.00     0.007 C 
ATOM     17  C   UNL     1     112.042 123.319 125.701  1.00  0.00     0.012 C 
ATOM     18  C   UNL     1     111.690 119.931 124.437  1.00  0.00     0.000 C 
ATOM     19  C   UNL     1     112.732 119.622 126.783  1.00  0.00     0.005 C 
ATOM     20  C   UNL     1     112.307 118.931 125.451  1.00  0.00     0.003 C 
ATOM     21  C   UNL     1     110.183 120.225 124.692  1.00  0.00     0.031 C 
ATOM     22  C   UNL     1     111.375 117.686 125.670  1.00  0.00    -0.008 C 
ATOM     23  C   UNL     1     109.505 119.342 125.714  1.00  0.00    -0.027 C 
ATOM     24  C   UNL     1     110.021 118.185 126.182  1.00  0.00    -0.065 C 
ATOM     25  C   UNL     1     112.083 116.646 126.627  1.00  0.00     0.014 C 
ATOM     26  C   UNL     1     111.112 116.962 124.321  1.00  0.00     0.016 C 
ATOM     27  C   UNL     1     109.202 117.418 127.203  1.00  0.00     0.063 C 
ATOM     28  C   UNL     1     111.334 116.343 127.928  1.00  0.00     0.033 C 
ATOM     29  C   UNL     1     109.854 116.106 127.641  1.00  0.00     0.118 C 
BRANCH  29  30
ATOM     30  O   UNL     1     109.208 115.637 128.796  1.00  0.00    -0.393 OA
ATOM     31  H   UNL     1     108.513 116.308 129.028  1.00  0.00     0.210 HD
ENDBRANCH  29  30
ENDBRANCH   9  11
ENDBRANCH   1   9
TORSDOF 7
ENDMDL
MODEL 5
REMARK VINA RESULT:    -6.612      1.861      3.335
REMARK INTER + INTRA:         -11.403
REMARK INTER:                  -9.608
REMARK INTRA:                  -1.795
REMARK UNBOUND:                -2.279
REMARK SMILES CC[C@H](CC[C@H](C)[C@H]1CC[C@H]2[C@@H]3CC=C4C[C@H](O)CC[C@]4(C)[C@@H]3CC[C@@]12C)C(C)C
REMARK SMILES IDX 5 1 4 2 3 3 2 4 1 5 28 6 29 7 30 8 6 9 7 10 8 11 9 12 26 13
REMARK SMILES IDX 10 14 11 15 25 16 27 17 12 18 24 19 23 20 13 21 21 22 14 23
REMARK SMILES IDX 15 24 20 25 22 26 16 27 19 28 17 29 18 30
REMARK H PARENT 18 31
REMARK Flexibility Score: inf
ROOT
ATOM      1  C   UNL     1     115.973 124.276 124.627  1.00  0.00     0.004 C 
ENDROOT
BRANCH   1   2
ATOM      2  C   UNL     1     115.990 124.844 126.064  1.00  0.00     0.004 C 
BRANCH   2   3
ATOM      3  C   UNL     1     115.147 126.142 126.201  1.00  0.00    -0.009 C 
BRANCH   3   4
ATOM      4  C   UNL     1     114.622 126.276 127.664  1.00  0.00     0.000 C 
ATOM      5  C   UNL     1     113.457 125.345 128.003  1.00  0.00     0.004 C 
ENDBRANCH   3   4
BRANCH   3   6
ATOM      6  C   UNL     1     115.958 127.376 125.677  1.00  0.00    -0.014 C 
ATOM      7  C   UNL     1     117.479 127.242 125.855  1.00  0.00     0.007 C 
ATOM      8  C   UNL     1     115.467 128.718 126.241  1.00  0.00     0.007 C 
ENDBRANCH   3   6
ENDBRANCH   2   3
ENDBRANCH   1   2
BRANCH   1   9
ATOM      9  C   UNL     1     115.261 122.899 124.545  1.00  0.00    -0.011 C 
ATOM     10  C   UNL     1     115.061 122.533 123.064  1.00  0.00     0.008 C 
BRANCH   9  11
ATOM     11  C   UNL     1     113.939 122.895 125.401  1.00  0.00    -0.002 C 
ATOM     12  C   UNL     1     112.641 123.216 124.678  1.00  0.00     0.005 C 
ATOM     13  C   UNL     1     113.624 121.658 126.301  1.00  0.00    -0.026 C 
ATOM     14  C   UNL     1     111.571 122.959 125.727  1.00  0.00     0.005 C 
ATOM     15  C   UNL     1     112.105 121.833 126.647  1.00  0.00    -0.001 C 
ATOM     16  C   UNL     1     113.903 120.271 125.636  1.00  0.00     0.007 C 
ATOM     17  C   UNL     1     114.498 121.756 127.581  1.00  0.00     0.012 C 
ATOM     18  C   UNL     1     111.239 120.541 126.527  1.00  0.00     0.000 C 
ATOM     19  C   UNL     1     112.836 119.772 124.645  1.00  0.00     0.005 C 
ATOM     20  C   UNL     1     111.357 119.888 125.125  1.00  0.00     0.003 C 
ATOM     21  C   UNL     1     111.475 119.544 127.699  1.00  0.00     0.031 C 
ATOM     22  C   UNL     1     110.576 118.527 125.057  1.00  0.00    -0.008 C 
ATOM     23  C   UNL     1     111.548 118.084 127.315  1.00  0.00    -0.027 C 
ATOM     24  C   UNL     1     111.152 117.590 126.123  1.00  0.00    -0.065 C 
ATOM     25  C   UNL     1     110.633 117.946 123.588  1.00  0.00     0.014 C 
ATOM     26  C   UNL     1     109.078 118.744 125.405  1.00  0.00     0.016 C 
ATOM     27  C   UNL     1     111.289 116.095 125.905  1.00  0.00     0.063 C 
ATOM     28  C   UNL     1     111.297 116.572 123.456  1.00  0.00     0.033 C 
ATOM     29  C   UNL     1     110.780 115.631 124.541  1.00  0.00     0.118 C 
BRANCH  29  30
ATOM     30  O   UNL     1     111.235 114.324 124.302  1.00  0.00    -0.393 OA
ATOM     31  H   UNL     1     110.934 114.078 123.388  1.00  0.00     0.210 HD
ENDBRANCH  29  30
ENDBRANCH   9  11
ENDBRANCH   1   9
TORSDOF 7
ENDMDL
MODEL 6
REMARK VINA RESULT:    -6.556      3.690      7.849
REMARK INTER + INTRA:         -11.326
REMARK INTER:                 -10.366
REMARK INTRA:                  -0.960
REMARK UNBOUND:                -2.279
REMARK SMILES CC[C@H](CC[C@H](C)[C@H]1CC[C@H]2[C@@H]3CC=C4C[C@H](O)CC[C@]4(C)[C@@H]3CC[C@@]12C)C(C)C
REMARK SMILES IDX 5 1 4 2 3 3 2 4 1 5 28 6 29 7 30 8 6 9 7 10 8 11 9 12 26 13
REMARK SMILES IDX 10 14 11 15 25 16 27 17 12 18 24 19 23 20 13 21 21 22 14 23
REMARK SMILES IDX 15 24 20 25 22 26 16 27 19 28 17 29 18 30
REMARK H PARENT 18 31
REMARK Flexibility Score: inf
ROOT
ATOM      1  C   UNL     1     112.960 118.185 128.644  1.00  0.00     0.004 C 
ENDROOT
BRANCH   1   2
ATOM      2  C   UNL     1     112.636 117.383 129.925  1.00  0.00     0.004 C 
BRANCH   2   3
ATOM      3  C   UNL     1     112.053 115.976 129.614  1.00  0.00    -0.009 C 
BRANCH   3   4
ATOM      4  C   UNL     1     112.852 114.891 130.399  1.00  0.00     0.000 C 
ATOM      5  C   UNL     1     114.323 115.238 130.632  1.00  0.00     0.004 C 
ENDBRANCH   3   4
BRANCH   3   6
ATOM      6  C   UNL     1     110.505 115.962 129.861  1.00  0.00    -0.014 C 
ATOM      7  C   UNL     1     109.669 115.951 128.571  1.00  0.00     0.007 C 
ATOM      8  C   UNL     1     110.025 117.076 130.803  1.00  0.00     0.007 C 
ENDBRANCH   3   6
ENDBRANCH   2   3
ENDBRANCH   1   2
BRANCH   1   9
ATOM      9  C   UNL     1     113.060 117.278 127.389  1.00  0.00    -0.011 C 
ATOM     10  C   UNL     1     114.521 116.824 127.221  1.00  0.00     0.008 C 
BRANCH   9  11
ATOM     11  C   UNL     1     112.451 117.992 126.125  1.00  0.00    -0.002 C 
ATOM     12  C   UNL     1     111.048 118.565 126.258  1.00  0.00     0.005 C 
ATOM     13  C   UNL     1     113.288 119.095 125.402  1.00  0.00    -0.026 C 
ATOM     14  C   UNL     1     110.841 119.317 124.954  1.00  0.00     0.005 C 
ATOM     15  C   UNL     1     112.233 119.826 124.501  1.00  0.00    -0.001 C 
ATOM     16  C   UNL     1     114.020 120.096 126.352  1.00  0.00     0.007 C 
ATOM     17  C   UNL     1     114.364 118.391 124.532  1.00  0.00     0.012 C 
ATOM     18  C   UNL     1     112.303 121.383 124.519  1.00  0.00     0.000 C 
ATOM     19  C   UNL     1     113.149 121.212 126.957  1.00  0.00     0.005 C 
ATOM     20  C   UNL     1     112.208 121.955 125.959  1.00  0.00     0.003 C 
ATOM     21  C   UNL     1     113.506 121.945 123.706  1.00  0.00     0.031 C 
ATOM     22  C   UNL     1     112.400 123.514 125.973  1.00  0.00    -0.008 C 
ATOM     23  C   UNL     1     114.243 123.103 124.337  1.00  0.00    -0.027 C 
ATOM     24  C   UNL     1     113.771 123.833 125.370  1.00  0.00    -0.065 C 
ATOM     25  C   UNL     1     112.194 124.068 127.439  1.00  0.00     0.014 C 
ATOM     26  C   UNL     1     111.336 124.198 125.071  1.00  0.00     0.016 C 
ATOM     27  C   UNL     1     114.640 124.968 125.878  1.00  0.00     0.063 C 
ATOM     28  C   UNL     1     113.405 124.787 128.039  1.00  0.00     0.033 C 
ATOM     29  C   UNL     1     114.001 125.757 127.022  1.00  0.00     0.118 C 
BRANCH  29  30
ATOM     30  O   UNL     1     114.982 126.554 127.632  1.00  0.00    -0.393 OA
ATOM     31  H   UNL     1     115.805 126.467 127.083  1.00  0.00     0.210 HD
ENDBRANCH  29  30
ENDBRANCH   9  11
ENDBRANCH   1   9
TORSDOF 7
ENDMDL
MODEL 7
REMARK VINA RESULT:    -6.502      3.138      5.556
REMARK INTER + INTRA:         -11.251
REMARK INTER:                  -9.481
REMARK INTRA:                  -1.770
REMARK UNBOUND:                -2.279
REMARK SMILES CC[C@H](CC[C@H](C)[C@H]1CC[C@H]2[C@@H]3CC=C4C[C@H](O)CC[C@]4(C)[C@@H]3CC[C@@]12C)C(C)C
REMARK SMILES IDX 5 1 4 2 3 3 2 4 1 5 28 6 29 7 30 8 6 9 7 10 8 11 9 12 26 13
REMARK SMILES IDX 10 14 11 15 25 16 27 17 12 18 24 19 23 20 13 21 21 22 14 23
REMARK SMILES IDX 15 24 20 25 22 26 16 27 19 28 17 29 18 30
REMARK H PARENT 18 31
REMARK Flexibility Score: inf
ROOT
ATOM      1  C   UNL     1     108.883 118.662 126.278  1.00  0.00     0.004 C 
ENDROOT
BRANCH   1   2
ATOM      2  C   UNL     1     109.472 119.103 127.638  1.00  0.00     0.004 C 
BRANCH   2   3
ATOM      3  C   UNL     1     110.690 118.239 128.067  1.00  0.00    -0.009 C 
BRANCH   3   4
ATOM      4  C   UNL     1     111.985 119.108 128.042  1.00  0.00     0.000 C 
ATOM      5  C   UNL     1     111.746 120.583 127.717  1.00  0.00     0.004 C 
ENDBRANCH   3   4
BRANCH   3   6
ATOM      6  C   UNL     1     110.399 117.529 129.434  1.00  0.00    -0.014 C 
ATOM      7  C   UNL     1     111.583 117.555 130.413  1.00  0.00     0.007 C 
ATOM      8  C   UNL     1     109.861 116.099 129.279  1.00  0.00     0.007 C 
ENDBRANCH   3   6
ENDBRANCH   2   3
ENDBRANCH   1   2
BRANCH   1   9
ATOM      9  C   UNL     1     109.917 118.770 125.125  1.00  0.00    -0.011 C 
ATOM     10  C   UNL     1     109.653 120.070 124.344  1.00  0.00     0.008 C 
BRANCH   9  11
ATOM     11  C   UNL     1     109.915 117.468 124.241  1.00  0.00    -0.002 C 
ATOM     12  C   UNL     1     110.198 117.635 122.755  1.00  0.00     0.005 C 
ATOM     13  C   UNL     1     110.770 116.242 124.696  1.00  0.00    -0.026 C 
ATOM     14  C   UNL     1     110.294 116.207 122.244  1.00  0.00     0.005 C 
ATOM     15  C   UNL     1     110.841 115.347 123.411  1.00  0.00    -0.001 C 
ATOM     16  C   UNL     1     112.196 116.595 125.227  1.00  0.00     0.007 C 
ATOM     17  C   UNL     1     110.004 115.515 125.834  1.00  0.00     0.012 C 
ATOM     18  C   UNL     1     112.250 114.767 123.077  1.00  0.00     0.000 C 
ATOM     19  C   UNL     1     113.262 116.888 124.155  1.00  0.00     0.005 C 
ATOM     20  C   UNL     1     113.327 115.879 122.969  1.00  0.00     0.003 C 
ATOM     21  C   UNL     1     112.659 113.594 124.016  1.00  0.00     0.031 C 
ATOM     22  C   UNL     1     114.760 115.272 122.752  1.00  0.00    -0.008 C 
ATOM     23  C   UNL     1     114.097 113.597 124.483  1.00  0.00    -0.027 C 
ATOM     24  C   UNL     1     115.074 114.350 123.933  1.00  0.00    -0.065 C 
ATOM     25  C   UNL     1     115.811 116.434 122.543  1.00  0.00     0.014 C 
ATOM     26  C   UNL     1     114.788 114.394 121.470  1.00  0.00     0.016 C 
ATOM     27  C   UNL     1     116.466 114.225 124.522  1.00  0.00     0.063 C 
ATOM     28  C   UNL     1     116.939 116.485 123.577  1.00  0.00     0.033 C 
ATOM     29  C   UNL     1     117.507 115.087 123.808  1.00  0.00     0.118 C 
BRANCH  29  30
ATOM     30  O   UNL     1     118.663 115.161 124.600  1.00  0.00    -0.393 OA
ATOM     31  H   UNL     1     119.324 115.703 124.094  1.00  0.00     0.210 HD
ENDBRANCH  29  30
ENDBRANCH   9  11
ENDBRANCH   1   9
TORSDOF 7
ENDMDL
MODEL 8
REMARK VINA RESULT:    -6.377      3.352      5.630
REMARK INTER + INTRA:         -11.079
REMARK INTER:                  -9.452
REMARK INTRA:                  -1.627
REMARK UNBOUND:                -2.279
REMARK SMILES CC[C@H](CC[C@H](C)[C@H]1CC[C@H]2[C@@H]3CC=C4C[C@H](O)CC[C@]4(C)[C@@H]3CC[C@@]12C)C(C)C
REMARK SMILES IDX 5 1 4 2 3 3 2 4 1 5 28 6 29 7 30 8 6 9 7 10 8 11 9 12 26 13
REMARK SMILES IDX 10 14 11 15 25 16 27 17 12 18 24 19 23 20 13 21 21 22 14 23
REMARK SMILES IDX 15 24 20 25 22 26 16 27 19 28 17 29 18 30
REMARK H PARENT 18 31
REMARK Flexibility Score: inf
ROOT
ATOM      1  C   UNL     1     109.984 119.914 124.393  1.00  0.00     0.004 C 
ENDROOT
BRANCH   1   2
ATOM      2  C   UNL     1     111.095 120.918 124.012  1.00  0.00     0.004 C 
BRANCH   2   3
ATOM      3  C   UNL     1     112.180 121.052 125.118  1.00  0.00    -0.009 C 
BRANCH   3   4
ATOM      4  C   UNL     1     113.590 121.153 124.460  1.00  0.00     0.000 C 
ATOM      5  C   UNL     1     114.564 120.054 124.886  1.00  0.00     0.004 C 
ENDBRANCH   3   4
BRANCH   3   6
ATOM      6  C   UNL     1     111.821 122.226 126.092  1.00  0.00    -0.014 C 
ATOM      7  C   UNL     1     111.936 123.621 125.456  1.00  0.00     0.007 C 
ATOM      8  C   UNL     1     112.591 122.177 127.421  1.00  0.00     0.007 C 
ENDBRANCH   3   6
ENDBRANCH   2   3
ENDBRANCH   1   2
BRANCH   1   9
ATOM      9  C   UNL     1     110.487 118.446 124.382  1.00  0.00    -0.011 C 
ATOM     10  C   UNL     1     110.164 117.822 123.013  1.00  0.00     0.008 C 
BRANCH   9  11
ATOM     11  C   UNL     1     109.918 117.645 125.613  1.00  0.00    -0.002 C 
ATOM     12  C   UNL     1     110.120 116.137 125.615  1.00  0.00     0.005 C 
ATOM     13  C   UNL     1     110.279 118.119 127.056  1.00  0.00    -0.026 C 
ATOM     14  C   UNL     1     109.625 115.709 126.987  1.00  0.00     0.005 C 
ATOM     15  C   UNL     1     109.899 116.889 127.953  1.00  0.00    -0.001 C 
ATOM     16  C   UNL     1     111.771 118.535 127.260  1.00  0.00     0.007 C 
ATOM     17  C   UNL     1     109.390 119.346 127.397  1.00  0.00     0.012 C 
ATOM     18  C   UNL     1     110.950 116.503 129.038  1.00  0.00     0.000 C 
ATOM     19  C   UNL     1     112.775 117.383 127.433  1.00  0.00     0.005 C 
ATOM     20  C   UNL     1     112.355 116.259 128.428  1.00  0.00     0.003 C 
ATOM     21  C   UNL     1     110.959 117.484 130.247  1.00  0.00     0.031 C 
ATOM     22  C   UNL     1     113.428 115.988 129.544  1.00  0.00    -0.008 C 
ATOM     23  C   UNL     1     112.323 117.858 130.780  1.00  0.00    -0.027 C 
ATOM     24  C   UNL     1     113.464 117.202 130.477  1.00  0.00    -0.065 C 
ATOM     25  C   UNL     1     114.820 115.642 128.881  1.00  0.00     0.014 C 
ATOM     26  C   UNL     1     113.015 114.764 130.407  1.00  0.00     0.016 C 
ATOM     27  C   UNL     1     114.748 117.708 131.107  1.00  0.00     0.063 C 
ATOM     28  C   UNL     1     115.964 116.597 129.232  1.00  0.00     0.033 C 
ATOM     29  C   UNL     1     115.976 116.877 130.733  1.00  0.00     0.118 C 
BRANCH  29  30
ATOM     30  O   UNL     1     117.134 117.589 131.081  1.00  0.00    -0.393 OA
ATOM     31  H   UNL     1     117.608 117.799 130.234  1.00  0.00     0.210 HD
ENDBRANCH  29  30
ENDBRANCH   9  11
ENDBRANCH   1   9
TORSDOF 7
ENDMDL
MODEL 9
REMARK VINA RESULT:    -6.337      2.839      6.485
REMARK INTER + INTRA:         -11.024
REMARK INTER:                  -9.037
REMARK INTRA:                  -1.987
REMARK UNBOUND:                -2.279
REMARK SMILES CC[C@H](CC[C@H](C)[C@H]1CC[C@H]2[C@@H]3CC=C4C[C@H](O)CC[C@]4(C)[C@@H]3CC[C@@]12C)C(C)C
REMARK SMILES IDX 5 1 4 2 3 3 2 4 1 5 28 6 29 7 30 8 6 9 7 10 8 11 9 12 26 13
REMARK SMILES IDX 10 14 11 15 25 16 27 17 12 18 24 19 23 20 13 21 21 22 14 23
REMARK SMILES IDX 15 24 20 25 22 26 16 27 19 28 17 29 18 30
REMARK H PARENT 18 31
REMARK Flexibility Score: inf
ROOT
ATOM      1  C   UNL     1     109.883 119.373 126.776  1.00  0.00     0.004 C 
ENDROOT
BRANCH   1   2
ATOM      2  C   UNL     1     109.015 118.370 125.982  1.00  0.00     0.004 C 
BRANCH   2   3
ATOM      3  C   UNL     1     109.813 117.656 124.855  1.00  0.00    -0.009 C 
BRANCH   3   4
ATOM      4  C   UNL     1     109.953 116.140 125.191  1.00  0.00     0.000 C 
ATOM      5  C   UNL     1     111.396 115.637 125.242  1.00  0.00     0.004 C 
ENDBRANCH   3   4
BRANCH   3   6
ATOM      6  C   UNL     1     109.175 117.965 123.457  1.00  0.00    -0.014 C 
ATOM      7  C   UNL     1     109.123 116.753 122.514  1.00  0.00     0.007 C 
ATOM      8  C   UNL     1     109.808 119.172 122.748  1.00  0.00     0.007 C 
ENDBRANCH   3   6
ENDBRANCH   2   3
ENDBRANCH   1   2
BRANCH   1   9
ATOM      9  C   UNL     1     111.323 118.847 127.016  1.00  0.00    -0.011 C 
ATOM     10  C   UNL     1     111.352 118.073 128.346  1.00  0.00     0.008 C 
BRANCH   9  11
ATOM     11  C   UNL     1     112.375 120.014 126.919  1.00  0.00    -0.002 C 
ATOM     12  C   UNL     1     113.659 119.862 127.720  1.00  0.00     0.005 C 
ATOM     13  C   UNL     1     112.817 120.520 125.509  1.00  0.00    -0.026 C 
ATOM     14  C   UNL     1     114.504 121.045 127.275  1.00  0.00     0.005 C 
ATOM     15  C   UNL     1     114.115 121.347 125.805  1.00  0.00    -0.001 C 
ATOM     16  C   UNL     1     113.084 119.393 124.459  1.00  0.00     0.007 C 
ATOM     17  C   UNL     1     111.694 121.435 124.950  1.00  0.00     0.012 C 
ATOM     18  C   UNL     1     115.309 121.088 124.837  1.00  0.00     0.000 C 
ATOM     19  C   UNL     1     114.437 118.668 124.578  1.00  0.00     0.005 C 
ATOM     20  C   UNL     1     115.685 119.584 124.763  1.00  0.00     0.003 C 
ATOM     21  C   UNL     1     115.110 121.748 123.440  1.00  0.00     0.031 C 
ATOM     22  C   UNL     1     116.808 119.323 123.696  1.00  0.00    -0.008 C 
ATOM     23  C   UNL     1     115.529 120.912 122.253  1.00  0.00    -0.027 C 
ATOM     24  C   UNL     1     116.296 119.804 122.335  1.00  0.00    -0.065 C 
ATOM     25  C   UNL     1     117.234 117.801 123.725  1.00  0.00     0.014 C 
ATOM     26  C   UNL     1     118.074 120.160 124.027  1.00  0.00     0.016 C 
ATOM     27  C   UNL     1     116.629 119.087 121.041  1.00  0.00     0.063 C 
ATOM     28  C   UNL     1     117.022 117.041 122.413  1.00  0.00     0.033 C 
ATOM     29  C   UNL     1     117.531 117.869 121.235  1.00  0.00     0.118 C 
BRANCH  29  30
ATOM     30  O   UNL     1     117.519 117.097 120.063  1.00  0.00    -0.393 OA
ATOM     31  H   UNL     1     118.435 117.140 119.681  1.00  0.00     0.210 HD
ENDBRANCH  29  30
ENDBRANCH   9  11
ENDBRANCH   1   9
TORSDOF 7
ENDMDL
