MODEL 1
REMARK VINA RESULT:    -5.290      0.000      0.000
REMARK INTER + INTRA:          -9.110
REMARK INTER:                  -7.301
REMARK INTRA:                  -1.809
REMARK UNBOUND:                -1.809
REMARK SMILES CC[C@@H](CC[C@H](C)[C@H]1CC[C@H]2[C@H]3CC=C4C[C@@H](O)CC[C@]4(C)[C@H]3CC[C@@]12C)C(C)C
REMARK SMILES IDX 5 1 4 2 3 3 2 4 1 5 28 6 29 7 30 8 6 9 7 10 8 11 9 12 26 13
REMARK SMILES IDX 10 14 11 15 25 16 27 17 12 18 24 19 23 20 13 21 21 22 14 23
REMARK SMILES IDX 15 24 20 25 22 26 16 27 19 28 17 29 18 30
REMARK H PARENT 18 31
REMARK Flexibility Score: inf
ROOT
ATOM      1  C   UNL     1      19.519   3.101  35.189  1.00  0.00     0.004 C 
ENDROOT
BRANCH   1   2
ATOM      2  C   UNL     1      20.373   4.121  35.973  1.00  0.00     0.004 C 
BRANCH   2   3
ATOM      3  C   UNL     1      21.358   4.935  35.084  1.00  0.00    -0.009 C 
BRANCH   3   4
ATOM      4  C   UNL     1      22.733   5.159  35.784  1.00  0.00     0.000 C 
ATOM      5  C   UNL     1      23.042   4.161  36.905  1.00  0.00     0.004 C 
ENDBRANCH   3   4
BRANCH   3   6
ATOM      6  C   UNL     1      20.703   6.271  34.580  1.00  0.00    -0.014 C 
ATOM      7  C   UNL     1      20.430   6.241  33.062  1.00  0.00     0.007 C 
ATOM      8  C   UNL     1      21.568   7.505  34.898  1.00  0.00     0.007 C 
ENDBRANCH   3   6
ENDBRANCH   2   3
ENDBRANCH   1   2
BRANCH   1   9
ATOM      9  C   UNL     1      18.029   3.514  35.048  1.00  0.00    -0.011 C 
ATOM     10  C   UNL     1      17.659   3.668  33.557  1.00  0.00     0.008 C 
BRANCH   9  11
ATOM     11  C   UNL     1      17.741   4.795  35.922  1.00  0.00    -0.002 C 
ATOM     12  C   UNL     1      17.285   6.040  35.169  1.00  0.00     0.005 C 
ATOM     13  C   UNL     1      16.755   4.662  37.125  1.00  0.00    -0.026 C 
ATOM     14  C   UNL     1      16.899   7.011  36.270  1.00  0.00     0.005 C 
ATOM     15  C   UNL     1      16.351   6.148  37.429  1.00  0.00    -0.001 C 
ATOM     16  C   UNL     1      15.507   3.804  36.789  1.00  0.00     0.007 C 
ATOM     17  C   UNL     1      17.505   4.016  38.322  1.00  0.00     0.012 C 
ATOM     18  C   UNL     1      14.842   6.395  37.787  1.00  0.00     0.000 C 
ATOM     19  C   UNL     1      14.371   3.894  37.829  1.00  0.00     0.005 C 
ATOM     20  C   UNL     1      14.303   5.225  38.641  1.00  0.00     0.003 C 
ATOM     21  C   UNL     1      13.876   6.677  36.609  1.00  0.00     0.031 C 
ATOM     22  C   UNL     1      12.872   5.535  39.232  1.00  0.00    -0.008 C 
ATOM     23  C   UNL     1      12.433   6.719  37.039  1.00  0.00    -0.027 C 
ATOM     24  C   UNL     1      11.960   6.184  38.189  1.00  0.00    -0.065 C 
ATOM     25  C   UNL     1      12.981   6.537  40.429  1.00  0.00     0.014 C 
ATOM     26  C   UNL     1      12.232   4.217  39.764  1.00  0.00     0.016 C 
ATOM     27  C   UNL     1      10.578   6.585  38.653  1.00  0.00     0.063 C 
ATOM     28  C   UNL     1      11.615   7.051  40.943  1.00  0.00     0.033 C 
ATOM     29  C   UNL     1      10.726   7.597  39.804  1.00  0.00     0.118 C 
BRANCH  29  30
ATOM     30  O   UNL     1       9.464   7.973  40.296  1.00  0.00    -0.393 OA
ATOM     31  H   UNL     1       9.519   7.981  41.288  1.00  0.00     0.210 HD
ENDBRANCH  29  30
ENDBRANCH   9  11
ENDBRANCH   1   9
TORSDOF 7
ENDMDL
MODEL 2
REMARK VINA RESULT:    -5.288     14.464     17.926
REMARK INTER + INTRA:          -9.107
REMARK INTER:                  -6.799
REMARK INTRA:                  -2.307
REMARK UNBOUND:                -1.809
REMARK SMILES CC[C@@H](CC[C@H](C)[C@H]1CC[C@H]2[C@H]3CC=C4C[C@@H](O)CC[C@]4(C)[C@H]3CC[C@@]12C)C(C)C
REMARK SMILES IDX 5 1 4 2 3 3 2 4 1 5 28 6 29 7 30 8 6 9 7 10 8 11 9 12 26 13
REMARK SMILES IDX 10 14 11 15 25 16 27 17 12 18 24 19 23 20 13 21 21 22 14 23
REMARK SMILES IDX 15 24 20 25 22 26 16 27 19 28 17 29 18 30
REMARK H PARENT 18 31
REMARK Flexibility Score: inf
ROOT
ATOM      1  C   UNL     1      11.192  -0.841  21.990  1.00  0.00     0.004 C 
ENDROOT
BRANCH   1   2
ATOM      2  C   UNL     1      10.133  -1.699  21.264  1.00  0.00     0.004 C 
BRANCH   2   3
ATOM      3  C   UNL     1       8.871  -2.005  22.123  1.00  0.00    -0.009 C 
BRANCH   3   4
ATOM      4  C   UNL     1       8.976  -1.402  23.557  1.00  0.00     0.000 C 
ATOM      5  C   UNL     1       8.005  -0.249  23.831  1.00  0.00     0.004 C 
ENDBRANCH   3   4
BRANCH   3   6
ATOM      6  C   UNL     1       8.538  -3.540  22.125  1.00  0.00    -0.014 C 
ATOM      7  C   UNL     1       8.972  -4.222  23.438  1.00  0.00     0.007 C 
ATOM      8  C   UNL     1       9.194  -4.283  20.946  1.00  0.00     0.007 C 
ENDBRANCH   3   6
ENDBRANCH   2   3
ENDBRANCH   1   2
BRANCH   1   9
ATOM      9  C   UNL     1      12.543  -1.574  22.208  1.00  0.00    -0.011 C 
ATOM     10  C   UNL     1      13.350  -1.602  20.891  1.00  0.00     0.008 C 
BRANCH   9  11
ATOM     11  C   UNL     1      12.290  -2.995  22.842  1.00  0.00    -0.002 C 
ATOM     12  C   UNL     1      12.647  -4.197  21.974  1.00  0.00     0.005 C 
ATOM     13  C   UNL     1      12.912  -3.302  24.240  1.00  0.00    -0.026 C 
ATOM     14  C   UNL     1      12.491  -5.381  22.911  1.00  0.00     0.005 C 
ATOM     15  C   UNL     1      12.877  -4.870  24.317  1.00  0.00    -0.001 C 
ATOM     16  C   UNL     1      14.362  -2.770  24.384  1.00  0.00     0.007 C 
ATOM     17  C   UNL     1      12.025  -2.655  25.339  1.00  0.00     0.012 C 
ATOM     18  C   UNL     1      14.137  -5.559  24.953  1.00  0.00     0.000 C 
ATOM     19  C   UNL     1      15.120  -3.307  25.616  1.00  0.00     0.005 C 
ATOM     20  C   UNL     1      14.666  -4.708  26.130  1.00  0.00     0.003 C 
ATOM     21  C   UNL     1      15.301  -5.919  23.997  1.00  0.00     0.031 C 
ATOM     22  C   UNL     1      15.775  -5.469  26.958  1.00  0.00    -0.008 C 
ATOM     23  C   UNL     1      16.524  -6.405  24.730  1.00  0.00    -0.027 C 
ATOM     24  C   UNL     1      16.770  -6.184  26.042  1.00  0.00    -0.065 C 
ATOM     25  C   UNL     1      15.122  -6.565  27.865  1.00  0.00     0.014 C 
ATOM     26  C   UNL     1      16.519  -4.460  27.882  1.00  0.00     0.016 C 
ATOM     27  C   UNL     1      17.847  -7.002  26.719  1.00  0.00     0.063 C 
ATOM     28  C   UNL     1      16.146  -7.493  28.563  1.00  0.00     0.033 C 
ATOM     29  C   UNL     1      17.169  -8.090  27.572  1.00  0.00     0.118 C 
BRANCH  29  30
ATOM     30  O   UNL     1      18.131  -8.855  28.253  1.00  0.00    -0.393 OA
ATOM     31  H   UNL     1      18.815  -8.229  28.609  1.00  0.00     0.210 HD
ENDBRANCH  29  30
ENDBRANCH   9  11
ENDBRANCH   1   9
TORSDOF 7
ENDMDL
MODEL 3
REMARK VINA RESULT:    -5.154      1.948      3.801
REMARK INTER + INTRA:          -8.921
REMARK INTER:                  -6.982
REMARK INTRA:                  -1.939
REMARK UNBOUND:                -1.809
REMARK SMILES CC[C@@H](CC[C@H](C)[C@H]1CC[C@H]2[C@H]3CC=C4C[C@@H](O)CC[C@]4(C)[C@H]3CC[C@@]12C)C(C)C
REMARK SMILES IDX 5 1 4 2 3 3 2 4 1 5 28 6 29 7 30 8 6 9 7 10 8 11 9 12 26 13
REMARK SMILES IDX 10 14 11 15 25 16 27 17 12 18 24 19 23 20 13 21 21 22 14 23
REMARK SMILES IDX 15 24 20 25 22 26 16 27 19 28 17 29 18 30
REMARK H PARENT 18 31
REMARK Flexibility Score: inf
ROOT
ATOM      1  C   UNL     1      16.072   3.159  34.458  1.00  0.00     0.004 C 
ENDROOT
BRANCH   1   2
ATOM      2  C   UNL     1      17.540   3.076  34.930  1.00  0.00     0.004 C 
BRANCH   2   3
ATOM      3  C   UNL     1      17.931   4.165  35.972  1.00  0.00    -0.009 C 
BRANCH   3   4
ATOM      4  C   UNL     1      18.977   5.172  35.404  1.00  0.00     0.000 C 
ATOM      5  C   UNL     1      19.028   5.235  33.875  1.00  0.00     0.004 C 
ENDBRANCH   3   4
BRANCH   3   6
ATOM      6  C   UNL     1      18.376   3.520  37.333  1.00  0.00    -0.014 C 
ATOM      7  C   UNL     1      18.462   1.983  37.242  1.00  0.00     0.007 C 
ATOM      8  C   UNL     1      17.432   3.890  38.493  1.00  0.00     0.007 C 
ENDBRANCH   3   6
ENDBRANCH   2   3
ENDBRANCH   1   2
BRANCH   1   9
ATOM      9  C   UNL     1      15.068   3.475  35.599  1.00  0.00    -0.011 C 
ATOM     10  C   UNL     1      14.123   2.275  35.824  1.00  0.00     0.008 C 
BRANCH   9  11
ATOM     11  C   UNL     1      14.327   4.835  35.304  1.00  0.00    -0.002 C 
ATOM     12  C   UNL     1      12.884   4.729  34.823  1.00  0.00     0.005 C 
ATOM     13  C   UNL     1      14.305   5.924  36.422  1.00  0.00    -0.026 C 
ATOM     14  C   UNL     1      12.393   6.166  34.825  1.00  0.00     0.005 C 
ATOM     15  C   UNL     1      13.130   6.869  35.987  1.00  0.00    -0.001 C 
ATOM     16  C   UNL     1      14.050   5.332  37.833  1.00  0.00     0.007 C 
ATOM     17  C   UNL     1      15.668   6.669  36.426  1.00  0.00     0.012 C 
ATOM     18  C   UNL     1      12.204   7.398  37.140  1.00  0.00     0.000 C 
ATOM     19  C   UNL     1      13.718   6.381  38.916  1.00  0.00     0.005 C 
ATOM     20  C   UNL     1      13.047   7.692  38.401  1.00  0.00     0.003 C 
ATOM     21  C   UNL     1      10.980   6.525  37.516  1.00  0.00     0.031 C 
ATOM     22  C   UNL     1      12.213   8.453  39.506  1.00  0.00    -0.008 C 
ATOM     23  C   UNL     1      10.266   7.026  38.744  1.00  0.00    -0.027 C 
ATOM     24  C   UNL     1      10.812   7.858  39.662  1.00  0.00    -0.065 C 
ATOM     25  C   UNL     1      12.028   9.956  39.111  1.00  0.00     0.014 C 
ATOM     26  C   UNL     1      12.977   8.401  40.862  1.00  0.00     0.016 C 
ATOM     27  C   UNL     1       9.892   8.541  40.649  1.00  0.00     0.063 C 
ATOM     28  C   UNL     1      11.057  10.732  40.034  1.00  0.00     0.033 C 
ATOM     29  C   UNL     1       9.706  10.004  40.209  1.00  0.00     0.118 C 
BRANCH  29  30
ATOM     30  O   UNL     1       8.886  10.693  41.119  1.00  0.00    -0.393 OA
ATOM     31  H   UNL     1       9.419  11.442  41.496  1.00  0.00     0.210 HD
ENDBRANCH  29  30
ENDBRANCH   9  11
ENDBRANCH   1   9
TORSDOF 7
ENDMDL
MODEL 4
REMARK VINA RESULT:    -5.112     11.889     13.861
REMARK INTER + INTRA:          -8.863
REMARK INTER:                  -7.213
REMARK INTRA:                  -1.651
REMARK UNBOUND:                -1.809
REMARK SMILES CC[C@@H](CC[C@H](C)[C@H]1CC[C@H]2[C@H]3CC=C4C[C@@H](O)CC[C@]4(C)[C@H]3CC[C@@]12C)C(C)C
REMARK SMILES IDX 5 1 4 2 3 3 2 4 1 5 28 6 29 7 30 8 6 9 7 10 8 11 9 12 26 13
REMARK SMILES IDX 10 14 11 15 25 16 27 17 12 18 24 19 23 20 13 21 21 22 14 23
REMARK SMILES IDX 15 24 20 25 22 26 16 27 19 28 17 29 18 30
REMARK H PARENT 18 31
REMARK Flexibility Score: inf
ROOT
ATOM      1  C   UNL     1      13.768   6.299  24.254  1.00  0.00     0.004 C 
ENDROOT
BRANCH   1   2
ATOM      2  C   UNL     1      13.868   7.202  23.005  1.00  0.00     0.004 C 
BRANCH   2   3
ATOM      3  C   UNL     1      12.594   8.056  22.739  1.00  0.00    -0.009 C 
BRANCH   3   4
ATOM      4  C   UNL     1      11.914   7.691  21.385  1.00  0.00     0.000 C 
ATOM      5  C   UNL     1      12.199   6.267  20.898  1.00  0.00     0.004 C 
ENDBRANCH   3   4
BRANCH   3   6
ATOM      6  C   UNL     1      12.895   9.591  22.880  1.00  0.00    -0.014 C 
ATOM      7  C   UNL     1      13.955  10.067  21.867  1.00  0.00     0.007 C 
ATOM      8  C   UNL     1      13.367   9.968  24.297  1.00  0.00     0.007 C 
ENDBRANCH   3   6
ENDBRANCH   2   3
ENDBRANCH   1   2
BRANCH   1   9
ATOM      9  C   UNL     1      12.480   6.533  25.089  1.00  0.00    -0.011 C 
ATOM     10  C   UNL     1      12.848   6.996  26.515  1.00  0.00     0.008 C 
BRANCH   9  11
ATOM     11  C   UNL     1      11.567   5.248  25.042  1.00  0.00    -0.002 C 
ATOM     12  C   UNL     1      11.824   4.195  26.114  1.00  0.00     0.005 C 
ATOM     13  C   UNL     1      10.018   5.442  25.023  1.00  0.00    -0.026 C 
ATOM     14  C   UNL     1      10.684   3.208  25.935  1.00  0.00     0.005 C 
ATOM     15  C   UNL     1       9.471   4.036  25.458  1.00  0.00    -0.001 C 
ATOM     16  C   UNL     1       9.539   6.551  25.997  1.00  0.00     0.007 C 
ATOM     17  C   UNL     1       9.573   5.810  23.582  1.00  0.00     0.012 C 
ATOM     18  C   UNL     1       8.243   4.045  26.437  1.00  0.00     0.000 C 
ATOM     19  C   UNL     1       8.015   6.572  26.241  1.00  0.00     0.005 C 
ATOM     20  C   UNL     1       7.286   5.202  26.075  1.00  0.00     0.003 C 
ATOM     21  C   UNL     1       8.554   4.072  27.955  1.00  0.00     0.031 C 
ATOM     22  C   UNL     1       5.922   5.111  26.865  1.00  0.00    -0.008 C 
ATOM     23  C   UNL     1       7.318   4.260  28.796  1.00  0.00    -0.027 C 
ATOM     24  C   UNL     1       6.146   4.755  28.336  1.00  0.00    -0.065 C 
ATOM     25  C   UNL     1       5.014   3.990  26.258  1.00  0.00     0.014 C 
ATOM     26  C   UNL     1       5.159   6.465  26.746  1.00  0.00     0.016 C 
ATOM     27  C   UNL     1       4.908   4.578  29.186  1.00  0.00     0.063 C 
ATOM     28  C   UNL     1       3.742   3.695  27.089  1.00  0.00     0.033 C 
ATOM     29  C   UNL     1       4.059   3.445  28.580  1.00  0.00     0.118 C 
BRANCH  29  30
ATOM     30  O   UNL     1       2.875   3.267  29.316  1.00  0.00    -0.393 OA
ATOM     31  H   UNL     1       2.125   3.208  28.668  1.00  0.00     0.210 HD
ENDBRANCH  29  30
ENDBRANCH   9  11
ENDBRANCH   1   9
TORSDOF 7
ENDMDL
MODEL 5
REMARK VINA RESULT:    -5.102     12.782     16.443
REMARK INTER + INTRA:          -8.849
REMARK INTER:                  -6.943
REMARK INTRA:                  -1.907
REMARK UNBOUND:                -1.809
REMARK SMILES CC[C@@H](CC[C@H](C)[C@H]1CC[C@H]2[C@H]3CC=C4C[C@@H](O)CC[C@]4(C)[C@H]3CC[C@@]12C)C(C)C
REMARK SMILES IDX 5 1 4 2 3 3 2 4 1 5 28 6 29 7 30 8 6 9 7 10 8 11 9 12 26 13
REMARK SMILES IDX 10 14 11 15 25 16 27 17 12 18 24 19 23 20 13 21 21 22 14 23
REMARK SMILES IDX 15 24 20 25 22 26 16 27 19 28 17 29 18 30
REMARK H PARENT 18 31
REMARK Flexibility Score: inf
ROOT
ATOM      1  C   UNL     1       5.793   2.347  26.880  1.00  0.00     0.004 C 
ENDROOT
BRANCH   1   2
ATOM      2  C   UNL     1       4.689   3.037  27.711  1.00  0.00     0.004 C 
BRANCH   2   3
ATOM      3  C   UNL     1       3.629   3.789  26.854  1.00  0.00    -0.009 C 
BRANCH   3   4
ATOM      4  C   UNL     1       4.035   3.865  25.351  1.00  0.00     0.000 C 
ATOM      5  C   UNL     1       2.888   3.600  24.372  1.00  0.00     0.004 C 
ENDBRANCH   3   4
BRANCH   3   6
ATOM      6  C   UNL     1       3.287   5.193  27.470  1.00  0.00    -0.014 C 
ATOM      7  C   UNL     1       4.157   6.314  26.866  1.00  0.00     0.007 C 
ATOM      8  C   UNL     1       3.450   5.216  29.001  1.00  0.00     0.007 C 
ENDBRANCH   3   6
ENDBRANCH   2   3
ENDBRANCH   1   2
BRANCH   1   9
ATOM      9  C   UNL     1       7.206   2.951  27.100  1.00  0.00    -0.011 C 
ATOM     10  C   UNL     1       7.509   3.057  28.610  1.00  0.00     0.008 C 
BRANCH   9  11
ATOM     11  C   UNL     1       7.338   4.313  26.317  1.00  0.00    -0.002 C 
ATOM     12  C   UNL     1       7.702   5.539  27.147  1.00  0.00     0.005 C 
ATOM     13  C   UNL     1       8.286   4.364  25.077  1.00  0.00    -0.026 C 
ATOM     14  C   UNL     1       7.951   6.620  26.110  1.00  0.00     0.005 C 
ATOM     15  C   UNL     1       8.535   5.900  24.874  1.00  0.00    -0.001 C 
ATOM     16  C   UNL     1       9.621   3.609  25.309  1.00  0.00     0.007 C 
ATOM     17  C   UNL     1       7.556   3.736  23.859  1.00  0.00     0.012 C 
ATOM     18  C   UNL     1      10.000   6.318  24.489  1.00  0.00     0.000 C 
ATOM     19  C   UNL     1      10.704   3.885  24.245  1.00  0.00     0.005 C 
ATOM     20  C   UNL     1      10.614   5.271  23.534  1.00  0.00     0.003 C 
ATOM     21  C   UNL     1      10.978   6.607  25.655  1.00  0.00     0.031 C 
ATOM     22  C   UNL     1      11.987   5.760  22.924  1.00  0.00    -0.008 C 
ATOM     23  C   UNL     1      12.393   6.821  25.185  1.00  0.00    -0.027 C 
ATOM     24  C   UNL     1      12.871   6.419  23.984  1.00  0.00    -0.065 C 
ATOM     25  C   UNL     1      11.738   6.830  21.810  1.00  0.00     0.014 C 
ATOM     26  C   UNL     1      12.728   4.553  22.275  1.00  0.00     0.016 C 
ATOM     27  C   UNL     1      14.190   6.985  23.510  1.00  0.00     0.063 C 
ATOM     28  C   UNL     1      13.028   7.511  21.294  1.00  0.00     0.033 C 
ATOM     29  C   UNL     1      13.904   8.058  22.443  1.00  0.00     0.118 C 
BRANCH  29  30
ATOM     30  O   UNL     1      15.104   8.589  21.942  1.00  0.00    -0.393 OA
ATOM     31  H   UNL     1      15.817   7.914  22.090  1.00  0.00     0.210 HD
ENDBRANCH  29  30
ENDBRANCH   9  11
ENDBRANCH   1   9
TORSDOF 7
ENDMDL
MODEL 6
REMARK VINA RESULT:    -5.099     11.899     15.315
REMARK INTER + INTRA:          -8.846
REMARK INTER:                  -6.920
REMARK INTRA:                  -1.925
REMARK UNBOUND:                -1.809
REMARK SMILES CC[C@@H](CC[C@H](C)[C@H]1CC[C@H]2[C@H]3CC=C4C[C@@H](O)CC[C@]4(C)[C@H]3CC[C@@]12C)C(C)C
REMARK SMILES IDX 5 1 4 2 3 3 2 4 1 5 28 6 29 7 30 8 6 9 7 10 8 11 9 12 26 13
REMARK SMILES IDX 10 14 11 15 25 16 27 17 12 18 24 19 23 20 13 21 21 22 14 23
REMARK SMILES IDX 15 24 20 25 22 26 16 27 19 28 17 29 18 30
REMARK H PARENT 18 31
REMARK Flexibility Score: inf
ROOT
ATOM      1  C   UNL     1       8.495   2.517  27.415  1.00  0.00     0.004 C 
ENDROOT
BRANCH   1   2
ATOM      2  C   UNL     1       7.020   2.696  26.995  1.00  0.00     0.004 C 
BRANCH   2   3
ATOM      3  C   UNL     1       6.782   3.879  26.011  1.00  0.00    -0.009 C 
BRANCH   3   4
ATOM      4  C   UNL     1       5.809   4.946  26.598  1.00  0.00     0.000 C 
ATOM      5  C   UNL     1       5.422   4.712  28.061  1.00  0.00     0.004 C 
ENDBRANCH   3   4
BRANCH   3   6
ATOM      6  C   UNL     1       6.346   3.364  24.592  1.00  0.00    -0.014 C 
ATOM      7  C   UNL     1       6.075   1.846  24.589  1.00  0.00     0.007 C 
ATOM      8  C   UNL     1       7.392   3.678  23.507  1.00  0.00     0.007 C 
ENDBRANCH   3   6
ENDBRANCH   2   3
ENDBRANCH   1   2
BRANCH   1   9
ATOM      9  C   UNL     1       9.510   2.975  26.333  1.00  0.00    -0.011 C 
ATOM     10  C   UNL     1      10.322   1.766  25.820  1.00  0.00     0.008 C 
BRANCH   9  11
ATOM     11  C   UNL     1      10.393   4.158  26.889  1.00  0.00    -0.002 C 
ATOM     12  C   UNL     1      11.798   3.793  27.354  1.00  0.00     0.005 C 
ATOM     13  C   UNL     1      10.574   5.427  25.999  1.00  0.00    -0.026 C 
ATOM     14  C   UNL     1      12.451   5.135  27.630  1.00  0.00     0.005 C 
ATOM     15  C   UNL     1      11.836   6.127  26.617  1.00  0.00    -0.001 C 
ATOM     16  C   UNL     1      10.804   5.085  24.503  1.00  0.00     0.007 C 
ATOM     17  C   UNL     1       9.307   6.315  26.125  1.00  0.00     0.012 C 
ATOM     18  C   UNL     1      12.852   6.750  25.594  1.00  0.00     0.000 C 
ATOM     19  C   UNL     1      11.288   6.272  23.644  1.00  0.00     0.005 C 
ATOM     20  C   UNL     1      12.088   7.374  24.405  1.00  0.00     0.003 C 
ATOM     21  C   UNL     1      13.979   5.825  25.070  1.00  0.00     0.031 C 
ATOM     22  C   UNL     1      13.038   8.225  23.473  1.00  0.00    -0.008 C 
ATOM     23  C   UNL     1      14.783   6.460  23.965  1.00  0.00    -0.027 C 
ATOM     24  C   UNL     1      14.366   7.508  23.218  1.00  0.00    -0.065 C 
ATOM     25  C   UNL     1      13.381   9.594  24.148  1.00  0.00     0.014 C 
ATOM     26  C   UNL     1      12.316   8.520  22.124  1.00  0.00     0.016 C 
ATOM     27  C   UNL     1      15.388   8.251  22.387  1.00  0.00     0.063 C 
ATOM     28  C   UNL     1      14.463  10.409  23.398  1.00  0.00     0.033 C 
ATOM     29  C   UNL     1      15.727   9.573  23.100  1.00  0.00     0.118 C 
BRANCH  29  30
ATOM     30  O   UNL     1      16.648  10.318  22.345  1.00  0.00    -0.393 OA
ATOM     31  H   UNL     1      16.160  10.705  21.571  1.00  0.00     0.210 HD
ENDBRANCH  29  30
ENDBRANCH   9  11
ENDBRANCH   1   9
TORSDOF 7
ENDMDL
MODEL 7
REMARK VINA RESULT:    -5.094      2.903      8.708
REMARK INTER + INTRA:          -8.839
REMARK INTER:                  -6.803
REMARK INTRA:                  -2.036
REMARK UNBOUND:                -1.809
REMARK SMILES CC[C@@H](CC[C@H](C)[C@H]1CC[C@H]2[C@H]3CC=C4C[C@@H](O)CC[C@]4(C)[C@H]3CC[C@@]12C)C(C)C
REMARK SMILES IDX 5 1 4 2 3 3 2 4 1 5 28 6 29 7 30 8 6 9 7 10 8 11 9 12 26 13
REMARK SMILES IDX 10 14 11 15 25 16 27 17 12 18 24 19 23 20 13 21 21 22 14 23
REMARK SMILES IDX 15 24 20 25 22 26 16 27 19 28 17 29 18 30
REMARK H PARENT 18 31
REMARK Flexibility Score: inf
ROOT
ATOM      1  C   UNL     1       9.856   6.007  38.034  1.00  0.00     0.004 C 
ENDROOT
BRANCH   1   2
ATOM      2  C   UNL     1      10.140   7.524  37.992  1.00  0.00     0.004 C 
BRANCH   2   3
ATOM      3  C   UNL     1      10.273   8.181  39.397  1.00  0.00    -0.009 C 
BRANCH   3   4
ATOM      4  C   UNL     1       8.886   8.513  40.025  1.00  0.00     0.000 C 
ATOM      5  C   UNL     1       8.523  10.001  40.006  1.00  0.00     0.004 C 
ENDBRANCH   3   4
BRANCH   3   6
ATOM      6  C   UNL     1      11.242   9.416  39.361  1.00  0.00    -0.014 C 
ATOM      7  C   UNL     1      11.856   9.627  37.962  1.00  0.00     0.007 C 
ATOM      8  C   UNL     1      12.386   9.294  40.385  1.00  0.00     0.007 C 
ENDBRANCH   3   6
ENDBRANCH   2   3
ENDBRANCH   1   2
BRANCH   1   9
ATOM      9  C   UNL     1      11.126   5.131  37.862  1.00  0.00    -0.011 C 
ATOM     10  C   UNL     1      11.070   3.920  38.819  1.00  0.00     0.008 C 
BRANCH   9  11
ATOM     11  C   UNL     1      12.419   6.020  38.019  1.00  0.00    -0.002 C 
ATOM     12  C   UNL     1      13.262   5.774  39.264  1.00  0.00     0.005 C 
ATOM     13  C   UNL     1      13.437   6.057  36.836  1.00  0.00    -0.026 C 
ATOM     14  C   UNL     1      14.508   6.610  39.031  1.00  0.00     0.005 C 
ATOM     15  C   UNL     1      14.749   6.603  37.505  1.00  0.00    -0.001 C 
ATOM     16  C   UNL     1      13.675   4.662  36.202  1.00  0.00     0.007 C 
ATOM     17  C   UNL     1      12.906   7.025  35.744  1.00  0.00     0.012 C 
ATOM     18  C   UNL     1      16.091   5.929  37.045  1.00  0.00     0.000 C 
ATOM     19  C   UNL     1      14.885   4.592  35.246  1.00  0.00     0.005 C 
ATOM     20  C   UNL     1      16.032   5.610  35.534  1.00  0.00     0.003 C 
ATOM     21  C   UNL     1      16.555   4.677  37.831  1.00  0.00     0.031 C 
ATOM     22  C   UNL     1      17.436   5.159  34.969  1.00  0.00    -0.008 C 
ATOM     23  C   UNL     1      17.748   4.006  37.200  1.00  0.00    -0.027 C 
ATOM     24  C   UNL     1      18.135   4.181  35.915  1.00  0.00    -0.065 C 
ATOM     25  C   UNL     1      18.382   6.395  34.810  1.00  0.00     0.014 C 
ATOM     26  C   UNL     1      17.248   4.512  33.564  1.00  0.00     0.016 C 
ATOM     27  C   UNL     1      19.519   3.722  35.513  1.00  0.00     0.063 C 
ATOM     28  C   UNL     1      19.842   6.025  34.451  1.00  0.00     0.033 C 
ATOM     29  C   UNL     1      20.429   4.959  35.403  1.00  0.00     0.118 C 
BRANCH  29  30
ATOM     30  O   UNL     1      21.721   4.587  34.993  1.00  0.00    -0.393 OA
ATOM     31  H   UNL     1      22.219   4.295  35.801  1.00  0.00     0.210 HD
ENDBRANCH  29  30
ENDBRANCH   9  11
ENDBRANCH   1   9
TORSDOF 7
ENDMDL
MODEL 8
REMARK VINA RESULT:    -5.036     12.085     13.736
REMARK INTER + INTRA:          -8.759
REMARK INTER:                  -6.704
REMARK INTRA:                  -2.055
REMARK UNBOUND:                -1.809
REMARK SMILES CC[C@@H](CC[C@H](C)[C@H]1CC[C@H]2[C@H]3CC=C4C[C@@H](O)CC[C@]4(C)[C@H]3CC[C@@]12C)C(C)C
REMARK SMILES IDX 5 1 4 2 3 3 2 4 1 5 28 6 29 7 30 8 6 9 7 10 8 11 9 12 26 13
REMARK SMILES IDX 10 14 11 15 25 16 27 17 12 18 24 19 23 20 13 21 21 22 14 23
REMARK SMILES IDX 15 24 20 25 22 26 16 27 19 28 17 29 18 30
REMARK H PARENT 18 31
REMARK Flexibility Score: inf
ROOT
ATOM      1  C   UNL     1      15.241   5.568  23.992  1.00  0.00     0.004 C 
ENDROOT
BRANCH   1   2
ATOM      2  C   UNL     1      15.046   7.095  23.872  1.00  0.00     0.004 C 
BRANCH   2   3
ATOM      3  C   UNL     1      14.897   7.599  22.406  1.00  0.00    -0.009 C 
BRANCH   3   4
ATOM      4  C   UNL     1      16.268   7.676  21.669  1.00  0.00     0.000 C 
ATOM      5  C   UNL     1      17.187   8.799  22.159  1.00  0.00     0.004 C 
ENDBRANCH   3   4
BRANCH   3   6
ATOM      6  C   UNL     1      14.089   8.945  22.344  1.00  0.00    -0.014 C 
ATOM      7  C   UNL     1      13.520   9.339  23.722  1.00  0.00     0.007 C 
ATOM      8  C   UNL     1      12.929   8.886  21.333  1.00  0.00     0.007 C 
ENDBRANCH   3   6
ENDBRANCH   2   3
ENDBRANCH   1   2
BRANCH   1   9
ATOM      9  C   UNL     1      13.919   4.787  24.220  1.00  0.00    -0.011 C 
ATOM     10  C   UNL     1      13.892   3.519  23.339  1.00  0.00     0.008 C 
BRANCH   9  11
ATOM     11  C   UNL     1      12.685   5.746  24.012  1.00  0.00    -0.002 C 
ATOM     12  C   UNL     1      11.853   5.516  22.756  1.00  0.00     0.005 C 
ATOM     13  C   UNL     1      11.646   5.876  25.171  1.00  0.00    -0.026 C 
ATOM     14  C   UNL     1      10.655   6.430  22.940  1.00  0.00     0.005 C 
ATOM     15  C   UNL     1      10.383   6.478  24.460  1.00  0.00    -0.001 C 
ATOM     16  C   UNL     1      11.314   4.514  25.836  1.00  0.00     0.007 C 
ATOM     17  C   UNL     1      12.212   6.840  26.249  1.00  0.00     0.012 C 
ATOM     18  C   UNL     1       8.994   5.898  24.908  1.00  0.00     0.000 C 
ATOM     19  C   UNL     1      10.083   4.542  26.767  1.00  0.00     0.005 C 
ATOM     20  C   UNL     1       9.004   5.618  26.427  1.00  0.00     0.003 C 
ATOM     21  C   UNL     1       8.473   4.654  24.145  1.00  0.00     0.031 C 
ATOM     22  C   UNL     1       7.565   5.265  26.973  1.00  0.00    -0.008 C 
ATOM     23  C   UNL     1       7.230   4.072  24.767  1.00  0.00    -0.027 C 
ATOM     24  C   UNL     1       6.828   4.304  26.038  1.00  0.00    -0.065 C 
ATOM     25  C   UNL     1       6.690   6.558  27.079  1.00  0.00     0.014 C 
ATOM     26  C   UNL     1       7.685   4.647  28.398  1.00  0.00     0.016 C 
ATOM     27  C   UNL     1       5.411   3.939  26.422  1.00  0.00     0.063 C 
ATOM     28  C   UNL     1       5.204   6.285  27.416  1.00  0.00     0.033 C 
ATOM     29  C   UNL     1       4.574   5.230  26.480  1.00  0.00     0.118 C 
BRANCH  29  30
ATOM     30  O   UNL     1       3.254   4.945  26.871  1.00  0.00    -0.393 OA
ATOM     31  H   UNL     1       3.155   5.223  27.819  1.00  0.00     0.210 HD
ENDBRANCH  29  30
ENDBRANCH   9  11
ENDBRANCH   1   9
TORSDOF 7
ENDMDL
MODEL 9
REMARK VINA RESULT:    -4.975     12.103     14.050
REMARK INTER + INTRA:          -8.675
REMARK INTER:                  -6.667
REMARK INTRA:                  -2.008
REMARK UNBOUND:                -1.809
REMARK SMILES CC[C@@H](CC[C@H](C)[C@H]1CC[C@H]2[C@H]3CC=C4C[C@@H](O)CC[C@]4(C)[C@H]3CC[C@@]12C)C(C)C
REMARK SMILES IDX 5 1 4 2 3 3 2 4 1 5 28 6 29 7 30 8 6 9 7 10 8 11 9 12 26 13
REMARK SMILES IDX 10 14 11 15 25 16 27 17 12 18 24 19 23 20 13 21 21 22 14 23
REMARK SMILES IDX 15 24 20 25 22 26 16 27 19 28 17 29 18 30
REMARK H PARENT 18 31
REMARK Flexibility Score: inf
ROOT
ATOM      1  C   UNL     1      14.964   6.841  21.747  1.00  0.00     0.004 C 
ENDROOT
BRANCH   1   2
ATOM      2  C   UNL     1      14.548   8.316  21.563  1.00  0.00     0.004 C 
BRANCH   2   3
ATOM      3  C   UNL     1      14.507   9.131  22.889  1.00  0.00    -0.009 C 
BRANCH   3   4
ATOM      4  C   UNL     1      13.073   9.648  23.217  1.00  0.00     0.000 C 
ATOM      5  C   UNL     1      12.112   9.646  22.024  1.00  0.00     0.004 C 
ENDBRANCH   3   4
BRANCH   3   6
ATOM      6  C   UNL     1      15.586  10.272  22.894  1.00  0.00    -0.014 C 
ATOM      7  C   UNL     1      15.546  11.108  21.599  1.00  0.00     0.007 C 
ATOM      8  C   UNL     1      17.014   9.726  23.081  1.00  0.00     0.007 C 
ENDBRANCH   3   6
ENDBRANCH   2   3
ENDBRANCH   1   2
BRANCH   1   9
ATOM      9  C   UNL     1      14.667   6.282  23.165  1.00  0.00    -0.011 C 
ATOM     10  C   UNL     1      15.980   5.846  23.850  1.00  0.00     0.008 C 
BRANCH   9  11
ATOM     11  C   UNL     1      13.574   5.148  23.079  1.00  0.00    -0.002 C 
ATOM     12  C   UNL     1      13.827   3.899  23.916  1.00  0.00     0.005 C 
ATOM     13  C   UNL     1      12.087   5.533  23.359  1.00  0.00    -0.026 C 
ATOM     14  C   UNL     1      12.538   3.108  23.787  1.00  0.00     0.005 C 
ATOM     15  C   UNL     1      11.406   4.151  23.660  1.00  0.00    -0.001 C 
ATOM     16  C   UNL     1      11.932   6.503  24.559  1.00  0.00     0.007 C 
ATOM     17  C   UNL     1      11.492   6.200  22.090  1.00  0.00     0.012 C 
ATOM     18  C   UNL     1      10.354   4.137  24.826  1.00  0.00     0.000 C 
ATOM     19  C   UNL     1      10.482   6.668  25.064  1.00  0.00     0.005 C 
ATOM     20  C   UNL     1       9.539   5.450  24.817  1.00  0.00     0.003 C 
ATOM     21  C   UNL     1      10.889   3.858  26.253  1.00  0.00     0.031 C 
ATOM     22  C   UNL     1       8.310   5.390  25.808  1.00  0.00    -0.008 C 
ATOM     23  C   UNL     1       9.836   4.046  27.314  1.00  0.00    -0.027 C 
ATOM     24  C   UNL     1       8.696   4.756  27.145  1.00  0.00    -0.065 C 
ATOM     25  C   UNL     1       7.163   4.514  25.202  1.00  0.00     0.014 C 
ATOM     26  C   UNL     1       7.751   6.827  26.032  1.00  0.00     0.016 C 
ATOM     27  C   UNL     1       7.587   4.585  28.159  1.00  0.00     0.063 C 
ATOM     28  C   UNL     1       6.000   4.236  26.184  1.00  0.00     0.033 C 
ATOM     29  C   UNL     1       6.496   3.690  27.542  1.00  0.00     0.118 C 
BRANCH  29  30
ATOM     30  O   UNL     1       5.423   3.532  28.435  1.00  0.00    -0.393 OA
ATOM     31  H   UNL     1       5.517   2.641  28.863  1.00  0.00     0.210 HD
ENDBRANCH  29  30
ENDBRANCH   9  11
ENDBRANCH   1   9
TORSDOF 7
ENDMDL
