MODEL 1
REMARK VINA RESULT:    -5.346      0.000      0.000
REMARK INTER + INTRA:          -7.609
REMARK INTER:                  -7.377
REMARK INTRA:                  -0.232
REMARK UNBOUND:                -0.232
REMARK SMILES CC[C@@H](CC[C@@H](C)[C@H]1CC[C@H]2[C@H]3CC=C4C[C@H](O)CC[C@]4(C)[C@@H]3CC[C@@]12C)C(C)C
REMARK SMILES IDX 5 1 4 2 3 3 2 4 1 5 28 6 29 7 30 8 6 9 7 10 8 11 9 12 26 13
REMARK SMILES IDX 10 14 11 15 25 16 27 17 12 18 24 19 23 20 13 21 21 22 14 23
REMARK SMILES IDX 15 24 20 25 22 26 16 27 19 28 17 29 18 30
REMARK H PARENT 18 31
REMARK Flexibility Score: inf
ROOT
ATOM      1  C   UNL     1      33.309  10.711 105.802  1.00  0.00     0.004 C 
ENDROOT
BRANCH   1   2
ATOM      2  C   UNL     1      32.489   9.552 105.184  1.00  0.00     0.004 C 
BRANCH   2   3
ATOM      3  C   UNL     1      31.748   8.727 106.276  1.00  0.00    -0.009 C 
BRANCH   3   4
ATOM      4  C   UNL     1      32.694   8.132 107.367  1.00  0.00     0.000 C 
ATOM      5  C   UNL     1      32.140   8.078 108.796  1.00  0.00     0.004 C 
ENDBRANCH   3   4
BRANCH   3   6
ATOM      6  C   UNL     1      30.737   7.677 105.704  1.00  0.00    -0.014 C 
ATOM      7  C   UNL     1      31.016   6.227 106.133  1.00  0.00     0.007 C 
ATOM      8  C   UNL     1      30.634   7.761 104.168  1.00  0.00     0.007 C 
ENDBRANCH   3   6
ENDBRANCH   2   3
ENDBRANCH   1   2
BRANCH   1   9
ATOM      9  C   UNL     1      33.649  11.898 104.852  1.00  0.00    -0.011 C 
ATOM     10  C   UNL     1      33.467  13.250 105.566  1.00  0.00     0.008 C 
BRANCH   9  11
ATOM     11  C   UNL     1      35.028  11.855 104.089  1.00  0.00    -0.002 C 
ATOM     12  C   UNL     1      35.506  13.145 103.422  1.00  0.00     0.005 C 
ATOM     13  C   UNL     1      36.271  11.324 104.860  1.00  0.00    -0.026 C 
ATOM     14  C   UNL     1      37.004  12.955 103.174  1.00  0.00     0.005 C 
ATOM     15  C   UNL     1      37.402  11.624 103.846  1.00  0.00    -0.001 C 
ATOM     16  C   UNL     1      36.503  12.100 106.191  1.00  0.00     0.007 C 
ATOM     17  C   UNL     1      36.157   9.800 105.122  1.00  0.00     0.012 C 
ATOM     18  C   UNL     1      38.840  11.567 104.444  1.00  0.00     0.000 C 
ATOM     19  C   UNL     1      37.917  11.925 106.760  1.00  0.00     0.005 C 
ATOM     20  C   UNL     1      38.993  12.382 105.743  1.00  0.00     0.003 C 
ATOM     21  C   UNL     1      39.873  12.048 103.417  1.00  0.00     0.031 C 
ATOM     22  C   UNL     1      40.495  12.405 106.298  1.00  0.00    -0.008 C 
ATOM     23  C   UNL     1      41.253  11.837 103.942  1.00  0.00    -0.027 C 
ATOM     24  C   UNL     1      41.544  11.954 105.254  1.00  0.00    -0.065 C 
ATOM     25  C   UNL     1      40.674  11.484 107.551  1.00  0.00     0.014 C 
ATOM     26  C   UNL     1      40.817  13.871 106.692  1.00  0.00     0.016 C 
ATOM     27  C   UNL     1      42.980  11.746 105.694  1.00  0.00     0.063 C 
ATOM     28  C   UNL     1      42.128  11.389 108.051  1.00  0.00     0.033 C 
ATOM     29  C   UNL     1      43.067  10.867 106.952  1.00  0.00     0.118 C 
BRANCH  29  30
ATOM     30  O   UNL     1      42.736   9.529 106.659  1.00  0.00    -0.393 OA
ATOM     31  H   UNL     1      41.975   9.551 106.024  1.00  0.00     0.210 HD
ENDBRANCH  29  30
ENDBRANCH   9  11
ENDBRANCH   1   9
TORSDOF 7
ENDMDL
MODEL 2
REMARK VINA RESULT:    -5.260      2.548      8.593
REMARK INTER + INTRA:          -7.490
REMARK INTER:                  -7.085
REMARK INTRA:                  -0.405
REMARK UNBOUND:                -0.232
REMARK SMILES CC[C@@H](CC[C@@H](C)[C@H]1CC[C@H]2[C@H]3CC=C4C[C@H](O)CC[C@]4(C)[C@@H]3CC[C@@]12C)C(C)C
REMARK SMILES IDX 5 1 4 2 3 3 2 4 1 5 28 6 29 7 30 8 6 9 7 10 8 11 9 12 26 13
REMARK SMILES IDX 10 14 11 15 25 16 27 17 12 18 24 19 23 20 13 21 21 22 14 23
REMARK SMILES IDX 15 24 20 25 22 26 16 27 19 28 17 29 18 30
REMARK H PARENT 18 31
REMARK Flexibility Score: inf
ROOT
ATOM      1  C   UNL     1      37.913  13.052 104.541  1.00  0.00     0.004 C 
ENDROOT
BRANCH   1   2
ATOM      2  C   UNL     1      39.354  13.230 105.081  1.00  0.00     0.004 C 
BRANCH   2   3
ATOM      3  C   UNL     1      40.051  11.859 105.320  1.00  0.00    -0.009 C 
BRANCH   3   4
ATOM      4  C   UNL     1      40.387  11.574 106.818  1.00  0.00     0.000 C 
ATOM      5  C   UNL     1      41.689  10.812 107.094  1.00  0.00     0.004 C 
ENDBRANCH   3   4
BRANCH   3   6
ATOM      6  C   UNL     1      41.257  11.583 104.360  1.00  0.00    -0.014 C 
ATOM      7  C   UNL     1      42.100  12.825 104.025  1.00  0.00     0.007 C 
ATOM      8  C   UNL     1      40.806  10.887 103.061  1.00  0.00     0.007 C 
ENDBRANCH   3   6
ENDBRANCH   2   3
ENDBRANCH   1   2
BRANCH   1   9
ATOM      9  C   UNL     1      36.768  13.126 105.594  1.00  0.00    -0.011 C 
ATOM     10  C   UNL     1      35.421  13.464 104.927  1.00  0.00     0.008 C 
BRANCH   9  11
ATOM     11  C   UNL     1      36.606  11.913 106.588  1.00  0.00    -0.002 C 
ATOM     12  C   UNL     1      36.084  12.217 107.993  1.00  0.00     0.005 C 
ATOM     13  C   UNL     1      35.771  10.689 106.113  1.00  0.00    -0.026 C 
ATOM     14  C   UNL     1      35.604  10.878 108.557  1.00  0.00     0.005 C 
ATOM     15  C   UNL     1      35.706   9.849 107.412  1.00  0.00    -0.001 C 
ATOM     16  C   UNL     1      34.341  11.104 105.652  1.00  0.00     0.007 C 
ATOM     17  C   UNL     1      36.508   9.911 104.992  1.00  0.00     0.012 C 
ATOM     18  C   UNL     1      34.623   8.728 107.405  1.00  0.00     0.000 C 
ATOM     19  C   UNL     1      33.356   9.930 105.591  1.00  0.00     0.005 C 
ATOM     20  C   UNL     1      33.232   9.227 106.966  1.00  0.00     0.003 C 
ATOM     21  C   UNL     1      34.514   8.073 108.789  1.00  0.00     0.031 C 
ATOM     22  C   UNL     1      32.101   8.097 107.060  1.00  0.00    -0.008 C 
ATOM     23  C   UNL     1      33.596   6.900 108.728  1.00  0.00    -0.027 C 
ATOM     24  C   UNL     1      32.517   6.878 107.916  1.00  0.00    -0.065 C 
ATOM     25  C   UNL     1      31.699   7.548 105.650  1.00  0.00     0.014 C 
ATOM     26  C   UNL     1      30.859   8.745 107.727  1.00  0.00     0.016 C 
ATOM     27  C   UNL     1      31.624   5.653 107.939  1.00  0.00     0.063 C 
ATOM     28  C   UNL     1      30.694   6.381 105.700  1.00  0.00     0.033 C 
ATOM     29  C   UNL     1      31.242   5.203 106.519  1.00  0.00     0.118 C 
BRANCH  29  30
ATOM     30  O   UNL     1      32.350   4.648 105.849  1.00  0.00    -0.393 OA
ATOM     31  H   UNL     1      32.654   5.320 105.186  1.00  0.00     0.210 HD
ENDBRANCH  29  30
ENDBRANCH   9  11
ENDBRANCH   1   9
TORSDOF 7
ENDMDL
MODEL 3
REMARK VINA RESULT:    -4.145      1.918      4.030
REMARK INTER + INTRA:          -5.952
REMARK INTER:                  -5.501
REMARK INTRA:                  -0.451
REMARK UNBOUND:                -0.232
REMARK SMILES CC[C@@H](CC[C@@H](C)[C@H]1CC[C@H]2[C@H]3CC=C4C[C@H](O)CC[C@]4(C)[C@@H]3CC[C@@]12C)C(C)C
REMARK SMILES IDX 5 1 4 2 3 3 2 4 1 5 28 6 29 7 30 8 6 9 7 10 8 11 9 12 26 13
REMARK SMILES IDX 10 14 11 15 25 16 27 17 12 18 24 19 23 20 13 21 21 22 14 23
REMARK SMILES IDX 15 24 20 25 22 26 16 27 19 28 17 29 18 30
REMARK H PARENT 18 31
REMARK Flexibility Score: inf
ROOT
ATOM      1  C   UNL     1      31.403   7.372 108.460  1.00  0.00     0.004 C 
ENDROOT
BRANCH   1   2
ATOM      2  C   UNL     1      31.516   5.831 108.344  1.00  0.00     0.004 C 
BRANCH   2   3
ATOM      3  C   UNL     1      32.059   5.399 106.951  1.00  0.00    -0.009 C 
BRANCH   3   4
ATOM      4  C   UNL     1      30.987   5.438 105.816  1.00  0.00     0.000 C 
ATOM      5  C   UNL     1      30.650   6.819 105.241  1.00  0.00     0.004 C 
ENDBRANCH   3   4
BRANCH   3   6
ATOM      6  C   UNL     1      32.877   4.064 106.973  1.00  0.00    -0.014 C 
ATOM      7  C   UNL     1      34.056   4.058 107.960  1.00  0.00     0.007 C 
ATOM      8  C   UNL     1      33.367   3.671 105.565  1.00  0.00     0.007 C 
ENDBRANCH   3   6
ENDBRANCH   2   3
ENDBRANCH   1   2
BRANCH   1   9
ATOM      9  C   UNL     1      32.744   8.163 108.485  1.00  0.00    -0.011 C 
ATOM     10  C   UNL     1      33.828   7.395 109.264  1.00  0.00     0.008 C 
BRANCH   9  11
ATOM     11  C   UNL     1      33.313   8.684 107.110  1.00  0.00    -0.002 C 
ATOM     12  C   UNL     1      32.545   9.802 106.406  1.00  0.00     0.005 C 
ATOM     13  C   UNL     1      34.802   9.137 107.063  1.00  0.00    -0.026 C 
ATOM     14  C   UNL     1      33.520  10.404 105.392  1.00  0.00     0.005 C 
ATOM     15  C   UNL     1      34.888   9.732 105.637  1.00  0.00    -0.001 C 
ATOM     16  C   UNL     1      35.110  10.225 108.135  1.00  0.00     0.007 C 
ATOM     17  C   UNL     1      35.759   7.927 107.213  1.00  0.00     0.012 C 
ATOM     18  C   UNL     1      36.140  10.625 105.382  1.00  0.00     0.000 C 
ATOM     19  C   UNL     1      36.404  11.003 107.858  1.00  0.00     0.005 C 
ATOM     20  C   UNL     1      36.359  11.693 106.471  1.00  0.00     0.003 C 
ATOM     21  C   UNL     1      36.047  11.308 104.011  1.00  0.00     0.031 C 
ATOM     22  C   UNL     1      37.584  12.674 106.153  1.00  0.00    -0.008 C 
ATOM     23  C   UNL     1      37.319  12.027 103.712  1.00  0.00    -0.027 C 
ATOM     24  C   UNL     1      38.051  12.618 104.679  1.00  0.00    -0.065 C 
ATOM     25  C   UNL     1      38.835  12.359 107.040  1.00  0.00     0.014 C 
ATOM     26  C   UNL     1      37.103  14.120 106.444  1.00  0.00     0.016 C 
ATOM     27  C   UNL     1      39.318  13.348 104.279  1.00  0.00     0.063 C 
ATOM     28  C   UNL     1      40.074  13.206 106.690  1.00  0.00     0.033 C 
ATOM     29  C   UNL     1      40.486  13.018 105.222  1.00  0.00     0.118 C 
BRANCH  29  30
ATOM     30  O   UNL     1      40.932  11.695 105.032  1.00  0.00    -0.393 OA
ATOM     31  H   UNL     1      40.148  11.164 104.737  1.00  0.00     0.210 HD
ENDBRANCH  29  30
ENDBRANCH   9  11
ENDBRANCH   1   9
TORSDOF 7
ENDMDL
MODEL 4
REMARK VINA RESULT:    -3.775      1.381      2.673
REMARK INTER + INTRA:          -5.441
REMARK INTER:                  -6.132
REMARK INTRA:                   0.692
REMARK UNBOUND:                -0.232
REMARK SMILES CC[C@@H](CC[C@@H](C)[C@H]1CC[C@H]2[C@H]3CC=C4C[C@H](O)CC[C@]4(C)[C@@H]3CC[C@@]12C)C(C)C
REMARK SMILES IDX 5 1 4 2 3 3 2 4 1 5 28 6 29 7 30 8 6 9 7 10 8 11 9 12 26 13
REMARK SMILES IDX 10 14 11 15 25 16 27 17 12 18 24 19 23 20 13 21 21 22 14 23
REMARK SMILES IDX 15 24 20 25 22 26 16 27 19 28 17 29 18 30
REMARK H PARENT 18 31
REMARK Flexibility Score: inf
ROOT
ATOM      1  C   UNL     1      31.813   8.835 106.263  1.00  0.00     0.004 C 
ENDROOT
BRANCH   1   2
ATOM      2  C   UNL     1      31.389   7.612 107.113  1.00  0.00     0.004 C 
BRANCH   2   3
ATOM      3  C   UNL     1      31.667   6.272 106.371  1.00  0.00    -0.009 C 
BRANCH   3   4
ATOM      4  C   UNL     1      30.647   5.960 105.230  1.00  0.00     0.000 C 
ATOM      5  C   UNL     1      30.339   7.103 104.256  1.00  0.00     0.004 C 
ENDBRANCH   3   4
BRANCH   3   6
ATOM      6  C   UNL     1      31.910   5.055 107.325  1.00  0.00    -0.014 C 
ATOM      7  C   UNL     1      31.846   5.398 108.822  1.00  0.00     0.007 C 
ATOM      8  C   UNL     1      33.235   4.334 107.005  1.00  0.00     0.007 C 
ENDBRANCH   3   6
ENDBRANCH   2   3
ENDBRANCH   1   2
BRANCH   1   9
ATOM      9  C   UNL     1      33.070   9.613 106.752  1.00  0.00    -0.011 C 
ATOM     10  C   UNL     1      33.948   8.734 107.662  1.00  0.00     0.008 C 
BRANCH   9  11
ATOM     11  C   UNL     1      33.951  10.341 105.666  1.00  0.00    -0.002 C 
ATOM     12  C   UNL     1      33.657  11.815 105.391  1.00  0.00     0.005 C 
ATOM     13  C   UNL     1      35.499  10.268 105.816  1.00  0.00    -0.026 C 
ATOM     14  C   UNL     1      34.897  12.362 104.680  1.00  0.00     0.005 C 
ATOM     15  C   UNL     1      35.953  11.237 104.698  1.00  0.00    -0.001 C 
ATOM     16  C   UNL     1      35.971  10.775 107.211  1.00  0.00     0.007 C 
ATOM     17  C   UNL     1      36.019   8.833 105.545  1.00  0.00     0.012 C 
ATOM     18  C   UNL     1      37.438  11.700 104.804  1.00  0.00     0.000 C 
ATOM     19  C   UNL     1      37.463  11.130 107.257  1.00  0.00     0.005 C 
ATOM     20  C   UNL     1      37.817  12.213 106.207  1.00  0.00     0.003 C 
ATOM     21  C   UNL     1      37.742  12.787 103.766  1.00  0.00     0.031 C 
ATOM     22  C   UNL     1      39.311  12.783 106.286  1.00  0.00    -0.008 C 
ATOM     23  C   UNL     1      39.199  13.104 103.769  1.00  0.00    -0.027 C 
ATOM     24  C   UNL     1      39.936  13.066 104.899  1.00  0.00    -0.065 C 
ATOM     25  C   UNL     1      40.277  11.800 107.029  1.00  0.00     0.014 C 
ATOM     26  C   UNL     1      39.252  14.124 107.063  1.00  0.00     0.016 C 
ATOM     27  C   UNL     1      41.405  13.428 104.812  1.00  0.00     0.063 C 
ATOM     28  C   UNL     1      41.749  12.257 107.031  1.00  0.00     0.033 C 
ATOM     29  C   UNL     1      42.281  12.441 105.601  1.00  0.00     0.118 C 
BRANCH  29  30
ATOM     30  O   UNL     1      42.331  11.186 104.961  1.00  0.00    -0.393 OA
ATOM     31  H   UNL     1      43.143  10.724 105.292  1.00  0.00     0.210 HD
ENDBRANCH  29  30
ENDBRANCH   9  11
ENDBRANCH   1   9
TORSDOF 7
ENDMDL
MODEL 5
REMARK VINA RESULT:    -3.180      2.651      8.395
REMARK INTER + INTRA:          -4.620
REMARK INTER:                  -3.638
REMARK INTRA:                  -0.982
REMARK UNBOUND:                -0.232
REMARK SMILES CC[C@@H](CC[C@@H](C)[C@H]1CC[C@H]2[C@H]3CC=C4C[C@H](O)CC[C@]4(C)[C@@H]3CC[C@@]12C)C(C)C
REMARK SMILES IDX 5 1 4 2 3 3 2 4 1 5 28 6 29 7 30 8 6 9 7 10 8 11 9 12 26 13
REMARK SMILES IDX 10 14 11 15 25 16 27 17 12 18 24 19 23 20 13 21 21 22 14 23
REMARK SMILES IDX 15 24 20 25 22 26 16 27 19 28 17 29 18 30
REMARK H PARENT 18 31
REMARK Flexibility Score: inf
ROOT
ATOM      1  C   UNL     1      39.329  12.130 106.881  1.00  0.00     0.004 C 
ENDROOT
BRANCH   1   2
ATOM      2  C   UNL     1      40.846  12.307 106.627  1.00  0.00     0.004 C 
BRANCH   2   3
ATOM      3  C   UNL     1      41.451  11.081 105.882  1.00  0.00    -0.009 C 
BRANCH   3   4
ATOM      4  C   UNL     1      42.639  10.406 106.638  1.00  0.00     0.000 C 
ATOM      5  C   UNL     1      42.626  10.514 108.168  1.00  0.00     0.004 C 
ENDBRANCH   3   4
BRANCH   3   6
ATOM      6  C   UNL     1      41.759  11.345 104.369  1.00  0.00    -0.014 C 
ATOM      7  C   UNL     1      42.371  12.724 104.077  1.00  0.00     0.007 C 
ATOM      8  C   UNL     1      40.516  11.122 103.486  1.00  0.00     0.007 C 
ENDBRANCH   3   6
ENDBRANCH   2   3
ENDBRANCH   1   2
BRANCH   1   9
ATOM      9  C   UNL     1      38.395  13.214 106.266  1.00  0.00    -0.011 C 
ATOM     10  C   UNL     1      39.142  14.062 105.220  1.00  0.00     0.008 C 
BRANCH   9  11
ATOM     11  C   UNL     1      36.998  12.746 105.706  1.00  0.00    -0.002 C 
ATOM     12  C   UNL     1      36.998  11.857 104.462  1.00  0.00     0.005 C 
ATOM     13  C   UNL     1      36.015  12.049 106.690  1.00  0.00    -0.026 C 
ATOM     14  C   UNL     1      35.616  11.202 104.418  1.00  0.00     0.005 C 
ATOM     15  C   UNL     1      34.893  11.598 105.724  1.00  0.00    -0.001 C 
ATOM     16  C   UNL     1      36.669  10.819 107.389  1.00  0.00     0.007 C 
ATOM     17  C   UNL     1      35.468  13.053 107.737  1.00  0.00     0.012 C 
ATOM     18  C   UNL     1      33.920  10.532 106.312  1.00  0.00     0.000 C 
ATOM     19  C   UNL     1      35.648   9.862 108.017  1.00  0.00     0.005 C 
ATOM     20  C   UNL     1      34.645   9.336 106.960  1.00  0.00     0.003 C 
ATOM     21  C   UNL     1      32.960  10.020 105.231  1.00  0.00     0.031 C 
ATOM     22  C   UNL     1      33.644   8.196 107.471  1.00  0.00    -0.008 C 
ATOM     23  C   UNL     1      31.934   9.126 105.840  1.00  0.00    -0.027 C 
ATOM     24  C   UNL     1      32.217   8.321 106.886  1.00  0.00    -0.065 C 
ATOM     25  C   UNL     1      33.499   8.195 109.029  1.00  0.00     0.014 C 
ATOM     26  C   UNL     1      34.227   6.833 107.013  1.00  0.00     0.016 C 
ATOM     27  C   UNL     1      31.118   7.427 107.424  1.00  0.00     0.063 C 
ATOM     28  C   UNL     1      32.460   7.187 109.558  1.00  0.00     0.033 C 
ATOM     29  C   UNL     1      31.069   7.450 108.961  1.00  0.00     0.118 C 
BRANCH  29  30
ATOM     30  O   UNL     1      30.589   8.688 109.433  1.00  0.00    -0.393 OA
ATOM     31  H   UNL     1      30.572   9.307 108.658  1.00  0.00     0.210 HD
ENDBRANCH  29  30
ENDBRANCH   9  11
ENDBRANCH   1   9
TORSDOF 7
ENDMDL
MODEL 6
REMARK VINA RESULT:    -3.071      2.622      8.502
REMARK INTER + INTRA:          -4.470
REMARK INTER:                  -3.583
REMARK INTRA:                  -0.887
REMARK UNBOUND:                -0.232
REMARK SMILES CC[C@@H](CC[C@@H](C)[C@H]1CC[C@H]2[C@H]3CC=C4C[C@H](O)CC[C@]4(C)[C@@H]3CC[C@@]12C)C(C)C
REMARK SMILES IDX 5 1 4 2 3 3 2 4 1 5 28 6 29 7 30 8 6 9 7 10 8 11 9 12 26 13
REMARK SMILES IDX 10 14 11 15 25 16 27 17 12 18 24 19 23 20 13 21 21 22 14 23
REMARK SMILES IDX 15 24 20 25 22 26 16 27 19 28 17 29 18 30
REMARK H PARENT 18 31
REMARK Flexibility Score: inf
ROOT
ATOM      1  C   UNL     1      39.392  12.167 106.682  1.00  0.00     0.004 C 
ENDROOT
BRANCH   1   2
ATOM      2  C   UNL     1      40.889  12.557 106.769  1.00  0.00     0.004 C 
BRANCH   2   3
ATOM      3  C   UNL     1      41.791  11.547 106.000  1.00  0.00    -0.009 C 
BRANCH   3   4
ATOM      4  C   UNL     1      41.082  10.866 104.786  1.00  0.00     0.000 C 
ATOM      5  C   UNL     1      41.196  11.586 103.437  1.00  0.00     0.004 C 
ENDBRANCH   3   4
BRANCH   3   6
ATOM      6  C   UNL     1      42.535  10.526 106.926  1.00  0.00    -0.014 C 
ATOM      7  C   UNL     1      42.304  10.746 108.430  1.00  0.00     0.007 C 
ATOM      8  C   UNL     1      44.046  10.480 106.626  1.00  0.00     0.007 C 
ENDBRANCH   3   6
ENDBRANCH   2   3
ENDBRANCH   1   2
BRANCH   1   9
ATOM      9  C   UNL     1      38.431  13.248 106.106  1.00  0.00    -0.011 C 
ATOM     10  C   UNL     1      39.143  14.125 105.060  1.00  0.00     0.008 C 
BRANCH   9  11
ATOM     11  C   UNL     1      37.029  12.770 105.567  1.00  0.00    -0.002 C 
ATOM     12  C   UNL     1      37.017  11.858 104.340  1.00  0.00     0.005 C 
ATOM     13  C   UNL     1      36.055  12.090 106.573  1.00  0.00    -0.026 C 
ATOM     14  C   UNL     1      35.635  11.202 104.321  1.00  0.00     0.005 C 
ATOM     15  C   UNL     1      34.924  11.622 105.625  1.00  0.00    -0.001 C 
ATOM     16  C   UNL     1      36.716  10.874 107.289  1.00  0.00     0.007 C 
ATOM     17  C   UNL     1      35.517  13.113 107.607  1.00  0.00     0.012 C 
ATOM     18  C   UNL     1      33.957  10.567 106.242  1.00  0.00     0.000 C 
ATOM     19  C   UNL     1      35.701   9.928 107.943  1.00  0.00     0.005 C 
ATOM     20  C   UNL     1      34.688   9.383 106.905  1.00  0.00     0.003 C 
ATOM     21  C   UNL     1      32.987  10.035 105.179  1.00  0.00     0.031 C 
ATOM     22  C   UNL     1      33.692   8.252 107.446  1.00  0.00    -0.008 C 
ATOM     23  C   UNL     1      31.967   9.152 105.814  1.00  0.00    -0.027 C 
ATOM     24  C   UNL     1      32.260   8.366 106.872  1.00  0.00    -0.065 C 
ATOM     25  C   UNL     1      33.561   8.280 109.005  1.00  0.00     0.014 C 
ATOM     26  C   UNL     1      34.272   6.881 107.007  1.00  0.00     0.016 C 
ATOM     27  C   UNL     1      31.166   7.482 107.437  1.00  0.00     0.063 C 
ATOM     28  C   UNL     1      32.528   7.281 109.561  1.00  0.00     0.033 C 
ATOM     29  C   UNL     1      31.132   7.533 108.973  1.00  0.00     0.118 C 
BRANCH  29  30
ATOM     30  O   UNL     1      30.656   8.780 109.427  1.00  0.00    -0.393 OA
ATOM     31  H   UNL     1      30.925   9.456 108.753  1.00  0.00     0.210 HD
ENDBRANCH  29  30
ENDBRANCH   9  11
ENDBRANCH   1   9
TORSDOF 7
ENDMDL
MODEL 7
REMARK VINA RESULT:    -2.572      1.804      3.160
REMARK INTER + INTRA:          -3.781
REMARK INTER:                  -3.827
REMARK INTRA:                   0.046
REMARK UNBOUND:                -0.232
REMARK SMILES CC[C@@H](CC[C@@H](C)[C@H]1CC[C@H]2[C@H]3CC=C4C[C@H](O)CC[C@]4(C)[C@@H]3CC[C@@]12C)C(C)C
REMARK SMILES IDX 5 1 4 2 3 3 2 4 1 5 28 6 29 7 30 8 6 9 7 10 8 11 9 12 26 13
REMARK SMILES IDX 10 14 11 15 25 16 27 17 12 18 24 19 23 20 13 21 21 22 14 23
REMARK SMILES IDX 15 24 20 25 22 26 16 27 19 28 17 29 18 30
REMARK H PARENT 18 31
REMARK Flexibility Score: inf
ROOT
ATOM      1  C   UNL     1      31.615   9.345 106.595  1.00  0.00     0.004 C 
ENDROOT
BRANCH   1   2
ATOM      2  C   UNL     1      31.439   7.845 106.253  1.00  0.00     0.004 C 
BRANCH   2   3
ATOM      3  C   UNL     1      31.445   6.959 107.533  1.00  0.00    -0.009 C 
BRANCH   3   4
ATOM      4  C   UNL     1      32.496   7.400 108.601  1.00  0.00     0.000 C 
ATOM      5  C   UNL     1      33.925   7.634 108.097  1.00  0.00     0.004 C 
ENDBRANCH   3   4
BRANCH   3   6
ATOM      6  C   UNL     1      31.476   5.421 107.242  1.00  0.00    -0.014 C 
ATOM      7  C   UNL     1      32.817   4.741 107.563  1.00  0.00     0.007 C 
ATOM      8  C   UNL     1      31.060   5.105 105.792  1.00  0.00     0.007 C 
ENDBRANCH   3   6
ENDBRANCH   2   3
ENDBRANCH   1   2
BRANCH   1   9
ATOM      9  C   UNL     1      31.041  10.360 105.562  1.00  0.00    -0.011 C 
ATOM     10  C   UNL     1      29.867  11.157 106.160  1.00  0.00     0.008 C 
BRANCH   9  11
ATOM     11  C   UNL     1      32.057  11.325 104.841  1.00  0.00    -0.002 C 
ATOM     12  C   UNL     1      31.868  12.829 105.042  1.00  0.00     0.005 C 
ATOM     13  C   UNL     1      33.578  11.085 105.070  1.00  0.00    -0.026 C 
ATOM     14  C   UNL     1      33.196  13.474 104.641  1.00  0.00     0.005 C 
ATOM     15  C   UNL     1      34.186  12.322 104.366  1.00  0.00    -0.001 C 
ATOM     16  C   UNL     1      33.943  11.077 106.585  1.00  0.00     0.007 C 
ATOM     17  C   UNL     1      34.046   9.776 104.382  1.00  0.00     0.012 C 
ATOM     18  C   UNL     1      35.676  12.605 104.725  1.00  0.00     0.000 C 
ATOM     19  C   UNL     1      35.440  11.277 106.851  1.00  0.00     0.005 C 
ATOM     20  C   UNL     1      35.947  12.609 106.242  1.00  0.00     0.003 C 
ATOM     21  C   UNL     1      36.133  13.941 104.124  1.00  0.00     0.031 C 
ATOM     22  C   UNL     1      37.455  13.001 106.610  1.00  0.00    -0.008 C 
ATOM     23  C   UNL     1      37.597  14.123 104.336  1.00  0.00    -0.027 C 
ATOM     24  C   UNL     1      38.222  13.665 105.441  1.00  0.00    -0.065 C 
ATOM     25  C   UNL     1      38.294  11.759 107.058  1.00  0.00     0.014 C 
ATOM     26  C   UNL     1      37.393  14.022 107.777  1.00  0.00     0.016 C 
ATOM     27  C   UNL     1      39.710  13.917 105.584  1.00  0.00     0.063 C 
ATOM     28  C   UNL     1      39.781  12.071 107.316  1.00  0.00     0.033 C 
ATOM     29  C   UNL     1      40.454  12.661 106.067  1.00  0.00     0.118 C 
BRANCH  29  30
ATOM     30  O   UNL     1      40.499  11.679 105.058  1.00  0.00    -0.393 OA
ATOM     31  H   UNL     1      41.270  11.090 105.260  1.00  0.00     0.210 HD
ENDBRANCH  29  30
ENDBRANCH   9  11
ENDBRANCH   1   9
TORSDOF 7
ENDMDL
