MODEL 1
REMARK VINA RESULT:    -7.440      0.000      0.000
REMARK INTER + INTRA:          -8.393
REMARK INTER:                  -8.745
REMARK INTRA:                   0.352
REMARK UNBOUND:                 0.352
REMARK SMILES Oc1ccc(-c2[o+]c3cc(O)cc(O)c3cc2O)cc1
REMARK SMILES IDX 6 1 7 2 8 3 9 4 10 5 12 6 13 7 15 8 16 9 17 10 5 11 4 12
REMARK SMILES IDX 3 13 2 14 19 15 20 16 1 17 18 19 11 21 14 23
REMARK H PARENT 1 18 18 20 11 22 14 24
REMARK Flexibility Score: inf
ROOT
ATOM      1  C   UNL     1       9.572 -12.861 -23.284  1.00  0.00     0.401 A 
ATOM      2  O   UNL     1       9.778 -11.549 -23.357  1.00  0.00    -0.202 OA
ATOM      3  C   UNL     1       9.444 -10.816 -24.415  1.00  0.00     0.368 A 
ATOM      4  C   UNL     1       9.698  -9.441 -24.397  1.00  0.00     0.162 A 
ATOM      5  C   UNL     1       9.355  -8.647 -25.493  1.00  0.00     0.128 A 
ATOM      6  C   UNL     1       8.754  -9.227 -26.612  1.00  0.00     0.093 A 
ATOM      7  C   UNL     1       8.488 -10.601 -26.655  1.00  0.00     0.136 A 
ATOM      8  C   UNL     1       8.837 -11.413 -25.545  1.00  0.00     0.125 A 
ATOM      9  C   UNL     1       8.622 -12.801 -25.505  1.00  0.00     0.078 A 
ATOM     10  C   UNL     1       8.997 -13.537 -24.376  1.00  0.00     0.223 A 
ENDROOT
BRANCH   1  11
ATOM     11  C   UNL     1       9.980 -13.566 -22.047  1.00  0.00     0.084 A 
ATOM     12  C   UNL     1      10.341 -14.922 -22.111  1.00  0.00     0.022 A 
ATOM     13  C   UNL     1      10.749 -15.601 -20.959  1.00  0.00     0.047 A 
ATOM     14  C   UNL     1      10.817 -14.933 -19.734  1.00  0.00     0.115 A 
ATOM     15  C   UNL     1      10.069 -12.893 -20.814  1.00  0.00     0.022 A 
ATOM     16  C   UNL     1      10.478 -13.575 -19.665  1.00  0.00     0.047 A 
BRANCH  14  17
ATOM     17  O   UNL     1      11.225 -15.622 -18.595  1.00  0.00    -0.508 OA
ATOM     18  H   UNL     1      12.001 -15.299 -18.029  1.00  0.00     0.293 HD
ENDBRANCH  14  17
ENDBRANCH   1  11
BRANCH  10  19
ATOM     19  O   UNL     1       8.828 -14.921 -24.356  1.00  0.00    -0.500 OA
ATOM     20  H   UNL     1       8.445 -15.423 -25.149  1.00  0.00     0.294 HD
ENDBRANCH  10  19
BRANCH   5  21
ATOM     21  O   UNL     1       9.605  -7.276 -25.483  1.00  0.00    -0.507 OA
ATOM     22  H   UNL     1      10.548  -6.910 -25.416  1.00  0.00     0.293 HD
ENDBRANCH   5  21
BRANCH   7  23
ATOM     23  O   UNL     1       7.881 -11.104 -27.809  1.00  0.00    -0.507 OA
ATOM     24  H   UNL     1       6.883 -11.149 -27.956  1.00  0.00     0.293 HD
ENDBRANCH   7  23
TORSDOF 5
ENDMDL
MODEL 2
REMARK VINA RESULT:    -7.055      2.184      6.821
REMARK INTER + INTRA:          -7.941
REMARK INTER:                  -7.649
REMARK INTRA:                  -0.291
REMARK UNBOUND:                 0.352
REMARK SMILES Oc1ccc(-c2[o+]c3cc(O)cc(O)c3cc2O)cc1
REMARK SMILES IDX 6 1 7 2 8 3 9 4 10 5 12 6 13 7 15 8 16 9 17 10 5 11 4 12
REMARK SMILES IDX 3 13 2 14 19 15 20 16 1 17 18 19 11 21 14 23
REMARK H PARENT 1 18 18 20 11 22 14 24
REMARK Flexibility Score: inf
ROOT
ATOM      1  C   UNL     1       9.874 -13.163 -23.472  1.00  0.00     0.401 A 
ATOM      2  O   UNL     1      10.232 -14.096 -24.351  1.00  0.00    -0.202 OA
ATOM      3  C   UNL     1      10.555 -15.338 -24.005  1.00  0.00     0.368 A 
ATOM      4  C   UNL     1      10.916 -16.249 -25.001  1.00  0.00     0.162 A 
ATOM      5  C   UNL     1      11.257 -17.562 -24.666  1.00  0.00     0.128 A 
ATOM      6  C   UNL     1      11.235 -17.967 -23.330  1.00  0.00     0.093 A 
ATOM      7  C   UNL     1      10.877 -17.074 -22.313  1.00  0.00     0.136 A 
ATOM      8  C   UNL     1      10.532 -15.738 -22.648  1.00  0.00     0.125 A 
ATOM      9  C   UNL     1      10.174 -14.771 -21.694  1.00  0.00     0.078 A 
ATOM     10  C   UNL     1       9.852 -13.472 -22.100  1.00  0.00     0.223 A 
ENDROOT
BRANCH   1  11
ATOM     11  C   UNL     1       9.528 -11.817 -23.983  1.00  0.00     0.084 A 
ATOM     12  C   UNL     1       8.230 -11.571 -24.460  1.00  0.00     0.022 A 
ATOM     13  C   UNL     1       7.875 -10.302 -24.927  1.00  0.00     0.047 A 
ATOM     14  C   UNL     1       8.805  -9.259 -24.908  1.00  0.00     0.115 A 
ATOM     15  C   UNL     1      10.454 -10.758 -23.948  1.00  0.00     0.022 A 
ATOM     16  C   UNL     1      10.096  -9.490 -24.414  1.00  0.00     0.047 A 
BRANCH  14  17
ATOM     17  O   UNL     1       8.438  -8.000 -25.376  1.00  0.00    -0.508 OA
ATOM     18  H   UNL     1       7.503  -7.815 -25.722  1.00  0.00     0.293 HD
ENDBRANCH  14  17
ENDBRANCH   1  11
BRANCH  10  19
ATOM     19  O   UNL     1       9.544 -12.499 -21.149  1.00  0.00    -0.500 OA
ATOM     20  H   UNL     1       9.601 -11.510 -21.361  1.00  0.00     0.294 HD
ENDBRANCH  10  19
BRANCH   5  21
ATOM     21  O   UNL     1      11.618 -18.476 -25.654  1.00  0.00    -0.507 OA
ATOM     22  H   UNL     1      11.152 -18.495 -26.554  1.00  0.00     0.293 HD
ENDBRANCH   5  21
BRANCH   7  23
ATOM     23  O   UNL     1      10.877 -17.558 -21.002  1.00  0.00    -0.507 OA
ATOM     24  H   UNL     1      10.239 -18.258 -20.651  1.00  0.00     0.293 HD
ENDBRANCH   7  23
TORSDOF 5
ENDMDL
MODEL 3
REMARK VINA RESULT:    -6.799      4.347      7.308
REMARK INTER + INTRA:          -7.639
REMARK INTER:                  -7.330
REMARK INTRA:                  -0.309
REMARK UNBOUND:                 0.352
REMARK SMILES Oc1ccc(-c2[o+]c3cc(O)cc(O)c3cc2O)cc1
REMARK SMILES IDX 6 1 7 2 8 3 9 4 10 5 12 6 13 7 15 8 16 9 17 10 5 11 4 12
REMARK SMILES IDX 3 13 2 14 19 15 20 16 1 17 18 19 11 21 14 23
REMARK H PARENT 1 18 18 20 11 22 14 24
REMARK Flexibility Score: inf
ROOT
ATOM      1  C   UNL     1      11.197 -16.888 -25.431  1.00  0.00     0.401 A 
ATOM      2  O   UNL     1      10.873 -15.639 -25.105  1.00  0.00    -0.202 OA
ATOM      3  C   UNL     1      10.684 -15.238 -23.852  1.00  0.00     0.368 A 
ATOM      4  C   UNL     1      10.348 -13.903 -23.609  1.00  0.00     0.162 A 
ATOM      5  C   UNL     1      10.148 -13.453 -22.302  1.00  0.00     0.128 A 
ATOM      6  C   UNL     1      10.285 -14.341 -21.232  1.00  0.00     0.093 A 
ATOM      7  C   UNL     1      10.621 -15.683 -21.448  1.00  0.00     0.136 A 
ATOM      8  C   UNL     1      10.824 -16.145 -22.775  1.00  0.00     0.125 A 
ATOM      9  C   UNL     1      11.149 -17.475 -23.088  1.00  0.00     0.078 A 
ATOM     10  C   UNL     1      11.329 -17.858 -24.421  1.00  0.00     0.223 A 
ENDROOT
BRANCH   1  11
ATOM     11  C   UNL     1      11.390 -17.210 -26.864  1.00  0.00     0.084 A 
ATOM     12  C   UNL     1      10.267 -17.386 -27.689  1.00  0.00     0.022 A 
ATOM     13  C   UNL     1      10.425 -17.669 -29.050  1.00  0.00     0.047 A 
ATOM     14  C   UNL     1      11.704 -17.764 -29.604  1.00  0.00     0.115 A 
ATOM     15  C   UNL     1      12.674 -17.288 -27.432  1.00  0.00     0.022 A 
ATOM     16  C   UNL     1      12.830 -17.570 -28.792  1.00  0.00     0.047 A 
BRANCH  14  17
ATOM     17  O   UNL     1      11.847 -18.048 -30.961  1.00  0.00    -0.508 OA
ATOM     18  H   UNL     1      12.177 -17.350 -31.616  1.00  0.00     0.293 HD
ENDBRANCH  14  17
ENDBRANCH   1  11
BRANCH  10  19
ATOM     19  O   UNL     1      11.604 -19.189 -24.735  1.00  0.00    -0.500 OA
ATOM     20  H   UNL     1      12.341 -19.705 -24.270  1.00  0.00     0.294 HD
ENDBRANCH  10  19
BRANCH   5  21
ATOM     21  O   UNL     1       9.812 -12.125 -22.051  1.00  0.00    -0.507 OA
ATOM     22  H   UNL     1       9.751 -11.763 -21.106  1.00  0.00     0.293 HD
ENDBRANCH   5  21
BRANCH   7  23
ATOM     23  O   UNL     1      10.743 -16.505 -20.325  1.00  0.00    -0.507 OA
ATOM     24  H   UNL     1       9.988 -16.718 -19.689  1.00  0.00     0.293 HD
ENDBRANCH   7  23
TORSDOF 5
ENDMDL
MODEL 4
REMARK VINA RESULT:    -6.600      3.880      6.935
REMARK INTER + INTRA:          -7.405
REMARK INTER:                  -7.092
REMARK INTRA:                  -0.313
REMARK UNBOUND:                 0.352
REMARK SMILES Oc1ccc(-c2[o+]c3cc(O)cc(O)c3cc2O)cc1
REMARK SMILES IDX 6 1 7 2 8 3 9 4 10 5 12 6 13 7 15 8 16 9 17 10 5 11 4 12
REMARK SMILES IDX 3 13 2 14 19 15 20 16 1 17 18 19 11 21 14 23
REMARK H PARENT 1 18 18 20 11 22 14 24
REMARK Flexibility Score: inf
ROOT
ATOM      1  C   UNL     1      10.070 -16.714 -24.470  1.00  0.00     0.401 A 
ATOM      2  O   UNL     1      10.450 -16.910 -23.210  1.00  0.00    -0.202 OA
ATOM      3  C   UNL     1      10.406 -15.962 -22.279  1.00  0.00     0.368 A 
ATOM      4  C   UNL     1      10.825 -16.265 -20.981  1.00  0.00     0.162 A 
ATOM      5  C   UNL     1      10.786 -15.289 -19.982  1.00  0.00     0.128 A 
ATOM      6  C   UNL     1      10.325 -14.005 -20.282  1.00  0.00     0.093 A 
ATOM      7  C   UNL     1       9.899 -13.676 -21.574  1.00  0.00     0.136 A 
ATOM      8  C   UNL     1       9.939 -14.664 -22.593  1.00  0.00     0.125 A 
ATOM      9  C   UNL     1       9.546 -14.421 -23.920  1.00  0.00     0.078 A 
ATOM     10  C   UNL     1       9.618 -15.443 -24.871  1.00  0.00     0.223 A 
ENDROOT
BRANCH   1  11
ATOM     11  C   UNL     1      10.158 -17.853 -25.413  1.00  0.00     0.084 A 
ATOM     12  C   UNL     1      11.327 -18.034 -26.171  1.00  0.00     0.022 A 
ATOM     13  C   UNL     1      11.440 -19.115 -27.052  1.00  0.00     0.047 A 
ATOM     14  C   UNL     1      10.396 -20.035 -27.174  1.00  0.00     0.115 A 
ATOM     15  C   UNL     1       9.118 -18.794 -25.526  1.00  0.00     0.022 A 
ATOM     16  C   UNL     1       9.234 -19.874 -26.406  1.00  0.00     0.047 A 
BRANCH  14  17
ATOM     17  O   UNL     1      10.522 -21.106 -28.055  1.00  0.00    -0.508 OA
ATOM     18  H   UNL     1      11.417 -21.548 -28.228  1.00  0.00     0.293 HD
ENDBRANCH  14  17
ENDBRANCH   1  11
BRANCH  10  19
ATOM     19  O   UNL     1       9.275 -15.189 -26.198  1.00  0.00    -0.500 OA
ATOM     20  H   UNL     1       9.932 -15.332 -26.956  1.00  0.00     0.294 HD
ENDBRANCH  10  19
BRANCH   5  21
ATOM     21  O   UNL     1      11.201 -15.583 -18.685  1.00  0.00    -0.507 OA
ATOM     22  H   UNL     1      11.034 -16.492 -18.269  1.00  0.00     0.293 HD
ENDBRANCH   5  21
BRANCH   7  23
ATOM     23  O   UNL     1       9.449 -12.371 -21.791  1.00  0.00    -0.507 OA
ATOM     24  H   UNL     1       8.905 -11.837 -21.129  1.00  0.00     0.293 HD
ENDBRANCH   7  23
TORSDOF 5
ENDMDL
MODEL 5
REMARK VINA RESULT:    -6.360      1.388      6.590
REMARK INTER + INTRA:          -7.124
REMARK INTER:                  -7.323
REMARK INTRA:                   0.200
REMARK UNBOUND:                 0.352
REMARK SMILES Oc1ccc(-c2[o+]c3cc(O)cc(O)c3cc2O)cc1
REMARK SMILES IDX 6 1 7 2 8 3 9 4 10 5 12 6 13 7 15 8 16 9 17 10 5 11 4 12
REMARK SMILES IDX 3 13 2 14 19 15 20 16 1 17 18 19 11 21 14 23
REMARK H PARENT 1 18 18 20 11 22 14 24
REMARK Flexibility Score: inf
ROOT
ATOM      1  C   UNL     1       8.883 -12.203 -24.459  1.00  0.00     0.401 A 
ATOM      2  O   UNL     1       9.361 -12.152 -23.218  1.00  0.00    -0.202 OA
ATOM      3  C   UNL     1       9.626 -13.234 -22.493  1.00  0.00     0.368 A 
ATOM      4  C   UNL     1      10.130 -13.079 -21.199  1.00  0.00     0.162 A 
ATOM      5  C   UNL     1      10.420 -14.199 -20.416  1.00  0.00     0.128 A 
ATOM      6  C   UNL     1      10.208 -15.481 -20.929  1.00  0.00     0.093 A 
ATOM      7  C   UNL     1       9.705 -15.663 -22.223  1.00  0.00     0.136 A 
ATOM      8  C   UNL     1       9.405 -14.529 -23.022  1.00  0.00     0.125 A 
ATOM      9  C   UNL     1       8.885 -14.616 -24.323  1.00  0.00     0.078 A 
ATOM     10  C   UNL     1       8.610 -13.452 -25.048  1.00  0.00     0.223 A 
ENDROOT
BRANCH   1  11
ATOM     11  C   UNL     1       8.637 -10.926 -25.168  1.00  0.00     0.084 A 
ATOM     12  C   UNL     1       8.869 -10.849 -26.551  1.00  0.00     0.022 A 
ATOM     13  C   UNL     1       8.623  -9.659 -27.245  1.00  0.00     0.047 A 
ATOM     14  C   UNL     1       8.128  -8.540 -26.570  1.00  0.00     0.115 A 
ATOM     15  C   UNL     1       8.120  -9.802 -24.497  1.00  0.00     0.022 A 
ATOM     16  C   UNL     1       7.875  -8.615 -25.193  1.00  0.00     0.047 A 
BRANCH  14  17
ATOM     17  O   UNL     1       7.889  -7.362 -27.273  1.00  0.00    -0.508 OA
ATOM     18  H   UNL     1       6.959  -7.114 -27.590  1.00  0.00     0.293 HD
ENDBRANCH  14  17
ENDBRANCH   1  11
BRANCH  10  19
ATOM     19  O   UNL     1       8.048 -13.537 -26.321  1.00  0.00    -0.500 OA
ATOM     20  H   UNL     1       7.376 -12.856 -26.655  1.00  0.00     0.294 HD
ENDBRANCH  10  19
BRANCH   5  21
ATOM     21  O   UNL     1      10.923 -14.052 -19.125  1.00  0.00    -0.507 OA
ATOM     22  H   UNL     1      11.049 -13.138 -18.707  1.00  0.00     0.293 HD
ENDBRANCH   5  21
BRANCH   7  23
ATOM     23  O   UNL     1       9.524 -16.977 -22.664  1.00  0.00    -0.507 OA
ATOM     24  H   UNL     1       9.053 -17.697 -22.134  1.00  0.00     0.293 HD
ENDBRANCH   7  23
TORSDOF 5
ENDMDL
MODEL 6
REMARK VINA RESULT:    -6.230     15.967     18.018
REMARK INTER + INTRA:          -6.970
REMARK INTER:                  -6.671
REMARK INTRA:                  -0.299
REMARK UNBOUND:                 0.352
REMARK SMILES Oc1ccc(-c2[o+]c3cc(O)cc(O)c3cc2O)cc1
REMARK SMILES IDX 6 1 7 2 8 3 9 4 10 5 12 6 13 7 15 8 16 9 17 10 5 11 4 12
REMARK SMILES IDX 3 13 2 14 19 15 20 16 1 17 18 19 11 21 14 23
REMARK H PARENT 1 18 18 20 11 22 14 24
REMARK Flexibility Score: inf
ROOT
ATOM      1  C   UNL     1      24.235  -3.203 -28.287  1.00  0.00     0.401 A 
ATOM      2  O   UNL     1      24.038  -4.497 -28.522  1.00  0.00    -0.202 OA
ATOM      3  C   UNL     1      23.155  -4.953 -29.406  1.00  0.00     0.368 A 
ATOM      4  C   UNL     1      23.022  -6.332 -29.585  1.00  0.00     0.162 A 
ATOM      5  C   UNL     1      22.105  -6.838 -30.509  1.00  0.00     0.128 A 
ATOM      6  C   UNL     1      21.318  -5.961 -31.259  1.00  0.00     0.093 A 
ATOM      7  C   UNL     1      21.432  -4.575 -31.100  1.00  0.00     0.136 A 
ATOM      8  C   UNL     1      22.361  -4.056 -30.160  1.00  0.00     0.125 A 
ATOM      9  C   UNL     1      22.534  -2.682 -29.923  1.00  0.00     0.078 A 
ATOM     10  C   UNL     1      23.467  -2.246 -28.976  1.00  0.00     0.223 A 
ENDROOT
BRANCH   1  11
ATOM     11  C   UNL     1      25.255  -2.821 -27.284  1.00  0.00     0.084 A 
ATOM     12  C   UNL     1      24.965  -2.958 -25.916  1.00  0.00     0.022 A 
ATOM     13  C   UNL     1      25.921  -2.624 -24.952  1.00  0.00     0.047 A 
ATOM     14  C   UNL     1      27.182  -2.164 -25.341  1.00  0.00     0.115 A 
ATOM     15  C   UNL     1      26.533  -2.376 -27.670  1.00  0.00     0.022 A 
ATOM     16  C   UNL     1      27.487  -2.043 -26.704  1.00  0.00     0.047 A 
BRANCH  14  17
ATOM     17  O   UNL     1      28.124  -1.833 -24.370  1.00  0.00    -0.508 OA
ATOM     18  H   UNL     1      28.893  -2.454 -24.145  1.00  0.00     0.293 HD
ENDBRANCH  14  17
ENDBRANCH   1  11
BRANCH  10  19
ATOM     19  O   UNL     1      23.603  -0.885 -28.705  1.00  0.00    -0.500 OA
ATOM     20  H   UNL     1      23.553  -0.521 -27.761  1.00  0.00     0.294 HD
ENDBRANCH  10  19
BRANCH   5  21
ATOM     21  O   UNL     1      21.966  -8.212 -30.694  1.00  0.00    -0.507 OA
ATOM     22  H   UNL     1      22.228  -8.658 -31.565  1.00  0.00     0.293 HD
ENDBRANCH   5  21
BRANCH   7  23
ATOM     23  O   UNL     1      20.612  -3.765 -31.890  1.00  0.00    -0.507 OA
ATOM     24  H   UNL     1      20.057  -2.998 -31.538  1.00  0.00     0.293 HD
ENDBRANCH   7  23
TORSDOF 5
ENDMDL
MODEL 7
REMARK VINA RESULT:    -6.203      3.760      7.451
REMARK INTER + INTRA:          -6.939
REMARK INTER:                  -6.725
REMARK INTRA:                  -0.214
REMARK UNBOUND:                 0.352
REMARK SMILES Oc1ccc(-c2[o+]c3cc(O)cc(O)c3cc2O)cc1
REMARK SMILES IDX 6 1 7 2 8 3 9 4 10 5 12 6 13 7 15 8 16 9 17 10 5 11 4 12
REMARK SMILES IDX 3 13 2 14 19 15 20 16 1 17 18 19 11 21 14 23
REMARK H PARENT 1 18 18 20 11 22 14 24
REMARK Flexibility Score: inf
ROOT
ATOM      1  C   UNL     1       9.919 -15.797 -23.487  1.00  0.00     0.401 A 
ATOM      2  O   UNL     1      10.349 -16.540 -24.503  1.00  0.00    -0.202 OA
ATOM      3  C   UNL     1      10.314 -17.869 -24.500  1.00  0.00     0.368 A 
ATOM      4  C   UNL     1      10.787 -18.563 -25.617  1.00  0.00     0.162 A 
ATOM      5  C   UNL     1      10.758 -19.960 -25.643  1.00  0.00     0.128 A 
ATOM      6  C   UNL     1      10.254 -20.666 -24.549  1.00  0.00     0.093 A 
ATOM      7  C   UNL     1       9.773 -19.994 -23.418  1.00  0.00     0.136 A 
ATOM      8  C   UNL     1       9.802 -18.576 -23.386  1.00  0.00     0.125 A 
ATOM      9  C   UNL     1       9.355 -17.819 -22.290  1.00  0.00     0.078 A 
ATOM     10  C   UNL     1       9.420 -16.422 -22.329  1.00  0.00     0.223 A 
ENDROOT
BRANCH   1  11
ATOM     11  C   UNL     1      10.002 -14.323 -23.613  1.00  0.00     0.084 A 
ATOM     12  C   UNL     1       9.115 -13.652 -24.472  1.00  0.00     0.022 A 
ATOM     13  C   UNL     1       9.162 -12.260 -24.590  1.00  0.00     0.047 A 
ATOM     14  C   UNL     1      10.081 -11.520 -23.842  1.00  0.00     0.115 A 
ATOM     15  C   UNL     1      10.912 -13.572 -22.847  1.00  0.00     0.022 A 
ATOM     16  C   UNL     1      10.955 -12.180 -22.967  1.00  0.00     0.047 A 
BRANCH  14  17
ATOM     17  O   UNL     1      10.116 -10.133 -23.970  1.00  0.00    -0.508 OA
ATOM     18  H   UNL     1      10.537  -9.687 -24.777  1.00  0.00     0.293 HD
ENDBRANCH  14  17
ENDBRANCH   1  11
BRANCH  10  19
ATOM     19  O   UNL     1       9.022 -15.673 -21.223  1.00  0.00    -0.500 OA
ATOM     20  H   UNL     1       8.230 -15.041 -21.263  1.00  0.00     0.294 HD
ENDBRANCH  10  19
BRANCH   5  21
ATOM     21  O   UNL     1      11.228 -20.660 -26.752  1.00  0.00    -0.507 OA
ATOM     22  H   UNL     1      10.641 -21.318 -27.251  1.00  0.00     0.293 HD
ENDBRANCH   5  21
BRANCH   7  23
ATOM     23  O   UNL     1       9.282 -20.773 -22.367  1.00  0.00    -0.507 OA
ATOM     24  H   UNL     1       9.674 -21.658 -22.080  1.00  0.00     0.293 HD
ENDBRANCH   7  23
TORSDOF 5
ENDMDL
MODEL 8
REMARK VINA RESULT:    -6.018      2.475      3.909
REMARK INTER + INTRA:          -6.721
REMARK INTER:                  -6.477
REMARK INTRA:                  -0.243
REMARK UNBOUND:                 0.352
REMARK SMILES Oc1ccc(-c2[o+]c3cc(O)cc(O)c3cc2O)cc1
REMARK SMILES IDX 6 1 7 2 8 3 9 4 10 5 12 6 13 7 15 8 16 9 17 10 5 11 4 12
REMARK SMILES IDX 3 13 2 14 19 15 20 16 1 17 18 19 11 21 14 23
REMARK H PARENT 1 18 18 20 11 22 14 24
REMARK Flexibility Score: inf
ROOT
ATOM      1  C   UNL     1       9.954 -14.919 -23.463  1.00  0.00     0.401 A 
ATOM      2  O   UNL     1       9.322 -14.414 -24.519  1.00  0.00    -0.202 OA
ATOM      3  C   UNL     1       9.293 -13.114 -24.799  1.00  0.00     0.368 A 
ATOM      4  C   UNL     1       8.604 -12.679 -25.934  1.00  0.00     0.162 A 
ATOM      5  C   UNL     1       8.560 -11.320 -26.254  1.00  0.00     0.128 A 
ATOM      6  C   UNL     1       9.208 -10.391 -25.436  1.00  0.00     0.093 A 
ATOM      7  C   UNL     1       9.905 -10.801 -24.294  1.00  0.00     0.136 A 
ATOM      8  C   UNL     1       9.951 -12.181 -23.963  1.00  0.00     0.125 A 
ATOM      9  C   UNL     1      10.614 -12.682 -22.830  1.00  0.00     0.078 A 
ATOM     10  C   UNL     1      10.612 -14.055 -22.567  1.00  0.00     0.223 A 
ENDROOT
BRANCH   1  11
ATOM     11  C   UNL     1       9.923 -16.386 -23.264  1.00  0.00     0.084 A 
ATOM     12  C   UNL     1       8.705 -17.015 -22.956  1.00  0.00     0.022 A 
ATOM     13  C   UNL     1       8.648 -18.402 -22.785  1.00  0.00     0.047 A 
ATOM     14  C   UNL     1       9.801 -19.178 -22.935  1.00  0.00     0.115 A 
ATOM     15  C   UNL     1      11.076 -17.174 -23.432  1.00  0.00     0.022 A 
ATOM     16  C   UNL     1      11.016 -18.560 -23.262  1.00  0.00     0.047 A 
BRANCH  14  17
ATOM     17  O   UNL     1       9.729 -20.558 -22.761  1.00  0.00    -0.508 OA
ATOM     18  H   UNL     1       8.854 -21.020 -22.542  1.00  0.00     0.293 HD
ENDBRANCH  14  17
ENDBRANCH   1  11
BRANCH  10  19
ATOM     19  O   UNL     1      11.228 -14.547 -21.417  1.00  0.00    -0.500 OA
ATOM     20  H   UNL     1      12.195 -14.337 -21.198  1.00  0.00     0.294 HD
ENDBRANCH  10  19
BRANCH   5  21
ATOM     21  O   UNL     1       7.875 -10.878 -27.384  1.00  0.00    -0.507 OA
ATOM     22  H   UNL     1       8.367 -10.550 -28.207  1.00  0.00     0.293 HD
ENDBRANCH   5  21
BRANCH   7  23
ATOM     23  O   UNL     1      10.530  -9.811 -23.531  1.00  0.00    -0.507 OA
ATOM     24  H   UNL     1      10.048  -9.189 -22.897  1.00  0.00     0.293 HD
ENDBRANCH   7  23
TORSDOF 5
ENDMDL
MODEL 9
REMARK VINA RESULT:    -5.984      4.021      6.707
REMARK INTER + INTRA:          -6.682
REMARK INTER:                  -6.778
REMARK INTRA:                   0.097
REMARK UNBOUND:                 0.352
REMARK SMILES Oc1ccc(-c2[o+]c3cc(O)cc(O)c3cc2O)cc1
REMARK SMILES IDX 6 1 7 2 8 3 9 4 10 5 12 6 13 7 15 8 16 9 17 10 5 11 4 12
REMARK SMILES IDX 3 13 2 14 19 15 20 16 1 17 18 19 11 21 14 23
REMARK H PARENT 1 18 18 20 11 22 14 24
REMARK Flexibility Score: inf
ROOT
ATOM      1  C   UNL     1      10.412 -16.582 -22.828  1.00  0.00     0.401 A 
ATOM      2  O   UNL     1      10.979 -16.524 -24.030  1.00  0.00    -0.202 OA
ATOM      3  C   UNL     1      11.004 -17.550 -24.875  1.00  0.00     0.368 A 
ATOM      4  C   UNL     1      11.622 -17.392 -26.119  1.00  0.00     0.162 A 
ATOM      5  C   UNL     1      11.659 -18.452 -27.027  1.00  0.00     0.128 A 
ATOM      6  C   UNL     1      11.076 -19.676 -26.693  1.00  0.00     0.093 A 
ATOM      7  C   UNL     1      10.450 -19.861 -25.454  1.00  0.00     0.136 A 
ATOM      8  C   UNL     1      10.411 -18.787 -24.526  1.00  0.00     0.125 A 
ATOM      9  C   UNL     1       9.818 -18.885 -23.256  1.00  0.00     0.078 A 
ATOM     10  C   UNL     1       9.823 -17.784 -22.394  1.00  0.00     0.223 A 
ENDROOT
BRANCH   1  11
ATOM     11  C   UNL     1      10.441 -15.367 -21.981  1.00  0.00     0.084 A 
ATOM     12  C   UNL     1      10.098 -14.126 -22.542  1.00  0.00     0.022 A 
ATOM     13  C   UNL     1      10.098 -12.969 -21.755  1.00  0.00     0.047 A 
ATOM     14  C   UNL     1      10.424 -13.041 -20.398  1.00  0.00     0.115 A 
ATOM     15  C   UNL     1      10.749 -15.436 -20.610  1.00  0.00     0.022 A 
ATOM     16  C   UNL     1      10.747 -14.279 -19.826  1.00  0.00     0.047 A 
BRANCH  14  17
ATOM     17  O   UNL     1      10.421 -11.881 -19.627  1.00  0.00    -0.508 OA
ATOM     18  H   UNL     1       9.901 -11.823 -18.759  1.00  0.00     0.293 HD
ENDBRANCH  14  17
ENDBRANCH   1  11
BRANCH  10  19
ATOM     19  O   UNL     1       9.279 -17.896 -21.115  1.00  0.00    -0.500 OA
ATOM     20  H   UNL     1       8.805 -17.120 -20.667  1.00  0.00     0.294 HD
ENDBRANCH  10  19
BRANCH   5  21
ATOM     21  O   UNL     1      12.273 -18.303 -28.269  1.00  0.00    -0.507 OA
ATOM     22  H   UNL     1      12.635 -19.099 -28.780  1.00  0.00     0.293 HD
ENDBRANCH   5  21
BRANCH   7  23
ATOM     23  O   UNL     1       9.887 -21.114 -25.197  1.00  0.00    -0.507 OA
ATOM     24  H   UNL     1       9.128 -21.277 -24.551  1.00  0.00     0.293 HD
ENDBRANCH   7  23
TORSDOF 5
ENDMDL
