MODEL 1
REMARK VINA RESULT:    -8.334      0.000      0.000
REMARK INTER + INTRA:         -13.265
REMARK INTER:                 -11.500
REMARK INTRA:                  -1.764
REMARK UNBOUND:                -1.764
REMARK SMILES CC[C@@H](CC[C@H](C)[C@@H]1CC[C@H]2[C@H]3CC=C4C[C@@H](O)CC[C@]4(C)[C@@H]3CC[C@@]21C)C(C)C
REMARK SMILES IDX 5 1 4 2 3 3 2 4 1 5 28 6 29 7 30 8 6 9 7 10 8 11 9 12 26 13
REMARK SMILES IDX 10 14 11 15 25 16 27 17 12 18 24 19 23 20 13 21 21 22 14 23
REMARK SMILES IDX 15 24 20 25 22 26 16 27 19 28 17 29 18 30
REMARK H PARENT 18 31
REMARK Flexibility Score: inf
ROOT
ATOM      1  C   UNL     1     261.970 -26.872  60.326  1.00  0.00     0.004 C 
ENDROOT
BRANCH   1   2
ATOM      2  C   UNL     1     260.885 -27.988  60.208  1.00  0.00     0.004 C 
BRANCH   2   3
ATOM      3  C   UNL     1     259.627 -27.693  59.343  1.00  0.00    -0.009 C 
BRANCH   3   4
ATOM      4  C   UNL     1     258.362 -27.824  60.237  1.00  0.00     0.000 C 
ATOM      5  C   UNL     1     258.476 -27.123  61.592  1.00  0.00     0.004 C 
ENDBRANCH   3   4
BRANCH   3   6
ATOM      6  C   UNL     1     259.616 -28.575  58.042  1.00  0.00    -0.014 C 
ATOM      7  C   UNL     1     259.270 -27.803  56.757  1.00  0.00     0.007 C 
ATOM      8  C   UNL     1     260.914 -29.378  57.861  1.00  0.00     0.007 C 
ENDBRANCH   3   6
ENDBRANCH   2   3
ENDBRANCH   1   2
BRANCH   1   9
ATOM      9  C   UNL     1     263.400 -27.107  59.722  1.00  0.00    -0.011 C 
ATOM     10  C   UNL     1     264.417 -26.776  60.844  1.00  0.00     0.008 C 
BRANCH   9  11
ATOM     11  C   UNL     1     263.772 -26.267  58.438  1.00  0.00    -0.002 C 
ATOM     12  C   UNL     1     262.575 -25.886  57.514  1.00  0.00     0.005 C 
ATOM     13  C   UNL     1     264.813 -26.929  57.445  1.00  0.00    -0.026 C 
ATOM     14  C   UNL     1     262.764 -26.584  56.165  1.00  0.00     0.005 C 
ATOM     15  C   UNL     1     263.875 -27.583  56.418  1.00  0.00    -0.001 C 
ATOM     16  C   UNL     1     265.809 -28.032  57.986  1.00  0.00     0.007 C 
ATOM     17  C   UNL     1     265.641 -25.749  56.840  1.00  0.00     0.012 C 
ATOM     18  C   UNL     1     264.544 -28.292  55.201  1.00  0.00     0.000 C 
ATOM     19  C   UNL     1     266.056 -29.228  57.020  1.00  0.00     0.005 C 
ATOM     20  C   UNL     1     265.966 -28.813  55.533  1.00  0.00     0.003 C 
ATOM     21  C   UNL     1     264.630 -27.503  53.892  1.00  0.00     0.031 C 
ATOM     22  C   UNL     1     266.440 -29.875  54.473  1.00  0.00    -0.008 C 
ATOM     23  C   UNL     1     265.187 -28.394  52.808  1.00  0.00    -0.027 C 
ATOM     24  C   UNL     1     265.982 -29.470  53.055  1.00  0.00    -0.065 C 
ATOM     25  C   UNL     1     265.862 -31.291  54.781  1.00  0.00     0.014 C 
ATOM     26  C   UNL     1     267.993 -29.928  54.497  1.00  0.00     0.016 C 
ATOM     27  C   UNL     1     266.245 -30.454  51.935  1.00  0.00     0.063 C 
ATOM     28  C   UNL     1     266.113 -32.313  53.653  1.00  0.00     0.033 C 
ATOM     29  C   UNL     1     265.612 -31.807  52.290  1.00  0.00     0.118 C 
BRANCH  29  30
ATOM     30  O   UNL     1     265.931 -32.755  51.306  1.00  0.00    -0.393 OA
ATOM     31  H   UNL     1     266.346 -32.258  50.553  1.00  0.00     0.210 HD
ENDBRANCH  29  30
ENDBRANCH   9  11
ENDBRANCH   1   9
TORSDOF 7
ENDMDL
MODEL 2
REMARK VINA RESULT:    -8.188      1.178      2.026
REMARK INTER + INTRA:         -13.064
REMARK INTER:                 -11.529
REMARK INTRA:                  -1.535
REMARK UNBOUND:                -1.764
REMARK SMILES CC[C@@H](CC[C@H](C)[C@@H]1CC[C@H]2[C@H]3CC=C4C[C@@H](O)CC[C@]4(C)[C@@H]3CC[C@@]21C)C(C)C
REMARK SMILES IDX 5 1 4 2 3 3 2 4 1 5 28 6 29 7 30 8 6 9 7 10 8 11 9 12 26 13
REMARK SMILES IDX 10 14 11 15 25 16 27 17 12 18 24 19 23 20 13 21 21 22 14 23
REMARK SMILES IDX 15 24 20 25 22 26 16 27 19 28 17 29 18 30
REMARK H PARENT 18 31
REMARK Flexibility Score: inf
ROOT
ATOM      1  C   UNL     1     261.435 -26.308  59.094  1.00  0.00     0.004 C 
ENDROOT
BRANCH   1   2
ATOM      2  C   UNL     1     260.264 -27.192  58.563  1.00  0.00     0.004 C 
BRANCH   2   3
ATOM      3  C   UNL     1     260.330 -28.723  58.826  1.00  0.00    -0.009 C 
BRANCH   3   4
ATOM      4  C   UNL     1     260.212 -29.470  57.467  1.00  0.00     0.000 C 
ATOM      5  C   UNL     1     259.944 -28.556  56.270  1.00  0.00     0.004 C 
ENDBRANCH   3   4
BRANCH   3   6
ATOM      6  C   UNL     1     259.283 -29.156  59.915  1.00  0.00    -0.014 C 
ATOM      7  C   UNL     1     259.691 -28.811  61.357  1.00  0.00     0.007 C 
ATOM      8  C   UNL     1     257.867 -28.641  59.611  1.00  0.00     0.007 C 
ENDBRANCH   3   6
ENDBRANCH   2   3
ENDBRANCH   1   2
BRANCH   1   9
ATOM      9  C   UNL     1     262.865 -26.931  59.274  1.00  0.00    -0.011 C 
ATOM     10  C   UNL     1     263.176 -26.902  60.792  1.00  0.00     0.008 C 
BRANCH   9  11
ATOM     11  C   UNL     1     264.047 -26.225  58.502  1.00  0.00    -0.002 C 
ATOM     12  C   UNL     1     263.620 -25.302  57.320  1.00  0.00     0.005 C 
ATOM     13  C   UNL     1     265.132 -27.181  57.856  1.00  0.00    -0.026 C 
ATOM     14  C   UNL     1     264.158 -25.903  56.019  1.00  0.00     0.005 C 
ATOM     15  C   UNL     1     264.613 -27.293  56.413  1.00  0.00    -0.001 C 
ATOM     16  C   UNL     1     265.324 -28.641  58.434  1.00  0.00     0.007 C 
ATOM     17  C   UNL     1     266.491 -26.414  57.950  1.00  0.00     0.012 C 
ATOM     18  C   UNL     1     265.479 -28.117  55.413  1.00  0.00     0.000 C 
ATOM     19  C   UNL     1     265.563 -29.747  57.364  1.00  0.00     0.005 C 
ATOM     20  C   UNL     1     266.315 -29.212  56.123  1.00  0.00     0.003 C 
ATOM     21  C   UNL     1     266.421 -27.333  54.494  1.00  0.00     0.031 C 
ATOM     22  C   UNL     1     266.830 -30.285  55.093  1.00  0.00    -0.008 C 
ATOM     23  C   UNL     1     267.074 -28.285  53.520  1.00  0.00    -0.027 C 
ATOM     24  C   UNL     1     267.245 -29.612  53.767  1.00  0.00    -0.065 C 
ATOM     25  C   UNL     1     265.732 -31.347  54.772  1.00  0.00     0.014 C 
ATOM     26  C   UNL     1     268.074 -30.989  55.702  1.00  0.00     0.016 C 
ATOM     27  C   UNL     1     267.641 -30.520  52.623  1.00  0.00     0.063 C 
ATOM     28  C   UNL     1     266.109 -32.284  53.606  1.00  0.00     0.033 C 
ATOM     29  C   UNL     1     266.497 -31.505  52.338  1.00  0.00     0.118 C 
BRANCH  29  30
ATOM     30  O   UNL     1     266.889 -32.415  51.345  1.00  0.00    -0.393 OA
ATOM     31  H   UNL     1     267.146 -33.254  51.810  1.00  0.00     0.210 HD
ENDBRANCH  29  30
ENDBRANCH   9  11
ENDBRANCH   1   9
TORSDOF 7
ENDMDL
MODEL 3
REMARK VINA RESULT:    -8.000     12.094     15.059
REMARK INTER + INTRA:         -12.804
REMARK INTER:                 -10.042
REMARK INTRA:                  -2.762
REMARK UNBOUND:                -1.764
REMARK SMILES CC[C@@H](CC[C@H](C)[C@@H]1CC[C@H]2[C@H]3CC=C4C[C@@H](O)CC[C@]4(C)[C@@H]3CC[C@@]21C)C(C)C
REMARK SMILES IDX 5 1 4 2 3 3 2 4 1 5 28 6 29 7 30 8 6 9 7 10 8 11 9 12 26 13
REMARK SMILES IDX 10 14 11 15 25 16 27 17 12 18 24 19 23 20 13 21 21 22 14 23
REMARK SMILES IDX 15 24 20 25 22 26 16 27 19 28 17 29 18 30
REMARK H PARENT 18 31
REMARK Flexibility Score: inf
ROOT
ATOM      1  C   UNL     1     251.713 -22.684  52.753  1.00  0.00     0.004 C 
ENDROOT
BRANCH   1   2
ATOM      2  C   UNL     1     250.791 -22.187  51.596  1.00  0.00     0.004 C 
BRANCH   2   3
ATOM      3  C   UNL     1     251.207 -20.896  50.836  1.00  0.00    -0.009 C 
BRANCH   3   4
ATOM      4  C   UNL     1     251.316 -21.221  49.319  1.00  0.00     0.000 C 
ATOM      5  C   UNL     1     250.248 -20.550  48.455  1.00  0.00     0.004 C 
ENDBRANCH   3   4
BRANCH   3   6
ATOM      6  C   UNL     1     252.493 -20.254  51.473  1.00  0.00    -0.014 C 
ATOM      7  C   UNL     1     253.655 -20.052  50.486  1.00  0.00     0.007 C 
ATOM      8  C   UNL     1     252.190 -18.951  52.231  1.00  0.00     0.007 C 
ENDBRANCH   3   6
ENDBRANCH   2   3
ENDBRANCH   1   2
BRANCH   1   9
ATOM      9  C   UNL     1     251.879 -24.224  53.013  1.00  0.00    -0.011 C 
ATOM     10  C   UNL     1     252.080 -24.398  54.540  1.00  0.00     0.008 C 
BRANCH   9  11
ATOM     11  C   UNL     1     253.064 -24.945  52.260  1.00  0.00    -0.002 C 
ATOM     12  C   UNL     1     254.421 -24.176  52.251  1.00  0.00     0.005 C 
ATOM     13  C   UNL     1     252.820 -25.287  50.733  1.00  0.00    -0.026 C 
ATOM     14  C   UNL     1     254.755 -23.803  50.805  1.00  0.00     0.005 C 
ATOM     15  C   UNL     1     253.473 -24.078  50.045  1.00  0.00    -0.001 C 
ATOM     16  C   UNL     1     251.339 -25.428  50.197  1.00  0.00     0.007 C 
ATOM     17  C   UNL     1     253.587 -26.623  50.465  1.00  0.00     0.012 C 
ATOM     18  C   UNL     1     253.505 -24.085  48.487  1.00  0.00     0.000 C 
ATOM     19  C   UNL     1     251.089 -24.820  48.785  1.00  0.00     0.005 C 
ATOM     20  C   UNL     1     252.339 -24.904  47.879  1.00  0.00     0.003 C 
ATOM     21  C   UNL     1     254.802 -24.548  47.815  1.00  0.00     0.031 C 
ATOM     22  C   UNL     1     252.134 -24.551  46.358  1.00  0.00    -0.008 C 
ATOM     23  C   UNL     1     254.683 -24.364  46.321  1.00  0.00    -0.027 C 
ATOM     24  C   UNL     1     253.495 -24.343  45.660  1.00  0.00    -0.065 C 
ATOM     25  C   UNL     1     251.296 -23.247  46.180  1.00  0.00     0.014 C 
ATOM     26  C   UNL     1     251.402 -25.739  45.676  1.00  0.00     0.016 C 
ATOM     27  C   UNL     1     253.471 -23.869  44.222  1.00  0.00     0.063 C 
ATOM     28  C   UNL     1     251.258 -22.738  44.724  1.00  0.00     0.033 C 
ATOM     29  C   UNL     1     252.667 -22.563  44.134  1.00  0.00     0.118 C 
BRANCH  29  30
ATOM     30  O   UNL     1     252.554 -22.163  42.793  1.00  0.00    -0.393 OA
ATOM     31  H   UNL     1     251.821 -22.701  42.394  1.00  0.00     0.210 HD
ENDBRANCH  29  30
ENDBRANCH   9  11
ENDBRANCH   1   9
TORSDOF 7
ENDMDL
MODEL 4
REMARK VINA RESULT:    -7.892      1.831      2.831
REMARK INTER + INTRA:         -12.655
REMARK INTER:                 -10.286
REMARK INTRA:                  -2.369
REMARK UNBOUND:                -1.764
REMARK SMILES CC[C@@H](CC[C@H](C)[C@@H]1CC[C@H]2[C@H]3CC=C4C[C@@H](O)CC[C@]4(C)[C@@H]3CC[C@@]21C)C(C)C
REMARK SMILES IDX 5 1 4 2 3 3 2 4 1 5 28 6 29 7 30 8 6 9 7 10 8 11 9 12 26 13
REMARK SMILES IDX 10 14 11 15 25 16 27 17 12 18 24 19 23 20 13 21 21 22 14 23
REMARK SMILES IDX 15 24 20 25 22 26 16 27 19 28 17 29 18 30
REMARK H PARENT 18 31
REMARK Flexibility Score: inf
ROOT
ATOM      1  C   UNL     1     261.691 -26.539  59.761  1.00  0.00     0.004 C 
ENDROOT
BRANCH   1   2
ATOM      2  C   UNL     1     261.171 -26.671  58.295  1.00  0.00     0.004 C 
BRANCH   2   3
ATOM      3  C   UNL     1     261.443 -28.005  57.544  1.00  0.00    -0.009 C 
BRANCH   3   4
ATOM      4  C   UNL     1     261.883 -27.679  56.089  1.00  0.00     0.000 C 
ATOM      5  C   UNL     1     261.545 -26.258  55.634  1.00  0.00     0.004 C 
ENDBRANCH   3   4
BRANCH   3   6
ATOM      6  C   UNL     1     260.219 -28.983  57.665  1.00  0.00    -0.014 C 
ATOM      7  C   UNL     1     259.628 -29.085  59.081  1.00  0.00     0.007 C 
ATOM      8  C   UNL     1     259.117 -28.680  56.636  1.00  0.00     0.007 C 
ENDBRANCH   3   6
ENDBRANCH   2   3
ENDBRANCH   1   2
BRANCH   1   9
ATOM      9  C   UNL     1     263.096 -27.122  60.147  1.00  0.00    -0.011 C 
ATOM     10  C   UNL     1     263.114 -27.257  61.691  1.00  0.00     0.008 C 
BRANCH   9  11
ATOM     11  C   UNL     1     264.358 -26.285  59.698  1.00  0.00    -0.002 C 
ATOM     12  C   UNL     1     264.063 -24.830  59.222  1.00  0.00     0.005 C 
ATOM     13  C   UNL     1     265.219 -26.896  58.518  1.00  0.00    -0.026 C 
ATOM     14  C   UNL     1     264.428 -24.723  57.740  1.00  0.00     0.005 C 
ATOM     15  C   UNL     1     264.632 -26.160  57.304  1.00  0.00    -0.001 C 
ATOM     16  C   UNL     1     265.160 -28.452  58.237  1.00  0.00     0.007 C 
ATOM     17  C   UNL     1     266.700 -26.489  58.813  1.00  0.00     0.012 C 
ATOM     18  C   UNL     1     265.290 -26.443  55.920  1.00  0.00     0.000 C 
ATOM     19  C   UNL     1     265.147 -28.849  56.731  1.00  0.00     0.005 C 
ATOM     20  C   UNL     1     265.935 -27.851  55.853  1.00  0.00     0.003 C 
ATOM     21  C   UNL     1     266.324 -25.431  55.416  1.00  0.00     0.031 C 
ATOM     22  C   UNL     1     266.201 -28.279  54.362  1.00  0.00    -0.008 C 
ATOM     23  C   UNL     1     266.750 -25.806  54.017  1.00  0.00    -0.027 C 
ATOM     24  C   UNL     1     266.681 -27.073  53.526  1.00  0.00    -0.065 C 
ATOM     25  C   UNL     1     264.913 -28.850  53.690  1.00  0.00     0.014 C 
ATOM     26  C   UNL     1     267.316 -29.361  54.356  1.00  0.00     0.016 C 
ATOM     27  C   UNL     1     266.856 -27.287  52.037  1.00  0.00     0.063 C 
ATOM     28  C   UNL     1     265.063 -29.074  52.171  1.00  0.00     0.033 C 
ATOM     29  C   UNL     1     265.539 -27.807  51.442  1.00  0.00     0.118 C 
BRANCH  29  30
ATOM     30  O   UNL     1     265.716 -28.101  50.081  1.00  0.00    -0.393 OA
ATOM     31  H   UNL     1     266.691 -28.054  49.902  1.00  0.00     0.210 HD
ENDBRANCH  29  30
ENDBRANCH   9  11
ENDBRANCH   1   9
TORSDOF 7
ENDMDL
MODEL 5
REMARK VINA RESULT:    -7.798     13.120     15.463
REMARK INTER + INTRA:         -12.525
REMARK INTER:                  -9.994
REMARK INTRA:                  -2.531
REMARK UNBOUND:                -1.764
REMARK SMILES CC[C@@H](CC[C@H](C)[C@@H]1CC[C@H]2[C@H]3CC=C4C[C@@H](O)CC[C@]4(C)[C@@H]3CC[C@@]21C)C(C)C
REMARK SMILES IDX 5 1 4 2 3 3 2 4 1 5 28 6 29 7 30 8 6 9 7 10 8 11 9 12 26 13
REMARK SMILES IDX 10 14 11 15 25 16 27 17 12 18 24 19 23 20 13 21 21 22 14 23
REMARK SMILES IDX 15 24 20 25 22 26 16 27 19 28 17 29 18 30
REMARK H PARENT 18 31
REMARK Flexibility Score: inf
ROOT
ATOM      1  C   UNL     1     250.683 -21.805  52.054  1.00  0.00     0.004 C 
ENDROOT
BRANCH   1   2
ATOM      2  C   UNL     1     250.272 -20.814  50.921  1.00  0.00     0.004 C 
BRANCH   2   3
ATOM      3  C   UNL     1     251.302 -20.533  49.790  1.00  0.00    -0.009 C 
BRANCH   3   4
ATOM      4  C   UNL     1     252.165 -19.304  50.193  1.00  0.00     0.000 C 
ATOM      5  C   UNL     1     253.594 -19.651  50.614  1.00  0.00     0.004 C 
ENDBRANCH   3   4
BRANCH   3   6
ATOM      6  C   UNL     1     250.591 -20.418  48.393  1.00  0.00    -0.014 C 
ATOM      7  C   UNL     1     250.051 -19.015  48.072  1.00  0.00     0.007 C 
ATOM      8  C   UNL     1     251.464 -20.943  47.241  1.00  0.00     0.007 C 
ENDBRANCH   3   6
ENDBRANCH   2   3
ENDBRANCH   1   2
BRANCH   1   9
ATOM      9  C   UNL     1     250.631 -23.353  51.795  1.00  0.00    -0.011 C 
ATOM     10  C   UNL     1     249.922 -23.986  53.019  1.00  0.00     0.008 C 
BRANCH   9  11
ATOM     11  C   UNL     1     252.015 -24.081  51.580  1.00  0.00    -0.002 C 
ATOM     12  C   UNL     1     253.279 -23.180  51.736  1.00  0.00     0.005 C 
ATOM     13  C   UNL     1     252.228 -24.780  50.174  1.00  0.00    -0.026 C 
ATOM     14  C   UNL     1     253.988 -23.102  50.382  1.00  0.00     0.005 C 
ATOM     15  C   UNL     1     252.987 -23.687  49.406  1.00  0.00    -0.001 C 
ATOM     16  C   UNL     1     250.966 -25.208  49.321  1.00  0.00     0.007 C 
ATOM     17  C   UNL     1     253.106 -26.044  50.452  1.00  0.00     0.012 C 
ATOM     18  C   UNL     1     253.456 -24.036  47.961  1.00  0.00     0.000 C 
ATOM     19  C   UNL     1     251.094 -24.963  47.789  1.00  0.00     0.005 C 
ATOM     20  C   UNL     1     252.550 -25.100  47.290  1.00  0.00     0.003 C 
ATOM     21  C   UNL     1     254.910 -24.483  47.786  1.00  0.00     0.031 C 
ATOM     22  C   UNL     1     252.764 -25.120  45.730  1.00  0.00    -0.008 C 
ATOM     23  C   UNL     1     255.208 -24.651  46.315  1.00  0.00    -0.027 C 
ATOM     24  C   UNL     1     254.254 -24.916  45.382  1.00  0.00    -0.065 C 
ATOM     25  C   UNL     1     251.945 -23.995  45.024  1.00  0.00     0.014 C 
ATOM     26  C   UNL     1     252.314 -26.507  45.194  1.00  0.00     0.016 C 
ATOM     27  C   UNL     1     254.611 -24.779  43.918  1.00  0.00     0.063 C 
ATOM     28  C   UNL     1     252.293 -23.830  43.530  1.00  0.00     0.033 C 
ATOM     29  C   UNL     1     253.800 -23.628  43.304  1.00  0.00     0.118 C 
BRANCH  29  30
ATOM     30  O   UNL     1     254.049 -23.553  41.925  1.00  0.00    -0.393 OA
ATOM     31  H   UNL     1     254.532 -22.700  41.767  1.00  0.00     0.210 HD
ENDBRANCH  29  30
ENDBRANCH   9  11
ENDBRANCH   1   9
TORSDOF 7
ENDMDL
MODEL 6
REMARK VINA RESULT:    -7.689      2.797      7.351
REMARK INTER + INTRA:         -12.375
REMARK INTER:                 -10.026
REMARK INTRA:                  -2.349
REMARK UNBOUND:                -1.764
REMARK SMILES CC[C@@H](CC[C@H](C)[C@@H]1CC[C@H]2[C@H]3CC=C4C[C@@H](O)CC[C@]4(C)[C@@H]3CC[C@@]21C)C(C)C
REMARK SMILES IDX 5 1 4 2 3 3 2 4 1 5 28 6 29 7 30 8 6 9 7 10 8 11 9 12 26 13
REMARK SMILES IDX 10 14 11 15 25 16 27 17 12 18 24 19 23 20 13 21 21 22 14 23
REMARK SMILES IDX 15 24 20 25 22 26 16 27 19 28 17 29 18 30
REMARK H PARENT 18 31
REMARK Flexibility Score: inf
ROOT
ATOM      1  C   UNL     1     266.583 -27.767  53.710  1.00  0.00     0.004 C 
ENDROOT
BRANCH   1   2
ATOM      2  C   UNL     1     265.891 -28.830  54.619  1.00  0.00     0.004 C 
BRANCH   2   3
ATOM      3  C   UNL     1     266.737 -29.486  55.747  1.00  0.00    -0.009 C 
BRANCH   3   4
ATOM      4  C   UNL     1     267.310 -30.834  55.223  1.00  0.00     0.000 C 
ATOM      5  C   UNL     1     268.592 -31.285  55.923  1.00  0.00     0.004 C 
ENDBRANCH   3   4
BRANCH   3   6
ATOM      6  C   UNL     1     265.916 -29.587  57.084  1.00  0.00    -0.014 C 
ATOM      7  C   UNL     1     266.166 -28.433  58.068  1.00  0.00     0.007 C 
ATOM      8  C   UNL     1     264.411 -29.779  56.840  1.00  0.00     0.007 C 
ENDBRANCH   3   6
ENDBRANCH   2   3
ENDBRANCH   1   2
BRANCH   1   9
ATOM      9  C   UNL     1     265.737 -26.600  53.089  1.00  0.00    -0.011 C 
ATOM     10  C   UNL     1     266.559 -26.035  51.903  1.00  0.00     0.008 C 
BRANCH   9  11
ATOM     11  C   UNL     1     265.357 -25.410  54.054  1.00  0.00    -0.002 C 
ATOM     12  C   UNL     1     266.354 -25.152  55.226  1.00  0.00     0.005 C 
ATOM     13  C   UNL     1     263.951 -25.515  54.777  1.00  0.00    -0.026 C 
ATOM     14  C   UNL     1     265.631 -25.431  56.546  1.00  0.00     0.005 C 
ATOM     15  C   UNL     1     264.352 -26.129  56.128  1.00  0.00    -0.001 C 
ATOM     16  C   UNL     1     262.815 -26.410  54.138  1.00  0.00     0.007 C 
ATOM     17  C   UNL     1     263.428 -24.047  54.912  1.00  0.00     0.012 C 
ATOM     18  C   UNL     1     263.219 -26.323  57.180  1.00  0.00     0.000 C 
ATOM     19  C   UNL     1     261.971 -27.230  55.158  1.00  0.00     0.005 C 
ATOM     20  C   UNL     1     261.829 -26.510  56.519  1.00  0.00     0.003 C 
ATOM     21  C   UNL     1     263.079 -25.250  58.264  1.00  0.00     0.031 C 
ATOM     22  C   UNL     1     260.798 -27.123  57.538  1.00  0.00    -0.008 C 
ATOM     23  C   UNL     1     262.020 -25.675  59.253  1.00  0.00    -0.027 C 
ATOM     24  C   UNL     1     261.006 -26.528  58.947  1.00  0.00    -0.065 C 
ATOM     25  C   UNL     1     260.945 -28.673  57.642  1.00  0.00     0.014 C 
ATOM     26  C   UNL     1     259.365 -26.766  57.055  1.00  0.00     0.016 C 
ATOM     27  C   UNL     1     260.178 -27.109  60.074  1.00  0.00     0.063 C 
ATOM     28  C   UNL     1     260.115 -29.291  58.786  1.00  0.00     0.033 C 
ATOM     29  C   UNL     1     260.408 -28.626  60.140  1.00  0.00     0.118 C 
BRANCH  29  30
ATOM     30  O   UNL     1     259.574 -29.191  61.117  1.00  0.00    -0.393 OA
ATOM     31  H   UNL     1     258.721 -28.682  61.096  1.00  0.00     0.210 HD
ENDBRANCH  29  30
ENDBRANCH   9  11
ENDBRANCH   1   9
TORSDOF 7
ENDMDL
MODEL 7
REMARK VINA RESULT:    -7.426      2.679      7.744
REMARK INTER + INTRA:         -12.012
REMARK INTER:                  -9.749
REMARK INTRA:                  -2.263
REMARK UNBOUND:                -1.764
REMARK SMILES CC[C@@H](CC[C@H](C)[C@@H]1CC[C@H]2[C@H]3CC=C4C[C@@H](O)CC[C@]4(C)[C@@H]3CC[C@@]21C)C(C)C
REMARK SMILES IDX 5 1 4 2 3 3 2 4 1 5 28 6 29 7 30 8 6 9 7 10 8 11 9 12 26 13
REMARK SMILES IDX 10 14 11 15 25 16 27 17 12 18 24 19 23 20 13 21 21 22 14 23
REMARK SMILES IDX 15 24 20 25 22 26 16 27 19 28 17 29 18 30
REMARK H PARENT 18 31
REMARK Flexibility Score: inf
ROOT
ATOM      1  C   UNL     1     264.859 -29.255  52.655  1.00  0.00     0.004 C 
ENDROOT
BRANCH   1   2
ATOM      2  C   UNL     1     266.206 -30.041  52.633  1.00  0.00     0.004 C 
BRANCH   2   3
ATOM      3  C   UNL     1     266.786 -30.531  53.990  1.00  0.00    -0.009 C 
BRANCH   3   4
ATOM      4  C   UNL     1     265.742 -30.256  55.109  1.00  0.00     0.000 C 
ATOM      5  C   UNL     1     266.354 -29.890  56.462  1.00  0.00     0.004 C 
ENDBRANCH   3   4
BRANCH   3   6
ATOM      6  C   UNL     1     268.213 -29.925  54.248  1.00  0.00    -0.014 C 
ATOM      7  C   UNL     1     269.298 -30.969  54.556  1.00  0.00     0.007 C 
ATOM      8  C   UNL     1     268.668 -28.984  53.119  1.00  0.00     0.007 C 
ENDBRANCH   3   6
ENDBRANCH   2   3
ENDBRANCH   1   2
BRANCH   1   9
ATOM      9  C   UNL     1     264.753 -27.865  51.932  1.00  0.00    -0.011 C 
ATOM     10  C   UNL     1     265.936 -27.791  50.934  1.00  0.00     0.008 C 
BRANCH   9  11
ATOM     11  C   UNL     1     264.788 -26.584  52.854  1.00  0.00    -0.002 C 
ATOM     12  C   UNL     1     266.024 -26.470  53.799  1.00  0.00     0.005 C 
ATOM     13  C   UNL     1     263.555 -26.388  53.829  1.00  0.00    -0.026 C 
ATOM     14  C   UNL     1     265.534 -26.549  55.247  1.00  0.00     0.005 C 
ATOM     15  C   UNL     1     264.095 -27.009  55.127  1.00  0.00    -0.001 C 
ATOM     16  C   UNL     1     262.174 -27.077  53.482  1.00  0.00     0.007 C 
ATOM     17  C   UNL     1     263.338 -24.843  53.942  1.00  0.00     0.012 C 
ATOM     18  C   UNL     1     263.172 -26.937  56.381  1.00  0.00     0.000 C 
ATOM     19  C   UNL     1     261.412 -27.676  54.701  1.00  0.00     0.005 C 
ATOM     20  C   UNL     1     261.670 -26.885  56.003  1.00  0.00     0.003 C 
ATOM     21  C   UNL     1     263.441 -25.811  57.384  1.00  0.00     0.031 C 
ATOM     22  C   UNL     1     260.764 -27.245  57.239  1.00  0.00    -0.008 C 
ATOM     23  C   UNL     1     262.537 -25.984  58.582  1.00  0.00    -0.027 C 
ATOM     24  C   UNL     1     261.347 -26.640  58.535  1.00  0.00    -0.065 C 
ATOM     25  C   UNL     1     260.650 -28.789  57.436  1.00  0.00     0.014 C 
ATOM     26  C   UNL     1     259.352 -26.643  57.002  1.00  0.00     0.016 C 
ATOM     27  C   UNL     1     260.665 -27.004  59.837  1.00  0.00     0.063 C 
ATOM     28  C   UNL     1     259.962 -29.188  58.759  1.00  0.00     0.033 C 
ATOM     29  C   UNL     1     260.628 -28.533  59.980  1.00  0.00     0.118 C 
BRANCH  29  30
ATOM     30  O   UNL     1     259.913 -28.886  61.134  1.00  0.00    -0.393 OA
ATOM     31  H   UNL     1     260.541 -29.386  61.719  1.00  0.00     0.210 HD
ENDBRANCH  29  30
ENDBRANCH   9  11
ENDBRANCH   1   9
TORSDOF 7
ENDMDL
MODEL 8
REMARK VINA RESULT:    -7.392      2.319      4.472
REMARK INTER + INTRA:         -11.966
REMARK INTER:                  -8.985
REMARK INTRA:                  -2.980
REMARK UNBOUND:                -1.764
REMARK SMILES CC[C@@H](CC[C@H](C)[C@@H]1CC[C@H]2[C@H]3CC=C4C[C@@H](O)CC[C@]4(C)[C@@H]3CC[C@@]21C)C(C)C
REMARK SMILES IDX 5 1 4 2 3 3 2 4 1 5 28 6 29 7 30 8 6 9 7 10 8 11 9 12 26 13
REMARK SMILES IDX 10 14 11 15 25 16 27 17 12 18 24 19 23 20 13 21 21 22 14 23
REMARK SMILES IDX 15 24 20 25 22 26 16 27 19 28 17 29 18 30
REMARK H PARENT 18 31
REMARK Flexibility Score: inf
ROOT
ATOM      1  C   UNL     1     261.872 -26.549  55.101  1.00  0.00     0.004 C 
ENDROOT
BRANCH   1   2
ATOM      2  C   UNL     1     262.214 -27.638  56.165  1.00  0.00     0.004 C 
BRANCH   2   3
ATOM      3  C   UNL     1     263.690 -27.754  56.640  1.00  0.00    -0.009 C 
BRANCH   3   4
ATOM      4  C   UNL     1     264.070 -29.259  56.732  1.00  0.00     0.000 C 
ATOM      5  C   UNL     1     265.248 -29.554  57.663  1.00  0.00     0.004 C 
ENDBRANCH   3   4
BRANCH   3   6
ATOM      6  C   UNL     1     263.927 -26.927  57.956  1.00  0.00    -0.014 C 
ATOM      7  C   UNL     1     264.773 -25.658  57.762  1.00  0.00     0.007 C 
ATOM      8  C   UNL     1     262.617 -26.601  58.693  1.00  0.00     0.007 C 
ENDBRANCH   3   6
ENDBRANCH   2   3
ENDBRANCH   1   2
BRANCH   1   9
ATOM      9  C   UNL     1     263.016 -25.658  54.499  1.00  0.00    -0.011 C 
ATOM     10  C   UNL     1     262.468 -24.210  54.438  1.00  0.00     0.008 C 
BRANCH   9  11
ATOM     11  C   UNL     1     263.545 -26.059  53.066  1.00  0.00    -0.002 C 
ATOM     12  C   UNL     1     262.615 -27.008  52.249  1.00  0.00     0.005 C 
ATOM     13  C   UNL     1     264.952 -26.784  53.017  1.00  0.00    -0.026 C 
ATOM     14  C   UNL     1     263.343 -28.338  52.041  1.00  0.00     0.005 C 
ATOM     15  C   UNL     1     264.530 -28.261  52.981  1.00  0.00    -0.001 C 
ATOM     16  C   UNL     1     265.971 -26.583  54.209  1.00  0.00     0.007 C 
ATOM     17  C   UNL     1     265.629 -26.316  51.686  1.00  0.00     0.012 C 
ATOM     18  C   UNL     1     265.668 -29.318  52.848  1.00  0.00     0.000 C 
ATOM     19  C   UNL     1     266.755 -27.862  54.628  1.00  0.00     0.005 C 
ATOM     20  C   UNL     1     267.010 -28.813  53.436  1.00  0.00     0.003 C 
ATOM     21  C   UNL     1     265.949 -29.871  51.448  1.00  0.00     0.031 C 
ATOM     22  C   UNL     1     268.002 -30.009  53.686  1.00  0.00    -0.008 C 
ATOM     23  C   UNL     1     266.987 -30.965  51.543  1.00  0.00    -0.027 C 
ATOM     24  C   UNL     1     267.898 -31.049  52.549  1.00  0.00    -0.065 C 
ATOM     25  C   UNL     1     267.699 -30.734  55.033  1.00  0.00     0.014 C 
ATOM     26  C   UNL     1     269.450 -29.445  53.711  1.00  0.00     0.016 C 
ATOM     27  C   UNL     1     268.694 -32.328  52.705  1.00  0.00     0.063 C 
ATOM     28  C   UNL     1     268.494 -32.044  55.216  1.00  0.00     0.033 C 
ATOM     29  C   UNL     1     268.310 -33.004  54.030  1.00  0.00     0.118 C 
BRANCH  29  30
ATOM     30  O   UNL     1     269.110 -34.139  54.233  1.00  0.00    -0.393 OA
ATOM     31  H   UNL     1     268.521 -34.840  54.617  1.00  0.00     0.210 HD
ENDBRANCH  29  30
ENDBRANCH   9  11
ENDBRANCH   1   9
TORSDOF 7
ENDMDL
MODEL 9
REMARK VINA RESULT:    -7.322      1.842      3.280
REMARK INTER + INTRA:         -11.869
REMARK INTER:                  -8.931
REMARK INTRA:                  -2.938
REMARK UNBOUND:                -1.764
REMARK SMILES CC[C@@H](CC[C@H](C)[C@@H]1CC[C@H]2[C@H]3CC=C4C[C@@H](O)CC[C@]4(C)[C@@H]3CC[C@@]21C)C(C)C
REMARK SMILES IDX 5 1 4 2 3 3 2 4 1 5 28 6 29 7 30 8 6 9 7 10 8 11 9 12 26 13
REMARK SMILES IDX 10 14 11 15 25 16 27 17 12 18 24 19 23 20 13 21 21 22 14 23
REMARK SMILES IDX 15 24 20 25 22 26 16 27 19 28 17 29 18 30
REMARK H PARENT 18 31
REMARK Flexibility Score: inf
ROOT
ATOM      1  C   UNL     1     262.705 -25.232  57.970  1.00  0.00     0.004 C 
ENDROOT
BRANCH   1   2
ATOM      2  C   UNL     1     262.919 -26.648  58.590  1.00  0.00     0.004 C 
BRANCH   2   3
ATOM      3  C   UNL     1     263.700 -27.700  57.753  1.00  0.00    -0.009 C 
BRANCH   3   4
ATOM      4  C   UNL     1     262.705 -28.792  57.268  1.00  0.00     0.000 C 
ATOM      5  C   UNL     1     261.321 -28.712  57.913  1.00  0.00     0.004 C 
ENDBRANCH   3   4
BRANCH   3   6
ATOM      6  C   UNL     1     264.947 -28.239  58.543  1.00  0.00    -0.014 C 
ATOM      7  C   UNL     1     265.595 -29.489  57.925  1.00  0.00     0.007 C 
ATOM      8  C   UNL     1     266.000 -27.149  58.800  1.00  0.00     0.007 C 
ENDBRANCH   3   6
ENDBRANCH   2   3
ENDBRANCH   1   2
BRANCH   1   9
ATOM      9  C   UNL     1     263.849 -24.569  57.124  1.00  0.00    -0.011 C 
ATOM     10  C   UNL     1     263.967 -23.101  57.606  1.00  0.00     0.008 C 
BRANCH   9  11
ATOM     11  C   UNL     1     263.663 -24.573  55.556  1.00  0.00    -0.002 C 
ATOM     12  C   UNL     1     262.244 -24.976  55.050  1.00  0.00     0.005 C 
ATOM     13  C   UNL     1     264.634 -25.521  54.738  1.00  0.00    -0.026 C 
ATOM     14  C   UNL     1     262.365 -26.284  54.263  1.00  0.00     0.005 C 
ATOM     15  C   UNL     1     263.763 -26.777  54.576  1.00  0.00    -0.001 C 
ATOM     16  C   UNL     1     266.018 -25.949  55.372  1.00  0.00     0.007 C 
ATOM     17  C   UNL     1     264.900 -24.792  53.380  1.00  0.00     0.012 C 
ATOM     18  C   UNL     1     264.358 -27.945  53.734  1.00  0.00     0.000 C 
ATOM     19  C   UNL     1     266.429 -27.430  55.118  1.00  0.00     0.005 C 
ATOM     20  C   UNL     1     265.908 -27.961  53.763  1.00  0.00     0.003 C 
ATOM     21  C   UNL     1     263.918 -28.048  52.270  1.00  0.00     0.031 C 
ATOM     22  C   UNL     1     266.467 -29.353  53.288  1.00  0.00    -0.008 C 
ATOM     23  C   UNL     1     264.495 -29.304  51.662  1.00  0.00    -0.027 C 
ATOM     24  C   UNL     1     265.624 -29.909  52.121  1.00  0.00    -0.065 C 
ATOM     25  C   UNL     1     266.447 -30.404  54.442  1.00  0.00     0.014 C 
ATOM     26  C   UNL     1     267.926 -29.150  52.793  1.00  0.00     0.016 C 
ATOM     27  C   UNL     1     265.951 -31.305  51.632  1.00  0.00     0.063 C 
ATOM     28  C   UNL     1     266.772 -31.836  53.971  1.00  0.00     0.033 C 
ATOM     29  C   UNL     1     265.868 -32.286  52.811  1.00  0.00     0.118 C 
BRANCH  29  30
ATOM     30  O   UNL     1     266.263 -33.566  52.393  1.00  0.00    -0.393 OA
ATOM     31  H   UNL     1     266.446 -33.506  51.419  1.00  0.00     0.210 HD
ENDBRANCH  29  30
ENDBRANCH   9  11
ENDBRANCH   1   9
TORSDOF 7
ENDMDL
