MODEL 1
REMARK VINA RESULT:    19.611      0.000      0.000
REMARK INTER + INTRA:          22.729
REMARK INTER:                  23.050
REMARK INTRA:                  -0.321
REMARK UNBOUND:                -0.321
REMARK SMILES Oc1ccc(-c2[o+]c3cc(O)cc(O)c3cc2O)cc1
REMARK SMILES IDX 6 1 7 2 8 3 9 4 10 5 12 6 13 7 15 8 16 9 17 10 5 11 4 12
REMARK SMILES IDX 3 13 2 14 19 15 20 16 1 17 18 19 11 21 14 23
REMARK H PARENT 1 18 18 20 11 22 14 24
REMARK Flexibility Score: inf
ROOT
ATOM      1  C   UNL     1      -6.081   4.639  15.286  1.00  0.00     0.401 A 
ATOM      2  O   UNL     1      -5.308   4.098  14.348  1.00  0.00    -0.202 OA
ATOM      3  C   UNL     1      -4.517   3.053  14.567  1.00  0.00     0.368 A 
ATOM      4  C   UNL     1      -3.739   2.558  13.518  1.00  0.00     0.162 A 
ATOM      5  C   UNL     1      -2.896   1.461  13.723  1.00  0.00     0.128 A 
ATOM      6  C   UNL     1      -2.829   0.860  14.982  1.00  0.00     0.093 A 
ATOM      7  C   UNL     1      -3.598   1.338  16.049  1.00  0.00     0.136 A 
ATOM      8  C   UNL     1      -4.458   2.448  15.846  1.00  0.00     0.125 A 
ATOM      9  C   UNL     1      -5.276   2.987  16.854  1.00  0.00     0.078 A 
ATOM     10  C   UNL     1      -6.102   4.080  16.578  1.00  0.00     0.223 A 
ENDROOT
BRANCH   1  11
ATOM     11  C   UNL     1      -6.912   5.809  14.920  1.00  0.00     0.084 A 
ATOM     12  C   UNL     1      -8.185   5.605  14.363  1.00  0.00     0.022 A 
ATOM     13  C   UNL     1      -8.978   6.695  13.991  1.00  0.00     0.047 A 
ATOM     14  C   UNL     1      -8.504   7.999  14.154  1.00  0.00     0.115 A 
ATOM     15  C   UNL     1      -6.432   7.124  15.063  1.00  0.00     0.022 A 
ATOM     16  C   UNL     1      -7.226   8.211  14.689  1.00  0.00     0.047 A 
BRANCH  14  17
ATOM     17  O   UNL     1      -9.303   9.076  13.778  1.00  0.00    -0.508 OA
ATOM     18  H   UNL     1      -8.960   9.801  13.159  1.00  0.00     0.293 HD
ENDBRANCH  14  17
ENDBRANCH   1  11
BRANCH  10  19
ATOM     19  O   UNL     1      -6.950   4.584  17.564  1.00  0.00    -0.500 OA
ATOM     20  H   UNL     1      -7.793   4.093  17.843  1.00  0.00     0.294 HD
ENDBRANCH  10  19
BRANCH   5  21
ATOM     21  O   UNL     1      -2.117   0.962  12.681  1.00  0.00    -0.507 OA
ATOM     22  H   UNL     1      -1.204   0.555  12.850  1.00  0.00     0.293 HD
ENDBRANCH   5  21
BRANCH   7  23
ATOM     23  O   UNL     1      -3.473   0.682  17.278  1.00  0.00    -0.507 OA
ATOM     24  H   UNL     1      -2.948  -0.168  17.420  1.00  0.00     0.293 HD
ENDBRANCH   7  23
TORSDOF 5
ENDMDL
MODEL 2
REMARK VINA RESULT:    20.958      2.016      6.498
REMARK INTER + INTRA:          24.312
REMARK INTER:                  24.393
REMARK INTRA:                  -0.081
REMARK UNBOUND:                -0.321
REMARK SMILES Oc1ccc(-c2[o+]c3cc(O)cc(O)c3cc2O)cc1
REMARK SMILES IDX 6 1 7 2 8 3 9 4 10 5 12 6 13 7 15 8 16 9 17 10 5 11 4 12
REMARK SMILES IDX 3 13 2 14 19 15 20 16 1 17 18 19 11 21 14 23
REMARK H PARENT 1 18 18 20 11 22 14 24
REMARK Flexibility Score: inf
ROOT
ATOM      1  C   UNL     1      -3.776   2.624  14.001  1.00  0.00     0.401 A 
ATOM      2  O   UNL     1      -4.817   3.338  13.579  1.00  0.00    -0.202 OA
ATOM      3  C   UNL     1      -5.840   3.669  14.359  1.00  0.00     0.368 A 
ATOM      4  C   UNL     1      -6.888   4.420  13.823  1.00  0.00     0.162 A 
ATOM      5  C   UNL     1      -7.979   4.779  14.621  1.00  0.00     0.128 A 
ATOM      6  C   UNL     1      -8.021   4.383  15.960  1.00  0.00     0.093 A 
ATOM      7  C   UNL     1      -6.983   3.630  16.521  1.00  0.00     0.136 A 
ATOM      8  C   UNL     1      -5.872   3.266  15.716  1.00  0.00     0.125 A 
ATOM      9  C   UNL     1      -4.780   2.524  16.196  1.00  0.00     0.078 A 
ATOM     10  C   UNL     1      -3.718   2.207  15.344  1.00  0.00     0.223 A 
ENDROOT
BRANCH   1  11
ATOM     11  C   UNL     1      -2.702   2.312  13.031  1.00  0.00     0.084 A 
ATOM     12  C   UNL     1      -2.338   0.974  12.809  1.00  0.00     0.022 A 
ATOM     13  C   UNL     1      -1.312   0.658  11.913  1.00  0.00     0.047 A 
ATOM     14  C   UNL     1      -0.627   1.674  11.241  1.00  0.00     0.115 A 
ATOM     15  C   UNL     1      -1.995   3.331  12.366  1.00  0.00     0.022 A 
ATOM     16  C   UNL     1      -0.969   3.013  11.472  1.00  0.00     0.047 A 
BRANCH  14  17
ATOM     17  O   UNL     1       0.394   1.345  10.351  1.00  0.00    -0.508 OA
ATOM     18  H   UNL     1       1.321   1.744  10.438  1.00  0.00     0.293 HD
ENDBRANCH  14  17
ENDBRANCH   1  11
BRANCH  10  19
ATOM     19  O   UNL     1      -2.611   1.514  15.832  1.00  0.00    -0.500 OA
ATOM     20  H   UNL     1      -1.920   1.963  16.423  1.00  0.00     0.294 HD
ENDBRANCH  10  19
BRANCH   5  21
ATOM     21  O   UNL     1      -9.028   5.528  14.093  1.00  0.00    -0.507 OA
ATOM     22  H   UNL     1      -9.072   6.534  14.209  1.00  0.00     0.293 HD
ENDBRANCH   5  21
BRANCH   7  23
ATOM     23  O   UNL     1      -7.101   3.272  17.867  1.00  0.00    -0.507 OA
ATOM     24  H   UNL     1      -6.367   3.377  18.552  1.00  0.00     0.293 HD
ENDBRANCH   7  23
TORSDOF 5
ENDMDL
MODEL 3
REMARK VINA RESULT:    21.067      1.480      6.996
REMARK INTER + INTRA:          24.440
REMARK INTER:                  24.761
REMARK INTRA:                  -0.321
REMARK UNBOUND:                -0.321
REMARK SMILES Oc1ccc(-c2[o+]c3cc(O)cc(O)c3cc2O)cc1
REMARK SMILES IDX 6 1 7 2 8 3 9 4 10 5 12 6 13 7 15 8 16 9 17 10 5 11 4 12
REMARK SMILES IDX 3 13 2 14 19 15 20 16 1 17 18 19 11 21 14 23
REMARK H PARENT 1 18 18 20 11 22 14 24
REMARK Flexibility Score: inf
ROOT
ATOM      1  C   UNL     1      -6.011   4.437  15.055  1.00  0.00     0.401 A 
ATOM      2  O   UNL     1      -5.802   5.605  15.657  1.00  0.00    -0.202 OA
ATOM      3  C   UNL     1      -6.534   6.689  15.424  1.00  0.00     0.368 A 
ATOM      4  C   UNL     1      -6.234   7.871  16.105  1.00  0.00     0.162 A 
ATOM      5  C   UNL     1      -6.986   9.027  15.876  1.00  0.00     0.128 A 
ATOM      6  C   UNL     1      -8.040   9.000  14.960  1.00  0.00     0.093 A 
ATOM      7  C   UNL     1      -8.361   7.828  14.265  1.00  0.00     0.136 A 
ATOM      8  C   UNL     1      -7.603   6.651  14.496  1.00  0.00     0.125 A 
ATOM      9  C   UNL     1      -7.859   5.428  13.856  1.00  0.00     0.078 A 
ATOM     10  C   UNL     1      -7.072   4.308  14.139  1.00  0.00     0.223 A 
ENDROOT
BRANCH   1  11
ATOM     11  C   UNL     1      -5.120   3.304  15.394  1.00  0.00     0.084 A 
ATOM     12  C   UNL     1      -5.395   2.525  16.530  1.00  0.00     0.022 A 
ATOM     13  C   UNL     1      -4.554   1.463  16.880  1.00  0.00     0.047 A 
ATOM     14  C   UNL     1      -3.423   1.177  16.111  1.00  0.00     0.115 A 
ATOM     15  C   UNL     1      -3.968   3.023  14.635  1.00  0.00     0.022 A 
ATOM     16  C   UNL     1      -3.130   1.963  14.988  1.00  0.00     0.047 A 
BRANCH  14  17
ATOM     17  O   UNL     1      -2.594   0.117  16.472  1.00  0.00    -0.508 OA
ATOM     18  H   UNL     1      -2.020  -0.362  15.790  1.00  0.00     0.293 HD
ENDBRANCH  14  17
ENDBRANCH   1  11
BRANCH  10  19
ATOM     19  O   UNL     1      -7.358   3.081  13.540  1.00  0.00    -0.500 OA
ATOM     20  H   UNL     1      -8.095   2.478  13.888  1.00  0.00     0.294 HD
ENDBRANCH  10  19
BRANCH   5  21
ATOM     21  O   UNL     1      -6.693  10.209  16.551  1.00  0.00    -0.507 OA
ATOM     22  H   UNL     1      -7.414  10.742  17.026  1.00  0.00     0.293 HD
ENDBRANCH   5  21
BRANCH   7  23
ATOM     23  O   UNL     1      -9.429   7.885  13.364  1.00  0.00    -0.507 OA
ATOM     24  H   UNL     1     -10.367   7.573  13.572  1.00  0.00     0.293 HD
ENDBRANCH   7  23
TORSDOF 5
ENDMDL
