MODEL 1
REMARK VINA RESULT:    -8.580      0.000      0.000
REMARK INTER + INTRA:         -13.948
REMARK INTER:                 -11.840
REMARK INTRA:                  -2.108
REMARK UNBOUND:                -2.108
REMARK SMILES CC[C@H](CC[C@H](C)[C@H]1CC[C@H]2[C@@H]3CC=C4C[C@H](O)CC[C@]4(C)[C@H]3CC[C@@]12C)C(C)C
REMARK SMILES IDX 5 1 4 2 3 3 2 4 1 5 28 6 29 7 30 8 6 9 7 10 8 11 9 12 26 13
REMARK SMILES IDX 10 14 11 15 25 16 27 17 12 18 24 19 23 20 13 21 21 22 14 23
REMARK SMILES IDX 15 24 20 25 22 26 16 27 19 28 17 29 18 30
REMARK H PARENT 18 31
REMARK Flexibility Score: inf
ROOT
ATOM      1  C   UNL     1     -11.490 -35.912 -13.766  1.00  0.00     0.004 C 
ENDROOT
BRANCH   1   2
ATOM      2  C   UNL     1     -12.866 -36.323 -13.204  1.00  0.00     0.004 C 
BRANCH   2   3
ATOM      3  C   UNL     1     -14.063 -35.855 -14.080  1.00  0.00    -0.009 C 
BRANCH   3   4
ATOM      4  C   UNL     1     -14.086 -36.478 -15.510  1.00  0.00     0.000 C 
ATOM      5  C   UNL     1     -13.970 -35.495 -16.675  1.00  0.00     0.004 C 
ENDBRANCH   3   4
BRANCH   3   6
ATOM      6  C   UNL     1     -15.417 -35.912 -13.291  1.00  0.00    -0.014 C 
ATOM      7  C   UNL     1     -16.290 -34.648 -13.397  1.00  0.00     0.007 C 
ATOM      8  C   UNL     1     -15.236 -36.317 -11.821  1.00  0.00     0.007 C 
ENDBRANCH   3   6
ENDBRANCH   2   3
ENDBRANCH   1   2
BRANCH   1   9
ATOM      9  C   UNL     1     -11.127 -34.429 -13.465  1.00  0.00    -0.011 C 
ATOM     10  C   UNL     1      -9.712 -34.103 -13.990  1.00  0.00     0.008 C 
BRANCH   9  11
ATOM     11  C   UNL     1     -11.330 -34.108 -11.935  1.00  0.00    -0.002 C 
ATOM     12  C   UNL     1     -10.030 -33.721 -11.219  1.00  0.00     0.005 C 
ATOM     13  C   UNL     1     -12.366 -32.993 -11.527  1.00  0.00    -0.026 C 
ATOM     14  C   UNL     1     -10.042 -32.208 -11.098  1.00  0.00     0.005 C 
ATOM     15  C   UNL     1     -11.517 -31.781 -11.022  1.00  0.00    -0.001 C 
ATOM     16  C   UNL     1     -13.350 -32.578 -12.661  1.00  0.00     0.007 C 
ATOM     17  C   UNL     1     -13.208 -33.539 -10.335  1.00  0.00     0.012 C 
ATOM     18  C   UNL     1     -11.786 -30.442 -11.773  1.00  0.00     0.000 C 
ATOM     19  C   UNL     1     -14.174 -31.336 -12.295  1.00  0.00     0.005 C 
ATOM     20  C   UNL     1     -13.303 -30.118 -11.845  1.00  0.00     0.003 C 
ATOM     21  C   UNL     1     -11.047 -29.281 -11.079  1.00  0.00     0.031 C 
ATOM     22  C   UNL     1     -13.570 -28.796 -12.665  1.00  0.00    -0.008 C 
ATOM     23  C   UNL     1     -11.459 -27.925 -11.580  1.00  0.00    -0.027 C 
ATOM     24  C   UNL     1     -12.647 -27.672 -12.171  1.00  0.00    -0.065 C 
ATOM     25  C   UNL     1     -15.055 -28.364 -12.450  1.00  0.00     0.014 C 
ATOM     26  C   UNL     1     -13.289 -28.996 -14.182  1.00  0.00     0.016 C 
ATOM     27  C   UNL     1     -12.972 -26.240 -12.553  1.00  0.00     0.063 C 
ATOM     28  C   UNL     1     -15.368 -26.932 -12.913  1.00  0.00     0.033 C 
ATOM     29  C   UNL     1     -14.439 -25.908 -12.253  1.00  0.00     0.118 C 
BRANCH  29  30
ATOM     30  O   UNL     1     -14.663 -25.889 -10.866  1.00  0.00    -0.393 OA
ATOM     31  H   UNL     1     -15.598 -26.194 -10.722  1.00  0.00     0.210 HD
ENDBRANCH  29  30
ENDBRANCH   9  11
ENDBRANCH   1   9
TORSDOF 7
ENDMDL
MODEL 2
REMARK VINA RESULT:    -8.306      1.699      2.807
REMARK INTER + INTRA:         -13.570
REMARK INTER:                 -11.577
REMARK INTRA:                  -1.993
REMARK UNBOUND:                -2.108
REMARK SMILES CC[C@H](CC[C@H](C)[C@H]1CC[C@H]2[C@@H]3CC=C4C[C@H](O)CC[C@]4(C)[C@H]3CC[C@@]12C)C(C)C
REMARK SMILES IDX 5 1 4 2 3 3 2 4 1 5 28 6 29 7 30 8 6 9 7 10 8 11 9 12 26 13
REMARK SMILES IDX 10 14 11 15 25 16 27 17 12 18 24 19 23 20 13 21 21 22 14 23
REMARK SMILES IDX 15 24 20 25 22 26 16 27 19 28 17 29 18 30
REMARK H PARENT 18 31
REMARK Flexibility Score: inf
ROOT
ATOM      1  C   UNL     1     -10.836 -34.373  -9.487  1.00  0.00     0.004 C 
ENDROOT
BRANCH   1   2
ATOM      2  C   UNL     1     -12.244 -34.808  -9.941  1.00  0.00     0.004 C 
BRANCH   2   3
ATOM      3  C   UNL     1     -12.441 -34.772 -11.483  1.00  0.00    -0.009 C 
BRANCH   3   4
ATOM      4  C   UNL     1     -12.181 -36.138 -12.189  1.00  0.00     0.000 C 
ATOM      5  C   UNL     1     -11.226 -36.108 -13.384  1.00  0.00     0.004 C 
ENDBRANCH   3   4
BRANCH   3   6
ATOM      6  C   UNL     1     -13.771 -34.041 -11.882  1.00  0.00    -0.014 C 
ATOM      7  C   UNL     1     -14.911 -34.967 -12.345  1.00  0.00     0.007 C 
ATOM      8  C   UNL     1     -13.551 -32.910 -12.897  1.00  0.00     0.007 C 
ENDBRANCH   3   6
ENDBRANCH   2   3
ENDBRANCH   1   2
BRANCH   1   9
ATOM      9  C   UNL     1     -10.333 -33.089 -10.205  1.00  0.00    -0.011 C 
ATOM     10  C   UNL     1      -9.027 -33.379 -10.978  1.00  0.00     0.008 C 
BRANCH   9  11
ATOM     11  C   UNL     1     -10.218 -31.892  -9.185  1.00  0.00    -0.002 C 
ATOM     12  C   UNL     1      -8.875 -31.155  -9.265  1.00  0.00     0.005 C 
ATOM     13  C   UNL     1     -11.308 -30.755  -9.227  1.00  0.00    -0.026 C 
ATOM     14  C   UNL     1      -9.128 -29.889 -10.062  1.00  0.00     0.005 C 
ATOM     15  C   UNL     1     -10.594 -29.495  -9.816  1.00  0.00    -0.001 C 
ATOM     16  C   UNL     1     -12.593 -31.119 -10.029  1.00  0.00     0.007 C 
ATOM     17  C   UNL     1     -11.728 -30.446  -7.759  1.00  0.00     0.012 C 
ATOM     18  C   UNL     1     -11.269 -28.901 -11.089  1.00  0.00     0.000 C 
ATOM     19  C   UNL     1     -13.513 -29.910 -10.241  1.00  0.00     0.005 C 
ATOM     20  C   UNL     1     -12.792 -28.680 -10.880  1.00  0.00     0.003 C 
ATOM     21  C   UNL     1     -10.605 -27.564 -11.473  1.00  0.00     0.031 C 
ATOM     22  C   UNL     1     -13.479 -28.141 -12.195  1.00  0.00    -0.008 C 
ATOM     23  C   UNL     1     -11.361 -26.801 -12.525  1.00  0.00    -0.027 C 
ATOM     24  C   UNL     1     -12.681 -26.958 -12.763  1.00  0.00    -0.065 C 
ATOM     25  C   UNL     1     -14.922 -27.658 -11.845  1.00  0.00     0.014 C 
ATOM     26  C   UNL     1     -13.539 -29.235 -13.300  1.00  0.00     0.016 C 
ATOM     27  C   UNL     1     -13.339 -26.062 -13.796  1.00  0.00     0.063 C 
ATOM     28  C   UNL     1     -15.588 -26.813 -12.943  1.00  0.00     0.033 C 
ATOM     29  C   UNL     1     -14.727 -25.606 -13.329  1.00  0.00     0.118 C 
BRANCH  29  30
ATOM     30  O   UNL     1     -14.612 -24.735 -12.232  1.00  0.00    -0.393 OA
ATOM     31  H   UNL     1     -15.481 -24.260 -12.151  1.00  0.00     0.210 HD
ENDBRANCH  29  30
ENDBRANCH   9  11
ENDBRANCH   1   9
TORSDOF 7
ENDMDL
MODEL 3
REMARK VINA RESULT:    -8.197      0.934      1.747
REMARK INTER + INTRA:         -13.419
REMARK INTER:                 -11.852
REMARK INTRA:                  -1.568
REMARK UNBOUND:                -2.108
REMARK SMILES CC[C@H](CC[C@H](C)[C@H]1CC[C@H]2[C@@H]3CC=C4C[C@H](O)CC[C@]4(C)[C@H]3CC[C@@]12C)C(C)C
REMARK SMILES IDX 5 1 4 2 3 3 2 4 1 5 28 6 29 7 30 8 6 9 7 10 8 11 9 12 26 13
REMARK SMILES IDX 10 14 11 15 25 16 27 17 12 18 24 19 23 20 13 21 21 22 14 23
REMARK SMILES IDX 15 24 20 25 22 26 16 27 19 28 17 29 18 30
REMARK H PARENT 18 31
REMARK Flexibility Score: inf
ROOT
ATOM      1  C   UNL     1     -10.861 -35.314 -12.923  1.00  0.00     0.004 C 
ENDROOT
BRANCH   1   2
ATOM      2  C   UNL     1     -11.801 -35.512 -14.129  1.00  0.00     0.004 C 
BRANCH   2   3
ATOM      3  C   UNL     1     -13.112 -36.272 -13.780  1.00  0.00    -0.009 C 
BRANCH   3   4
ATOM      4  C   UNL     1     -13.518 -36.180 -12.276  1.00  0.00     0.000 C 
ATOM      5  C   UNL     1     -14.612 -35.168 -11.934  1.00  0.00     0.004 C 
ENDBRANCH   3   4
BRANCH   3   6
ATOM      6  C   UNL     1     -14.253 -35.966 -14.812  1.00  0.00    -0.014 C 
ATOM      7  C   UNL     1     -15.339 -37.053 -14.928  1.00  0.00     0.007 C 
ATOM      8  C   UNL     1     -13.718 -35.592 -16.202  1.00  0.00     0.007 C 
ENDBRANCH   3   6
ENDBRANCH   2   3
ENDBRANCH   1   2
BRANCH   1   9
ATOM      9  C   UNL     1     -10.322 -33.860 -12.804  1.00  0.00    -0.011 C 
ATOM     10  C   UNL     1      -8.899 -33.761 -13.398  1.00  0.00     0.008 C 
BRANCH   9  11
ATOM     11  C   UNL     1     -10.428 -33.349 -11.316  1.00  0.00    -0.002 C 
ATOM     12  C   UNL     1      -9.134 -32.706 -10.801  1.00  0.00     0.005 C 
ATOM     13  C   UNL     1     -11.565 -32.322 -10.948  1.00  0.00    -0.026 C 
ATOM     14  C   UNL     1      -9.342 -31.205 -10.879  1.00  0.00     0.005 C 
ATOM     15  C   UNL     1     -10.848 -30.955 -10.700  1.00  0.00    -0.001 C 
ATOM     16  C   UNL     1     -12.695 -32.198 -12.014  1.00  0.00     0.007 C 
ATOM     17  C   UNL     1     -12.214 -32.791  -9.611  1.00  0.00     0.012 C 
ATOM     18  C   UNL     1     -11.363 -29.781 -11.587  1.00  0.00     0.000 C 
ATOM     19  C   UNL     1     -13.644 -31.027 -11.727  1.00  0.00     0.005 C 
ATOM     20  C   UNL     1     -12.910 -29.661 -11.536  1.00  0.00     0.003 C 
ATOM     21  C   UNL     1     -10.730 -28.451 -11.135  1.00  0.00     0.031 C 
ATOM     22  C   UNL     1     -13.428 -28.513 -12.489  1.00  0.00    -0.008 C 
ATOM     23  C   UNL     1     -11.367 -27.242 -11.762  1.00  0.00    -0.027 C 
ATOM     24  C   UNL     1     -12.626 -27.225 -12.249  1.00  0.00    -0.065 C 
ATOM     25  C   UNL     1     -14.933 -28.240 -12.173  1.00  0.00     0.014 C 
ATOM     26  C   UNL     1     -13.260 -28.893 -13.988  1.00  0.00     0.016 C 
ATOM     27  C   UNL     1     -13.177 -25.913 -12.777  1.00  0.00     0.063 C 
ATOM     28  C   UNL     1     -15.478 -26.938 -12.783  1.00  0.00     0.033 C 
ATOM     29  C   UNL     1     -14.643 -25.724 -12.368  1.00  0.00     0.118 C 
BRANCH  29  30
ATOM     30  O   UNL     1     -14.742 -25.533 -10.979  1.00  0.00    -0.393 OA
ATOM     31  H   UNL     1     -14.006 -26.057 -10.564  1.00  0.00     0.210 HD
ENDBRANCH  29  30
ENDBRANCH   9  11
ENDBRANCH   1   9
TORSDOF 7
ENDMDL
MODEL 4
REMARK VINA RESULT:    -7.267      1.544      3.954
REMARK INTER + INTRA:         -12.136
REMARK INTER:                 -10.175
REMARK INTRA:                  -1.961
REMARK UNBOUND:                -2.108
REMARK SMILES CC[C@H](CC[C@H](C)[C@H]1CC[C@H]2[C@@H]3CC=C4C[C@H](O)CC[C@]4(C)[C@H]3CC[C@@]12C)C(C)C
REMARK SMILES IDX 5 1 4 2 3 3 2 4 1 5 28 6 29 7 30 8 6 9 7 10 8 11 9 12 26 13
REMARK SMILES IDX 10 14 11 15 25 16 27 17 12 18 24 19 23 20 13 21 21 22 14 23
REMARK SMILES IDX 15 24 20 25 22 26 16 27 19 28 17 29 18 30
REMARK H PARENT 18 31
REMARK Flexibility Score: inf
ROOT
ATOM      1  C   UNL     1     -11.754 -35.872 -13.690  1.00  0.00     0.004 C 
ENDROOT
BRANCH   1   2
ATOM      2  C   UNL     1     -10.500 -36.442 -12.999  1.00  0.00     0.004 C 
BRANCH   2   3
ATOM      3  C   UNL     1      -9.619 -35.360 -12.312  1.00  0.00    -0.009 C 
BRANCH   3   4
ATOM      4  C   UNL     1     -10.121 -33.900 -12.532  1.00  0.00     0.000 C 
ATOM      5  C   UNL     1      -9.076 -32.895 -13.020  1.00  0.00     0.004 C 
ENDBRANCH   3   4
BRANCH   3   6
ATOM      6  C   UNL     1      -9.275 -35.746 -10.831  1.00  0.00    -0.014 C 
ATOM      7  C   UNL     1      -9.796 -37.122 -10.375  1.00  0.00     0.007 C 
ATOM      8  C   UNL     1      -9.675 -34.660  -9.822  1.00  0.00     0.007 C 
ENDBRANCH   3   6
ENDBRANCH   2   3
ENDBRANCH   1   2
BRANCH   1   9
ATOM      9  C   UNL     1     -12.920 -36.897 -13.780  1.00  0.00    -0.011 C 
ATOM     10  C   UNL     1     -13.470 -36.965 -15.222  1.00  0.00     0.008 C 
BRANCH   9  11
ATOM     11  C   UNL     1     -14.019 -36.585 -12.693  1.00  0.00    -0.002 C 
ATOM     12  C   UNL     1     -13.552 -36.872 -11.260  1.00  0.00     0.005 C 
ATOM     13  C   UNL     1     -14.637 -35.137 -12.636  1.00  0.00    -0.026 C 
ATOM     14  C   UNL     1     -13.184 -35.531 -10.653  1.00  0.00     0.005 C 
ATOM     15  C   UNL     1     -14.067 -34.475 -11.339  1.00  0.00    -0.001 C 
ATOM     16  C   UNL     1     -14.362 -34.266 -13.898  1.00  0.00     0.007 C 
ATOM     17  C   UNL     1     -16.180 -35.285 -12.480  1.00  0.00     0.012 C 
ATOM     18  C   UNL     1     -13.311 -33.132 -11.573  1.00  0.00     0.000 C 
ATOM     19  C   UNL     1     -14.774 -32.801 -13.700  1.00  0.00     0.005 C 
ATOM     20  C   UNL     1     -14.150 -32.144 -12.427  1.00  0.00     0.003 C 
ATOM     21  C   UNL     1     -12.959 -32.474 -10.225  1.00  0.00     0.031 C 
ATOM     22  C   UNL     1     -13.350 -30.813 -12.715  1.00  0.00    -0.008 C 
ATOM     23  C   UNL     1     -12.466 -31.061 -10.360  1.00  0.00    -0.027 C 
ATOM     24  C   UNL     1     -12.751 -30.263 -11.412  1.00  0.00    -0.065 C 
ATOM     25  C   UNL     1     -14.335 -29.755 -13.306  1.00  0.00     0.014 C 
ATOM     26  C   UNL     1     -12.174 -31.054 -13.704  1.00  0.00     0.016 C 
ATOM     27  C   UNL     1     -12.261 -28.828 -11.383  1.00  0.00     0.063 C 
ATOM     28  C   UNL     1     -13.780 -28.321 -13.327  1.00  0.00     0.033 C 
ATOM     29  C   UNL     1     -13.323 -27.870 -11.937  1.00  0.00     0.118 C 
BRANCH  29  30
ATOM     30  O   UNL     1     -14.428 -27.810 -11.071  1.00  0.00    -0.393 OA
ATOM     31  H   UNL     1     -14.422 -26.905 -10.661  1.00  0.00     0.210 HD
ENDBRANCH  29  30
ENDBRANCH   9  11
ENDBRANCH   1   9
TORSDOF 7
ENDMDL
MODEL 5
REMARK VINA RESULT:    -7.253      2.351      5.411
REMARK INTER + INTRA:         -12.118
REMARK INTER:                 -10.666
REMARK INTRA:                  -1.452
REMARK UNBOUND:                -2.108
REMARK SMILES CC[C@H](CC[C@H](C)[C@H]1CC[C@H]2[C@@H]3CC=C4C[C@H](O)CC[C@]4(C)[C@H]3CC[C@@]12C)C(C)C
REMARK SMILES IDX 5 1 4 2 3 3 2 4 1 5 28 6 29 7 30 8 6 9 7 10 8 11 9 12 26 13
REMARK SMILES IDX 10 14 11 15 25 16 27 17 12 18 24 19 23 20 13 21 21 22 14 23
REMARK SMILES IDX 15 24 20 25 22 26 16 27 19 28 17 29 18 30
REMARK H PARENT 18 31
REMARK Flexibility Score: inf
ROOT
ATOM      1  C   UNL     1      -9.871 -34.701  -9.274  1.00  0.00     0.004 C 
ENDROOT
BRANCH   1   2
ATOM      2  C   UNL     1      -9.241 -33.345  -8.895  1.00  0.00     0.004 C 
BRANCH   2   3
ATOM      3  C   UNL     1      -9.812 -32.737  -7.582  1.00  0.00    -0.009 C 
BRANCH   3   4
ATOM      4  C   UNL     1      -9.149 -33.293  -6.284  1.00  0.00     0.000 C 
ATOM      5  C   UNL     1      -8.882 -32.274  -5.175  1.00  0.00     0.004 C 
ENDBRANCH   3   4
BRANCH   3   6
ATOM      6  C   UNL     1      -9.932 -31.175  -7.670  1.00  0.00    -0.014 C 
ATOM      7  C   UNL     1     -11.335 -30.646  -8.022  1.00  0.00     0.007 C 
ATOM      8  C   UNL     1      -8.875 -30.545  -8.589  1.00  0.00     0.007 C 
ENDBRANCH   3   6
ENDBRANCH   2   3
ENDBRANCH   1   2
BRANCH   1   9
ATOM      9  C   UNL     1     -11.236 -34.555 -10.004  1.00  0.00    -0.011 C 
ATOM     10  C   UNL     1     -12.184 -35.711  -9.613  1.00  0.00     0.008 C 
BRANCH   9  11
ATOM     11  C   UNL     1     -11.020 -34.406 -11.559  1.00  0.00    -0.002 C 
ATOM     12  C   UNL     1     -12.038 -35.196 -12.391  1.00  0.00     0.005 C 
ATOM     13  C   UNL     1     -11.017 -32.961 -12.187  1.00  0.00    -0.026 C 
ATOM     14  C   UNL     1     -13.070 -34.193 -12.872  1.00  0.00     0.005 C 
ATOM     15  C   UNL     1     -12.348 -32.840 -12.998  1.00  0.00    -0.001 C 
ATOM     16  C   UNL     1     -10.862 -31.806 -11.153  1.00  0.00     0.007 C 
ATOM     17  C   UNL     1      -9.821 -32.879 -13.183  1.00  0.00     0.012 C 
ATOM     18  C   UNL     1     -13.256 -31.644 -12.581  1.00  0.00     0.000 C 
ATOM     19  C   UNL     1     -11.101 -30.426 -11.778  1.00  0.00     0.005 C 
ATOM     20  C   UNL     1     -12.462 -30.310 -12.538  1.00  0.00     0.003 C 
ATOM     21  C   UNL     1     -14.439 -31.504 -13.559  1.00  0.00     0.031 C 
ATOM     22  C   UNL     1     -13.373 -29.116 -12.050  1.00  0.00    -0.008 C 
ATOM     23  C   UNL     1     -15.211 -30.226 -13.385  1.00  0.00    -0.027 C 
ATOM     24  C   UNL     1     -14.696 -29.107 -12.832  1.00  0.00    -0.065 C 
ATOM     25  C   UNL     1     -12.621 -27.773 -12.312  1.00  0.00     0.014 C 
ATOM     26  C   UNL     1     -13.725 -29.242 -10.540  1.00  0.00     0.016 C 
ATOM     27  C   UNL     1     -15.556 -27.858 -12.794  1.00  0.00     0.063 C 
ATOM     28  C   UNL     1     -13.507 -26.522 -12.196  1.00  0.00     0.033 C 
ATOM     29  C   UNL     1     -14.730 -26.607 -13.114  1.00  0.00     0.118 C 
BRANCH  29  30
ATOM     30  O   UNL     1     -14.315 -26.624 -14.457  1.00  0.00    -0.393 OA
ATOM     31  H   UNL     1     -13.610 -25.930 -14.548  1.00  0.00     0.210 HD
ENDBRANCH  29  30
ENDBRANCH   9  11
ENDBRANCH   1   9
TORSDOF 7
ENDMDL
MODEL 6
REMARK VINA RESULT:    -7.180      2.843      7.915
REMARK INTER + INTRA:         -12.017
REMARK INTER:                 -10.625
REMARK INTRA:                  -1.391
REMARK UNBOUND:                -2.108
REMARK SMILES CC[C@H](CC[C@H](C)[C@H]1CC[C@H]2[C@@H]3CC=C4C[C@H](O)CC[C@]4(C)[C@H]3CC[C@@]12C)C(C)C
REMARK SMILES IDX 5 1 4 2 3 3 2 4 1 5 28 6 29 7 30 8 6 9 7 10 8 11 9 12 26 13
REMARK SMILES IDX 10 14 11 15 25 16 27 17 12 18 24 19 23 20 13 21 21 22 14 23
REMARK SMILES IDX 15 24 20 25 22 26 16 27 19 28 17 29 18 30
REMARK H PARENT 18 31
REMARK Flexibility Score: inf
ROOT
ATOM      1  C   UNL     1     -10.864 -27.261 -10.928  1.00  0.00     0.004 C 
ENDROOT
BRANCH   1   2
ATOM      2  C   UNL     1      -9.498 -27.974 -10.859  1.00  0.00     0.004 C 
BRANCH   2   3
ATOM      3  C   UNL     1      -8.875 -27.990  -9.434  1.00  0.00    -0.009 C 
BRANCH   3   4
ATOM      4  C   UNL     1      -9.258 -26.757  -8.559  1.00  0.00     0.000 C 
ATOM      5  C   UNL     1      -8.905 -25.386  -9.136  1.00  0.00     0.004 C 
ENDBRANCH   3   4
BRANCH   3   6
ATOM      6  C   UNL     1      -9.037 -29.390  -8.746  1.00  0.00    -0.014 C 
ATOM      7  C   UNL     1      -8.902 -30.602  -9.688  1.00  0.00     0.007 C 
ATOM      8  C   UNL     1     -10.321 -29.501  -7.911  1.00  0.00     0.007 C 
ENDBRANCH   3   6
ENDBRANCH   2   3
ENDBRANCH   1   2
BRANCH   1   9
ATOM      9  C   UNL     1     -11.834 -27.902 -11.961  1.00  0.00    -0.011 C 
ATOM     10  C   UNL     1     -12.182 -26.891 -13.075  1.00  0.00     0.008 C 
BRANCH   9  11
ATOM     11  C   UNL     1     -13.095 -28.511 -11.235  1.00  0.00    -0.002 C 
ATOM     12  C   UNL     1     -14.421 -28.142 -11.913  1.00  0.00     0.005 C 
ATOM     13  C   UNL     1     -13.166 -30.070 -11.024  1.00  0.00    -0.026 C 
ATOM     14  C   UNL     1     -14.838 -29.355 -12.725  1.00  0.00     0.005 C 
ATOM     15  C   UNL     1     -14.268 -30.589 -12.005  1.00  0.00    -0.001 C 
ATOM     16  C   UNL     1     -11.813 -30.814 -11.228  1.00  0.00     0.007 C 
ATOM     17  C   UNL     1     -13.643 -30.330  -9.563  1.00  0.00     0.012 C 
ATOM     18  C   UNL     1     -13.785 -31.685 -13.003  1.00  0.00     0.000 C 
ATOM     19  C   UNL     1     -11.980 -32.339 -11.245  1.00  0.00     0.005 C 
ATOM     20  C   UNL     1     -13.047 -32.839 -12.272  1.00  0.00     0.003 C 
ATOM     21  C   UNL     1     -14.981 -32.258 -13.788  1.00  0.00     0.031 C 
ATOM     22  C   UNL     1     -12.503 -33.911 -13.296  1.00  0.00    -0.008 C 
ATOM     23  C   UNL     1     -14.643 -33.492 -14.577  1.00  0.00    -0.027 C 
ATOM     24  C   UNL     1     -13.613 -34.314 -14.279  1.00  0.00    -0.065 C 
ATOM     25  C   UNL     1     -12.046 -35.176 -12.501  1.00  0.00     0.014 C 
ATOM     26  C   UNL     1     -11.318 -33.354 -14.134  1.00  0.00     0.016 C 
ATOM     27  C   UNL     1     -13.434 -35.575 -15.104  1.00  0.00     0.063 C 
ATOM     28  C   UNL     1     -11.805 -36.417 -13.377  1.00  0.00     0.033 C 
ATOM     29  C   UNL     1     -13.036 -36.763 -14.220  1.00  0.00     0.118 C 
BRANCH  29  30
ATOM     30  O   UNL     1     -14.101 -37.125 -13.378  1.00  0.00    -0.393 OA
ATOM     31  H   UNL     1     -14.584 -36.287 -13.150  1.00  0.00     0.210 HD
ENDBRANCH  29  30
ENDBRANCH   9  11
ENDBRANCH   1   9
TORSDOF 7
ENDMDL
MODEL 7
REMARK VINA RESULT:    -7.133      2.900      6.967
REMARK INTER + INTRA:         -11.952
REMARK INTER:                 -10.869
REMARK INTRA:                  -1.083
REMARK UNBOUND:                -2.108
REMARK SMILES CC[C@H](CC[C@H](C)[C@H]1CC[C@H]2[C@@H]3CC=C4C[C@H](O)CC[C@]4(C)[C@H]3CC[C@@]12C)C(C)C
REMARK SMILES IDX 5 1 4 2 3 3 2 4 1 5 28 6 29 7 30 8 6 9 7 10 8 11 9 12 26 13
REMARK SMILES IDX 10 14 11 15 25 16 27 17 12 18 24 19 23 20 13 21 21 22 14 23
REMARK SMILES IDX 15 24 20 25 22 26 16 27 19 28 17 29 18 30
REMARK H PARENT 18 31
REMARK Flexibility Score: inf
ROOT
ATOM      1  C   UNL     1     -11.085 -30.227  -8.514  1.00  0.00     0.004 C 
ENDROOT
BRANCH   1   2
ATOM      2  C   UNL     1     -11.172 -31.754  -8.311  1.00  0.00     0.004 C 
BRANCH   2   3
ATOM      3  C   UNL     1      -9.800 -32.477  -8.427  1.00  0.00    -0.009 C 
BRANCH   3   4
ATOM      4  C   UNL     1      -8.875 -32.288  -7.186  1.00  0.00     0.000 C 
ATOM      5  C   UNL     1      -9.338 -32.960  -5.892  1.00  0.00     0.004 C 
ENDBRANCH   3   4
BRANCH   3   6
ATOM      6  C   UNL     1      -9.963 -33.952  -8.936  1.00  0.00    -0.014 C 
ATOM      7  C   UNL     1      -8.902 -34.414  -9.952  1.00  0.00     0.007 C 
ATOM      8  C   UNL     1     -11.375 -34.251  -9.461  1.00  0.00     0.007 C 
ENDBRANCH   3   6
ENDBRANCH   2   3
ENDBRANCH   1   2
BRANCH   1   9
ATOM      9  C   UNL     1     -12.238 -29.663  -9.392  1.00  0.00    -0.011 C 
ATOM     10  C   UNL     1     -13.461 -30.605  -9.348  1.00  0.00     0.008 C 
BRANCH   9  11
ATOM     11  C   UNL     1     -11.724 -29.353 -10.850  1.00  0.00    -0.002 C 
ATOM     12  C   UNL     1     -10.219 -29.587 -11.024  1.00  0.00     0.005 C 
ATOM     13  C   UNL     1     -12.395 -30.102 -12.063  1.00  0.00    -0.026 C 
ATOM     14  C   UNL     1     -10.071 -30.928 -11.719  1.00  0.00     0.005 C 
ATOM     15  C   UNL     1     -11.329 -31.120 -12.584  1.00  0.00    -0.001 C 
ATOM     16  C   UNL     1     -13.746 -30.800 -11.727  1.00  0.00     0.007 C 
ATOM     17  C   UNL     1     -12.661 -29.050 -13.182  1.00  0.00     0.012 C 
ATOM     18  C   UNL     1     -11.807 -32.604 -12.611  1.00  0.00     0.000 C 
ATOM     19  C   UNL     1     -14.236 -31.705 -12.864  1.00  0.00     0.005 C 
ATOM     20  C   UNL     1     -13.174 -32.752 -13.332  1.00  0.00     0.003 C 
ATOM     21  C   UNL     1     -10.759 -33.491 -13.312  1.00  0.00     0.031 C 
ATOM     22  C   UNL     1     -13.682 -34.246 -13.297  1.00  0.00    -0.008 C 
ATOM     23  C   UNL     1     -11.255 -34.878 -13.612  1.00  0.00    -0.027 C 
ATOM     24  C   UNL     1     -12.561 -35.197 -13.741  1.00  0.00    -0.065 C 
ATOM     25  C   UNL     1     -14.888 -34.389 -14.280  1.00  0.00     0.014 C 
ATOM     26  C   UNL     1     -14.113 -34.671 -11.864  1.00  0.00     0.016 C 
ATOM     27  C   UNL     1     -12.921 -36.618 -14.131  1.00  0.00     0.063 C 
ATOM     28  C   UNL     1     -15.272 -35.843 -14.598  1.00  0.00     0.033 C 
ATOM     29  C   UNL     1     -14.080 -36.640 -15.135  1.00  0.00     0.118 C 
BRANCH  29  30
ATOM     30  O   UNL     1     -13.668 -36.104 -16.368  1.00  0.00    -0.393 OA
ATOM     31  H   UNL     1     -13.213 -36.837 -16.862  1.00  0.00     0.210 HD
ENDBRANCH  29  30
ENDBRANCH   9  11
ENDBRANCH   1   9
TORSDOF 7
ENDMDL
MODEL 8
REMARK VINA RESULT:    -6.909      2.658      6.897
REMARK INTER + INTRA:         -11.642
REMARK INTER:                 -10.480
REMARK INTRA:                  -1.162
REMARK UNBOUND:                -2.108
REMARK SMILES CC[C@H](CC[C@H](C)[C@H]1CC[C@H]2[C@@H]3CC=C4C[C@H](O)CC[C@]4(C)[C@H]3CC[C@@]12C)C(C)C
REMARK SMILES IDX 5 1 4 2 3 3 2 4 1 5 28 6 29 7 30 8 6 9 7 10 8 11 9 12 26 13
REMARK SMILES IDX 10 14 11 15 25 16 27 17 12 18 24 19 23 20 13 21 21 22 14 23
REMARK SMILES IDX 15 24 20 25 22 26 16 27 19 28 17 29 18 30
REMARK H PARENT 18 31
REMARK Flexibility Score: inf
ROOT
ATOM      1  C   UNL     1     -10.788 -28.759 -10.358  1.00  0.00     0.004 C 
ENDROOT
BRANCH   1   2
ATOM      2  C   UNL     1     -11.531 -28.517 -11.687  1.00  0.00     0.004 C 
BRANCH   2   3
ATOM      3  C   UNL     1     -12.968 -27.951 -11.504  1.00  0.00    -0.009 C 
BRANCH   3   4
ATOM      4  C   UNL     1     -13.224 -26.610 -12.258  1.00  0.00     0.000 C 
ATOM      5  C   UNL     1     -12.466 -26.421 -13.573  1.00  0.00     0.004 C 
ENDBRANCH   3   4
BRANCH   3   6
ATOM      6  C   UNL     1     -14.058 -29.061 -11.700  1.00  0.00    -0.014 C 
ATOM      7  C   UNL     1     -15.286 -28.633 -12.526  1.00  0.00     0.007 C 
ATOM      8  C   UNL     1     -14.499 -29.707 -10.378  1.00  0.00     0.007 C 
ENDBRANCH   3   6
ENDBRANCH   2   3
ENDBRANCH   1   2
BRANCH   1   9
ATOM      9  C   UNL     1     -11.265 -30.041  -9.617  1.00  0.00    -0.011 C 
ATOM     10  C   UNL     1     -11.463 -29.753  -8.113  1.00  0.00     0.008 C 
BRANCH   9  11
ATOM     11  C   UNL     1     -10.294 -31.247  -9.914  1.00  0.00    -0.002 C 
ATOM     12  C   UNL     1     -10.242 -32.277  -8.779  1.00  0.00     0.005 C 
ATOM     13  C   UNL     1     -10.519 -32.095 -11.222  1.00  0.00    -0.026 C 
ATOM     14  C   UNL     1     -11.121 -33.436  -9.213  1.00  0.00     0.005 C 
ATOM     15  C   UNL     1     -11.073 -33.479 -10.749  1.00  0.00    -0.001 C 
ATOM     16  C   UNL     1     -11.454 -31.427 -12.274  1.00  0.00     0.007 C 
ATOM     17  C   UNL     1      -9.128 -32.320 -11.888  1.00  0.00     0.012 C 
ATOM     18  C   UNL     1     -12.444 -33.878 -11.373  1.00  0.00     0.000 C 
ATOM     19  C   UNL     1     -11.831 -32.383 -13.414  1.00  0.00     0.005 C 
ATOM     20  C   UNL     1     -12.432 -33.739 -12.920  1.00  0.00     0.003 C 
ATOM     21  C   UNL     1     -12.804 -35.327 -10.992  1.00  0.00     0.031 C 
ATOM     22  C   UNL     1     -13.844 -34.080 -13.537  1.00  0.00    -0.008 C 
ATOM     23  C   UNL     1     -13.974 -35.875 -11.761  1.00  0.00    -0.027 C 
ATOM     24  C   UNL     1     -14.363 -35.409 -12.968  1.00  0.00    -0.065 C 
ATOM     25  C   UNL     1     -13.694 -34.217 -15.086  1.00  0.00     0.014 C 
ATOM     26  C   UNL     1     -14.897 -32.986 -13.200  1.00  0.00     0.016 C 
ATOM     27  C   UNL     1     -15.508 -36.109 -13.676  1.00  0.00     0.063 C 
ATOM     28  C   UNL     1     -14.902 -34.865 -15.781  1.00  0.00     0.033 C 
ATOM     29  C   UNL     1     -15.235 -36.234 -15.180  1.00  0.00     0.118 C 
BRANCH  29  30
ATOM     30  O   UNL     1     -14.172 -37.124 -15.412  1.00  0.00    -0.393 OA
ATOM     31  H   UNL     1     -14.423 -37.988 -14.989  1.00  0.00     0.210 HD
ENDBRANCH  29  30
ENDBRANCH   9  11
ENDBRANCH   1   9
TORSDOF 7
ENDMDL
MODEL 9
REMARK VINA RESULT:    -6.245      2.563      6.890
REMARK INTER + INTRA:         -10.726
REMARK INTER:                  -9.668
REMARK INTRA:                  -1.058
REMARK UNBOUND:                -2.108
REMARK SMILES CC[C@H](CC[C@H](C)[C@H]1CC[C@H]2[C@@H]3CC=C4C[C@H](O)CC[C@]4(C)[C@H]3CC[C@@]12C)C(C)C
REMARK SMILES IDX 5 1 4 2 3 3 2 4 1 5 28 6 29 7 30 8 6 9 7 10 8 11 9 12 26 13
REMARK SMILES IDX 10 14 11 15 25 16 27 17 12 18 24 19 23 20 13 21 21 22 14 23
REMARK SMILES IDX 15 24 20 25 22 26 16 27 19 28 17 29 18 30
REMARK H PARENT 18 31
REMARK Flexibility Score: inf
ROOT
ATOM      1  C   UNL     1     -11.255 -28.708 -11.443  1.00  0.00     0.004 C 
ENDROOT
BRANCH   1   2
ATOM      2  C   UNL     1     -12.247 -27.551 -11.680  1.00  0.00     0.004 C 
BRANCH   2   3
ATOM      3  C   UNL     1     -13.522 -27.974 -12.463  1.00  0.00    -0.009 C 
BRANCH   3   4
ATOM      4  C   UNL     1     -14.125 -29.338 -12.007  1.00  0.00     0.000 C 
ATOM      5  C   UNL     1     -14.503 -29.448 -10.530  1.00  0.00     0.004 C 
ENDBRANCH   3   4
BRANCH   3   6
ATOM      6  C   UNL     1     -14.542 -26.789 -12.593  1.00  0.00    -0.014 C 
ATOM      7  C   UNL     1     -14.354 -25.897 -13.835  1.00  0.00     0.007 C 
ATOM      8  C   UNL     1     -14.626 -25.929 -11.324  1.00  0.00     0.007 C 
ENDBRANCH   3   6
ENDBRANCH   2   3
ENDBRANCH   1   2
BRANCH   1   9
ATOM      9  C   UNL     1     -10.348 -28.488 -10.199  1.00  0.00    -0.011 C 
ATOM     10  C   UNL     1      -9.048 -27.758 -10.601  1.00  0.00     0.008 C 
BRANCH   9  11
ATOM     11  C   UNL     1     -10.106 -29.850  -9.441  1.00  0.00    -0.002 C 
ATOM     12  C   UNL     1     -11.113 -30.103  -8.312  1.00  0.00     0.005 C 
ATOM     13  C   UNL     1     -10.087 -31.186 -10.275  1.00  0.00    -0.026 C 
ATOM     14  C   UNL     1     -12.134 -31.084  -8.861  1.00  0.00     0.005 C 
ATOM     15  C   UNL     1     -11.405 -31.943  -9.907  1.00  0.00    -0.001 C 
ATOM     16  C   UNL     1      -9.944 -30.988 -11.813  1.00  0.00     0.007 C 
ATOM     17  C   UNL     1      -8.875 -32.035  -9.785  1.00  0.00     0.012 C 
ATOM     18  C   UNL     1     -12.314 -32.293 -11.123  1.00  0.00     0.000 C 
ATOM     19  C   UNL     1     -10.168 -32.289 -12.595  1.00  0.00     0.005 C 
ATOM     20  C   UNL     1     -11.516 -33.001 -12.251  1.00  0.00     0.003 C 
ATOM     21  C   UNL     1     -13.481 -33.196 -10.677  1.00  0.00     0.031 C 
ATOM     22  C   UNL     1     -12.429 -33.291 -13.505  1.00  0.00    -0.008 C 
ATOM     23  C   UNL     1     -14.251 -33.789 -11.824  1.00  0.00    -0.027 C 
ATOM     24  C   UNL     1     -13.739 -33.961 -13.063  1.00  0.00    -0.065 C 
ATOM     25  C   UNL     1     -11.667 -34.257 -14.468  1.00  0.00     0.014 C 
ATOM     26  C   UNL     1     -12.806 -31.982 -14.256  1.00  0.00     0.016 C 
ATOM     27  C   UNL     1     -14.595 -34.651 -14.107  1.00  0.00     0.063 C 
ATOM     28  C   UNL     1     -12.550 -34.885 -15.559  1.00  0.00     0.033 C 
ATOM     29  C   UNL     1     -13.758 -35.612 -14.961  1.00  0.00     0.118 C 
BRANCH  29  30
ATOM     30  O   UNL     1     -13.322 -36.701 -14.188  1.00  0.00    -0.393 OA
ATOM     31  H   UNL     1     -12.505 -37.056 -14.627  1.00  0.00     0.210 HD
ENDBRANCH  29  30
ENDBRANCH   9  11
ENDBRANCH   1   9
TORSDOF 7
ENDMDL
