MODEL 1
REMARK VINA RESULT:    -2.607      0.000      0.000
REMARK INTER + INTRA:          -4.775
REMARK INTER:                  -3.597
REMARK INTRA:                  -1.178
REMARK UNBOUND:                -1.178
REMARK SMILES CC[C@@H](CC[C@H](C)[C@@H]1CC[C@@H]2[C@@H]3CC=C4C[C@H](O)CC[C@@]4(C)[C@H]3CC[C@]21C)C(C)C
REMARK SMILES IDX 5 1 4 2 3 3 2 4 1 5 28 6 29 7 30 8 6 9 7 10 8 11 9 12 26 13
REMARK SMILES IDX 10 14 11 15 25 16 27 17 12 18 24 19 23 20 13 21 21 22 14 23
REMARK SMILES IDX 15 24 20 25 22 26 16 27 19 28 17 29 18 30
REMARK H PARENT 18 31
REMARK Flexibility Score: inf
ROOT
ATOM      1  C   UNL     1       3.754  48.143   7.252  1.00  0.00     0.004 C 
ENDROOT
BRANCH   1   2
ATOM      2  C   UNL     1       4.371  49.464   7.775  1.00  0.00     0.004 C 
BRANCH   2   3
ATOM      3  C   UNL     1       5.791  49.292   8.387  1.00  0.00    -0.009 C 
BRANCH   3   4
ATOM      4  C   UNL     1       5.895  48.079   9.354  1.00  0.00     0.000 C 
ATOM      5  C   UNL     1       7.244  47.367   9.395  1.00  0.00     0.004 C 
ENDBRANCH   3   4
BRANCH   3   6
ATOM      6  C   UNL     1       6.378  50.641   8.925  1.00  0.00    -0.014 C 
ATOM      7  C   UNL     1       6.734  50.655  10.419  1.00  0.00     0.007 C 
ATOM      8  C   UNL     1       7.571  51.124   8.089  1.00  0.00     0.007 C 
ENDBRANCH   3   6
ENDBRANCH   2   3
ENDBRANCH   1   2
BRANCH   1   9
ATOM      9  C   UNL     1       2.198  48.125   7.302  1.00  0.00    -0.011 C 
ATOM     10  C   UNL     1       1.664  49.437   7.876  1.00  0.00     0.008 C 
BRANCH   9  11
ATOM     11  C   UNL     1       1.632  46.806   7.933  1.00  0.00    -0.002 C 
ATOM     12  C   UNL     1       0.143  46.882   8.325  1.00  0.00     0.005 C 
ATOM     13  C   UNL     1       2.295  46.064   9.150  1.00  0.00    -0.026 C 
ATOM     14  C   UNL     1      -0.096  45.718   9.312  1.00  0.00     0.005 C 
ATOM     15  C   UNL     1       1.233  44.965   9.348  1.00  0.00    -0.001 C 
ATOM     16  C   UNL     1       3.642  45.371   8.841  1.00  0.00     0.007 C 
ATOM     17  C   UNL     1       2.399  46.991  10.415  1.00  0.00     0.012 C 
ATOM     18  C   UNL     1       1.525  43.903  10.457  1.00  0.00     0.000 C 
ATOM     19  C   UNL     1       3.989  44.164   9.768  1.00  0.00     0.005 C 
ATOM     20  C   UNL     1       2.997  43.922  10.947  1.00  0.00     0.003 C 
ATOM     21  C   UNL     1       0.608  43.947  11.688  1.00  0.00     0.031 C 
ATOM     22  C   UNL     1       3.326  42.672  11.880  1.00  0.00    -0.008 C 
ATOM     23  C   UNL     1       0.858  42.724  12.526  1.00  0.00    -0.027 C 
ATOM     24  C   UNL     1       2.065  42.103  12.570  1.00  0.00    -0.065 C 
ATOM     25  C   UNL     1       3.996  41.517  11.073  1.00  0.00     0.014 C 
ATOM     26  C   UNL     1       4.299  43.146  12.994  1.00  0.00     0.016 C 
ATOM     27  C   UNL     1       2.192  40.792  13.316  1.00  0.00     0.063 C 
ATOM     28  C   UNL     1       4.155  40.208  11.870  1.00  0.00     0.033 C 
ATOM     29  C   UNL     1       2.805  39.728  12.399  1.00  0.00     0.118 C 
BRANCH  29  30
ATOM     30  O   UNL     1       2.989  38.523  13.095  1.00  0.00    -0.393 OA
ATOM     31  H   UNL     1       3.941  38.500  13.371  1.00  0.00     0.210 HD
ENDBRANCH  29  30
ENDBRANCH   9  11
ENDBRANCH   1   9
TORSDOF 7
ENDMDL
MODEL 2
REMARK VINA RESULT:    -2.126      2.240      4.511
REMARK INTER + INTRA:          -4.111
REMARK INTER:                  -2.601
REMARK INTRA:                  -1.510
REMARK UNBOUND:                -1.178
REMARK SMILES CC[C@@H](CC[C@H](C)[C@@H]1CC[C@@H]2[C@@H]3CC=C4C[C@H](O)CC[C@@]4(C)[C@H]3CC[C@]21C)C(C)C
REMARK SMILES IDX 5 1 4 2 3 3 2 4 1 5 28 6 29 7 30 8 6 9 7 10 8 11 9 12 26 13
REMARK SMILES IDX 10 14 11 15 25 16 27 17 12 18 24 19 23 20 13 21 21 22 14 23
REMARK SMILES IDX 15 24 20 25 22 26 16 27 19 28 17 29 18 30
REMARK H PARENT 18 31
REMARK Flexibility Score: inf
ROOT
ATOM      1  C   UNL     1       3.033  47.473   8.799  1.00  0.00     0.004 C 
ENDROOT
BRANCH   1   2
ATOM      2  C   UNL     1       2.199  46.673   7.768  1.00  0.00     0.004 C 
BRANCH   2   3
ATOM      3  C   UNL     1       0.735  47.180   7.616  1.00  0.00    -0.009 C 
BRANCH   3   4
ATOM      4  C   UNL     1       0.351  48.252   8.674  1.00  0.00     0.000 C 
ATOM      5  C   UNL     1      -1.052  48.137   9.267  1.00  0.00     0.004 C 
ENDBRANCH   3   4
BRANCH   3   6
ATOM      6  C   UNL     1      -0.288  46.009   7.433  1.00  0.00    -0.014 C 
ATOM      7  C   UNL     1      -1.122  46.058   6.145  1.00  0.00     0.007 C 
ATOM      8  C   UNL     1       0.377  44.634   7.584  1.00  0.00     0.007 C 
ENDBRANCH   3   6
ENDBRANCH   2   3
ENDBRANCH   1   2
BRANCH   1   9
ATOM      9  C   UNL     1       3.525  46.611   9.997  1.00  0.00    -0.011 C 
ATOM     10  C   UNL     1       5.022  46.326   9.874  1.00  0.00     0.008 C 
BRANCH   9  11
ATOM     11  C   UNL     1       2.599  45.375  10.271  1.00  0.00    -0.002 C 
ATOM     12  C   UNL     1       1.243  45.731  10.910  1.00  0.00     0.005 C 
ATOM     13  C   UNL     1       3.058  44.099  11.065  1.00  0.00    -0.026 C 
ATOM     14  C   UNL     1       0.699  44.416  11.510  1.00  0.00     0.005 C 
ATOM     15  C   UNL     1       1.710  43.352  11.085  1.00  0.00    -0.001 C 
ATOM     16  C   UNL     1       4.084  43.204  10.334  1.00  0.00     0.007 C 
ATOM     17  C   UNL     1       3.534  44.454  12.520  1.00  0.00     0.012 C 
ATOM     18  C   UNL     1       1.707  41.933  11.741  1.00  0.00     0.000 C 
ATOM     19  C   UNL     1       4.076  41.704  10.765  1.00  0.00     0.005 C 
ATOM     20  C   UNL     1       3.132  41.359  11.958  1.00  0.00     0.003 C 
ATOM     21  C   UNL     1       0.931  41.804  13.060  1.00  0.00     0.031 C 
ATOM     22  C   UNL     1       3.092  39.823  12.385  1.00  0.00    -0.008 C 
ATOM     23  C   UNL     1       0.819  40.348  13.420  1.00  0.00    -0.027 C 
ATOM     24  C   UNL     1       1.759  39.434  13.064  1.00  0.00    -0.065 C 
ATOM     25  C   UNL     1       3.300  38.884  11.156  1.00  0.00     0.014 C 
ATOM     26  C   UNL     1       4.232  39.579  13.411  1.00  0.00     0.016 C 
ATOM     27  C   UNL     1       1.498  37.967  13.330  1.00  0.00     0.063 C 
ATOM     28  C   UNL     1       3.073  37.391  11.467  1.00  0.00     0.033 C 
ATOM     29  C   UNL     1       1.674  37.163  12.038  1.00  0.00     0.118 C 
BRANCH  29  30
ATOM     30  O   UNL     1       1.498  35.792  12.280  1.00  0.00    -0.393 OA
ATOM     31  H   UNL     1       2.178  35.536  12.955  1.00  0.00     0.210 HD
ENDBRANCH  29  30
ENDBRANCH   9  11
ENDBRANCH   1   9
TORSDOF 7
ENDMDL
MODEL 3
REMARK VINA RESULT:    -2.023      0.633      1.592
REMARK INTER + INTRA:          -3.970
REMARK INTER:                  -3.506
REMARK INTRA:                  -0.465
REMARK UNBOUND:                -1.178
REMARK SMILES CC[C@@H](CC[C@H](C)[C@@H]1CC[C@@H]2[C@@H]3CC=C4C[C@H](O)CC[C@@]4(C)[C@H]3CC[C@]21C)C(C)C
REMARK SMILES IDX 5 1 4 2 3 3 2 4 1 5 28 6 29 7 30 8 6 9 7 10 8 11 9 12 26 13
REMARK SMILES IDX 10 14 11 15 25 16 27 17 12 18 24 19 23 20 13 21 21 22 14 23
REMARK SMILES IDX 15 24 20 25 22 26 16 27 19 28 17 29 18 30
REMARK H PARENT 18 31
REMARK Flexibility Score: inf
ROOT
ATOM      1  C   UNL     1       3.801  47.738   7.615  1.00  0.00     0.004 C 
ENDROOT
BRANCH   1   2
ATOM      2  C   UNL     1       4.456  49.115   7.881  1.00  0.00     0.004 C 
BRANCH   2   3
ATOM      3  C   UNL     1       5.619  49.067   8.915  1.00  0.00    -0.009 C 
BRANCH   3   4
ATOM      4  C   UNL     1       6.639  50.226   8.738  1.00  0.00     0.000 C 
ATOM      5  C   UNL     1       6.873  51.107   9.962  1.00  0.00     0.004 C 
ENDBRANCH   3   4
BRANCH   3   6
ATOM      6  C   UNL     1       6.236  47.634   9.055  1.00  0.00    -0.014 C 
ATOM      7  C   UNL     1       7.770  47.580   9.110  1.00  0.00     0.007 C 
ATOM      8  C   UNL     1       5.633  46.860  10.236  1.00  0.00     0.007 C 
ENDBRANCH   3   6
ENDBRANCH   2   3
ENDBRANCH   1   2
BRANCH   1   9
ATOM      9  C   UNL     1       2.247  47.794   7.556  1.00  0.00    -0.011 C 
ATOM     10  C   UNL     1       1.742  49.170   7.991  1.00  0.00     0.008 C 
BRANCH   9  11
ATOM     11  C   UNL     1       1.573  46.555   8.242  1.00  0.00    -0.002 C 
ATOM     12  C   UNL     1       0.173  46.839   8.823  1.00  0.00     0.005 C 
ATOM     13  C   UNL     1       2.266  45.690   9.357  1.00  0.00    -0.026 C 
ATOM     14  C   UNL     1      -0.110  45.696   9.822  1.00  0.00     0.005 C 
ATOM     15  C   UNL     1       1.085  44.755   9.679  1.00  0.00    -0.001 C 
ATOM     16  C   UNL     1       3.444  44.815   8.871  1.00  0.00     0.007 C 
ATOM     17  C   UNL     1       2.666  46.555  10.606  1.00  0.00     0.012 C 
ATOM     18  C   UNL     1       1.351  43.630  10.732  1.00  0.00     0.000 C 
ATOM     19  C   UNL     1       3.721  43.545   9.734  1.00  0.00     0.005 C 
ATOM     20  C   UNL     1       2.860  43.418  11.028  1.00  0.00     0.003 C 
ATOM     21  C   UNL     1       0.614  43.774  12.071  1.00  0.00     0.031 C 
ATOM     22  C   UNL     1       3.113  42.107  11.900  1.00  0.00    -0.008 C 
ATOM     23  C   UNL     1       0.781  42.504  12.859  1.00  0.00    -0.027 C 
ATOM     24  C   UNL     1       1.878  41.711  12.741  1.00  0.00    -0.065 C 
ATOM     25  C   UNL     1       3.495  40.890  11.002  1.00  0.00     0.014 C 
ATOM     26  C   UNL     1       4.278  42.400  12.883  1.00  0.00     0.016 C 
ATOM     27  C   UNL     1       1.900  40.375  13.453  1.00  0.00     0.063 C 
ATOM     28  C   UNL     1       3.556  39.549  11.761  1.00  0.00     0.033 C 
ATOM     29  C   UNL     1       2.226  39.259  12.455  1.00  0.00     0.118 C 
BRANCH  29  30
ATOM     30  O   UNL     1       2.314  38.020  13.109  1.00  0.00    -0.393 OA
ATOM     31  H   UNL     1       2.959  38.139  13.853  1.00  0.00     0.210 HD
ENDBRANCH  29  30
ENDBRANCH   9  11
ENDBRANCH   1   9
TORSDOF 7
ENDMDL
MODEL 4
REMARK VINA RESULT:     0.156      2.856      8.179
REMARK INTER + INTRA:          -0.964
REMARK INTER:                  -0.436
REMARK INTRA:                  -0.527
REMARK UNBOUND:                -1.178
REMARK SMILES CC[C@@H](CC[C@H](C)[C@@H]1CC[C@@H]2[C@@H]3CC=C4C[C@H](O)CC[C@@]4(C)[C@H]3CC[C@]21C)C(C)C
REMARK SMILES IDX 5 1 4 2 3 3 2 4 1 5 28 6 29 7 30 8 6 9 7 10 8 11 9 12 26 13
REMARK SMILES IDX 10 14 11 15 25 16 27 17 12 18 24 19 23 20 13 21 21 22 14 23
REMARK SMILES IDX 15 24 20 25 22 26 16 27 19 28 17 29 18 30
REMARK H PARENT 18 31
REMARK Flexibility Score: inf
ROOT
ATOM      1  C   UNL     1       1.506  41.145  12.103  1.00  0.00     0.004 C 
ENDROOT
BRANCH   1   2
ATOM      2  C   UNL     1       2.086  39.945  12.892  1.00  0.00     0.004 C 
BRANCH   2   3
ATOM      3  C   UNL     1       3.184  39.159  12.118  1.00  0.00    -0.009 C 
BRANCH   3   4
ATOM      4  C   UNL     1       2.954  37.622  12.130  1.00  0.00     0.000 C 
ATOM      5  C   UNL     1       1.499  37.161  12.103  1.00  0.00     0.004 C 
ENDBRANCH   3   4
BRANCH   3   6
ATOM      6  C   UNL     1       4.631  39.633  12.486  1.00  0.00    -0.014 C 
ATOM      7  C   UNL     1       4.903  41.131  12.290  1.00  0.00     0.007 C 
ATOM      8  C   UNL     1       5.036  39.199  13.902  1.00  0.00     0.007 C 
ENDBRANCH   3   6
ENDBRANCH   2   3
ENDBRANCH   1   2
BRANCH   1   9
ATOM      9  C   UNL     1       0.907  42.254  13.017  1.00  0.00    -0.011 C 
ATOM     10  C   UNL     1      -0.468  41.836  13.539  1.00  0.00     0.008 C 
BRANCH   9  11
ATOM     11  C   UNL     1       1.005  43.681  12.374  1.00  0.00    -0.002 C 
ATOM     12  C   UNL     1      -0.279  44.138  11.653  1.00  0.00     0.005 C 
ATOM     13  C   UNL     1       2.153  44.122  11.396  1.00  0.00    -0.026 C 
ATOM     14  C   UNL     1       0.145  45.299  10.727  1.00  0.00     0.005 C 
ATOM     15  C   UNL     1       1.622  45.526  11.047  1.00  0.00    -0.001 C 
ATOM     16  C   UNL     1       3.544  44.292  12.050  1.00  0.00     0.007 C 
ATOM     17  C   UNL     1       2.222  43.206  10.121  1.00  0.00     0.012 C 
ATOM     18  C   UNL     1       2.520  46.401  10.113  1.00  0.00     0.000 C 
ATOM     19  C   UNL     1       4.500  45.284  11.316  1.00  0.00     0.005 C 
ATOM     20  C   UNL     1       3.964  45.851   9.966  1.00  0.00     0.003 C 
ATOM     21  C   UNL     1       1.965  46.673   8.707  1.00  0.00     0.031 C 
ATOM     22  C   UNL     1       4.920  46.890   9.226  1.00  0.00    -0.008 C 
ATOM     23  C   UNL     1       2.817  47.716   8.039  1.00  0.00    -0.027 C 
ATOM     24  C   UNL     1       4.139  47.864   8.314  1.00  0.00    -0.065 C 
ATOM     25  C   UNL     1       5.741  47.738  10.247  1.00  0.00     0.014 C 
ATOM     26  C   UNL     1       5.900  46.087   8.328  1.00  0.00     0.016 C 
ATOM     27  C   UNL     1       4.890  49.034   7.715  1.00  0.00     0.063 C 
ATOM     28  C   UNL     1       6.532  48.894   9.604  1.00  0.00     0.033 C 
ATOM     29  C   UNL     1       5.601  49.819   8.822  1.00  0.00     0.118 C 
BRANCH  29  30
ATOM     30  O   UNL     1       6.354  50.871   8.278  1.00  0.00    -0.393 OA
ATOM     31  H   UNL     1       7.304  50.669   8.476  1.00  0.00     0.210 HD
ENDBRANCH  29  30
ENDBRANCH   9  11
ENDBRANCH   1   9
TORSDOF 7
ENDMDL
MODEL 5
REMARK VINA RESULT:     0.221      2.902      8.476
REMARK INTER + INTRA:          -0.873
REMARK INTER:                  -0.378
REMARK INTRA:                  -0.495
REMARK UNBOUND:                -1.178
REMARK SMILES CC[C@@H](CC[C@H](C)[C@@H]1CC[C@@H]2[C@@H]3CC=C4C[C@H](O)CC[C@@]4(C)[C@H]3CC[C@]21C)C(C)C
REMARK SMILES IDX 5 1 4 2 3 3 2 4 1 5 28 6 29 7 30 8 6 9 7 10 8 11 9 12 26 13
REMARK SMILES IDX 10 14 11 15 25 16 27 17 12 18 24 19 23 20 13 21 21 22 14 23
REMARK SMILES IDX 15 24 20 25 22 26 16 27 19 28 17 29 18 30
REMARK H PARENT 18 31
REMARK Flexibility Score: inf
ROOT
ATOM      1  C   UNL     1       1.807  41.101  12.557  1.00  0.00     0.004 C 
ENDROOT
BRANCH   1   2
ATOM      2  C   UNL     1       1.685  39.682  13.165  1.00  0.00     0.004 C 
BRANCH   2   3
ATOM      3  C   UNL     1       2.879  38.747  12.816  1.00  0.00    -0.009 C 
BRANCH   3   4
ATOM      4  C   UNL     1       4.192  39.522  12.515  1.00  0.00     0.000 C 
ATOM      5  C   UNL     1       5.216  39.573  13.646  1.00  0.00     0.004 C 
ENDBRANCH   3   4
BRANCH   3   6
ATOM      6  C   UNL     1       2.490  37.642  11.776  1.00  0.00    -0.014 C 
ATOM      7  C   UNL     1       3.586  36.612  11.469  1.00  0.00     0.007 C 
ATOM      8  C   UNL     1       1.183  36.931  12.153  1.00  0.00     0.007 C 
ENDBRANCH   3   6
ENDBRANCH   2   3
ENDBRANCH   1   2
BRANCH   1   9
ATOM      9  C   UNL     1       0.831  42.132  13.195  1.00  0.00    -0.011 C 
ATOM     10  C   UNL     1      -0.572  41.539  13.320  1.00  0.00     0.008 C 
BRANCH   9  11
ATOM     11  C   UNL     1       0.932  43.548  12.528  1.00  0.00    -0.002 C 
ATOM     12  C   UNL     1      -0.356  44.003  11.813  1.00  0.00     0.005 C 
ATOM     13  C   UNL     1       2.073  43.966  11.531  1.00  0.00    -0.026 C 
ATOM     14  C   UNL     1       0.067  45.145  10.863  1.00  0.00     0.005 C 
ATOM     15  C   UNL     1       1.548  45.367  11.165  1.00  0.00    -0.001 C 
ATOM     16  C   UNL     1       3.471  44.136  12.169  1.00  0.00     0.007 C 
ATOM     17  C   UNL     1       2.123  43.028  10.271  1.00  0.00     0.012 C 
ATOM     18  C   UNL     1       2.443  46.221  10.208  1.00  0.00     0.000 C 
ATOM     19  C   UNL     1       4.427  45.109  11.410  1.00  0.00     0.005 C 
ATOM     20  C   UNL     1       3.881  45.658  10.056  1.00  0.00     0.003 C 
ATOM     21  C   UNL     1       1.875  46.474   8.804  1.00  0.00     0.031 C 
ATOM     22  C   UNL     1       4.837  46.679   9.290  1.00  0.00    -0.008 C 
ATOM     23  C   UNL     1       2.728  47.500   8.111  1.00  0.00    -0.027 C 
ATOM     24  C   UNL     1       4.054  47.643   8.370  1.00  0.00    -0.065 C 
ATOM     25  C   UNL     1       5.674  47.537  10.288  1.00  0.00     0.014 C 
ATOM     26  C   UNL     1       5.802  45.854   8.395  1.00  0.00     0.016 C 
ATOM     27  C   UNL     1       4.806  48.798   7.745  1.00  0.00     0.063 C 
ATOM     28  C   UNL     1       6.466  48.677   9.620  1.00  0.00     0.033 C 
ATOM     29  C   UNL     1       5.533  49.596   8.832  1.00  0.00     0.118 C 
BRANCH  29  30
ATOM     30  O   UNL     1       6.288  50.634   8.263  1.00  0.00    -0.393 OA
ATOM     31  H   UNL     1       6.264  51.386   8.908  1.00  0.00     0.210 HD
ENDBRANCH  29  30
ENDBRANCH   9  11
ENDBRANCH   1   9
TORSDOF 7
ENDMDL
