MODEL 1
REMARK VINA RESULT:    64.503      0.000      0.000
REMARK INTER + INTRA:         136.662
REMARK INTER:                 136.150
REMARK INTRA:                   0.512
REMARK UNBOUND:                 0.512
REMARK SMILES CCC(=O)CCCCC[C@H]1NC(=O)[C@H]2CCCCN2C(=O)[C@@H]([C@H](C)CC)NC(=O)[C@H](Cc2cn(OC)c3ccccc23)NC1=O
REMARK SMILES IDX 9 1 10 2 44 3 43 4 45 6 30 7 28 8 27 9 29 11 22 12 23 14
REMARK SMILES IDX 24 15 25 16 26 17 31 18 32 19 33 20 42 21 34 22 37 23 41 24
REMARK SMILES IDX 38 25 40 26 39 27 35 28 36 29 11 30 12 31 13 33 14 34 19 35
REMARK SMILES IDX 15 36 18 37 16 38 17 39 20 40 21 41 8 43 7 44 6 45 5 46 3 47
REMARK SMILES IDX 4 48 2 49 1 50
REMARK H PARENT 43 5 27 10 11 32
REMARK Flexibility Score: 80.00
ROOT
ATOM      1  C   UNL     1     -36.474   8.641  19.757  1.00  0.00     0.035 C 
ENDROOT
BRANCH   1   2
ATOM      2  C   UNL     1     -35.796   8.915  21.118  1.00  0.00     0.171 C 
BRANCH   2   3
ATOM      3  C   UNL     1     -34.667   9.914  20.986  1.00  0.00     0.243 C 
ATOM      4  N   UNL     1     -34.943  11.320  21.026  1.00  0.00    -0.342 N 
ATOM      5  H   UNL     1     -35.935  11.632  20.930  1.00  0.00     0.164 HD
ATOM      6  O   UNL     1     -33.479   9.507  20.885  1.00  0.00    -0.273 OA
BRANCH   4   7
ATOM      7  C   UNL     1     -33.964  12.280  21.534  1.00  0.00     0.175 C 
BRANCH   7   8
ATOM      8  C   UNL     1     -34.103  12.360  23.034  1.00  0.00     0.243 C 
ATOM      9  N   UNL     1     -34.029  11.160  23.820  1.00  0.00    -0.342 N 
ATOM     10  H   UNL     1     -33.983  10.251  23.311  1.00  0.00     0.164 HD
ATOM     11  O   UNL     1     -34.361  13.463  23.587  1.00  0.00    -0.273 OA
BRANCH   9  12
ATOM     12  C   UNL     1     -34.088  11.159  25.289  1.00  0.00     0.174 CG0
ATOM     13  G   UNL     1     -34.781   9.907  25.786  1.00  0.00     0.000 G0
BRANCH  12  14
ATOM     14  C   UNL     1     -32.679  11.451  25.891  1.00  0.00     0.018 C 
ATOM     15  C   UNL     1     -31.479  10.874  25.110  1.00  0.00     0.010 C 
BRANCH  14  16
ATOM     16  C   UNL     1     -32.576  11.213  27.421  1.00  0.00     0.002 C 
ATOM     17  C   UNL     1     -32.451   9.754  27.871  1.00  0.00     0.004 C 
ENDBRANCH  14  16
ENDBRANCH  12  14
ENDBRANCH   9  12
ENDBRANCH   7   8
BRANCH   7  18
ATOM     18  C   UNL     1     -34.166  13.641  20.841  1.00  0.00     0.073 C 
BRANCH  18  19
ATOM     19  C   UNL     1     -33.717  13.608  19.408  1.00  0.00    -0.016 A 
ATOM     20  C   UNL     1     -32.755  12.773  18.866  1.00  0.00     0.134 A 
ATOM     21  C   UNL     1     -34.152  14.403  18.368  1.00  0.00     0.006 A 
ATOM     22  N   UNL     1     -32.589  13.032  17.551  1.00  0.00    -0.191 N 
ATOM     23  C   UNL     1     -33.449  14.039  17.240  1.00  0.00     0.087 A 
ATOM     24  C   UNL     1     -35.111  15.417  18.351  1.00  0.00     0.011 A 
ATOM     25  C   UNL     1     -33.672  14.701  16.020  1.00  0.00     0.030 A 
ATOM     26  C   UNL     1     -35.358  16.077  17.136  1.00  0.00     0.001 A 
ATOM     27  C   UNL     1     -34.636  15.724  15.981  1.00  0.00     0.002 A 
BRANCH  22  28
ATOM     28  O   UNL     1     -31.682  12.329  16.770  1.00  0.00    -0.417 OA
ATOM     29  C   UNL     1     -30.319  12.688  16.592  1.00  0.00     0.313 C 
ENDBRANCH  22  28
ENDBRANCH  18  19
ENDBRANCH   7  18
ENDBRANCH   4   7
ENDBRANCH   2   3
BRANCH   2  30
ATOM     30  N   UNL     1     -35.336   7.669  21.751  1.00  0.00    -0.343 N 
ATOM     31  C   UNL     1     -34.565   7.688  22.954  1.00  0.00     0.243 C 
ATOM     32  H   UNL     1     -35.890   6.800  21.569  1.00  0.00     0.164 HD
ATOM     33  O   UNL     1     -33.314   7.552  22.881  1.00  0.00    -0.273 OA
BRANCH  31  34
ATOM     34  C   UNL     1     -35.248   7.903  24.288  1.00  0.00     0.174 C 
ATOM     35  N   UNL     1     -34.368   8.600  25.251  1.00  0.00    -0.329 N 
ATOM     36  C   UNL     1     -35.710   6.565  24.896  1.00  0.00     0.035 C 
ATOM     37  C   UNL     1     -33.509   7.810  26.156  1.00  0.00     0.120 C 
ATOM     38  C   UNL     1     -34.524   5.640  25.243  1.00  0.00     0.004 C 
ATOM     39  C   UNL     1     -33.232   6.403  25.605  1.00  0.00     0.022 C 
BRANCH  35  40
ATOM     40  C   UNL     1     -34.788   9.887  25.733  1.00  0.00     0.246 CG0
ATOM     41  O   UNL     1     -35.806   9.950  26.472  1.00  0.00    -0.272 OA
ATOM     42  G   UNL     1     -34.113  11.175  25.307  1.00  0.00     0.000 G0
ENDBRANCH  35  40
ENDBRANCH  31  34
ENDBRANCH   2  30
ENDBRANCH   1   2
BRANCH   1  43
ATOM     43  C   UNL     1     -37.814   7.877  19.856  1.00  0.00     0.003 C 
BRANCH  43  44
ATOM     44  C   UNL     1     -37.875   6.648  18.928  1.00  0.00     0.001 C 
BRANCH  44  45
ATOM     45  C   UNL     1     -38.031   5.294  19.647  1.00  0.00     0.008 C 
BRANCH  45  46
ATOM     46  C   UNL     1     -39.493   4.819  19.732  1.00  0.00     0.075 C 
BRANCH  46  47
ATOM     47  C   UNL     1     -39.681   3.536  18.959  1.00  0.00     0.132 C 
ATOM     48  O   UNL     1     -39.529   3.530  17.744  1.00  0.00    -0.300 OA
BRANCH  47  49
ATOM     49  C   UNL     1     -40.053   2.262  19.663  1.00  0.00     0.072 C 
ATOM     50  C   UNL     1     -38.850   1.677  20.386  1.00  0.00     0.012 C 
ENDBRANCH  47  49
ENDBRANCH  46  47
ENDBRANCH  45  46
ENDBRANCH  44  45
ENDBRANCH  43  44
ENDBRANCH   1  43
TORSDOF 12
ENDMDL
MODEL 2
REMARK VINA RESULT:    65.828      2.451      3.722
REMARK INTER + INTRA:         139.458
REMARK INTER:                 139.176
REMARK INTRA:                   0.281
REMARK UNBOUND:                 0.512
REMARK SMILES CCC(=O)CCCCC[C@H]1NC(=O)[C@H]2CCCCN2C(=O)[C@@H]([C@H](C)CC)NC(=O)[C@H](Cc2cn(OC)c3ccccc23)NC1=O
REMARK SMILES IDX 9 1 10 2 44 3 43 4 45 6 30 7 28 8 27 9 29 11 22 12 23 14
REMARK SMILES IDX 24 15 25 16 26 17 31 18 32 19 33 20 42 21 34 22 37 23 41 24
REMARK SMILES IDX 38 25 40 26 39 27 35 28 36 29 11 30 12 31 13 33 14 34 19 35
REMARK SMILES IDX 15 36 18 37 16 38 17 39 20 40 21 41 8 43 7 44 6 45 5 46 3 47
REMARK SMILES IDX 4 48 2 49 1 50
REMARK H PARENT 43 5 27 10 11 32
REMARK Flexibility Score: 80.00
ROOT
ATOM      1  C   UNL     1     -36.546   8.935  19.742  1.00  0.00     0.035 C 
ENDROOT
BRANCH   1   2
ATOM      2  C   UNL     1     -35.898   9.052  21.140  1.00  0.00     0.171 C 
BRANCH   2   3
ATOM      3  C   UNL     1     -34.709   9.989  21.125  1.00  0.00     0.243 C 
ATOM      4  N   UNL     1     -34.899  11.386  20.869  1.00  0.00    -0.342 N 
ATOM      5  H   UNL     1     -35.819  11.698  20.486  1.00  0.00     0.164 HD
ATOM      6  O   UNL     1     -33.559   9.545  21.382  1.00  0.00    -0.273 OA
BRANCH   4   7
ATOM      7  C   UNL     1     -34.009  12.398  21.436  1.00  0.00     0.175 C 
BRANCH   7   8
ATOM      8  C   UNL     1     -34.189  12.411  22.934  1.00  0.00     0.243 C 
ATOM      9  N   UNL     1     -34.092  11.183  23.672  1.00  0.00    -0.342 N 
ATOM     10  H   UNL     1     -34.001  10.298  23.129  1.00  0.00     0.164 HD
ATOM     11  O   UNL     1     -34.501  13.481  23.524  1.00  0.00    -0.273 OA
BRANCH   9  12
ATOM     12  C   UNL     1     -34.189  11.119  25.138  1.00  0.00     0.174 CG0
ATOM     13  G   UNL     1     -34.835   9.818  25.566  1.00  0.00     0.000 G0
BRANCH  12  14
ATOM     14  C   UNL     1     -32.811  11.451  25.790  1.00  0.00     0.018 C 
ATOM     15  C   UNL     1     -31.566  10.964  25.019  1.00  0.00     0.010 C 
BRANCH  14  16
ATOM     16  C   UNL     1     -32.736  11.153  27.311  1.00  0.00     0.002 C 
ATOM     17  C   UNL     1     -31.536  11.746  28.057  1.00  0.00     0.004 C 
ENDBRANCH  14  16
ENDBRANCH  12  14
ENDBRANCH   9  12
ENDBRANCH   7   8
BRANCH   7  18
ATOM     18  C   UNL     1     -34.298  13.765  20.787  1.00  0.00     0.073 C 
BRANCH  18  19
ATOM     19  C   UNL     1     -33.888  13.792  19.342  1.00  0.00    -0.016 A 
ATOM     20  C   UNL     1     -32.948  12.976  18.738  1.00  0.00     0.134 A 
ATOM     21  C   UNL     1     -34.345  14.636  18.351  1.00  0.00     0.006 A 
ATOM     22  N   UNL     1     -32.815  13.292  17.431  1.00  0.00    -0.191 N 
ATOM     23  C   UNL     1     -33.676  14.317  17.189  1.00  0.00     0.087 A 
ATOM     24  C   UNL     1     -35.296  15.656  18.405  1.00  0.00     0.011 A 
ATOM     25  C   UNL     1     -33.927  15.034  16.006  1.00  0.00     0.030 A 
ATOM     26  C   UNL     1     -35.571  16.371  17.227  1.00  0.00     0.001 A 
ATOM     27  C   UNL     1     -34.883  16.064  16.039  1.00  0.00     0.002 A 
BRANCH  22  28
ATOM     28  O   UNL     1     -31.935  12.619  16.595  1.00  0.00    -0.417 OA
ATOM     29  C   UNL     1     -30.748  11.968  17.027  1.00  0.00     0.313 C 
ENDBRANCH  22  28
ENDBRANCH  18  19
ENDBRANCH   7  18
ENDBRANCH   4   7
ENDBRANCH   2   3
BRANCH   2  30
ATOM     30  N   UNL     1     -35.531   7.732  21.676  1.00  0.00    -0.343 N 
ATOM     31  C   UNL     1     -34.700   7.604  22.832  1.00  0.00     0.243 C 
ATOM     32  H   UNL     1     -36.177   6.932  21.480  1.00  0.00     0.164 HD
ATOM     33  O   UNL     1     -33.475   7.354  22.680  1.00  0.00    -0.273 OA
BRANCH  31  34
ATOM     34  C   UNL     1     -35.290   7.803  24.213  1.00  0.00     0.174 C 
ATOM     35  N   UNL     1     -34.376   8.561  25.097  1.00  0.00    -0.329 N 
ATOM     36  C   UNL     1     -35.631   6.453  24.870  1.00  0.00     0.035 C 
ATOM     37  C   UNL     1     -33.409   7.830  25.940  1.00  0.00     0.120 C 
ATOM     38  C   UNL     1     -34.373   5.597  25.134  1.00  0.00     0.004 C 
ATOM     39  C   UNL     1     -33.100   6.431  25.386  1.00  0.00     0.022 C 
BRANCH  35  40
ATOM     40  C   UNL     1     -34.825   9.830  25.596  1.00  0.00     0.246 CG0
ATOM     41  O   UNL     1     -35.810   9.855  26.381  1.00  0.00    -0.272 OA
ATOM     42  G   UNL     1     -34.223  11.144  25.138  1.00  0.00     0.000 G0
ENDBRANCH  35  40
ENDBRANCH  31  34
ENDBRANCH   2  30
ENDBRANCH   1   2
BRANCH   1  43
ATOM     43  C   UNL     1     -37.937   9.599  19.628  1.00  0.00     0.003 C 
BRANCH  43  44
ATOM     44  C   UNL     1     -38.232  10.137  18.214  1.00  0.00     0.001 C 
BRANCH  44  45
ATOM     45  C   UNL     1     -39.555  10.913  18.073  1.00  0.00     0.008 C 
BRANCH  45  46
ATOM     46  C   UNL     1     -39.349  12.422  17.840  1.00  0.00     0.075 C 
BRANCH  46  47
ATOM     47  C   UNL     1     -39.933  13.219  18.980  1.00  0.00     0.132 C 
ATOM     48  O   UNL     1     -40.278  12.649  20.008  1.00  0.00    -0.300 OA
BRANCH  47  49
ATOM     49  C   UNL     1     -40.097  14.709  18.872  1.00  0.00     0.072 C 
ATOM     50  C   UNL     1     -38.759  15.378  18.600  1.00  0.00     0.012 C 
ENDBRANCH  47  49
ENDBRANCH  46  47
ENDBRANCH  45  46
ENDBRANCH  44  45
ENDBRANCH  43  44
ENDBRANCH   1  43
TORSDOF 12
ENDMDL
MODEL 3
REMARK VINA RESULT:    66.267      2.559      6.623
REMARK INTER + INTRA:         140.384
REMARK INTER:                 132.186
REMARK INTRA:                   8.198
REMARK UNBOUND:                 0.512
REMARK SMILES CCC(=O)CCCCC[C@H]1NC(=O)[C@H]2CCCCN2C(=O)[C@@H]([C@H](C)CC)NC(=O)[C@H](Cc2cn(OC)c3ccccc23)NC1=O
REMARK SMILES IDX 9 1 10 2 44 3 43 4 45 6 30 7 28 8 27 9 29 11 22 12 23 14
REMARK SMILES IDX 24 15 25 16 26 17 31 18 32 19 33 20 42 21 34 22 37 23 41 24
REMARK SMILES IDX 38 25 40 26 39 27 35 28 36 29 11 30 12 31 13 33 14 34 19 35
REMARK SMILES IDX 15 36 18 37 16 38 17 39 20 40 21 41 8 43 7 44 6 45 5 46 3 47
REMARK SMILES IDX 4 48 2 49 1 50
REMARK H PARENT 43 5 27 10 11 32
REMARK Flexibility Score: 80.00
ROOT
ATOM      1  C   UNL     1     -34.748  13.694  22.367  1.00  0.00     0.035 C 
ENDROOT
BRANCH   1   2
ATOM      2  C   UNL     1     -33.756  12.755  23.088  1.00  0.00     0.171 C 
BRANCH   2   3
ATOM      3  C   UNL     1     -33.795  11.356  22.511  1.00  0.00     0.243 C 
ATOM      4  N   UNL     1     -33.966  11.166  21.100  1.00  0.00    -0.342 N 
ATOM      5  H   UNL     1     -34.276  11.981  20.525  1.00  0.00     0.164 HD
ATOM      6  O   UNL     1     -33.632  10.362  23.266  1.00  0.00    -0.273 OA
BRANCH   4   7
ATOM      7  C   UNL     1     -33.403  10.008  20.408  1.00  0.00     0.175 C 
BRANCH   7   8
ATOM      8  C   UNL     1     -33.492   8.811  21.323  1.00  0.00     0.243 C 
ATOM      9  N   UNL     1     -34.091   8.952  22.621  1.00  0.00    -0.342 N 
ATOM     10  H   UNL     1     -34.354   9.912  22.930  1.00  0.00     0.164 HD
ATOM     11  O   UNL     1     -32.975   7.713  20.981  1.00  0.00    -0.273 OA
BRANCH   9  12
ATOM     12  C   UNL     1     -34.276   7.824  23.544  1.00  0.00     0.174 CG0
ATOM     13  G   UNL     1     -33.709   8.162  24.908  1.00  0.00     0.000 G0
BRANCH  12  14
ATOM     14  C   UNL     1     -35.758   7.335  23.517  1.00  0.00     0.018 C 
ATOM     15  C   UNL     1     -36.199   6.457  24.708  1.00  0.00     0.010 C 
BRANCH  14  16
ATOM     16  C   UNL     1     -36.220   6.772  22.147  1.00  0.00     0.002 C 
ATOM     17  C   UNL     1     -37.450   7.439  21.523  1.00  0.00     0.004 C 
ENDBRANCH  14  16
ENDBRANCH  12  14
ENDBRANCH   9  12
ENDBRANCH   7   8
BRANCH   7  18
ATOM     18  C   UNL     1     -31.958  10.318  19.969  1.00  0.00     0.073 C 
BRANCH  18  19
ATOM     19  C   UNL     1     -31.918  11.364  18.892  1.00  0.00    -0.016 A 
ATOM     20  C   UNL     1     -30.826  12.137  18.535  1.00  0.00     0.134 A 
ATOM     21  C   UNL     1     -32.949  11.769  18.069  1.00  0.00     0.006 A 
ATOM     22  N   UNL     1     -31.154  12.990  17.541  1.00  0.00    -0.191 N 
ATOM     23  C   UNL     1     -32.464  12.767  17.251  1.00  0.00     0.087 A 
ATOM     24  C   UNL     1     -34.270  11.326  17.999  1.00  0.00     0.011 A 
ATOM     25  C   UNL     1     -33.308  13.388  16.315  1.00  0.00     0.030 A 
ATOM     26  C   UNL     1     -35.122  11.925  17.055  1.00  0.00     0.001 A 
ATOM     27  C   UNL     1     -34.642  12.955  16.225  1.00  0.00     0.002 A 
BRANCH  22  28
ATOM     28  O   UNL     1     -30.235  13.877  16.997  1.00  0.00    -0.417 OA
ATOM     29  C   UNL     1     -29.125  13.500  16.195  1.00  0.00     0.313 C 
ENDBRANCH  22  28
ENDBRANCH  18  19
ENDBRANCH   7  18
ENDBRANCH   4   7
ENDBRANCH   2   3
BRANCH   2  30
ATOM     30  N   UNL     1     -33.988  12.739  24.541  1.00  0.00    -0.343 N 
ATOM     31  C   UNL     1     -34.392  11.546  25.216  1.00  0.00     0.243 C 
ATOM     32  H   UNL     1     -33.485  13.451  25.120  1.00  0.00     0.164 HD
ATOM     33  O   UNL     1     -35.609  11.386  25.501  1.00  0.00    -0.273 OA
BRANCH  31  34
ATOM     34  C   UNL     1     -33.367  10.482  25.548  1.00  0.00     0.174 C 
ATOM     35  N   UNL     1     -34.003   9.177  25.837  1.00  0.00    -0.329 N 
ATOM     36  C   UNL     1     -32.500  10.903  26.750  1.00  0.00     0.035 C 
ATOM     37  C   UNL     1     -34.368   8.838  27.227  1.00  0.00     0.120 C 
ATOM     38  C   UNL     1     -33.324  11.029  28.049  1.00  0.00     0.004 C 
ATOM     39  C   UNL     1     -34.546  10.090  28.099  1.00  0.00     0.022 C 
BRANCH  35  40
ATOM     40  C   UNL     1     -33.692   8.073  24.972  1.00  0.00     0.246 CG0
ATOM     41  O   UNL     1     -32.825   7.240  25.347  1.00  0.00    -0.272 OA
ATOM     42  G   UNL     1     -34.293   7.929  23.589  1.00  0.00     0.000 G0
ENDBRANCH  35  40
ENDBRANCH  31  34
ENDBRANCH   2  30
ENDBRANCH   1   2
BRANCH   1  43
ATOM     43  C   UNL     1     -34.413  13.954  20.880  1.00  0.00     0.003 C 
BRANCH  43  44
ATOM     44  C   UNL     1     -35.121  15.199  20.313  1.00  0.00     0.001 C 
BRANCH  44  45
ATOM     45  C   UNL     1     -34.658  15.631  18.908  1.00  0.00     0.008 C 
BRANCH  45  46
ATOM     46  C   UNL     1     -35.808  15.700  17.886  1.00  0.00     0.075 C 
BRANCH  46  47
ATOM     47  C   UNL     1     -36.375  17.096  17.819  1.00  0.00     0.132 C 
ATOM     48  O   UNL     1     -37.523  17.269  17.428  1.00  0.00    -0.300 OA
BRANCH  47  49
ATOM     49  C   UNL     1     -35.549  18.283  18.227  1.00  0.00     0.072 C 
ATOM     50  C   UNL     1     -34.728  18.794  17.054  1.00  0.00     0.012 C 
ENDBRANCH  47  49
ENDBRANCH  46  47
ENDBRANCH  45  46
ENDBRANCH  44  45
ENDBRANCH  43  44
ENDBRANCH   1  43
TORSDOF 12
ENDMDL
MODEL 4
REMARK VINA RESULT:    66.648      1.637      2.329
REMARK INTER + INTRA:         141.190
REMARK INTER:                 140.200
REMARK INTRA:                   0.990
REMARK UNBOUND:                 0.512
REMARK SMILES CCC(=O)CCCCC[C@H]1NC(=O)[C@H]2CCCCN2C(=O)[C@@H]([C@H](C)CC)NC(=O)[C@H](Cc2cn(OC)c3ccccc23)NC1=O
REMARK SMILES IDX 9 1 10 2 44 3 43 4 45 6 30 7 28 8 27 9 29 11 22 12 23 14
REMARK SMILES IDX 24 15 25 16 26 17 31 18 32 19 33 20 42 21 34 22 37 23 41 24
REMARK SMILES IDX 38 25 40 26 39 27 35 28 36 29 11 30 12 31 13 33 14 34 19 35
REMARK SMILES IDX 15 36 18 37 16 38 17 39 20 40 21 41 8 43 7 44 6 45 5 46 3 47
REMARK SMILES IDX 4 48 2 49 1 50
REMARK H PARENT 43 5 27 10 11 32
REMARK Flexibility Score: 80.00
ROOT
ATOM      1  C   UNL     1     -36.599   8.687  19.830  1.00  0.00     0.035 C 
ENDROOT
BRANCH   1   2
ATOM      2  C   UNL     1     -35.961   8.867  21.225  1.00  0.00     0.171 C 
BRANCH   2   3
ATOM      3  C   UNL     1     -34.732   9.749  21.166  1.00  0.00     0.243 C 
ATOM      4  N   UNL     1     -34.861  11.138  20.837  1.00  0.00    -0.342 N 
ATOM      5  H   UNL     1     -35.766  11.470  20.436  1.00  0.00     0.164 HD
ATOM      6  O   UNL     1     -33.603   9.269  21.449  1.00  0.00    -0.273 OA
BRANCH   4   7
ATOM      7  C   UNL     1     -33.927  12.138  21.354  1.00  0.00     0.175 C 
BRANCH   7   8
ATOM      8  C   UNL     1     -34.105  12.234  22.850  1.00  0.00     0.243 C 
ATOM      9  N   UNL     1     -33.916  11.065  23.664  1.00  0.00    -0.342 N 
ATOM     10  H   UNL     1     -33.761  10.157  23.177  1.00  0.00     0.164 HD
ATOM     11  O   UNL     1     -34.493  13.313  23.373  1.00  0.00    -0.273 OA
BRANCH   9  12
ATOM     12  C   UNL     1     -34.005  11.088  25.131  1.00  0.00     0.174 CG0
ATOM     13  G   UNL     1     -34.757   9.872  25.631  1.00  0.00     0.000 G0
BRANCH  12  14
ATOM     14  C   UNL     1     -32.598  11.334  25.759  1.00  0.00     0.018 C 
ATOM     15  C   UNL     1     -31.392  10.878  24.909  1.00  0.00     0.010 C 
BRANCH  14  16
ATOM     16  C   UNL     1     -32.481  10.916  27.248  1.00  0.00     0.002 C 
ATOM     17  C   UNL     1     -32.467  12.057  28.271  1.00  0.00     0.004 C 
ENDBRANCH  14  16
ENDBRANCH  12  14
ENDBRANCH   9  12
ENDBRANCH   7   8
BRANCH   7  18
ATOM     18  C   UNL     1     -34.158  13.483  20.638  1.00  0.00     0.073 C 
BRANCH  18  19
ATOM     19  C   UNL     1     -33.580  13.480  19.252  1.00  0.00    -0.016 A 
ATOM     20  C   UNL     1     -32.489  12.748  18.816  1.00  0.00     0.134 A 
ATOM     21  C   UNL     1     -34.001  14.211  18.160  1.00  0.00     0.006 A 
ATOM     22  N   UNL     1     -32.232  13.008  17.516  1.00  0.00    -0.191 N 
ATOM     23  C   UNL     1     -33.163  13.912  17.107  1.00  0.00     0.087 A 
ATOM     24  C   UNL     1     -35.057  15.115  18.035  1.00  0.00     0.011 A 
ATOM     25  C   UNL     1     -33.344  14.531  15.858  1.00  0.00     0.030 A 
ATOM     26  C   UNL     1     -35.262  15.729  16.789  1.00  0.00     0.001 A 
ATOM     27  C   UNL     1     -34.404  15.443  15.711  1.00  0.00     0.002 A 
BRANCH  22  28
ATOM     28  O   UNL     1     -31.188  12.398  16.834  1.00  0.00    -0.417 OA
ATOM     29  C   UNL     1     -30.067  13.082  16.291  1.00  0.00     0.313 C 
ENDBRANCH  22  28
ENDBRANCH  18  19
ENDBRANCH   7  18
ENDBRANCH   4   7
ENDBRANCH   2   3
BRANCH   2  30
ATOM     30  N   UNL     1     -35.658   7.570  21.851  1.00  0.00    -0.343 N 
ATOM     31  C   UNL     1     -34.816   7.479  23.002  1.00  0.00     0.243 C 
ATOM     32  H   UNL     1     -36.349   6.796  21.720  1.00  0.00     0.164 HD
ATOM     33  O   UNL     1     -33.609   7.151  22.853  1.00  0.00    -0.273 OA
BRANCH  31  34
ATOM     34  C   UNL     1     -35.371   7.808  24.372  1.00  0.00     0.174 C 
ATOM     35  N   UNL     1     -34.397   8.558  25.195  1.00  0.00    -0.329 N 
ATOM     36  C   UNL     1     -35.792   6.530  25.121  1.00  0.00     0.035 C 
ATOM     37  C   UNL     1     -33.468   7.821  26.075  1.00  0.00     0.120 C 
ATOM     38  C   UNL     1     -34.591   5.610  25.429  1.00  0.00     0.004 C 
ATOM     39  C   UNL     1     -33.262   6.371  25.612  1.00  0.00     0.022 C 
BRANCH  35  40
ATOM     40  C   UNL     1     -34.752   9.885  25.612  1.00  0.00     0.246 CG0
ATOM     41  O   UNL     1     -35.782  10.038  26.322  1.00  0.00    -0.272 OA
ATOM     42  G   UNL     1     -33.995  11.114  25.152  1.00  0.00     0.000 G0
ENDBRANCH  35  40
ENDBRANCH  31  34
ENDBRANCH   2  30
ENDBRANCH   1   2
BRANCH   1  43
ATOM     43  C   UNL     1     -37.000   7.233  19.496  1.00  0.00     0.003 C 
BRANCH  43  44
ATOM     44  C   UNL     1     -37.102   6.970  17.981  1.00  0.00     0.001 C 
BRANCH  44  45
ATOM     45  C   UNL     1     -35.762   6.999  17.221  1.00  0.00     0.008 C 
BRANCH  45  46
ATOM     46  C   UNL     1     -35.664   5.920  16.126  1.00  0.00     0.075 C 
BRANCH  46  47
ATOM     47  C   UNL     1     -36.785   6.075  15.128  1.00  0.00     0.132 C 
ATOM     48  O   UNL     1     -37.916   5.704  15.420  1.00  0.00    -0.300 OA
BRANCH  47  49
ATOM     49  C   UNL     1     -36.534   6.679  13.775  1.00  0.00     0.072 C 
ATOM     50  C   UNL     1     -36.041   8.111  13.911  1.00  0.00     0.012 C 
ENDBRANCH  47  49
ENDBRANCH  46  47
ENDBRANCH  45  46
ENDBRANCH  44  45
ENDBRANCH  43  44
ENDBRANCH   1  43
TORSDOF 12
ENDMDL
MODEL 5
REMARK VINA RESULT:    67.178      1.130      1.940
REMARK INTER + INTRA:         142.307
REMARK INTER:                 141.686
REMARK INTRA:                   0.622
REMARK UNBOUND:                 0.512
REMARK SMILES CCC(=O)CCCCC[C@H]1NC(=O)[C@H]2CCCCN2C(=O)[C@@H]([C@H](C)CC)NC(=O)[C@H](Cc2cn(OC)c3ccccc23)NC1=O
REMARK SMILES IDX 9 1 10 2 44 3 43 4 45 6 30 7 28 8 27 9 29 11 22 12 23 14
REMARK SMILES IDX 24 15 25 16 26 17 31 18 32 19 33 20 42 21 34 22 37 23 41 24
REMARK SMILES IDX 38 25 40 26 39 27 35 28 36 29 11 30 12 31 13 33 14 34 19 35
REMARK SMILES IDX 15 36 18 37 16 38 17 39 20 40 21 41 8 43 7 44 6 45 5 46 3 47
REMARK SMILES IDX 4 48 2 49 1 50
REMARK H PARENT 43 5 27 10 11 32
REMARK Flexibility Score: 80.00
ROOT
ATOM      1  C   UNL     1     -36.193   9.037  19.432  1.00  0.00     0.035 C 
ENDROOT
BRANCH   1   2
ATOM      2  C   UNL     1     -35.676   9.276  20.868  1.00  0.00     0.171 C 
BRANCH   2   3
ATOM      3  C   UNL     1     -34.599  10.339  20.902  1.00  0.00     0.243 C 
ATOM      4  N   UNL     1     -34.957  11.718  21.060  1.00  0.00    -0.342 N 
ATOM      5  H   UNL     1     -35.958  11.987  20.934  1.00  0.00     0.164 HD
ATOM      6  O   UNL     1     -33.387  10.006  20.835  1.00  0.00    -0.273 OA
BRANCH   4   7
ATOM      7  C   UNL     1     -34.064  12.672  21.717  1.00  0.00     0.175 C 
BRANCH   7   8
ATOM      8  C   UNL     1     -34.263  12.568  23.209  1.00  0.00     0.243 C 
ATOM      9  N   UNL     1     -33.902  11.356  23.890  1.00  0.00    -0.342 N 
ATOM     10  H   UNL     1     -33.607  10.544  23.309  1.00  0.00     0.164 HD
ATOM     11  O   UNL     1     -34.815  13.509  23.841  1.00  0.00    -0.273 OA
BRANCH   9  12
ATOM     12  C   UNL     1     -34.001  11.197  25.348  1.00  0.00     0.174 CG0
ATOM     13  G   UNL     1     -34.799   9.954  25.689  1.00  0.00     0.000 G0
BRANCH  12  14
ATOM     14  C   UNL     1     -32.592  11.312  26.007  1.00  0.00     0.018 C 
ATOM     15  C   UNL     1     -31.406  10.822  25.150  1.00  0.00     0.010 C 
BRANCH  14  16
ATOM     16  C   UNL     1     -32.528  10.807  27.473  1.00  0.00     0.002 C 
ATOM     17  C   UNL     1     -31.764   9.499  27.704  1.00  0.00     0.004 C 
ENDBRANCH  14  16
ENDBRANCH  12  14
ENDBRANCH   9  12
ENDBRANCH   7   8
BRANCH   7  18
ATOM     18  C   UNL     1     -34.332  14.090  21.175  1.00  0.00     0.073 C 
BRANCH  18  19
ATOM     19  C   UNL     1     -34.154  14.159  19.686  1.00  0.00    -0.016 A 
ATOM     20  C   UNL     1     -34.843  14.982  18.812  1.00  0.00     0.134 A 
ATOM     21  C   UNL     1     -33.297  13.414  18.902  1.00  0.00     0.006 A 
ATOM     22  N   UNL     1     -34.444  14.763  17.540  1.00  0.00    -0.191 N 
ATOM     23  C   UNL     1     -33.490  13.794  17.592  1.00  0.00     0.087 A 
ATOM     24  C   UNL     1     -32.375  12.431  19.262  1.00  0.00     0.011 A 
ATOM     25  C   UNL     1     -32.759  13.182  16.560  1.00  0.00     0.030 A 
ATOM     26  C   UNL     1     -31.622  11.822  18.245  1.00  0.00     0.001 A 
ATOM     27  C   UNL     1     -31.822  12.191  16.902  1.00  0.00     0.002 A 
BRANCH  22  28
ATOM     28  O   UNL     1     -34.980  15.464  16.468  1.00  0.00    -0.417 OA
ATOM     29  C   UNL     1     -34.839  16.863  16.265  1.00  0.00     0.313 C 
ENDBRANCH  22  28
ENDBRANCH  18  19
ENDBRANCH   7  18
ENDBRANCH   4   7
ENDBRANCH   2   3
BRANCH   2  30
ATOM     30  N   UNL     1     -35.210   8.025  21.489  1.00  0.00    -0.343 N 
ATOM     31  C   UNL     1     -34.512   8.030  22.736  1.00  0.00     0.243 C 
ATOM     32  H   UNL     1     -35.722   7.145  21.247  1.00  0.00     0.164 HD
ATOM     33  O   UNL     1     -33.256   7.937  22.733  1.00  0.00    -0.273 OA
BRANCH  31  34
ATOM     34  C   UNL     1     -35.280   8.178  24.032  1.00  0.00     0.174 C 
ATOM     35  N   UNL     1     -34.423   8.689  25.124  1.00  0.00    -0.329 N 
ATOM     36  C   UNL     1     -35.907   6.838  24.461  1.00  0.00     0.035 C 
ATOM     37  C   UNL     1     -33.714   7.734  26.000  1.00  0.00     0.120 C 
ATOM     38  C   UNL     1     -34.840   5.773  24.793  1.00  0.00     0.004 C 
ATOM     39  C   UNL     1     -33.520   6.367  25.325  1.00  0.00     0.022 C 
BRANCH  35  40
ATOM     40  C   UNL     1     -34.764   9.956  25.708  1.00  0.00     0.246 CG0
ATOM     41  O   UNL     1     -35.747  10.013  26.493  1.00  0.00    -0.272 OA
ATOM     42  G   UNL     1     -34.049  11.240  25.339  1.00  0.00     0.000 G0
ENDBRANCH  35  40
ENDBRANCH  31  34
ENDBRANCH   2  30
ENDBRANCH   1   2
BRANCH   1  43
ATOM     43  C   UNL     1     -37.654   8.538  19.356  1.00  0.00     0.003 C 
BRANCH  43  44
ATOM     44  C   UNL     1     -37.777   7.131  18.740  1.00  0.00     0.001 C 
BRANCH  44  45
ATOM     45  C   UNL     1     -38.166   6.016  19.729  1.00  0.00     0.008 C 
BRANCH  45  46
ATOM     46  C   UNL     1     -38.819   4.801  19.045  1.00  0.00     0.075 C 
BRANCH  46  47
ATOM     47  C   UNL     1     -39.715   4.064  20.011  1.00  0.00     0.132 C 
ATOM     48  O   UNL     1     -40.489   4.692  20.722  1.00  0.00    -0.300 OA
BRANCH  47  49
ATOM     49  C   UNL     1     -39.669   2.566  20.113  1.00  0.00     0.072 C 
ATOM     50  C   UNL     1     -40.399   1.926  18.944  1.00  0.00     0.012 C 
ENDBRANCH  47  49
ENDBRANCH  46  47
ENDBRANCH  45  46
ENDBRANCH  44  45
ENDBRANCH  43  44
ENDBRANCH   1  43
TORSDOF 12
ENDMDL
