MODEL 1
REMARK VINA RESULT:    -6.453      0.000      0.000
REMARK INTER + INTRA:          -7.869
REMARK INTER:                  -7.585
REMARK INTRA:                  -0.284
REMARK UNBOUND:                -0.284
REMARK SMILES Oc1ccc(-c2[o+]c3cc(O)cc(O)c3cc2O)cc1.[Cl-]
REMARK SMILES IDX 6 1 7 2 8 3 9 4 10 5 12 6 13 7 15 8 16 9 17 10 5 11 4 12
REMARK SMILES IDX 3 13 2 14 19 15 20 16 1 17 18 19 11 21 14 23
REMARK H PARENT 1 18 18 20 11 22 14 24
REMARK Flexibility Score: inf
ROOT
ATOM      1  C   UNL     1      20.977  13.032  20.970  1.00  0.00     0.401 A 
ATOM      2  O   UNL     1      20.945  12.867  19.651  1.00  0.00    -0.202 OA
ATOM      3  C   UNL     1      22.023  12.599  18.922  1.00  0.00     0.368 A 
ATOM      4  C   UNL     1      21.888  12.444  17.540  1.00  0.00     0.162 A 
ATOM      5  C   UNL     1      23.004  12.164  16.750  1.00  0.00     0.128 A 
ATOM      6  C   UNL     1      24.265  12.038  17.344  1.00  0.00     0.093 A 
ATOM      7  C   UNL     1      24.426  12.189  18.727  1.00  0.00     0.136 A 
ATOM      8  C   UNL     1      23.293  12.471  19.534  1.00  0.00     0.125 A 
ATOM      9  C   UNL     1      23.358  12.624  20.929  1.00  0.00     0.078 A 
ATOM     10  C   UNL     1      22.196  12.896  21.659  1.00  0.00     0.223 A 
ENDROOT
BRANCH   1  11
ATOM     11  C   UNL     1      19.707  13.339  21.670  1.00  0.00     0.084 A 
ATOM     12  C   UNL     1      18.747  12.326  21.834  1.00  0.00     0.022 A 
ATOM     13  C   UNL     1      17.533  12.598  22.471  1.00  0.00     0.047 A 
ATOM     14  C   UNL     1      17.256  13.886  22.939  1.00  0.00     0.115 A 
ATOM     15  C   UNL     1      19.415  14.638  22.124  1.00  0.00     0.022 A 
ATOM     16  C   UNL     1      18.199  14.906  22.761  1.00  0.00     0.047 A 
BRANCH  14  17
ATOM     17  O   UNL     1      16.043  14.142  23.573  1.00  0.00    -0.508 OA
ATOM     18  H   UNL     1      15.202  14.341  23.045  1.00  0.00     0.293 HD
ENDBRANCH  14  17
ENDBRANCH   1  11
BRANCH  10  19
ATOM     19  O   UNL     1      22.252  12.999  23.049  1.00  0.00    -0.500 OA
ATOM     20  H   UNL     1      22.416  13.886  23.511  1.00  0.00     0.294 HD
ENDBRANCH  10  19
BRANCH   5  21
ATOM     21  O   UNL     1      22.849  12.015  15.373  1.00  0.00    -0.507 OA
ATOM     22  H   UNL     1      22.103  11.451  14.982  1.00  0.00     0.293 HD
ENDBRANCH   5  21
BRANCH   7  23
ATOM     23  O   UNL     1      25.718  12.052  19.242  1.00  0.00    -0.507 OA
ATOM     24  H   UNL     1      26.335  11.279  19.038  1.00  0.00     0.293 HD
ENDBRANCH   7  23
TORSDOF 5
ENDMDL
MODEL 2
REMARK VINA RESULT:    -6.163      1.635      7.225
REMARK INTER + INTRA:          -7.527
REMARK INTER:                  -7.354
REMARK INTRA:                  -0.173
REMARK UNBOUND:                -0.284
REMARK SMILES Oc1ccc(-c2[o+]c3cc(O)cc(O)c3cc2O)cc1.[Cl-]
REMARK SMILES IDX 6 1 7 2 8 3 9 4 10 5 12 6 13 7 15 8 16 9 17 10 5 11 4 12
REMARK SMILES IDX 3 13 2 14 19 15 20 16 1 17 18 19 11 21 14 23
REMARK H PARENT 1 18 18 20 11 22 14 24
REMARK Flexibility Score: inf
ROOT
ATOM      1  C   UNL     1      20.294  13.073  20.837  1.00  0.00     0.401 A 
ATOM      2  O   UNL     1      20.422  13.703  22.001  1.00  0.00    -0.202 OA
ATOM      3  C   UNL     1      19.404  13.938  22.820  1.00  0.00     0.368 A 
ATOM      4  C   UNL     1      19.639  14.611  24.023  1.00  0.00     0.162 A 
ATOM      5  C   UNL     1      18.587  14.873  24.901  1.00  0.00     0.128 A 
ATOM      6  C   UNL     1      17.290  14.462  24.578  1.00  0.00     0.093 A 
ATOM      7  C   UNL     1      17.027  13.786  23.379  1.00  0.00     0.136 A 
ATOM      8  C   UNL     1      18.095  13.515  22.484  1.00  0.00     0.125 A 
ATOM      9  C   UNL     1      17.929  12.831  21.268  1.00  0.00     0.078 A 
ATOM     10  C   UNL     1      19.030  12.597  20.440  1.00  0.00     0.223 A 
ENDROOT
BRANCH   1  11
ATOM     11  C   UNL     1      21.505  12.880  20.006  1.00  0.00     0.084 A 
ATOM     12  C   UNL     1      22.598  12.172  20.532  1.00  0.00     0.022 A 
ATOM     13  C   UNL     1      23.760  11.997  19.773  1.00  0.00     0.047 A 
ATOM     14  C   UNL     1      23.850  12.539  18.488  1.00  0.00     0.115 A 
ATOM     15  C   UNL     1      21.609  13.441  18.719  1.00  0.00     0.022 A 
ATOM     16  C   UNL     1      22.773  13.265  17.964  1.00  0.00     0.047 A 
BRANCH  14  17
ATOM     17  O   UNL     1      25.013  12.356  17.744  1.00  0.00    -0.508 OA
ATOM     18  H   UNL     1      25.665  13.115  17.586  1.00  0.00     0.293 HD
ENDBRANCH  14  17
ENDBRANCH   1  11
BRANCH  10  19
ATOM     19  O   UNL     1      18.874  11.875  19.256  1.00  0.00    -0.500 OA
ATOM     20  H   UNL     1      19.358  10.999  19.099  1.00  0.00     0.294 HD
ENDBRANCH  10  19
BRANCH   5  21
ATOM     21  O   UNL     1      18.842  15.546  26.094  1.00  0.00    -0.507 OA
ATOM     22  H   UNL     1      19.787  15.774  26.382  1.00  0.00     0.293 HD
ENDBRANCH   5  21
BRANCH   7  23
ATOM     23  O   UNL     1      15.704  13.412  23.128  1.00  0.00    -0.507 OA
ATOM     24  H   UNL     1      15.035  13.982  22.631  1.00  0.00     0.293 HD
ENDBRANCH   7  23
TORSDOF 5
ENDMDL
MODEL 3
REMARK VINA RESULT:    -5.841      1.719      6.986
REMARK INTER + INTRA:          -7.149
REMARK INTER:                  -7.319
REMARK INTRA:                   0.170
REMARK UNBOUND:                -0.284
REMARK SMILES Oc1ccc(-c2[o+]c3cc(O)cc(O)c3cc2O)cc1.[Cl-]
REMARK SMILES IDX 6 1 7 2 8 3 9 4 10 5 12 6 13 7 15 8 16 9 17 10 5 11 4 12
REMARK SMILES IDX 3 13 2 14 19 15 20 16 1 17 18 19 11 21 14 23
REMARK H PARENT 1 18 18 20 11 22 14 24
REMARK Flexibility Score: inf
ROOT
ATOM      1  C   UNL     1      21.277  13.069  20.310  1.00  0.00     0.401 A 
ATOM      2  O   UNL     1      21.764  13.762  21.335  1.00  0.00    -0.202 OA
ATOM      3  C   UNL     1      21.036  14.119  22.387  1.00  0.00     0.368 A 
ATOM      4  C   UNL     1      21.639  14.850  23.416  1.00  0.00     0.162 A 
ATOM      5  C   UNL     1      20.896  15.241  24.531  1.00  0.00     0.128 A 
ATOM      6  C   UNL     1      19.542  14.901  24.621  1.00  0.00     0.093 A 
ATOM      7  C   UNL     1      18.915  14.170  23.604  1.00  0.00     0.136 A 
ATOM      8  C   UNL     1      19.667  13.768  22.469  1.00  0.00     0.125 A 
ATOM      9  C   UNL     1      19.126  13.022  21.409  1.00  0.00     0.078 A 
ATOM     10  C   UNL     1      19.932  12.658  20.326  1.00  0.00     0.223 A 
ENDROOT
BRANCH   1  11
ATOM     11  C   UNL     1      22.189  12.740  19.190  1.00  0.00     0.084 A 
ATOM     12  C   UNL     1      23.557  12.546  19.447  1.00  0.00     0.022 A 
ATOM     13  C   UNL     1      24.439  12.256  18.401  1.00  0.00     0.047 A 
ATOM     14  C   UNL     1      23.970  12.170  17.087  1.00  0.00     0.115 A 
ATOM     15  C   UNL     1      21.726  12.673  17.863  1.00  0.00     0.022 A 
ATOM     16  C   UNL     1      22.612  12.383  16.820  1.00  0.00     0.047 A 
BRANCH  14  17
ATOM     17  O   UNL     1      24.861  11.880  16.056  1.00  0.00    -0.508 OA
ATOM     18  H   UNL     1      24.535  11.664  15.121  1.00  0.00     0.293 HD
ENDBRANCH  14  17
ENDBRANCH   1  11
BRANCH  10  19
ATOM     19  O   UNL     1      19.408  11.875  19.296  1.00  0.00    -0.500 OA
ATOM     20  H   UNL     1      18.420  11.887  19.069  1.00  0.00     0.294 HD
ENDBRANCH  10  19
BRANCH   5  21
ATOM     21  O   UNL     1      21.515  15.969  25.545  1.00  0.00    -0.507 OA
ATOM     22  H   UNL     1      22.131  15.524  26.216  1.00  0.00     0.293 HD
ENDBRANCH   5  21
BRANCH   7  23
ATOM     23  O   UNL     1      17.558  13.874  23.767  1.00  0.00    -0.507 OA
ATOM     24  H   UNL     1      16.804  14.449  23.421  1.00  0.00     0.293 HD
ENDBRANCH   7  23
TORSDOF 5
ENDMDL
MODEL 4
REMARK VINA RESULT:    -5.802      1.547      2.773
REMARK INTER + INTRA:          -7.104
REMARK INTER:                  -6.786
REMARK INTRA:                  -0.318
REMARK UNBOUND:                -0.284
REMARK SMILES Oc1ccc(-c2[o+]c3cc(O)cc(O)c3cc2O)cc1.[Cl-]
REMARK SMILES IDX 6 1 7 2 8 3 9 4 10 5 12 6 13 7 15 8 16 9 17 10 5 11 4 12
REMARK SMILES IDX 3 13 2 14 19 15 20 16 1 17 18 19 11 21 14 23
REMARK H PARENT 1 18 18 20 11 22 14 24
REMARK Flexibility Score: inf
ROOT
ATOM      1  C   UNL     1      20.244  13.399  21.284  1.00  0.00     0.401 A 
ATOM      2  O   UNL     1      21.526  13.053  21.343  1.00  0.00    -0.202 OA
ATOM      3  C   UNL     1      22.275  12.839  20.267  1.00  0.00     0.368 A 
ATOM      4  C   UNL     1      23.615  12.476  20.432  1.00  0.00     0.162 A 
ATOM      5  C   UNL     1      24.424  12.242  19.319  1.00  0.00     0.128 A 
ATOM      6  C   UNL     1      23.892  12.371  18.031  1.00  0.00     0.093 A 
ATOM      7  C   UNL     1      22.553  12.734  17.839  1.00  0.00     0.136 A 
ATOM      8  C   UNL     1      21.727  12.975  18.968  1.00  0.00     0.125 A 
ATOM      9  C   UNL     1      20.378  13.356  18.872  1.00  0.00     0.078 A 
ATOM     10  C   UNL     1      19.629  13.581  20.031  1.00  0.00     0.223 A 
ENDROOT
BRANCH   1  11
ATOM     11  C   UNL     1      19.512  13.600  22.556  1.00  0.00     0.084 A 
ATOM     12  C   UNL     1      18.797  12.528  23.118  1.00  0.00     0.022 A 
ATOM     13  C   UNL     1      18.081  12.701  24.307  1.00  0.00     0.047 A 
ATOM     14  C   UNL     1      18.058  13.946  24.940  1.00  0.00     0.115 A 
ATOM     15  C   UNL     1      19.468  14.856  23.188  1.00  0.00     0.022 A 
ATOM     16  C   UNL     1      18.751  15.025  24.376  1.00  0.00     0.047 A 
BRANCH  14  17
ATOM     17  O   UNL     1      17.342  14.103  26.125  1.00  0.00    -0.508 OA
ATOM     18  H   UNL     1      16.870  13.323  26.565  1.00  0.00     0.293 HD
ENDBRANCH  14  17
ENDBRANCH   1  11
BRANCH  10  19
ATOM     19  O   UNL     1      18.304  14.007  19.935  1.00  0.00    -0.500 OA
ATOM     20  H   UNL     1      17.802  14.369  20.737  1.00  0.00     0.294 HD
ENDBRANCH  10  19
BRANCH   5  21
ATOM     21  O   UNL     1      25.756  11.880  19.504  1.00  0.00    -0.507 OA
ATOM     22  H   UNL     1      26.436  11.962  18.756  1.00  0.00     0.293 HD
ENDBRANCH   5  21
BRANCH   7  23
ATOM     23  O   UNL     1      22.096  12.838  16.522  1.00  0.00    -0.507 OA
ATOM     24  H   UNL     1      21.510  12.153  16.066  1.00  0.00     0.293 HD
ENDBRANCH   7  23
TORSDOF 5
ENDMDL
MODEL 5
REMARK VINA RESULT:    -5.730      1.633      6.667
REMARK INTER + INTRA:          -7.019
REMARK INTER:                  -7.005
REMARK INTRA:                  -0.014
REMARK UNBOUND:                -0.284
REMARK SMILES Oc1ccc(-c2[o+]c3cc(O)cc(O)c3cc2O)cc1.[Cl-]
REMARK SMILES IDX 6 1 7 2 8 3 9 4 10 5 12 6 13 7 15 8 16 9 17 10 5 11 4 12
REMARK SMILES IDX 3 13 2 14 19 15 20 16 1 17 18 19 11 21 14 23
REMARK H PARENT 1 18 18 20 11 22 14 24
REMARK Flexibility Score: inf
ROOT
ATOM      1  C   UNL     1      20.925  13.103  21.141  1.00  0.00     0.401 A 
ATOM      2  O   UNL     1      19.621  13.352  21.214  1.00  0.00    -0.202 OA
ATOM      3  C   UNL     1      18.966  13.483  22.362  1.00  0.00     0.368 A 
ATOM      4  C   UNL     1      17.593  13.743  22.337  1.00  0.00     0.162 A 
ATOM      5  C   UNL     1      16.880  13.883  23.528  1.00  0.00     0.128 A 
ATOM      6  C   UNL     1      17.542  13.762  24.755  1.00  0.00     0.093 A 
ATOM      7  C   UNL     1      18.917  13.502  24.808  1.00  0.00     0.136 A 
ATOM      8  C   UNL     1      19.646  13.362  23.598  1.00  0.00     0.125 A 
ATOM      9  C   UNL     1      21.029  13.115  23.555  1.00  0.00     0.078 A 
ATOM     10  C   UNL     1      21.680  12.994  22.323  1.00  0.00     0.223 A 
ENDROOT
BRANCH   1  11
ATOM     11  C   UNL     1      21.539  12.967  19.799  1.00  0.00     0.084 A 
ATOM     12  C   UNL     1      21.010  12.037  18.888  1.00  0.00     0.022 A 
ATOM     13  C   UNL     1      21.587  11.877  17.625  1.00  0.00     0.047 A 
ATOM     14  C   UNL     1      22.706  12.631  17.261  1.00  0.00     0.115 A 
ATOM     15  C   UNL     1      22.678  13.709  19.435  1.00  0.00     0.022 A 
ATOM     16  C   UNL     1      23.252  13.546  18.170  1.00  0.00     0.047 A 
BRANCH  14  17
ATOM     17  O   UNL     1      23.270  12.462  15.998  1.00  0.00    -0.508 OA
ATOM     18  H   UNL     1      23.909  11.701  15.802  1.00  0.00     0.293 HD
ENDBRANCH  14  17
ENDBRANCH   1  11
BRANCH  10  19
ATOM     19  O   UNL     1      23.061  12.797  22.279  1.00  0.00    -0.500 OA
ATOM     20  H   UNL     1      23.472  11.879  22.396  1.00  0.00     0.294 HD
ENDBRANCH  10  19
BRANCH   5  21
ATOM     21  O   UNL     1      15.511  14.140  23.482  1.00  0.00    -0.507 OA
ATOM     22  H   UNL     1      15.139  15.061  23.683  1.00  0.00     0.293 HD
ENDBRANCH   5  21
BRANCH   7  23
ATOM     23  O   UNL     1      19.503  13.392  26.072  1.00  0.00    -0.507 OA
ATOM     24  H   UNL     1      20.494  13.285  26.234  1.00  0.00     0.293 HD
ENDBRANCH   7  23
TORSDOF 5
ENDMDL
MODEL 6
REMARK VINA RESULT:    -5.260     10.344     12.356
REMARK INTER + INTRA:          -6.466
REMARK INTER:                  -6.815
REMARK INTRA:                   0.349
REMARK UNBOUND:                -0.284
REMARK SMILES Oc1ccc(-c2[o+]c3cc(O)cc(O)c3cc2O)cc1.[Cl-]
REMARK SMILES IDX 6 1 7 2 8 3 9 4 10 5 12 6 13 7 15 8 16 9 17 10 5 11 4 12
REMARK SMILES IDX 3 13 2 14 19 15 20 16 1 17 18 19 11 21 14 23
REMARK H PARENT 1 18 18 20 11 22 14 24
REMARK Flexibility Score: inf
ROOT
ATOM      1  C   UNL     1      14.625  22.918  18.781  1.00  0.00     0.401 A 
ATOM      2  O   UNL     1      14.951  22.903  17.492  1.00  0.00    -0.202 OA
ATOM      3  C   UNL     1      15.000  21.793  16.764  1.00  0.00     0.368 A 
ATOM      4  C   UNL     1      15.356  21.879  15.415  1.00  0.00     0.162 A 
ATOM      5  C   UNL     1      15.418  20.728  14.627  1.00  0.00     0.128 A 
ATOM      6  C   UNL     1      15.122  19.481  15.190  1.00  0.00     0.093 A 
ATOM      7  C   UNL     1      14.763  19.368  16.539  1.00  0.00     0.136 A 
ATOM      8  C   UNL     1      14.697  20.537  17.343  1.00  0.00     0.125 A 
ATOM      9  C   UNL     1      14.333  20.521  18.700  1.00  0.00     0.078 A 
ATOM     10  C   UNL     1      14.285  21.715  19.426  1.00  0.00     0.223 A 
ENDROOT
BRANCH   1  11
ATOM     11  C   UNL     1      14.617  24.220  19.487  1.00  0.00     0.084 A 
ATOM     12  C   UNL     1      15.411  25.274  19.002  1.00  0.00     0.022 A 
ATOM     13  C   UNL     1      15.435  26.504  19.665  1.00  0.00     0.047 A 
ATOM     14  C   UNL     1      14.680  26.694  20.826  1.00  0.00     0.115 A 
ATOM     15  C   UNL     1      13.875  24.410  20.667  1.00  0.00     0.022 A 
ATOM     16  C   UNL     1      13.903  25.643  21.328  1.00  0.00     0.047 A 
BRANCH  14  17
ATOM     17  O   UNL     1      14.713  27.926  21.476  1.00  0.00    -0.508 OA
ATOM     18  H   UNL     1      13.871  28.467  21.627  1.00  0.00     0.293 HD
ENDBRANCH  14  17
ENDBRANCH   1  11
BRANCH  10  19
ATOM     19  O   UNL     1      13.876  21.705  20.760  1.00  0.00    -0.500 OA
ATOM     20  H   UNL     1      13.331  20.942  21.144  1.00  0.00     0.294 HD
ENDBRANCH  10  19
BRANCH   5  21
ATOM     21  O   UNL     1      15.775  20.834  13.285  1.00  0.00    -0.507 OA
ATOM     22  H   UNL     1      15.178  21.304  12.613  1.00  0.00     0.293 HD
ENDBRANCH   5  21
BRANCH   7  23
ATOM     23  O   UNL     1      14.488  18.088  17.027  1.00  0.00    -0.507 OA
ATOM     24  H   UNL     1      15.167  17.490  17.476  1.00  0.00     0.293 HD
ENDBRANCH   7  23
TORSDOF 5
ENDMDL
MODEL 7
REMARK VINA RESULT:    -5.043      9.699     12.567
REMARK INTER + INTRA:          -6.212
REMARK INTER:                  -6.218
REMARK INTRA:                   0.006
REMARK UNBOUND:                -0.284
REMARK SMILES Oc1ccc(-c2[o+]c3cc(O)cc(O)c3cc2O)cc1.[Cl-]
REMARK SMILES IDX 6 1 7 2 8 3 9 4 10 5 12 6 13 7 15 8 16 9 17 10 5 11 4 12
REMARK SMILES IDX 3 13 2 14 19 15 20 16 1 17 18 19 11 21 14 23
REMARK H PARENT 1 18 18 20 11 22 14 24
REMARK Flexibility Score: inf
ROOT
ATOM      1  C   UNL     1      14.604  20.672  17.408  1.00  0.00     0.401 A 
ATOM      2  O   UNL     1      14.890  21.952  17.185  1.00  0.00    -0.202 OA
ATOM      3  C   UNL     1      14.797  22.894  18.116  1.00  0.00     0.368 A 
ATOM      4  C   UNL     1      15.117  24.213  17.784  1.00  0.00     0.162 A 
ATOM      5  C   UNL     1      15.026  25.224  18.743  1.00  0.00     0.128 A 
ATOM      6  C   UNL     1      14.611  24.915  20.043  1.00  0.00     0.093 A 
ATOM      7  C   UNL     1      14.284  23.601  20.401  1.00  0.00     0.136 A 
ATOM      8  C   UNL     1      14.379  22.571  19.430  1.00  0.00     0.125 A 
ATOM      9  C   UNL     1      14.085  21.224  19.702  1.00  0.00     0.078 A 
ATOM     10  C   UNL     1      14.206  20.263  18.694  1.00  0.00     0.223 A 
ENDROOT
BRANCH   1  11
ATOM     11  C   UNL     1      14.737  19.717  16.283  1.00  0.00     0.084 A 
ATOM     12  C   UNL     1      14.075  19.980  15.072  1.00  0.00     0.022 A 
ATOM     13  C   UNL     1      14.168  19.082  14.004  1.00  0.00     0.047 A 
ATOM     14  C   UNL     1      14.911  17.905  14.137  1.00  0.00     0.115 A 
ATOM     15  C   UNL     1      15.466  18.521  16.418  1.00  0.00     0.022 A 
ATOM     16  C   UNL     1      15.557  17.625  15.348  1.00  0.00     0.047 A 
BRANCH  14  17
ATOM     17  O   UNL     1      14.996  17.020  13.065  1.00  0.00    -0.508 OA
ATOM     18  H   UNL     1      14.490  17.184  12.202  1.00  0.00     0.293 HD
ENDBRANCH  14  17
ENDBRANCH   1  11
BRANCH  10  19
ATOM     19  O   UNL     1      13.962  18.918  18.977  1.00  0.00    -0.500 OA
ATOM     20  H   UNL     1      14.397  18.175  18.443  1.00  0.00     0.294 HD
ENDBRANCH  10  19
BRANCH   5  21
ATOM     21  O   UNL     1      15.348  26.533  18.391  1.00  0.00    -0.507 OA
ATOM     22  H   UNL     1      14.758  27.313  18.657  1.00  0.00     0.293 HD
ENDBRANCH   5  21
BRANCH   7  23
ATOM     23  O   UNL     1      13.875  23.376  21.718  1.00  0.00    -0.507 OA
ATOM     24  H   UNL     1      13.051  22.854  21.978  1.00  0.00     0.293 HD
ENDBRANCH   7  23
TORSDOF 5
ENDMDL
MODEL 8
REMARK VINA RESULT:    -5.030      3.488      6.665
REMARK INTER + INTRA:          -6.196
REMARK INTER:                  -5.876
REMARK INTRA:                  -0.320
REMARK UNBOUND:                -0.284
REMARK SMILES Oc1ccc(-c2[o+]c3cc(O)cc(O)c3cc2O)cc1.[Cl-]
REMARK SMILES IDX 6 1 7 2 8 3 9 4 10 5 12 6 13 7 15 8 16 9 17 10 5 11 4 12
REMARK SMILES IDX 3 13 2 14 19 15 20 16 1 17 18 19 11 21 14 23
REMARK H PARENT 1 18 18 20 11 22 14 24
REMARK Flexibility Score: inf
ROOT
ATOM      1  C   UNL     1      21.209  14.911  24.256  1.00  0.00     0.401 A 
ATOM      2  O   UNL     1      21.142  14.258  23.099  1.00  0.00    -0.202 OA
ATOM      3  C   UNL     1      19.999  13.859  22.552  1.00  0.00     0.368 A 
ATOM      4  C   UNL     1      20.031  13.175  21.333  1.00  0.00     0.162 A 
ATOM      5  C   UNL     1      18.846  12.742  20.737  1.00  0.00     0.128 A 
ATOM      6  C   UNL     1      17.619  12.992  21.362  1.00  0.00     0.093 A 
ATOM      7  C   UNL     1      17.560  13.674  22.584  1.00  0.00     0.136 A 
ATOM      8  C   UNL     1      18.763  14.119  23.192  1.00  0.00     0.125 A 
ATOM      9  C   UNL     1      18.800  14.822  24.408  1.00  0.00     0.078 A 
ATOM     10  C   UNL     1      20.025  15.232  24.943  1.00  0.00     0.223 A 
ENDROOT
BRANCH   1  11
ATOM     11  C   UNL     1      22.546  15.294  24.768  1.00  0.00     0.084 A 
ATOM     12  C   UNL     1      23.156  16.469  24.296  1.00  0.00     0.022 A 
ATOM     13  C   UNL     1      24.426  16.839  24.749  1.00  0.00     0.047 A 
ATOM     14  C   UNL     1      25.108  16.034  25.666  1.00  0.00     0.115 A 
ATOM     15  C   UNL     1      23.246  14.478  25.675  1.00  0.00     0.022 A 
ATOM     16  C   UNL     1      24.517  14.850  26.125  1.00  0.00     0.047 A 
BRANCH  14  17
ATOM     17  O   UNL     1      26.373  16.415  26.109  1.00  0.00    -0.508 OA
ATOM     18  H   UNL     1      27.043  15.733  26.445  1.00  0.00     0.293 HD
ENDBRANCH  14  17
ENDBRANCH   1  11
BRANCH  10  19
ATOM     19  O   UNL     1      20.058  15.974  26.125  1.00  0.00    -0.500 OA
ATOM     20  H   UNL     1      20.914  16.096  26.652  1.00  0.00     0.294 HD
ENDBRANCH  10  19
BRANCH   5  21
ATOM     21  O   UNL     1      18.898  12.062  19.522  1.00  0.00    -0.507 OA
ATOM     22  H   UNL     1      19.772  11.706  19.152  1.00  0.00     0.293 HD
ENDBRANCH   5  21
BRANCH   7  23
ATOM     23  O   UNL     1      16.297  13.881  23.145  1.00  0.00    -0.507 OA
ATOM     24  H   UNL     1      15.954  14.776  23.463  1.00  0.00     0.293 HD
ENDBRANCH   7  23
TORSDOF 5
ENDMDL
MODEL 9
REMARK VINA RESULT:    -4.834      9.704     11.547
REMARK INTER + INTRA:          -5.966
REMARK INTER:                  -6.128
REMARK INTRA:                   0.162
REMARK UNBOUND:                -0.284
REMARK SMILES Oc1ccc(-c2[o+]c3cc(O)cc(O)c3cc2O)cc1.[Cl-]
REMARK SMILES IDX 6 1 7 2 8 3 9 4 10 5 12 6 13 7 15 8 16 9 17 10 5 11 4 12
REMARK SMILES IDX 3 13 2 14 19 15 20 16 1 17 18 19 11 21 14 23
REMARK H PARENT 1 18 18 20 11 22 14 24
REMARK Flexibility Score: inf
ROOT
ATOM      1  C   UNL     1      14.563  21.604  17.233  1.00  0.00     0.401 A 
ATOM      2  O   UNL     1      14.899  20.383  17.639  1.00  0.00    -0.202 OA
ATOM      3  C   UNL     1      15.000  19.343  16.820  1.00  0.00     0.368 A 
ATOM      4  C   UNL     1      15.358  18.097  17.343  1.00  0.00     0.162 A 
ATOM      5  C   UNL     1      15.469  16.986  16.505  1.00  0.00     0.128 A 
ATOM      6  C   UNL     1      15.220  17.119  15.135  1.00  0.00     0.093 A 
ATOM      7  C   UNL     1      14.859  18.356  14.586  1.00  0.00     0.136 A 
ATOM      8  C   UNL     1      14.748  19.489  15.435  1.00  0.00     0.125 A 
ATOM      9  C   UNL     1      14.406  20.771  14.971  1.00  0.00     0.078 A 
ATOM     10  C   UNL     1      14.321  21.840  15.867  1.00  0.00     0.223 A 
ENDROOT
BRANCH   1  11
ATOM     11  C   UNL     1      14.474  22.681  18.247  1.00  0.00     0.084 A 
ATOM     12  C   UNL     1      14.999  23.951  17.953  1.00  0.00     0.022 A 
ATOM     13  C   UNL     1      14.945  24.976  18.903  1.00  0.00     0.047 A 
ATOM     14  C   UNL     1      14.382  24.742  20.160  1.00  0.00     0.115 A 
ATOM     15  C   UNL     1      13.926  22.446  19.521  1.00  0.00     0.022 A 
ATOM     16  C   UNL     1      13.875  23.473  20.469  1.00  0.00     0.047 A 
BRANCH  14  17
ATOM     17  O   UNL     1      14.334  25.773  21.096  1.00  0.00    -0.508 OA
ATOM     18  H   UNL     1      13.526  26.377  21.176  1.00  0.00     0.293 HD
ENDBRANCH  14  17
ENDBRANCH   1  11
BRANCH  10  19
ATOM     19  O   UNL     1      14.030  23.122  15.400  1.00  0.00    -0.500 OA
ATOM     20  H   UNL     1      14.113  23.363  14.419  1.00  0.00     0.294 HD
ENDBRANCH  10  19
BRANCH   5  21
ATOM     21  O   UNL     1      15.826  15.753  17.046  1.00  0.00    -0.507 OA
ATOM     22  H   UNL     1      15.153  15.001  17.141  1.00  0.00     0.293 HD
ENDBRANCH   5  21
BRANCH   7  23
ATOM     23  O   UNL     1      14.623  18.406  13.209  1.00  0.00    -0.507 OA
ATOM     24  H   UNL     1      13.869  17.922  12.742  1.00  0.00     0.293 HD
ENDBRANCH   7  23
TORSDOF 5
ENDMDL
