MODEL 1
REMARK VINA RESULT:    -8.311      0.000      0.000
REMARK INTER + INTRA:         -12.537
REMARK INTER:                 -11.470
REMARK INTRA:                  -1.067
REMARK UNBOUND:                -1.067
REMARK SMILES CC[C@@H](CC[C@@H](C)[C@@H]1CC[C@@H]2[C@@H]3CC=C4C[C@H](O)CC[C@]4(C)[C@@H]3CC[C@@]21C)C(C)C
REMARK SMILES IDX 5 1 4 2 3 3 2 4 1 5 28 6 29 7 30 8 6 9 7 10 8 11 9 12 26 13
REMARK SMILES IDX 10 14 11 15 25 16 27 17 12 18 24 19 23 20 13 21 21 22 14 23
REMARK SMILES IDX 15 24 20 25 22 26 16 27 19 28 17 29 18 30
REMARK H PARENT 18 31
REMARK Flexibility Score: inf
ROOT
ATOM      1  C   UNL     1     -13.235 -33.276 -13.029  1.00  0.00     0.004 C 
ENDROOT
BRANCH   1   2
ATOM      2  C   UNL     1     -11.917 -33.198 -13.828  1.00  0.00     0.004 C 
BRANCH   2   3
ATOM      3  C   UNL     1     -11.419 -34.592 -14.306  1.00  0.00    -0.009 C 
BRANCH   3   4
ATOM      4  C   UNL     1     -12.623 -35.562 -14.484  1.00  0.00     0.000 C 
ATOM      5  C   UNL     1     -13.294 -35.457 -15.855  1.00  0.00     0.004 C 
ENDBRANCH   3   4
BRANCH   3   6
ATOM      6  C   UNL     1     -10.308 -35.183 -13.373  1.00  0.00    -0.014 C 
ATOM      7  C   UNL     1     -10.020 -34.271 -12.167  1.00  0.00     0.007 C 
ATOM      8  C   UNL     1     -10.603 -36.616 -12.896  1.00  0.00     0.007 C 
ENDBRANCH   3   6
ENDBRANCH   2   3
ENDBRANCH   1   2
BRANCH   1   9
ATOM      9  C   UNL     1     -13.834 -31.884 -12.688  1.00  0.00    -0.011 C 
ATOM     10  C   UNL     1     -14.947 -31.520 -13.695  1.00  0.00     0.008 C 
BRANCH   9  11
ATOM     11  C   UNL     1     -14.292 -31.843 -11.181  1.00  0.00    -0.002 C 
ATOM     12  C   UNL     1     -15.592 -31.104 -10.888  1.00  0.00     0.005 C 
ATOM     13  C   UNL     1     -13.275 -31.329 -10.113  1.00  0.00    -0.026 C 
ATOM     14  C   UNL     1     -15.648 -31.046  -9.371  1.00  0.00     0.005 C 
ATOM     15  C   UNL     1     -14.182 -30.972  -8.886  1.00  0.00    -0.001 C 
ATOM     16  C   UNL     1     -12.478 -30.085 -10.583  1.00  0.00     0.007 C 
ATOM     17  C   UNL     1     -12.279 -32.469  -9.769  1.00  0.00     0.012 C 
ATOM     18  C   UNL     1     -13.813 -29.651  -8.123  1.00  0.00     0.000 C 
ATOM     19  C   UNL     1     -11.644 -29.427  -9.469  1.00  0.00     0.005 C 
ATOM     20  C   UNL     1     -12.276 -29.481  -8.041  1.00  0.00     0.003 C 
ATOM     21  C   UNL     1     -14.500 -28.352  -8.633  1.00  0.00     0.031 C 
ATOM     22  C   UNL     1     -11.888 -28.247  -7.142  1.00  0.00    -0.008 C 
ATOM     23  C   UNL     1     -13.788 -27.066  -8.282  1.00  0.00    -0.027 C 
ATOM     24  C   UNL     1     -12.584 -26.993  -7.670  1.00  0.00    -0.065 C 
ATOM     25  C   UNL     1     -10.332 -28.062  -7.119  1.00  0.00     0.014 C 
ATOM     26  C   UNL     1     -12.363 -28.479  -5.680  1.00  0.00     0.016 C 
ATOM     27  C   UNL     1     -12.059 -25.629  -7.266  1.00  0.00     0.063 C 
ATOM     28  C   UNL     1      -9.875 -26.693  -6.591  1.00  0.00     0.033 C 
ATOM     29  C   UNL     1     -10.533 -25.548  -7.374  1.00  0.00     0.118 C 
BRANCH  29  30
ATOM     30  O   UNL     1     -10.154 -25.590  -8.726  1.00  0.00    -0.393 OA
ATOM     31  H   UNL     1     -10.873 -26.077  -9.209  1.00  0.00     0.210 HD
ENDBRANCH  29  30
ENDBRANCH   9  11
ENDBRANCH   1   9
TORSDOF 7
ENDMDL
MODEL 2
REMARK VINA RESULT:    -7.594      2.888      4.972
REMARK INTER + INTRA:         -11.547
REMARK INTER:                 -10.605
REMARK INTRA:                  -0.943
REMARK UNBOUND:                -1.067
REMARK SMILES CC[C@@H](CC[C@@H](C)[C@@H]1CC[C@@H]2[C@@H]3CC=C4C[C@H](O)CC[C@]4(C)[C@@H]3CC[C@@]21C)C(C)C
REMARK SMILES IDX 5 1 4 2 3 3 2 4 1 5 28 6 29 7 30 8 6 9 7 10 8 11 9 12 26 13
REMARK SMILES IDX 10 14 11 15 25 16 27 17 12 18 24 19 23 20 13 21 21 22 14 23
REMARK SMILES IDX 15 24 20 25 22 26 16 27 19 28 17 29 18 30
REMARK H PARENT 18 31
REMARK Flexibility Score: inf
ROOT
ATOM      1  C   UNL     1     -11.012 -32.926  -8.714  1.00  0.00     0.004 C 
ENDROOT
BRANCH   1   2
ATOM      2  C   UNL     1      -9.975 -32.485  -9.768  1.00  0.00     0.004 C 
BRANCH   2   3
ATOM      3  C   UNL     1      -9.875 -33.475 -10.965  1.00  0.00    -0.009 C 
BRANCH   3   4
ATOM      4  C   UNL     1     -10.190 -32.740 -12.299  1.00  0.00     0.000 C 
ATOM      5  C   UNL     1     -10.883 -31.389 -12.104  1.00  0.00     0.004 C 
ENDBRANCH   3   4
BRANCH   3   6
ATOM      6  C   UNL     1     -10.762 -34.751 -10.762  1.00  0.00    -0.014 C 
ATOM      7  C   UNL     1     -11.497 -35.155 -12.052  1.00  0.00     0.007 C 
ATOM      8  C   UNL     1      -9.989 -35.954 -10.193  1.00  0.00     0.007 C 
ENDBRANCH   3   6
ENDBRANCH   2   3
ENDBRANCH   1   2
BRANCH   1   9
ATOM      9  C   UNL     1     -11.801 -31.741  -8.091  1.00  0.00    -0.011 C 
ATOM     10  C   UNL     1     -10.980 -30.438  -8.198  1.00  0.00     0.008 C 
BRANCH   9  11
ATOM     11  C   UNL     1     -13.238 -31.649  -8.729  1.00  0.00    -0.002 C 
ATOM     12  C   UNL     1     -13.524 -32.590  -9.893  1.00  0.00     0.005 C 
ATOM     13  C   UNL     1     -13.751 -30.249  -9.195  1.00  0.00    -0.026 C 
ATOM     14  C   UNL     1     -14.868 -32.122 -10.424  1.00  0.00     0.005 C 
ATOM     15  C   UNL     1     -14.924 -30.598 -10.175  1.00  0.00    -0.001 C 
ATOM     16  C   UNL     1     -12.665 -29.414  -9.920  1.00  0.00     0.007 C 
ATOM     17  C   UNL     1     -14.261 -29.458  -7.961  1.00  0.00     0.012 C 
ATOM     18  C   UNL     1     -15.009 -29.726 -11.478  1.00  0.00     0.000 C 
ATOM     19  C   UNL     1     -13.208 -28.137 -10.587  1.00  0.00     0.005 C 
ATOM     20  C   UNL     1     -14.652 -28.252 -11.171  1.00  0.00     0.003 C 
ATOM     21  C   UNL     1     -14.218 -30.257 -12.708  1.00  0.00     0.031 C 
ATOM     22  C   UNL     1     -14.888 -27.337 -12.431  1.00  0.00    -0.008 C 
ATOM     23  C   UNL     1     -13.867 -29.216 -13.746  1.00  0.00    -0.027 C 
ATOM     24  C   UNL     1     -14.100 -27.890 -13.618  1.00  0.00    -0.065 C 
ATOM     25  C   UNL     1     -14.468 -25.860 -12.114  1.00  0.00     0.014 C 
ATOM     26  C   UNL     1     -16.394 -27.332 -12.816  1.00  0.00     0.016 C 
ATOM     27  C   UNL     1     -13.811 -26.987 -14.801  1.00  0.00     0.063 C 
ATOM     28  C   UNL     1     -14.304 -24.977 -13.361  1.00  0.00     0.033 C 
ATOM     29  C   UNL     1     -13.322 -25.604 -14.360  1.00  0.00     0.118 C 
BRANCH  29  30
ATOM     30  O   UNL     1     -12.042 -25.717 -13.793  1.00  0.00    -0.393 OA
ATOM     31  H   UNL     1     -11.757 -26.662 -13.913  1.00  0.00     0.210 HD
ENDBRANCH  29  30
ENDBRANCH   9  11
ENDBRANCH   1   9
TORSDOF 7
ENDMDL
MODEL 3
REMARK VINA RESULT:    -7.356      3.142      6.055
REMARK INTER + INTRA:         -11.219
REMARK INTER:                 -10.754
REMARK INTRA:                  -0.465
REMARK UNBOUND:                -1.067
REMARK SMILES CC[C@@H](CC[C@@H](C)[C@@H]1CC[C@@H]2[C@@H]3CC=C4C[C@H](O)CC[C@]4(C)[C@@H]3CC[C@@]21C)C(C)C
REMARK SMILES IDX 5 1 4 2 3 3 2 4 1 5 28 6 29 7 30 8 6 9 7 10 8 11 9 12 26 13
REMARK SMILES IDX 10 14 11 15 25 16 27 17 12 18 24 19 23 20 13 21 21 22 14 23
REMARK SMILES IDX 15 24 20 25 22 26 16 27 19 28 17 29 18 30
REMARK H PARENT 18 31
REMARK Flexibility Score: inf
ROOT
ATOM      1  C   UNL     1     -10.376 -29.110  -7.625  1.00  0.00     0.004 C 
ENDROOT
BRANCH   1   2
ATOM      2  C   UNL     1     -10.027 -30.608  -7.495  1.00  0.00     0.004 C 
BRANCH   2   3
ATOM      3  C   UNL     1      -9.875 -31.312  -8.875  1.00  0.00    -0.009 C 
BRANCH   3   4
ATOM      4  C   UNL     1     -10.785 -30.626  -9.933  1.00  0.00     0.000 C 
ATOM      5  C   UNL     1     -10.009 -29.992 -11.089  1.00  0.00     0.004 C 
ENDBRANCH   3   4
BRANCH   3   6
ATOM      6  C   UNL     1     -10.120 -32.858  -8.788  1.00  0.00    -0.014 C 
ATOM      7  C   UNL     1     -10.029 -33.377  -7.342  1.00  0.00     0.007 C 
ATOM      8  C   UNL     1     -11.443 -33.309  -9.431  1.00  0.00     0.007 C 
ENDBRANCH   3   6
ENDBRANCH   2   3
ENDBRANCH   1   2
BRANCH   1   9
ATOM      9  C   UNL     1     -11.514 -28.657  -6.669  1.00  0.00    -0.011 C 
ATOM     10  C   UNL     1     -11.325 -27.174  -6.280  1.00  0.00     0.008 C 
BRANCH   9  11
ATOM     11  C   UNL     1     -12.919 -28.981  -7.304  1.00  0.00    -0.002 C 
ATOM     12  C   UNL     1     -13.058 -30.338  -7.984  1.00  0.00     0.005 C 
ATOM     13  C   UNL     1     -13.530 -27.952  -8.308  1.00  0.00    -0.026 C 
ATOM     14  C   UNL     1     -14.409 -30.268  -8.673  1.00  0.00     0.005 C 
ATOM     15  C   UNL     1     -14.615 -28.788  -9.071  1.00  0.00    -0.001 C 
ATOM     16  C   UNL     1     -12.487 -27.376  -9.300  1.00  0.00     0.007 C 
ATOM     17  C   UNL     1     -14.172 -26.785  -7.511  1.00  0.00     0.012 C 
ATOM     18  C   UNL     1     -14.710 -28.535 -10.618  1.00  0.00     0.000 C 
ATOM     19  C   UNL     1     -13.107 -26.545 -10.437  1.00  0.00     0.005 C 
ATOM     20  C   UNL     1     -14.504 -27.035 -10.937  1.00  0.00     0.003 C 
ATOM     21  C   UNL     1     -13.812 -29.435 -11.514  1.00  0.00     0.031 C 
ATOM     22  C   UNL     1     -14.755 -26.740 -12.464  1.00  0.00    -0.008 C 
ATOM     23  C   UNL     1     -13.503 -28.876 -12.884  1.00  0.00    -0.027 C 
ATOM     24  C   UNL     1     -13.860 -27.643 -13.313  1.00  0.00    -0.065 C 
ATOM     25  C   UNL     1     -14.486 -25.228 -12.776  1.00  0.00     0.014 C 
ATOM     26  C   UNL     1     -16.233 -27.048 -12.833  1.00  0.00     0.016 C 
ATOM     27  C   UNL     1     -13.593 -27.275 -14.759  1.00  0.00     0.063 C 
ATOM     28  C   UNL     1     -14.338 -24.916 -14.273  1.00  0.00     0.033 C 
ATOM     29  C   UNL     1     -13.253 -25.790 -14.917  1.00  0.00     0.118 C 
BRANCH  29  30
ATOM     30  O   UNL     1     -11.999 -25.530 -14.340  1.00  0.00    -0.393 OA
ATOM     31  H   UNL     1     -12.069 -25.776 -13.380  1.00  0.00     0.210 HD
ENDBRANCH  29  30
ENDBRANCH   9  11
ENDBRANCH   1   9
TORSDOF 7
ENDMDL
MODEL 4
REMARK VINA RESULT:    -7.260      2.805      6.696
REMARK INTER + INTRA:         -11.085
REMARK INTER:                 -10.710
REMARK INTRA:                  -0.376
REMARK UNBOUND:                -1.067
REMARK SMILES CC[C@@H](CC[C@@H](C)[C@@H]1CC[C@@H]2[C@@H]3CC=C4C[C@H](O)CC[C@]4(C)[C@@H]3CC[C@@]21C)C(C)C
REMARK SMILES IDX 5 1 4 2 3 3 2 4 1 5 28 6 29 7 30 8 6 9 7 10 8 11 9 12 26 13
REMARK SMILES IDX 10 14 11 15 25 16 27 17 12 18 24 19 23 20 13 21 21 22 14 23
REMARK SMILES IDX 15 24 20 25 22 26 16 27 19 28 17 29 18 30
REMARK H PARENT 18 31
REMARK Flexibility Score: inf
ROOT
ATOM      1  C   UNL     1     -11.220 -31.185  -7.601  1.00  0.00     0.004 C 
ENDROOT
BRANCH   1   2
ATOM      2  C   UNL     1     -10.162 -30.066  -7.714  1.00  0.00     0.004 C 
BRANCH   2   3
ATOM      3  C   UNL     1     -10.792 -28.663  -7.946  1.00  0.00    -0.009 C 
BRANCH   3   4
ATOM      4  C   UNL     1      -9.875 -27.806  -8.866  1.00  0.00     0.000 C 
ATOM      5  C   UNL     1     -10.605 -26.649  -9.551  1.00  0.00     0.004 C 
ENDBRANCH   3   4
BRANCH   3   6
ATOM      6  C   UNL     1     -11.141 -27.934  -6.603  1.00  0.00    -0.014 C 
ATOM      7  C   UNL     1      -9.881 -27.575  -5.796  1.00  0.00     0.007 C 
ATOM      8  C   UNL     1     -12.024 -26.687  -6.791  1.00  0.00     0.007 C 
ENDBRANCH   3   6
ENDBRANCH   2   3
ENDBRANCH   1   2
BRANCH   1   9
ATOM      9  C   UNL     1     -11.239 -32.142  -8.824  1.00  0.00    -0.011 C 
ATOM     10  C   UNL     1     -10.701 -33.533  -8.422  1.00  0.00     0.008 C 
BRANCH   9  11
ATOM     11  C   UNL     1     -12.675 -32.170  -9.471  1.00  0.00    -0.002 C 
ATOM     12  C   UNL     1     -12.827 -32.988 -10.748  1.00  0.00     0.005 C 
ATOM     13  C   UNL     1     -13.378 -30.807  -9.768  1.00  0.00    -0.026 C 
ATOM     14  C   UNL     1     -14.224 -32.648 -11.239  1.00  0.00     0.005 C 
ATOM     15  C   UNL     1     -14.491 -31.189 -10.803  1.00  0.00    -0.001 C 
ATOM     16  C   UNL     1     -12.418 -29.746 -10.364  1.00  0.00     0.007 C 
ATOM     17  C   UNL     1     -13.992 -30.256  -8.453  1.00  0.00     0.012 C 
ATOM     18  C   UNL     1     -14.698 -30.181 -11.989  1.00  0.00     0.000 C 
ATOM     19  C   UNL     1     -13.134 -28.483 -10.876  1.00  0.00     0.005 C 
ATOM     20  C   UNL     1     -14.549 -28.721 -11.494  1.00  0.00     0.003 C 
ATOM     21  C   UNL     1     -13.841 -30.438 -13.261  1.00  0.00     0.031 C 
ATOM     22  C   UNL     1     -14.910 -27.696 -12.634  1.00  0.00    -0.008 C 
ATOM     23  C   UNL     1     -13.639 -29.236 -14.156  1.00  0.00    -0.027 C 
ATOM     24  C   UNL     1     -14.053 -27.982 -13.868  1.00  0.00    -0.065 C 
ATOM     25  C   UNL     1     -14.700 -26.227 -12.129  1.00  0.00     0.014 C 
ATOM     26  C   UNL     1     -16.402 -27.851 -13.042  1.00  0.00     0.016 C 
ATOM     27  C   UNL     1     -13.894 -26.906 -14.924  1.00  0.00     0.063 C 
ATOM     28  C   UNL     1     -14.661 -25.181 -13.253  1.00  0.00     0.033 C 
ATOM     29  C   UNL     1     -13.601 -25.536 -14.306  1.00  0.00     0.118 C 
BRANCH  29  30
ATOM     30  O   UNL     1     -12.318 -25.541 -13.736  1.00  0.00    -0.393 OA
ATOM     31  H   UNL     1     -11.682 -25.768 -14.465  1.00  0.00     0.210 HD
ENDBRANCH  29  30
ENDBRANCH   9  11
ENDBRANCH   1   9
TORSDOF 7
ENDMDL
MODEL 5
REMARK VINA RESULT:    -7.224      2.606      4.317
REMARK INTER + INTRA:         -11.037
REMARK INTER:                 -10.242
REMARK INTRA:                  -0.795
REMARK UNBOUND:                -1.067
REMARK SMILES CC[C@@H](CC[C@@H](C)[C@@H]1CC[C@@H]2[C@@H]3CC=C4C[C@H](O)CC[C@]4(C)[C@@H]3CC[C@@]21C)C(C)C
REMARK SMILES IDX 5 1 4 2 3 3 2 4 1 5 28 6 29 7 30 8 6 9 7 10 8 11 9 12 26 13
REMARK SMILES IDX 10 14 11 15 25 16 27 17 12 18 24 19 23 20 13 21 21 22 14 23
REMARK SMILES IDX 15 24 20 25 22 26 16 27 19 28 17 29 18 30
REMARK H PARENT 18 31
REMARK Flexibility Score: inf
ROOT
ATOM      1  C   UNL     1     -10.314 -32.905 -11.391  1.00  0.00     0.004 C 
ENDROOT
BRANCH   1   2
ATOM      2  C   UNL     1     -10.176 -33.674 -12.722  1.00  0.00     0.004 C 
BRANCH   2   3
ATOM      3  C   UNL     1     -11.362 -34.649 -12.979  1.00  0.00    -0.009 C 
BRANCH   3   4
ATOM      4  C   UNL     1     -10.827 -36.073 -13.304  1.00  0.00     0.000 C 
ATOM      5  C   UNL     1     -10.622 -36.946 -12.064  1.00  0.00     0.004 C 
ENDBRANCH   3   4
BRANCH   3   6
ATOM      6  C   UNL     1     -12.348 -34.116 -14.076  1.00  0.00    -0.014 C 
ATOM      7  C   UNL     1     -12.901 -35.251 -14.955  1.00  0.00     0.007 C 
ATOM      8  C   UNL     1     -13.503 -33.273 -13.508  1.00  0.00     0.007 C 
ENDBRANCH   3   6
ENDBRANCH   2   3
ENDBRANCH   1   2
BRANCH   1   9
ATOM      9  C   UNL     1     -10.964 -33.745 -10.257  1.00  0.00    -0.011 C 
ATOM     10  C   UNL     1      -9.875 -34.311  -9.320  1.00  0.00     0.008 C 
BRANCH   9  11
ATOM     11  C   UNL     1     -12.070 -32.899  -9.520  1.00  0.00    -0.002 C 
ATOM     12  C   UNL     1     -13.516 -33.316  -9.762  1.00  0.00     0.005 C 
ATOM     13  C   UNL     1     -12.053 -31.347  -9.699  1.00  0.00    -0.026 C 
ATOM     14  C   UNL     1     -14.331 -32.208  -9.119  1.00  0.00     0.005 C 
ATOM     15  C   UNL     1     -13.498 -30.915  -9.270  1.00  0.00    -0.001 C 
ATOM     16  C   UNL     1     -11.762 -30.905 -11.156  1.00  0.00     0.007 C 
ATOM     17  C   UNL     1     -10.977 -30.739  -8.759  1.00  0.00     0.012 C 
ATOM     18  C   UNL     1     -14.170 -29.803 -10.151  1.00  0.00     0.000 C 
ATOM     19  C   UNL     1     -11.969 -29.400 -11.400  1.00  0.00     0.005 C 
ATOM     20  C   UNL     1     -13.126 -28.743 -10.580  1.00  0.00     0.003 C 
ATOM     21  C   UNL     1     -15.001 -30.304 -11.366  1.00  0.00     0.031 C 
ATOM     22  C   UNL     1     -13.813 -27.540 -11.328  1.00  0.00    -0.008 C 
ATOM     23  C   UNL     1     -15.196 -29.294 -12.474  1.00  0.00    -0.027 C 
ATOM     24  C   UNL     1     -14.623 -28.070 -12.511  1.00  0.00    -0.065 C 
ATOM     25  C   UNL     1     -12.733 -26.508 -11.801  1.00  0.00     0.014 C 
ATOM     26  C   UNL     1     -14.791 -26.802 -10.371  1.00  0.00     0.016 C 
ATOM     27  C   UNL     1     -15.019 -27.119 -13.623  1.00  0.00     0.063 C 
ATOM     28  C   UNL     1     -13.243 -25.506 -12.848  1.00  0.00     0.033 C 
ATOM     29  C   UNL     1     -13.851 -26.229 -14.058  1.00  0.00     0.118 C 
BRANCH  29  30
ATOM     30  O   UNL     1     -12.881 -27.009 -14.708  1.00  0.00    -0.393 OA
ATOM     31  H   UNL     1     -12.255 -26.377 -15.151  1.00  0.00     0.210 HD
ENDBRANCH  29  30
ENDBRANCH   9  11
ENDBRANCH   1   9
TORSDOF 7
ENDMDL
MODEL 6
REMARK VINA RESULT:    -7.222      2.964      7.046
REMARK INTER + INTRA:         -11.034
REMARK INTER:                 -10.767
REMARK INTRA:                  -0.268
REMARK UNBOUND:                -1.067
REMARK SMILES CC[C@@H](CC[C@@H](C)[C@@H]1CC[C@@H]2[C@@H]3CC=C4C[C@H](O)CC[C@]4(C)[C@@H]3CC[C@@]21C)C(C)C
REMARK SMILES IDX 5 1 4 2 3 3 2 4 1 5 28 6 29 7 30 8 6 9 7 10 8 11 9 12 26 13
REMARK SMILES IDX 10 14 11 15 25 16 27 17 12 18 24 19 23 20 13 21 21 22 14 23
REMARK SMILES IDX 15 24 20 25 22 26 16 27 19 28 17 29 18 30
REMARK H PARENT 18 31
REMARK Flexibility Score: inf
ROOT
ATOM      1  C   UNL     1     -13.735 -26.340 -10.421  1.00  0.00     0.004 C 
ENDROOT
BRANCH   1   2
ATOM      2  C   UNL     1     -14.944 -27.119 -10.980  1.00  0.00     0.004 C 
BRANCH   2   3
ATOM      3  C   UNL     1     -15.049 -27.037 -12.530  1.00  0.00    -0.009 C 
BRANCH   3   4
ATOM      4  C   UNL     1     -14.880 -28.451 -13.157  1.00  0.00     0.000 C 
ATOM      5  C   UNL     1     -15.729 -29.527 -12.476  1.00  0.00     0.004 C 
ENDBRANCH   3   4
BRANCH   3   6
ATOM      6  C   UNL     1     -14.058 -25.989 -13.143  1.00  0.00    -0.014 C 
ATOM      7  C   UNL     1     -13.194 -26.596 -14.263  1.00  0.00     0.007 C 
ATOM      8  C   UNL     1     -14.747 -24.707 -13.641  1.00  0.00     0.007 C 
ENDBRANCH   3   6
ENDBRANCH   2   3
ENDBRANCH   1   2
BRANCH   1   9
ATOM      9  C   UNL     1     -13.747 -26.208  -8.873  1.00  0.00    -0.011 C 
ATOM     10  C   UNL     1     -15.157 -26.513  -8.323  1.00  0.00     0.008 C 
BRANCH   9  11
ATOM     11  C   UNL     1     -12.606 -27.094  -8.243  1.00  0.00    -0.002 C 
ATOM     12  C   UNL     1     -11.176 -26.719  -8.614  1.00  0.00     0.005 C 
ATOM     13  C   UNL     1     -12.688 -28.643  -8.426  1.00  0.00    -0.026 C 
ATOM     14  C   UNL     1     -10.341 -27.857  -8.052  1.00  0.00     0.005 C 
ATOM     15  C   UNL     1     -11.225 -29.123  -8.132  1.00  0.00    -0.001 C 
ATOM     16  C   UNL     1     -13.124 -29.065  -9.853  1.00  0.00     0.007 C 
ATOM     17  C   UNL     1     -13.693 -29.224  -7.395  1.00  0.00     0.012 C 
ATOM     18  C   UNL     1     -10.670 -30.248  -9.075  1.00  0.00     0.000 C 
ATOM     19  C   UNL     1     -12.987 -30.574 -10.121  1.00  0.00     0.005 C 
ATOM     20  C   UNL     1     -11.782 -31.272  -9.412  1.00  0.00     0.003 C 
ATOM     21  C   UNL     1      -9.938 -29.764 -10.359  1.00  0.00     0.031 C 
ATOM     22  C   UNL     1     -11.203 -32.490 -10.225  1.00  0.00    -0.008 C 
ATOM     23  C   UNL     1      -9.875 -30.772 -11.484  1.00  0.00    -0.027 C 
ATOM     24  C   UNL     1     -10.488 -31.977 -11.475  1.00  0.00    -0.065 C 
ATOM     25  C   UNL     1     -12.354 -33.485 -10.603  1.00  0.00     0.014 C 
ATOM     26  C   UNL     1     -10.167 -33.265  -9.364  1.00  0.00     0.016 C 
ATOM     27  C   UNL     1     -10.224 -32.932 -12.622  1.00  0.00     0.063 C 
ATOM     28  C   UNL     1     -11.972 -34.495 -11.696  1.00  0.00     0.033 C 
ATOM     29  C   UNL     1     -11.454 -33.783 -12.953  1.00  0.00     0.118 C 
BRANCH  29  30
ATOM     30  O   UNL     1     -12.454 -32.968 -13.509  1.00  0.00    -0.393 OA
ATOM     31  H   UNL     1     -13.166 -33.576 -13.842  1.00  0.00     0.210 HD
ENDBRANCH  29  30
ENDBRANCH   9  11
ENDBRANCH   1   9
TORSDOF 7
ENDMDL
MODEL 7
REMARK VINA RESULT:    -7.027      1.770      2.683
REMARK INTER + INTRA:         -10.764
REMARK INTER:                 -10.565
REMARK INTRA:                  -0.200
REMARK UNBOUND:                -1.067
REMARK SMILES CC[C@@H](CC[C@@H](C)[C@@H]1CC[C@@H]2[C@@H]3CC=C4C[C@H](O)CC[C@]4(C)[C@@H]3CC[C@@]21C)C(C)C
REMARK SMILES IDX 5 1 4 2 3 3 2 4 1 5 28 6 29 7 30 8 6 9 7 10 8 11 9 12 26 13
REMARK SMILES IDX 10 14 11 15 25 16 27 17 12 18 24 19 23 20 13 21 21 22 14 23
REMARK SMILES IDX 15 24 20 25 22 26 16 27 19 28 17 29 18 30
REMARK H PARENT 18 31
REMARK Flexibility Score: inf
ROOT
ATOM      1  C   UNL     1     -12.984 -32.361 -12.343  1.00  0.00     0.004 C 
ENDROOT
BRANCH   1   2
ATOM      2  C   UNL     1     -11.617 -32.595 -13.020  1.00  0.00     0.004 C 
BRANCH   2   3
ATOM      3  C   UNL     1     -10.888 -33.861 -12.483  1.00  0.00    -0.009 C 
BRANCH   3   4
ATOM      4  C   UNL     1     -11.659 -35.145 -12.904  1.00  0.00     0.000 C 
ATOM      5  C   UNL     1     -12.120 -35.131 -14.362  1.00  0.00     0.004 C 
ENDBRANCH   3   4
BRANCH   3   6
ATOM      6  C   UNL     1     -10.633 -33.795 -10.938  1.00  0.00    -0.014 C 
ATOM      7  C   UNL     1      -9.906 -35.048 -10.418  1.00  0.00     0.007 C 
ATOM      8  C   UNL     1      -9.888 -32.525 -10.491  1.00  0.00     0.007 C 
ENDBRANCH   3   6
ENDBRANCH   2   3
ENDBRANCH   1   2
BRANCH   1   9
ATOM      9  C   UNL     1     -14.102 -31.944 -13.337  1.00  0.00    -0.011 C 
ATOM     10  C   UNL     1     -15.186 -33.041 -13.413  1.00  0.00     0.008 C 
BRANCH   9  11
ATOM     11  C   UNL     1     -14.657 -30.517 -12.964  1.00  0.00    -0.002 C 
ATOM     12  C   UNL     1     -14.090 -29.343 -13.752  1.00  0.00     0.005 C 
ATOM     13  C   UNL     1     -14.604 -30.073 -11.467  1.00  0.00    -0.026 C 
ATOM     14  C   UNL     1     -14.633 -28.120 -13.033  1.00  0.00     0.005 C 
ATOM     15  C   UNL     1     -14.757 -28.515 -11.543  1.00  0.00    -0.001 C 
ATOM     16  C   UNL     1     -13.276 -30.457 -10.765  1.00  0.00     0.007 C 
ATOM     17  C   UNL     1     -15.789 -30.722 -10.703  1.00  0.00     0.012 C 
ATOM     18  C   UNL     1     -13.843 -27.688 -10.571  1.00  0.00     0.000 C 
ATOM     19  C   UNL     1     -13.110 -29.830  -9.369  1.00  0.00     0.005 C 
ATOM     20  C   UNL     1     -13.721 -28.402  -9.202  1.00  0.00     0.003 C 
ATOM     21  C   UNL     1     -12.447 -27.282 -11.125  1.00  0.00     0.031 C 
ATOM     22  C   UNL     1     -12.940 -27.509  -8.165  1.00  0.00    -0.008 C 
ATOM     23  C   UNL     1     -11.403 -26.972 -10.076  1.00  0.00    -0.027 C 
ATOM     24  C   UNL     1     -11.578 -27.127  -8.744  1.00  0.00    -0.065 C 
ATOM     25  C   UNL     1     -12.780 -28.273  -6.805  1.00  0.00     0.014 C 
ATOM     26  C   UNL     1     -13.728 -26.199  -7.886  1.00  0.00     0.016 C 
ATOM     27  C   UNL     1     -10.484 -26.649  -7.810  1.00  0.00     0.063 C 
ATOM     28  C   UNL     1     -11.730 -27.660  -5.866  1.00  0.00     0.033 C 
ATOM     29  C   UNL     1     -10.369 -27.532  -6.564  1.00  0.00     0.118 C 
BRANCH  29  30
ATOM     30  O   UNL     1      -9.876 -28.796  -6.927  1.00  0.00    -0.393 OA
ATOM     31  H   UNL     1      -8.892 -28.768  -6.794  1.00  0.00     0.210 HD
ENDBRANCH  29  30
ENDBRANCH   9  11
ENDBRANCH   1   9
TORSDOF 7
ENDMDL
MODEL 8
REMARK VINA RESULT:    -6.779      1.768      3.948
REMARK INTER + INTRA:         -10.422
REMARK INTER:                  -9.372
REMARK INTRA:                  -1.050
REMARK UNBOUND:                -1.067
REMARK SMILES CC[C@@H](CC[C@@H](C)[C@@H]1CC[C@@H]2[C@@H]3CC=C4C[C@H](O)CC[C@]4(C)[C@@H]3CC[C@@]21C)C(C)C
REMARK SMILES IDX 5 1 4 2 3 3 2 4 1 5 28 6 29 7 30 8 6 9 7 10 8 11 9 12 26 13
REMARK SMILES IDX 10 14 11 15 25 16 27 17 12 18 24 19 23 20 13 21 21 22 14 23
REMARK SMILES IDX 15 24 20 25 22 26 16 27 19 28 17 29 18 30
REMARK H PARENT 18 31
REMARK Flexibility Score: inf
ROOT
ATOM      1  C   UNL     1     -13.021 -30.689 -12.999  1.00  0.00     0.004 C 
ENDROOT
BRANCH   1   2
ATOM      2  C   UNL     1     -14.032 -29.645 -13.519  1.00  0.00     0.004 C 
BRANCH   2   3
ATOM      3  C   UNL     1     -14.106 -28.378 -12.619  1.00  0.00    -0.009 C 
BRANCH   3   4
ATOM      4  C   UNL     1     -15.447 -27.626 -12.857  1.00  0.00     0.000 C 
ATOM      5  C   UNL     1     -16.668 -28.547 -12.880  1.00  0.00     0.004 C 
ENDBRANCH   3   4
BRANCH   3   6
ATOM      6  C   UNL     1     -12.858 -27.446 -12.793  1.00  0.00    -0.014 C 
ATOM      7  C   UNL     1     -13.000 -26.512 -14.008  1.00  0.00     0.007 C 
ATOM      8  C   UNL     1     -12.518 -26.631 -11.533  1.00  0.00     0.007 C 
ENDBRANCH   3   6
ENDBRANCH   2   3
ENDBRANCH   1   2
BRANCH   1   9
ATOM      9  C   UNL     1     -13.680 -32.032 -12.580  1.00  0.00    -0.011 C 
ATOM     10  C   UNL     1     -12.714 -33.207 -12.844  1.00  0.00     0.008 C 
BRANCH   9  11
ATOM     11  C   UNL     1     -14.194 -31.944 -11.093  1.00  0.00    -0.002 C 
ATOM     12  C   UNL     1     -15.492 -31.178 -10.869  1.00  0.00     0.005 C 
ATOM     13  C   UNL     1     -13.209 -31.415 -10.002  1.00  0.00    -0.026 C 
ATOM     14  C   UNL     1     -15.605 -31.078  -9.357  1.00  0.00     0.005 C 
ATOM     15  C   UNL     1     -14.157 -31.012  -8.820  1.00  0.00    -0.001 C 
ATOM     16  C   UNL     1     -12.377 -30.195 -10.474  1.00  0.00     0.007 C 
ATOM     17  C   UNL     1     -12.245 -32.559  -9.589  1.00  0.00     0.012 C 
ATOM     18  C   UNL     1     -13.797 -29.676  -8.078  1.00  0.00     0.000 C 
ATOM     19  C   UNL     1     -11.576 -29.519  -9.346  1.00  0.00     0.005 C 
ATOM     20  C   UNL     1     -12.262 -29.526  -7.943  1.00  0.00     0.003 C 
ATOM     21  C   UNL     1     -14.445 -28.382  -8.648  1.00  0.00     0.031 C 
ATOM     22  C   UNL     1     -11.889 -28.274  -7.063  1.00  0.00    -0.008 C 
ATOM     23  C   UNL     1     -13.727 -27.097  -8.305  1.00  0.00    -0.027 C 
ATOM     24  C   UNL     1     -12.546 -27.024  -7.650  1.00  0.00    -0.065 C 
ATOM     25  C   UNL     1     -10.332 -28.109  -6.986  1.00  0.00     0.014 C 
ATOM     26  C   UNL     1     -12.422 -28.459  -5.615  1.00  0.00     0.016 C 
ATOM     27  C   UNL     1     -12.016 -25.657  -7.263  1.00  0.00     0.063 C 
ATOM     28  C   UNL     1      -9.875 -26.733  -6.477  1.00  0.00     0.033 C 
ATOM     29  C   UNL     1     -10.486 -25.601  -7.315  1.00  0.00     0.118 C 
BRANCH  29  30
ATOM     30  O   UNL     1     -10.058 -25.684  -8.650  1.00  0.00    -0.393 OA
ATOM     31  H   UNL     1     -10.607 -26.389  -9.083  1.00  0.00     0.210 HD
ENDBRANCH  29  30
ENDBRANCH   9  11
ENDBRANCH   1   9
TORSDOF 7
ENDMDL
MODEL 9
REMARK VINA RESULT:    -6.513      2.548      6.899
REMARK INTER + INTRA:         -10.055
REMARK INTER:                 -10.048
REMARK INTRA:                  -0.007
REMARK UNBOUND:                -1.067
REMARK SMILES CC[C@@H](CC[C@@H](C)[C@@H]1CC[C@@H]2[C@@H]3CC=C4C[C@H](O)CC[C@]4(C)[C@@H]3CC[C@@]21C)C(C)C
REMARK SMILES IDX 5 1 4 2 3 3 2 4 1 5 28 6 29 7 30 8 6 9 7 10 8 11 9 12 26 13
REMARK SMILES IDX 10 14 11 15 25 16 27 17 12 18 24 19 23 20 13 21 21 22 14 23
REMARK SMILES IDX 15 24 20 25 22 26 16 27 19 28 17 29 18 30
REMARK H PARENT 18 31
REMARK Flexibility Score: inf
ROOT
ATOM      1  C   UNL     1     -13.871 -26.234 -11.274  1.00  0.00     0.004 C 
ENDROOT
BRANCH   1   2
ATOM      2  C   UNL     1     -14.403 -26.051  -9.837  1.00  0.00     0.004 C 
BRANCH   2   3
ATOM      3  C   UNL     1     -13.788 -27.068  -8.833  1.00  0.00    -0.009 C 
BRANCH   3   4
ATOM      4  C   UNL     1     -14.712 -27.225  -7.591  1.00  0.00     0.000 C 
ATOM      5  C   UNL     1     -14.423 -28.484  -6.770  1.00  0.00     0.004 C 
ENDBRANCH   3   4
BRANCH   3   6
ATOM      6  C   UNL     1     -12.315 -26.703  -8.439  1.00  0.00    -0.014 C 
ATOM      7  C   UNL     1     -12.257 -25.779  -7.210  1.00  0.00     0.007 C 
ATOM      8  C   UNL     1     -11.414 -27.932  -8.222  1.00  0.00     0.007 C 
ENDBRANCH   3   6
ENDBRANCH   2   3
ENDBRANCH   1   2
BRANCH   1   9
ATOM      9  C   UNL     1     -14.987 -26.205 -12.354  1.00  0.00    -0.011 C 
ATOM     10  C   UNL     1     -14.626 -25.199 -13.469  1.00  0.00     0.008 C 
BRANCH   9  11
ATOM     11  C   UNL     1     -15.279 -27.663 -12.873  1.00  0.00    -0.002 C 
ATOM     12  C   UNL     1     -16.453 -28.390 -12.228  1.00  0.00     0.005 C 
ATOM     13  C   UNL     1     -14.106 -28.694 -12.876  1.00  0.00    -0.026 C 
ATOM     14  C   UNL     1     -16.345 -29.808 -12.760  1.00  0.00     0.005 C 
ATOM     15  C   UNL     1     -14.837 -30.078 -12.968  1.00  0.00    -0.001 C 
ATOM     16  C   UNL     1     -13.232 -28.624 -11.597  1.00  0.00     0.007 C 
ATOM     17  C   UNL     1     -13.210 -28.443 -14.118  1.00  0.00     0.012 C 
ATOM     18  C   UNL     1     -14.249 -31.225 -12.072  1.00  0.00     0.000 C 
ATOM     19  C   UNL     1     -12.220 -29.778 -11.474  1.00  0.00     0.005 C 
ATOM     20  C   UNL     1     -12.703 -31.151 -12.040  1.00  0.00     0.003 C 
ATOM     21  C   UNL     1     -14.840 -31.342 -10.638  1.00  0.00     0.031 C 
ATOM     22  C   UNL     1     -12.092 -32.387 -11.278  1.00  0.00    -0.008 C 
ATOM     23  C   UNL     1     -13.960 -32.051  -9.634  1.00  0.00    -0.027 C 
ATOM     24  C   UNL     1     -12.698 -32.473  -9.877  1.00  0.00    -0.065 C 
ATOM     25  C   UNL     1     -10.530 -32.264 -11.210  1.00  0.00     0.014 C 
ATOM     26  C   UNL     1     -12.434 -33.703 -12.029  1.00  0.00     0.016 C 
ATOM     27  C   UNL     1     -11.989 -33.285  -8.811  1.00  0.00     0.063 C 
ATOM     28  C   UNL     1      -9.875 -33.200 -10.184  1.00  0.00     0.033 C 
ATOM     29  C   UNL     1     -10.483 -33.006  -8.787  1.00  0.00     0.118 C 
BRANCH  29  30
ATOM     30  O   UNL     1     -10.253 -31.700  -8.324  1.00  0.00    -0.393 OA
ATOM     31  H   UNL     1      -9.740 -31.783  -7.476  1.00  0.00     0.210 HD
ENDBRANCH  29  30
ENDBRANCH   9  11
ENDBRANCH   1   9
TORSDOF 7
ENDMDL
