MODEL 1
REMARK VINA RESULT:    -5.976      0.000      0.000
REMARK INTER + INTRA:         -10.358
REMARK INTER:                  -8.247
REMARK INTRA:                  -2.111
REMARK UNBOUND:                -2.111
REMARK SMILES CC[C@@H](CC[C@H](C)[C@@H]1CC[C@@H]2[C@H]3CC=C4C[C@H](O)CC[C@@]4(C)[C@H]3CC[C@]21C)C(C)C
REMARK SMILES IDX 5 1 4 2 3 3 2 4 1 5 28 6 29 7 30 8 6 9 7 10 8 11 9 12 26 13
REMARK SMILES IDX 10 14 11 15 25 16 27 17 12 18 24 19 23 20 13 21 21 22 14 23
REMARK SMILES IDX 15 24 20 25 22 26 16 27 19 28 17 29 18 30
REMARK H PARENT 18 31
REMARK Flexibility Score: inf
ROOT
ATOM      1  C   UNL     1     140.819 132.430 147.412  1.00  0.00     0.004 C 
ENDROOT
BRANCH   1   2
ATOM      2  C   UNL     1     139.538 132.834 148.186  1.00  0.00     0.004 C 
BRANCH   2   3
ATOM      3  C   UNL     1     139.298 134.372 148.222  1.00  0.00    -0.009 C 
BRANCH   3   4
ATOM      4  C   UNL     1     139.476 134.898 149.677  1.00  0.00     0.000 C 
ATOM      5  C   UNL     1     140.922 135.252 150.036  1.00  0.00     0.004 C 
ENDBRANCH   3   4
BRANCH   3   6
ATOM      6  C   UNL     1     137.933 134.739 147.530  1.00  0.00    -0.014 C 
ATOM      7  C   UNL     1     136.932 133.566 147.490  1.00  0.00     0.007 C 
ATOM      8  C   UNL     1     138.089 135.353 146.127  1.00  0.00     0.007 C 
ENDBRANCH   3   6
ENDBRANCH   2   3
ENDBRANCH   1   2
BRANCH   1   9
ATOM      9  C   UNL     1     141.042 133.240 146.104  1.00  0.00    -0.011 C 
ATOM     10  C   UNL     1     140.594 132.446 144.856  1.00  0.00     0.008 C 
BRANCH   9  11
ATOM     11  C   UNL     1     142.476 133.879 146.049  1.00  0.00    -0.002 C 
ATOM     12  C   UNL     1     143.354 133.591 147.298  1.00  0.00     0.005 C 
ATOM     13  C   UNL     1     142.675 135.397 145.735  1.00  0.00    -0.026 C 
ATOM     14  C   UNL     1     144.214 134.836 147.530  1.00  0.00     0.005 C 
ATOM     15  C   UNL     1     144.130 135.580 146.210  1.00  0.00    -0.001 C 
ATOM     16  C   UNL     1     142.595 135.771 144.218  1.00  0.00     0.007 C 
ATOM     17  C   UNL     1     141.681 136.283 146.541  1.00  0.00     0.012 C 
ATOM     18  C   UNL     1     144.612 137.049 146.167  1.00  0.00     0.000 C 
ATOM     19  C   UNL     1     143.759 136.675 143.726  1.00  0.00     0.005 C 
ATOM     20  C   UNL     1     144.253 137.713 144.784  1.00  0.00     0.003 C 
ATOM     21  C   UNL     1     146.104 137.121 146.485  1.00  0.00     0.031 C 
ATOM     22  C   UNL     1     145.333 138.738 144.196  1.00  0.00    -0.008 C 
ATOM     23  C   UNL     1     146.608 138.515 146.345  1.00  0.00    -0.027 C 
ATOM     24  C   UNL     1     146.306 139.255 145.262  1.00  0.00    -0.065 C 
ATOM     25  C   UNL     1     146.230 138.112 143.078  1.00  0.00     0.014 C 
ATOM     26  C   UNL     1     144.539 139.939 143.605  1.00  0.00     0.016 C 
ATOM     27  C   UNL     1     147.331 140.276 144.822  1.00  0.00     0.063 C 
ATOM     28  C   UNL     1     147.372 139.042 142.594  1.00  0.00     0.033 C 
ATOM     29  C   UNL     1     148.218 139.617 143.754  1.00  0.00     0.118 C 
BRANCH  29  30
ATOM     30  O   UNL     1     149.124 140.556 143.251  1.00  0.00    -0.393 OA
ATOM     31  H   UNL     1     148.721 140.944 142.428  1.00  0.00     0.210 HD
ENDBRANCH  29  30
ENDBRANCH   9  11
ENDBRANCH   1   9
TORSDOF 7
ENDMDL
MODEL 2
REMARK VINA RESULT:    -5.638      8.397     10.646
REMARK INTER + INTRA:          -9.891
REMARK INTER:                  -8.867
REMARK INTRA:                  -1.024
REMARK UNBOUND:                -2.111
REMARK SMILES CC[C@@H](CC[C@H](C)[C@@H]1CC[C@@H]2[C@H]3CC=C4C[C@H](O)CC[C@@]4(C)[C@H]3CC[C@]21C)C(C)C
REMARK SMILES IDX 5 1 4 2 3 3 2 4 1 5 28 6 29 7 30 8 6 9 7 10 8 11 9 12 26 13
REMARK SMILES IDX 10 14 11 15 25 16 27 17 12 18 24 19 23 20 13 21 21 22 14 23
REMARK SMILES IDX 15 24 20 25 22 26 16 27 19 28 17 29 18 30
REMARK H PARENT 18 31
REMARK Flexibility Score: inf
ROOT
ATOM      1  C   UNL     1     134.114 140.387 138.631  1.00  0.00     0.004 C 
ENDROOT
BRANCH   1   2
ATOM      2  C   UNL     1     133.289 140.136 137.343  1.00  0.00     0.004 C 
BRANCH   2   3
ATOM      3  C   UNL     1     132.055 139.213 137.571  1.00  0.00    -0.009 C 
BRANCH   3   4
ATOM      4  C   UNL     1     132.065 138.057 136.529  1.00  0.00     0.000 C 
ATOM      5  C   UNL     1     132.383 138.510 135.101  1.00  0.00     0.004 C 
ENDBRANCH   3   4
BRANCH   3   6
ATOM      6  C   UNL     1     130.730 140.060 137.635  1.00  0.00    -0.014 C 
ATOM      7  C   UNL     1     130.531 140.785 138.982  1.00  0.00     0.007 C 
ATOM      8  C   UNL     1     129.463 139.267 137.266  1.00  0.00     0.007 C 
ENDBRANCH   3   6
ENDBRANCH   2   3
ENDBRANCH   1   2
BRANCH   1   9
ATOM      9  C   UNL     1     135.602 139.949 138.518  1.00  0.00    -0.011 C 
ATOM     10  C   UNL     1     135.732 138.478 138.062  1.00  0.00     0.008 C 
BRANCH   9  11
ATOM     11  C   UNL     1     136.430 140.364 139.787  1.00  0.00    -0.002 C 
ATOM     12  C   UNL     1     135.567 140.727 141.026  1.00  0.00     0.005 C 
ATOM     13  C   UNL     1     137.537 141.465 139.706  1.00  0.00    -0.026 C 
ATOM     14  C   UNL     1     136.306 141.845 141.767  1.00  0.00     0.005 C 
ATOM     15  C   UNL     1     137.715 141.775 141.206  1.00  0.00    -0.001 C 
ATOM     16  C   UNL     1     138.909 140.978 139.132  1.00  0.00     0.007 C 
ATOM     17  C   UNL     1     137.052 142.707 138.905  1.00  0.00     0.012 C 
ATOM     18  C   UNL     1     138.671 142.960 141.480  1.00  0.00     0.000 C 
ATOM     19  C   UNL     1     140.138 141.401 139.983  1.00  0.00     0.005 C 
ATOM     20  C   UNL     1     139.999 142.808 140.649  1.00  0.00     0.003 C 
ATOM     21  C   UNL     1     138.925 143.091 142.980  1.00  0.00     0.031 C 
ATOM     22  C   UNL     1     141.343 143.288 141.378  1.00  0.00    -0.008 C 
ATOM     23  C   UNL     1     139.925 144.160 143.255  1.00  0.00    -0.027 C 
ATOM     24  C   UNL     1     141.075 144.228 142.560  1.00  0.00    -0.065 C 
ATOM     25  C   UNL     1     142.181 142.105 141.964  1.00  0.00     0.014 C 
ATOM     26  C   UNL     1     142.190 144.039 140.310  1.00  0.00     0.016 C 
ATOM     27  C   UNL     1     142.281 144.787 143.281  1.00  0.00     0.063 C 
ATOM     28  C   UNL     1     143.411 142.556 142.793  1.00  0.00     0.033 C 
ATOM     29  C   UNL     1     143.060 143.603 143.876  1.00  0.00     0.118 C 
BRANCH  29  30
ATOM     30  O   UNL     1     144.235 144.067 144.476  1.00  0.00    -0.393 OA
ATOM     31  H   UNL     1     144.716 144.615 143.797  1.00  0.00     0.210 HD
ENDBRANCH  29  30
ENDBRANCH   9  11
ENDBRANCH   1   9
TORSDOF 7
ENDMDL
MODEL 3
REMARK VINA RESULT:    -5.615      8.517     10.711
REMARK INTER + INTRA:          -9.860
REMARK INTER:                  -8.875
REMARK INTRA:                  -0.985
REMARK UNBOUND:                -2.111
REMARK SMILES CC[C@@H](CC[C@H](C)[C@@H]1CC[C@@H]2[C@H]3CC=C4C[C@H](O)CC[C@@]4(C)[C@H]3CC[C@]21C)C(C)C
REMARK SMILES IDX 5 1 4 2 3 3 2 4 1 5 28 6 29 7 30 8 6 9 7 10 8 11 9 12 26 13
REMARK SMILES IDX 10 14 11 15 25 16 27 17 12 18 24 19 23 20 13 21 21 22 14 23
REMARK SMILES IDX 15 24 20 25 22 26 16 27 19 28 17 29 18 30
REMARK H PARENT 18 31
REMARK Flexibility Score: inf
ROOT
ATOM      1  C   UNL     1     134.344 140.129 137.957  1.00  0.00     0.004 C 
ENDROOT
BRANCH   1   2
ATOM      2  C   UNL     1     133.361 139.123 137.307  1.00  0.00     0.004 C 
BRANCH   2   3
ATOM      3  C   UNL     1     131.945 139.721 137.052  1.00  0.00    -0.009 C 
BRANCH   3   4
ATOM      4  C   UNL     1     131.711 140.937 137.994  1.00  0.00     0.000 C 
ATOM      5  C   UNL     1     130.675 140.681 139.092  1.00  0.00     0.004 C 
ENDBRANCH   3   4
BRANCH   3   6
ATOM      6  C   UNL     1     130.846 138.596 137.108  1.00  0.00    -0.014 C 
ATOM      7  C   UNL     1     131.419 137.172 136.951  1.00  0.00     0.007 C 
ATOM      8  C   UNL     1     129.681 138.811 136.126  1.00  0.00     0.007 C 
ENDBRANCH   3   6
ENDBRANCH   2   3
ENDBRANCH   1   2
BRANCH   1   9
ATOM      9  C   UNL     1     135.785 139.572 138.135  1.00  0.00    -0.011 C 
ATOM     10  C   UNL     1     135.852 138.056 137.845  1.00  0.00     0.008 C 
BRANCH   9  11
ATOM     11  C   UNL     1     136.436 140.056 139.480  1.00  0.00    -0.002 C 
ATOM     12  C   UNL     1     135.418 140.350 140.616  1.00  0.00     0.005 C 
ATOM     13  C   UNL     1     137.452 141.244 139.506  1.00  0.00    -0.026 C 
ATOM     14  C   UNL     1     135.980 141.527 141.419  1.00  0.00     0.005 C 
ATOM     15  C   UNL     1     137.442 141.572 141.013  1.00  0.00    -0.001 C 
ATOM     16  C   UNL     1     138.912 140.871 139.087  1.00  0.00     0.007 C 
ATOM     17  C   UNL     1     136.955 142.441 138.644  1.00  0.00     0.012 C 
ATOM     18  C   UNL     1     138.263 142.831 141.374  1.00  0.00     0.000 C 
ATOM     19  C   UNL     1     140.004 141.395 140.059  1.00  0.00     0.005 C 
ATOM     20  C   UNL     1     139.681 142.787 140.691  1.00  0.00     0.003 C 
ATOM     21  C   UNL     1     138.344 142.986 142.891  1.00  0.00     0.031 C 
ATOM     22  C   UNL     1     140.895 143.378 141.554  1.00  0.00    -0.008 C 
ATOM     23  C   UNL     1     139.218 144.135 143.260  1.00  0.00    -0.027 C 
ATOM     24  C   UNL     1     140.426 144.295 142.690  1.00  0.00    -0.065 C 
ATOM     25  C   UNL     1     141.759 142.269 142.239  1.00  0.00     0.014 C 
ATOM     26  C   UNL     1     141.788 144.194 140.575  1.00  0.00     0.016 C 
ATOM     27  C   UNL     1     141.498 144.953 143.530  1.00  0.00     0.063 C 
ATOM     28  C   UNL     1     142.852 142.822 143.190  1.00  0.00     0.033 C 
ATOM     29  C   UNL     1     142.303 143.838 144.217  1.00  0.00     0.118 C 
BRANCH  29  30
ATOM     30  O   UNL     1     143.365 144.399 144.934  1.00  0.00    -0.393 OA
ATOM     31  H   UNL     1     142.996 144.729 145.798  1.00  0.00     0.210 HD
ENDBRANCH  29  30
ENDBRANCH   9  11
ENDBRANCH   1   9
TORSDOF 7
ENDMDL
MODEL 4
REMARK VINA RESULT:    -5.572      9.579     11.968
REMARK INTER + INTRA:          -9.801
REMARK INTER:                  -8.457
REMARK INTRA:                  -1.344
REMARK UNBOUND:                -2.111
REMARK SMILES CC[C@@H](CC[C@H](C)[C@@H]1CC[C@@H]2[C@H]3CC=C4C[C@H](O)CC[C@@]4(C)[C@H]3CC[C@]21C)C(C)C
REMARK SMILES IDX 5 1 4 2 3 3 2 4 1 5 28 6 29 7 30 8 6 9 7 10 8 11 9 12 26 13
REMARK SMILES IDX 10 14 11 15 25 16 27 17 12 18 24 19 23 20 13 21 21 22 14 23
REMARK SMILES IDX 15 24 20 25 22 26 16 27 19 28 17 29 18 30
REMARK H PARENT 18 31
REMARK Flexibility Score: inf
ROOT
ATOM      1  C   UNL     1     132.685 139.713 136.125  1.00  0.00     0.004 C 
ENDROOT
BRANCH   1   2
ATOM      2  C   UNL     1     131.517 138.750 135.791  1.00  0.00     0.004 C 
BRANCH   2   3
ATOM      3  C   UNL     1     131.488 137.481 136.694  1.00  0.00    -0.009 C 
BRANCH   3   4
ATOM      4  C   UNL     1     132.380 136.370 136.067  1.00  0.00     0.000 C 
ATOM      5  C   UNL     1     133.716 136.166 136.786  1.00  0.00     0.004 C 
ENDBRANCH   3   4
BRANCH   3   6
ATOM      6  C   UNL     1     130.005 137.061 137.017  1.00  0.00    -0.014 C 
ATOM      7  C   UNL     1     128.954 138.006 136.401  1.00  0.00     0.007 C 
ATOM      8  C   UNL     1     129.726 136.860 138.517  1.00  0.00     0.007 C 
ENDBRANCH   3   6
ENDBRANCH   2   3
ENDBRANCH   1   2
BRANCH   1   9
ATOM      9  C   UNL     1     132.797 140.063 137.635  1.00  0.00    -0.011 C 
ATOM     10  C   UNL     1     131.434 140.487 138.227  1.00  0.00     0.008 C 
BRANCH   9  11
ATOM     11  C   UNL     1     134.012 141.016 137.925  1.00  0.00    -0.002 C 
ATOM     12  C   UNL     1     134.689 141.596 136.654  1.00  0.00     0.005 C 
ATOM     13  C   UNL     1     135.183 140.572 138.862  1.00  0.00    -0.026 C 
ATOM     14  C   UNL     1     136.185 141.711 136.963  1.00  0.00     0.005 C 
ATOM     15  C   UNL     1     136.245 141.621 138.477  1.00  0.00    -0.001 C 
ATOM     16  C   UNL     1     134.886 140.701 140.393  1.00  0.00     0.007 C 
ATOM     17  C   UNL     1     135.651 139.122 138.545  1.00  0.00     0.012 C 
ATOM     18  C   UNL     1     137.620 141.376 139.141  1.00  0.00     0.000 C 
ATOM     19  C   UNL     1     136.011 141.407 141.198  1.00  0.00     0.005 C 
ATOM     20  C   UNL     1     137.454 141.102 140.683  1.00  0.00     0.003 C 
ATOM     21  C   UNL     1     138.558 142.545 138.848  1.00  0.00     0.031 C 
ATOM     22  C   UNL     1     138.596 141.705 141.630  1.00  0.00    -0.008 C 
ATOM     23  C   UNL     1     139.853 142.377 139.566  1.00  0.00    -0.027 C 
ATOM     24  C   UNL     1     139.883 142.045 140.870  1.00  0.00    -0.065 C 
ATOM     25  C   UNL     1     138.168 143.029 142.344  1.00  0.00     0.014 C 
ATOM     26  C   UNL     1     138.909 140.621 142.704  1.00  0.00     0.016 C 
ATOM     27  C   UNL     1     141.047 142.566 141.683  1.00  0.00     0.063 C 
ATOM     28  C   UNL     1     139.304 143.703 143.155  1.00  0.00     0.033 C 
ATOM     29  C   UNL     1     140.605 143.885 142.338  1.00  0.00     0.118 C 
BRANCH  29  30
ATOM     30  O   UNL     1     141.621 144.357 143.175  1.00  0.00    -0.393 OA
ATOM     31  H   UNL     1     141.220 144.497 144.075  1.00  0.00     0.210 HD
ENDBRANCH  29  30
ENDBRANCH   9  11
ENDBRANCH   1   9
TORSDOF 7
ENDMDL
MODEL 5
REMARK VINA RESULT:    -5.529      4.491      7.256
REMARK INTER + INTRA:          -9.741
REMARK INTER:                  -8.287
REMARK INTRA:                  -1.453
REMARK UNBOUND:                -2.111
REMARK SMILES CC[C@@H](CC[C@H](C)[C@@H]1CC[C@@H]2[C@H]3CC=C4C[C@H](O)CC[C@@]4(C)[C@H]3CC[C@]21C)C(C)C
REMARK SMILES IDX 5 1 4 2 3 3 2 4 1 5 28 6 29 7 30 8 6 9 7 10 8 11 9 12 26 13
REMARK SMILES IDX 10 14 11 15 25 16 27 17 12 18 24 19 23 20 13 21 21 22 14 23
REMARK SMILES IDX 15 24 20 25 22 26 16 27 19 28 17 29 18 30
REMARK H PARENT 18 31
REMARK Flexibility Score: inf
ROOT
ATOM      1  C   UNL     1     137.659 141.987 143.042  1.00  0.00     0.004 C 
ENDROOT
BRANCH   1   2
ATOM      2  C   UNL     1     136.847 141.155 142.016  1.00  0.00     0.004 C 
BRANCH   2   3
ATOM      3  C   UNL     1     137.092 139.622 142.133  1.00  0.00    -0.009 C 
BRANCH   3   4
ATOM      4  C   UNL     1     137.501 139.266 143.592  1.00  0.00     0.000 C 
ATOM      5  C   UNL     1     136.394 138.581 144.399  1.00  0.00     0.004 C 
ENDBRANCH   3   4
BRANCH   3   6
ATOM      6  C   UNL     1     138.077 139.127 141.010  1.00  0.00    -0.014 C 
ATOM      7  C   UNL     1     137.426 139.051 139.614  1.00  0.00     0.007 C 
ATOM      8  C   UNL     1     138.784 137.799 141.340  1.00  0.00     0.007 C 
ENDBRANCH   3   6
ENDBRANCH   2   3
ENDBRANCH   1   2
BRANCH   1   9
ATOM      9  C   UNL     1     138.571 143.066 142.392  1.00  0.00    -0.011 C 
ATOM     10  C   UNL     1     138.305 143.204 140.877  1.00  0.00     0.008 C 
BRANCH   9  11
ATOM     11  C   UNL     1     140.072 142.900 142.827  1.00  0.00    -0.002 C 
ATOM     12  C   UNL     1     140.951 144.158 142.589  1.00  0.00     0.005 C 
ATOM     13  C   UNL     1     140.927 141.688 142.336  1.00  0.00    -0.026 C 
ATOM     14  C   UNL     1     142.348 143.656 142.214  1.00  0.00     0.005 C 
ATOM     15  C   UNL     1     142.341 142.207 142.667  1.00  0.00    -0.001 C 
ATOM     16  C   UNL     1     140.691 140.355 143.120  1.00  0.00     0.007 C 
ATOM     17  C   UNL     1     140.739 141.434 140.813  1.00  0.00     0.012 C 
ATOM     18  C   UNL     1     143.471 141.279 142.165  1.00  0.00     0.000 C 
ATOM     19  C   UNL     1     141.996 139.644 143.571  1.00  0.00     0.005 C 
ATOM     20  C   UNL     1     143.180 139.783 142.561  1.00  0.00     0.003 C 
ATOM     21  C   UNL     1     144.822 141.773 142.678  1.00  0.00     0.031 C 
ATOM     22  C   UNL     1     144.456 138.904 142.969  1.00  0.00    -0.008 C 
ATOM     23  C   UNL     1     145.910 140.832 142.292  1.00  0.00    -0.027 C 
ATOM     24  C   UNL     1     145.777 139.506 142.475  1.00  0.00    -0.065 C 
ATOM     25  C   UNL     1     144.621 138.741 144.516  1.00  0.00     0.014 C 
ATOM     26  C   UNL     1     144.261 137.501 142.323  1.00  0.00     0.016 C 
ATOM     27  C   UNL     1     147.039 138.722 142.758  1.00  0.00     0.063 C 
ATOM     28  C   UNL     1     145.923 138.014 144.936  1.00  0.00     0.033 C 
ATOM     29  C   UNL     1     147.190 138.614 144.283  1.00  0.00     0.118 C 
BRANCH  29  30
ATOM     30  O   UNL     1     148.297 137.817 144.591  1.00  0.00    -0.393 OA
ATOM     31  H   UNL     1     148.933 137.889 143.828  1.00  0.00     0.210 HD
ENDBRANCH  29  30
ENDBRANCH   9  11
ENDBRANCH   1   9
TORSDOF 7
ENDMDL
MODEL 6
REMARK VINA RESULT:    -5.497      4.522      6.360
REMARK INTER + INTRA:          -9.696
REMARK INTER:                  -8.402
REMARK INTRA:                  -1.294
REMARK UNBOUND:                -2.111
REMARK SMILES CC[C@@H](CC[C@H](C)[C@@H]1CC[C@@H]2[C@H]3CC=C4C[C@H](O)CC[C@@]4(C)[C@H]3CC[C@]21C)C(C)C
REMARK SMILES IDX 5 1 4 2 3 3 2 4 1 5 28 6 29 7 30 8 6 9 7 10 8 11 9 12 26 13
REMARK SMILES IDX 10 14 11 15 25 16 27 17 12 18 24 19 23 20 13 21 21 22 14 23
REMARK SMILES IDX 15 24 20 25 22 26 16 27 19 28 17 29 18 30
REMARK H PARENT 18 31
REMARK Flexibility Score: inf
ROOT
ATOM      1  C   UNL     1     137.573 135.001 144.826  1.00  0.00     0.004 C 
ENDROOT
BRANCH   1   2
ATOM      2  C   UNL     1     138.291 134.232 145.964  1.00  0.00     0.004 C 
BRANCH   2   3
ATOM      3  C   UNL     1     138.550 135.103 147.229  1.00  0.00    -0.009 C 
BRANCH   3   4
ATOM      4  C   UNL     1     140.038 134.966 147.666  1.00  0.00     0.000 C 
ATOM      5  C   UNL     1     140.704 133.668 147.201  1.00  0.00     0.004 C 
ENDBRANCH   3   4
BRANCH   3   6
ATOM      6  C   UNL     1     137.483 134.796 148.345  1.00  0.00    -0.014 C 
ATOM      7  C   UNL     1     138.084 134.729 149.764  1.00  0.00     0.007 C 
ATOM      8  C   UNL     1     136.632 133.544 148.068  1.00  0.00     0.007 C 
ENDBRANCH   3   6
ENDBRANCH   2   3
ENDBRANCH   1   2
BRANCH   1   9
ATOM      9  C   UNL     1     138.543 135.699 143.832  1.00  0.00    -0.011 C 
ATOM     10  C   UNL     1     139.936 135.032 143.827  1.00  0.00     0.008 C 
BRANCH   9  11
ATOM     11  C   UNL     1     138.516 137.262 143.990  1.00  0.00    -0.002 C 
ATOM     12  C   UNL     1     137.121 137.847 144.343  1.00  0.00     0.005 C 
ATOM     13  C   UNL     1     139.098 138.198 142.882  1.00  0.00    -0.026 C 
ATOM     14  C   UNL     1     137.023 139.207 143.646  1.00  0.00     0.005 C 
ATOM     15  C   UNL     1     138.464 139.539 143.304  1.00  0.00    -0.001 C 
ATOM     16  C   UNL     1     140.654 138.355 142.903  1.00  0.00     0.007 C 
ATOM     17  C   UNL     1     138.640 137.757 141.462  1.00  0.00     0.012 C 
ATOM     18  C   UNL     1     138.732 140.689 142.306  1.00  0.00     0.000 C 
ATOM     19  C   UNL     1     141.145 139.827 142.818  1.00  0.00     0.005 C 
ATOM     20  C   UNL     1     140.257 140.744 141.916  1.00  0.00     0.003 C 
ATOM     21  C   UNL     1     138.222 142.009 142.878  1.00  0.00     0.031 C 
ATOM     22  C   UNL     1     140.877 142.207 141.711  1.00  0.00    -0.008 C 
ATOM     23  C   UNL     1     138.565 143.144 141.976  1.00  0.00    -0.027 C 
ATOM     24  C   UNL     1     139.807 143.279 141.476  1.00  0.00    -0.065 C 
ATOM     25  C   UNL     1     141.704 142.702 142.944  1.00  0.00     0.014 C 
ATOM     26  C   UNL     1     141.807 142.131 140.466  1.00  0.00     0.016 C 
ATOM     27  C   UNL     1     140.290 144.688 141.212  1.00  0.00     0.063 C 
ATOM     28  C   UNL     1     142.194 144.167 142.824  1.00  0.00     0.033 C 
ATOM     29  C   UNL     1     141.064 145.156 142.455  1.00  0.00     0.118 C 
BRANCH  29  30
ATOM     30  O   UNL     1     141.608 146.423 142.220  1.00  0.00    -0.393 OA
ATOM     31  H   UNL     1     140.860 147.078 142.260  1.00  0.00     0.210 HD
ENDBRANCH  29  30
ENDBRANCH   9  11
ENDBRANCH   1   9
TORSDOF 7
ENDMDL
MODEL 7
REMARK VINA RESULT:    -5.446      5.730      9.349
REMARK INTER + INTRA:          -9.626
REMARK INTER:                  -8.277
REMARK INTRA:                  -1.349
REMARK UNBOUND:                -2.111
REMARK SMILES CC[C@@H](CC[C@H](C)[C@@H]1CC[C@@H]2[C@H]3CC=C4C[C@H](O)CC[C@@]4(C)[C@H]3CC[C@]21C)C(C)C
REMARK SMILES IDX 5 1 4 2 3 3 2 4 1 5 28 6 29 7 30 8 6 9 7 10 8 11 9 12 26 13
REMARK SMILES IDX 10 14 11 15 25 16 27 17 12 18 24 19 23 20 13 21 21 22 14 23
REMARK SMILES IDX 15 24 20 25 22 26 16 27 19 28 17 29 18 30
REMARK H PARENT 18 31
REMARK Flexibility Score: inf
ROOT
ATOM      1  C   UNL     1     145.007 139.474 143.531  1.00  0.00     0.004 C 
ENDROOT
BRANCH   1   2
ATOM      2  C   UNL     1     145.101 138.358 144.603  1.00  0.00     0.004 C 
BRANCH   2   3
ATOM      3  C   UNL     1     146.509 138.252 145.261  1.00  0.00    -0.009 C 
BRANCH   3   4
ATOM      4  C   UNL     1     146.385 137.584 146.661  1.00  0.00     0.000 C 
ATOM      5  C   UNL     1     145.363 136.445 146.718  1.00  0.00     0.004 C 
ENDBRANCH   3   4
BRANCH   3   6
ATOM      6  C   UNL     1     147.242 139.644 145.234  1.00  0.00    -0.014 C 
ATOM      7  C   UNL     1     148.712 139.553 144.774  1.00  0.00     0.007 C 
ATOM      8  C   UNL     1     147.148 140.426 146.557  1.00  0.00     0.007 C 
ENDBRANCH   3   6
ENDBRANCH   2   3
ENDBRANCH   1   2
BRANCH   1   9
ATOM      9  C   UNL     1     144.694 138.945 142.102  1.00  0.00    -0.011 C 
ATOM     10  C   UNL     1     144.594 137.403 142.072  1.00  0.00     0.008 C 
BRANCH   9  11
ATOM     11  C   UNL     1     145.619 139.608 141.019  1.00  0.00    -0.002 C 
ATOM     12  C   UNL     1     146.942 140.198 141.580  1.00  0.00     0.005 C 
ATOM     13  C   UNL     1     145.063 140.683 140.029  1.00  0.00    -0.026 C 
ATOM     14  C   UNL     1     147.255 141.446 140.750  1.00  0.00     0.005 C 
ATOM     15  C   UNL     1     146.388 141.283 139.516  1.00  0.00    -0.001 C 
ATOM     16  C   UNL     1     144.270 140.108 138.810  1.00  0.00     0.007 C 
ATOM     17  C   UNL     1     144.189 141.741 140.764  1.00  0.00     0.012 C 
ATOM     18  C   UNL     1     146.192 142.508 138.593  1.00  0.00     0.000 C 
ATOM     19  C   UNL     1     144.697 140.702 137.439  1.00  0.00     0.005 C 
ATOM     20  C   UNL     1     145.102 142.210 137.495  1.00  0.00     0.003 C 
ATOM     21  C   UNL     1     147.531 142.932 137.994  1.00  0.00     0.031 C 
ATOM     22  C   UNL     1     145.374 142.838 136.047  1.00  0.00    -0.008 C 
ATOM     23  C   UNL     1     147.346 144.045 137.021  1.00  0.00    -0.027 C 
ATOM     24  C   UNL     1     146.388 143.987 136.077  1.00  0.00    -0.065 C 
ATOM     25  C   UNL     1     145.946 141.801 135.025  1.00  0.00     0.014 C 
ATOM     26  C   UNL     1     144.010 143.375 135.525  1.00  0.00     0.016 C 
ATOM     27  C   UNL     1     146.673 144.689 134.768  1.00  0.00     0.063 C 
ATOM     28  C   UNL     1     146.347 142.418 133.661  1.00  0.00     0.033 C 
ATOM     29  C   UNL     1     147.268 143.652 133.802  1.00  0.00     0.118 C 
BRANCH  29  30
ATOM     30  O   UNL     1     147.462 144.237 132.547  1.00  0.00    -0.393 OA
ATOM     31  H   UNL     1     148.431 144.448 132.466  1.00  0.00     0.210 HD
ENDBRANCH  29  30
ENDBRANCH   9  11
ENDBRANCH   1   9
TORSDOF 7
ENDMDL
MODEL 8
REMARK VINA RESULT:    -5.444      2.243      3.379
REMARK INTER + INTRA:          -9.624
REMARK INTER:                  -7.834
REMARK INTRA:                  -1.789
REMARK UNBOUND:                -2.111
REMARK SMILES CC[C@@H](CC[C@H](C)[C@@H]1CC[C@@H]2[C@H]3CC=C4C[C@H](O)CC[C@@]4(C)[C@H]3CC[C@]21C)C(C)C
REMARK SMILES IDX 5 1 4 2 3 3 2 4 1 5 28 6 29 7 30 8 6 9 7 10 8 11 9 12 26 13
REMARK SMILES IDX 10 14 11 15 25 16 27 17 12 18 24 19 23 20 13 21 21 22 14 23
REMARK SMILES IDX 15 24 20 25 22 26 16 27 19 28 17 29 18 30
REMARK H PARENT 18 31
REMARK Flexibility Score: inf
ROOT
ATOM      1  C   UNL     1     140.232 134.031 145.581  1.00  0.00     0.004 C 
ENDROOT
BRANCH   1   2
ATOM      2  C   UNL     1     140.693 133.947 147.060  1.00  0.00     0.004 C 
BRANCH   2   3
ATOM      3  C   UNL     1     140.153 135.112 147.940  1.00  0.00    -0.009 C 
BRANCH   3   4
ATOM      4  C   UNL     1     141.322 135.742 148.753  1.00  0.00     0.000 C 
ATOM      5  C   UNL     1     142.671 135.050 148.537  1.00  0.00     0.004 C 
ENDBRANCH   3   4
BRANCH   3   6
ATOM      6  C   UNL     1     138.913 134.642 148.788  1.00  0.00    -0.014 C 
ATOM      7  C   UNL     1     137.571 135.200 148.270  1.00  0.00     0.007 C 
ATOM      8  C   UNL     1     139.052 134.907 150.298  1.00  0.00     0.007 C 
ENDBRANCH   3   6
ENDBRANCH   2   3
ENDBRANCH   1   2
BRANCH   1   9
ATOM      9  C   UNL     1     140.019 135.484 145.073  1.00  0.00    -0.011 C 
ATOM     10  C   UNL     1     138.542 135.752 144.707  1.00  0.00     0.008 C 
BRANCH   9  11
ATOM     11  C   UNL     1     141.091 135.888 143.997  1.00  0.00    -0.002 C 
ATOM     12  C   UNL     1     142.117 134.772 143.662  1.00  0.00     0.005 C 
ATOM     13  C   UNL     1     141.927 137.201 144.142  1.00  0.00    -0.026 C 
ATOM     14  C   UNL     1     143.450 135.468 143.378  1.00  0.00     0.005 C 
ATOM     15  C   UNL     1     143.054 136.912 143.130  1.00  0.00    -0.001 C 
ATOM     16  C   UNL     1     141.186 138.506 143.702  1.00  0.00     0.007 C 
ATOM     17  C   UNL     1     142.472 137.376 145.589  1.00  0.00     0.012 C 
ATOM     18  C   UNL     1     144.168 137.985 143.126  1.00  0.00     0.000 C 
ATOM     19  C   UNL     1     142.016 139.420 142.759  1.00  0.00     0.005 C 
ATOM     20  C   UNL     1     143.548 139.432 143.067  1.00  0.00     0.003 C 
ATOM     21  C   UNL     1     145.149 137.718 141.986  1.00  0.00     0.031 C 
ATOM     22  C   UNL     1     144.353 140.506 142.193  1.00  0.00    -0.008 C 
ATOM     23  C   UNL     1     146.169 138.800 141.902  1.00  0.00    -0.027 C 
ATOM     24  C   UNL     1     145.808 140.096 141.938  1.00  0.00    -0.065 C 
ATOM     25  C   UNL     1     143.728 140.739 140.778  1.00  0.00     0.014 C 
ATOM     26  C   UNL     1     144.331 141.842 142.991  1.00  0.00     0.016 C 
ATOM     27  C   UNL     1     146.673 141.071 141.171  1.00  0.00     0.063 C 
ATOM     28  C   UNL     1     144.568 141.669 139.865  1.00  0.00     0.033 C 
ATOM     29  C   UNL     1     146.053 141.247 139.775  1.00  0.00     0.118 C 
BRANCH  29  30
ATOM     30  O   UNL     1     146.771 142.212 139.061  1.00  0.00    -0.393 OA
ATOM     31  H   UNL     1     146.498 142.135 138.107  1.00  0.00     0.210 HD
ENDBRANCH  29  30
ENDBRANCH   9  11
ENDBRANCH   1   9
TORSDOF 7
ENDMDL
MODEL 9
REMARK VINA RESULT:    -5.423      8.990     11.156
REMARK INTER + INTRA:          -9.595
REMARK INTER:                  -8.357
REMARK INTRA:                  -1.238
REMARK UNBOUND:                -2.111
REMARK SMILES CC[C@@H](CC[C@H](C)[C@@H]1CC[C@@H]2[C@H]3CC=C4C[C@H](O)CC[C@@]4(C)[C@H]3CC[C@]21C)C(C)C
REMARK SMILES IDX 5 1 4 2 3 3 2 4 1 5 28 6 29 7 30 8 6 9 7 10 8 11 9 12 26 13
REMARK SMILES IDX 10 14 11 15 25 16 27 17 12 18 24 19 23 20 13 21 21 22 14 23
REMARK SMILES IDX 15 24 20 25 22 26 16 27 19 28 17 29 18 30
REMARK H PARENT 18 31
REMARK Flexibility Score: inf
ROOT
ATOM      1  C   UNL     1     133.271 139.276 136.779  1.00  0.00     0.004 C 
ENDROOT
BRANCH   1   2
ATOM      2  C   UNL     1     131.729 139.418 136.697  1.00  0.00     0.004 C 
BRANCH   2   3
ATOM      3  C   UNL     1     130.987 138.795 137.916  1.00  0.00    -0.009 C 
BRANCH   3   4
ATOM      4  C   UNL     1     130.198 137.532 137.462  1.00  0.00     0.000 C 
ATOM      5  C   UNL     1     129.682 136.673 138.620  1.00  0.00     0.004 C 
ENDBRANCH   3   4
BRANCH   3   6
ATOM      6  C   UNL     1     130.143 139.888 138.673  1.00  0.00    -0.014 C 
ATOM      7  C   UNL     1     128.904 140.359 137.883  1.00  0.00     0.007 C 
ATOM      8  C   UNL     1     130.968 141.100 139.142  1.00  0.00     0.007 C 
ENDBRANCH   3   6
ENDBRANCH   2   3
ENDBRANCH   1   2
BRANCH   1   9
ATOM      9  C   UNL     1     134.000 140.585 137.193  1.00  0.00    -0.011 C 
ATOM     10  C   UNL     1     133.865 141.682 136.113  1.00  0.00     0.008 C 
BRANCH   9  11
ATOM     11  C   UNL     1     135.451 140.301 137.725  1.00  0.00    -0.002 C 
ATOM     12  C   UNL     1     135.837 138.797 137.764  1.00  0.00     0.005 C 
ATOM     13  C   UNL     1     135.947 140.900 139.081  1.00  0.00    -0.026 C 
ATOM     14  C   UNL     1     136.742 138.605 138.984  1.00  0.00     0.005 C 
ATOM     15  C   UNL     1     137.186 140.016 139.326  1.00  0.00    -0.001 C 
ATOM     16  C   UNL     1     136.406 142.394 139.013  1.00  0.00     0.007 C 
ATOM     17  C   UNL     1     134.881 140.736 140.203  1.00  0.00     0.012 C 
ATOM     18  C   UNL     1     137.855 140.259 140.699  1.00  0.00     0.000 C 
ATOM     19  C   UNL     1     137.780 142.666 139.686  1.00  0.00     0.005 C 
ATOM     20  C   UNL     1     138.049 141.800 140.958  1.00  0.00     0.003 C 
ATOM     21  C   UNL     1     139.162 139.476 140.791  1.00  0.00     0.031 C 
ATOM     22  C   UNL     1     139.392 142.219 141.725  1.00  0.00    -0.008 C 
ATOM     23  C   UNL     1     139.872 139.780 142.065  1.00  0.00    -0.027 C 
ATOM     24  C   UNL     1     140.036 141.050 142.480  1.00  0.00    -0.065 C 
ATOM     25  C   UNL     1     140.503 142.764 140.768  1.00  0.00     0.014 C 
ATOM     26  C   UNL     1     139.001 143.330 142.743  1.00  0.00     0.016 C 
ATOM     27  C   UNL     1     141.279 141.352 143.287  1.00  0.00     0.063 C 
ATOM     28  C   UNL     1     141.856 143.043 141.470  1.00  0.00     0.033 C 
ATOM     29  C   UNL     1     142.359 141.848 142.312  1.00  0.00     0.118 C 
BRANCH  29  30
ATOM     30  O   UNL     1     143.499 142.227 143.028  1.00  0.00    -0.393 OA
ATOM     31  H   UNL     1     143.471 141.750 143.901  1.00  0.00     0.210 HD
ENDBRANCH  29  30
ENDBRANCH   9  11
ENDBRANCH   1   9
TORSDOF 7
ENDMDL
