MODEL 1
REMARK VINA RESULT:    29.639      0.000      0.000
REMARK INTER + INTRA:          63.014
REMARK INTER:                  62.561
REMARK INTRA:                   0.453
REMARK UNBOUND:                 0.453
REMARK SMILES CCC(=O)CCCCC[C@@H]1NC(=O)[C@H]2CCCCN2C(=O)[C@@H]([C@@H](C)CC)NC(=O)[C@@H](Cc2cn(OC)c3ccccc23)NC1=O
REMARK SMILES IDX 9 1 10 2 44 3 43 4 45 6 30 7 28 8 27 9 29 11 22 12 23 14
REMARK SMILES IDX 24 15 25 16 26 17 31 18 32 19 33 20 42 21 34 22 37 23 41 24
REMARK SMILES IDX 38 25 40 26 39 27 35 28 36 29 11 30 12 31 13 33 14 34 19 35
REMARK SMILES IDX 15 36 18 37 16 38 17 39 20 40 21 41 8 43 7 44 6 45 5 46 3 47
REMARK SMILES IDX 4 48 2 49 1 50
REMARK H PARENT 43 5 27 10 11 32
REMARK Flexibility Score: 80.00
ROOT
ATOM      1  C   UNL     1     -21.907   4.163   7.625  1.00  0.00     0.035 C 
ENDROOT
BRANCH   1   2
ATOM      2  C   UNL     1     -22.249   2.866   8.402  1.00  0.00     0.171 C 
BRANCH   2   3
ATOM      3  C   UNL     1     -21.458   1.656   7.982  1.00  0.00     0.243 C 
ATOM      4  N   UNL     1     -21.923   0.344   8.313  1.00  0.00    -0.342 N 
ATOM      5  H   UNL     1     -22.862   0.244   8.757  1.00  0.00     0.164 HD
ATOM      6  O   UNL     1     -20.338   1.803   7.416  1.00  0.00    -0.273 OA
BRANCH   4   7
ATOM      7  C   UNL     1     -21.054  -0.832   8.210  1.00  0.00     0.175 C 
BRANCH   7   8
ATOM      8  C   UNL     1     -20.625  -1.324   9.576  1.00  0.00     0.243 C 
ATOM      9  N   UNL     1     -21.368  -1.006  10.770  1.00  0.00    -0.342 N 
ATOM     10  H   UNL     1     -22.240  -0.440  10.686  1.00  0.00     0.164 HD
ATOM     11  O   UNL     1     -19.589  -2.038   9.652  1.00  0.00    -0.273 OA
BRANCH   9  12
ATOM     12  C   UNL     1     -21.059  -1.594  12.080  1.00  0.00     0.174 CG0
ATOM     13  G   UNL     1     -21.023  -0.539  13.168  1.00  0.00     0.000 G0
BRANCH  12  14
ATOM     14  C   UNL     1     -22.040  -2.754  12.436  1.00  0.00     0.018 C 
ATOM     15  C   UNL     1     -22.128  -3.819  11.327  1.00  0.00     0.010 C 
BRANCH  14  16
ATOM     16  C   UNL     1     -21.668  -3.439  13.776  1.00  0.00     0.002 C 
ATOM     17  C   UNL     1     -22.705  -3.199  14.875  1.00  0.00     0.004 C 
ENDBRANCH  14  16
ENDBRANCH  12  14
ENDBRANCH   9  12
ENDBRANCH   7   8
BRANCH   7  18
ATOM     18  C   UNL     1     -21.759  -1.953   7.426  1.00  0.00     0.073 C 
BRANCH  18  19
ATOM     19  C   UNL     1     -20.781  -3.033   7.058  1.00  0.00    -0.016 A 
ATOM     20  C   UNL     1     -19.665  -2.883   6.247  1.00  0.00     0.134 A 
ATOM     21  C   UNL     1     -20.670  -4.294   7.612  1.00  0.00     0.006 A 
ATOM     22  N   UNL     1     -18.891  -3.989   6.291  1.00  0.00    -0.191 N 
ATOM     23  C   UNL     1     -19.509  -4.860   7.132  1.00  0.00     0.087 A 
ATOM     24  C   UNL     1     -21.486  -4.943   8.538  1.00  0.00     0.011 A 
ATOM     25  C   UNL     1     -19.123  -6.147   7.541  1.00  0.00     0.030 A 
ATOM     26  C   UNL     1     -21.107  -6.223   8.967  1.00  0.00     0.001 A 
ATOM     27  C   UNL     1     -19.934  -6.822   8.469  1.00  0.00     0.002 A 
BRANCH  22  28
ATOM     28  O   UNL     1     -17.674  -4.065   5.629  1.00  0.00    -0.417 OA
ATOM     29  C   UNL     1     -17.472  -3.761   4.256  1.00  0.00     0.313 C 
ENDBRANCH  22  28
ENDBRANCH  18  19
ENDBRANCH   7  18
ENDBRANCH   4   7
ENDBRANCH   2   3
BRANCH   2  30
ATOM     30  N   UNL     1     -22.142   3.034   9.850  1.00  0.00    -0.343 N 
ATOM     31  C   UNL     1     -22.266   1.881  10.692  1.00  0.00     0.243 C 
ATOM     32  H   UNL     1     -21.596   3.842  10.222  1.00  0.00     0.164 HD
ATOM     33  O   UNL     1     -23.304   1.167  10.613  1.00  0.00    -0.273 OA
BRANCH  31  34
ATOM     34  C   UNL     1     -21.135   1.505  11.618  1.00  0.00     0.174 C 
ATOM     35  N   UNL     1     -21.615   0.774  12.810  1.00  0.00    -0.329 N 
ATOM     36  C   UNL     1     -20.307   2.737  12.035  1.00  0.00     0.035 C 
ATOM     37  C   UNL     1     -22.245   1.526  13.910  1.00  0.00     0.120 C 
ATOM     38  C   UNL     1     -21.021   3.571  13.107  1.00  0.00     0.004 C 
ATOM     39  C   UNL     1     -21.364   2.706  14.323  1.00  0.00     0.022 C 
BRANCH  35  40
ATOM     40  C   UNL     1     -21.050  -0.511  13.110  1.00  0.00     0.246 CG0
ATOM     41  O   UNL     1     -20.598  -0.723  14.269  1.00  0.00    -0.272 OA
ATOM     42  G   UNL     1     -21.050  -1.650  12.110  1.00  0.00     0.000 G0
ENDBRANCH  35  40
ENDBRANCH  31  34
ENDBRANCH   2  30
ENDBRANCH   1   2
BRANCH   1  43
ATOM     43  C   UNL     1     -21.665   5.453   8.441  1.00  0.00     0.003 C 
BRANCH  43  44
ATOM     44  C   UNL     1     -20.191   5.840   8.643  1.00  0.00     0.001 C 
BRANCH  44  45
ATOM     45  C   UNL     1     -19.905   6.357  10.066  1.00  0.00     0.008 C 
BRANCH  45  46
ATOM     46  C   UNL     1     -18.448   6.803  10.245  1.00  0.00     0.075 C 
BRANCH  46  47
ATOM     47  C   UNL     1     -18.261   8.251   9.859  1.00  0.00     0.132 C 
ATOM     48  O   UNL     1     -19.237   8.987   9.798  1.00  0.00    -0.300 OA
BRANCH  47  49
ATOM     49  C   UNL     1     -16.899   8.800   9.525  1.00  0.00     0.072 C 
ATOM     50  C   UNL     1     -16.073   7.784   8.742  1.00  0.00     0.012 C 
ENDBRANCH  47  49
ENDBRANCH  46  47
ENDBRANCH  45  46
ENDBRANCH  44  45
ENDBRANCH  43  44
ENDBRANCH   1  43
TORSDOF 12
ENDMDL
MODEL 2
REMARK VINA RESULT:    29.832      1.196      2.049
REMARK INTER + INTRA:          63.420
REMARK INTER:                  57.914
REMARK INTRA:                   5.506
REMARK UNBOUND:                 0.453
REMARK SMILES CCC(=O)CCCCC[C@@H]1NC(=O)[C@H]2CCCCN2C(=O)[C@@H]([C@@H](C)CC)NC(=O)[C@@H](Cc2cn(OC)c3ccccc23)NC1=O
REMARK SMILES IDX 9 1 10 2 44 3 43 4 45 6 30 7 28 8 27 9 29 11 22 12 23 14
REMARK SMILES IDX 24 15 25 16 26 17 31 18 32 19 33 20 42 21 34 22 37 23 41 24
REMARK SMILES IDX 38 25 40 26 39 27 35 28 36 29 11 30 12 31 13 33 14 34 19 35
REMARK SMILES IDX 15 36 18 37 16 38 17 39 20 40 21 41 8 43 7 44 6 45 5 46 3 47
REMARK SMILES IDX 4 48 2 49 1 50
REMARK H PARENT 43 5 27 10 11 32
REMARK Flexibility Score: 80.00
ROOT
ATOM      1  C   UNL     1     -22.250   4.072   7.611  1.00  0.00     0.035 C 
ENDROOT
BRANCH   1   2
ATOM      2  C   UNL     1     -22.410   2.779   8.452  1.00  0.00     0.171 C 
BRANCH   2   3
ATOM      3  C   UNL     1     -21.516   1.643   8.031  1.00  0.00     0.243 C 
ATOM      4  N   UNL     1     -21.827   0.302   8.422  1.00  0.00    -0.342 N 
ATOM      5  H   UNL     1     -22.730   0.121   8.913  1.00  0.00     0.164 HD
ATOM      6  O   UNL     1     -20.444   1.885   7.408  1.00  0.00    -0.273 OA
BRANCH   4   7
ATOM      7  C   UNL     1     -20.846  -0.781   8.314  1.00  0.00     0.175 C 
BRANCH   7   8
ATOM      8  C   UNL     1     -20.496  -1.349   9.673  1.00  0.00     0.243 C 
ATOM      9  N   UNL     1     -20.999  -0.771  10.894  1.00  0.00    -0.342 N 
ATOM     10  H   UNL     1     -21.642   0.048  10.838  1.00  0.00     0.164 HD
ATOM     11  O   UNL     1     -19.747  -2.363   9.719  1.00  0.00    -0.273 OA
BRANCH   9  12
ATOM     12  C   UNL     1     -20.798  -1.392  12.211  1.00  0.00     0.174 CG0
ATOM     13  G   UNL     1     -21.237  -0.472  13.331  1.00  0.00     0.000 G0
BRANCH  12  14
ATOM     14  C   UNL     1     -21.494  -2.785  12.303  1.00  0.00     0.018 C 
ATOM     15  C   UNL     1     -20.571  -3.940  11.872  1.00  0.00     0.010 C 
BRANCH  14  16
ATOM     16  C   UNL     1     -22.041  -3.068  13.725  1.00  0.00     0.002 C 
ATOM     17  C   UNL     1     -22.557  -4.499  13.891  1.00  0.00     0.004 C 
ENDBRANCH  14  16
ENDBRANCH  12  14
ENDBRANCH   9  12
ENDBRANCH   7   8
BRANCH   7  18
ATOM     18  C   UNL     1     -21.370  -1.888   7.382  1.00  0.00     0.073 C 
BRANCH  18  19
ATOM     19  C   UNL     1     -21.156  -3.241   8.000  1.00  0.00    -0.016 A 
ATOM     20  C   UNL     1     -22.006  -3.875   8.895  1.00  0.00     0.134 A 
ATOM     21  C   UNL     1     -20.217  -4.191   7.645  1.00  0.00     0.006 A 
ATOM     22  N   UNL     1     -21.624  -5.155   9.090  1.00  0.00    -0.191 N 
ATOM     23  C   UNL     1     -20.522  -5.352   8.320  1.00  0.00     0.087 A 
ATOM     24  C   UNL     1     -19.160  -4.114   6.738  1.00  0.00     0.011 A 
ATOM     25  C   UNL     1     -19.741  -6.506   8.140  1.00  0.00     0.030 A 
ATOM     26  C   UNL     1     -18.379  -5.260   6.536  1.00  0.00     0.001 A 
ATOM     27  C   UNL     1     -18.666  -6.449   7.236  1.00  0.00     0.002 A 
BRANCH  22  28
ATOM     28  O   UNL     1     -22.354  -6.031   9.882  1.00  0.00    -0.417 OA
ATOM     29  C   UNL     1     -23.717  -6.376   9.673  1.00  0.00     0.313 C 
ENDBRANCH  22  28
ENDBRANCH  18  19
ENDBRANCH   7  18
ENDBRANCH   4   7
ENDBRANCH   2   3
BRANCH   2  30
ATOM     30  N   UNL     1     -22.246   3.017   9.884  1.00  0.00    -0.343 N 
ATOM     31  C   UNL     1     -22.413   1.921  10.791  1.00  0.00     0.243 C 
ATOM     32  H   UNL     1     -21.641   3.808  10.195  1.00  0.00     0.164 HD
ATOM     33  O   UNL     1     -23.494   1.269  10.783  1.00  0.00    -0.273 OA
BRANCH  31  34
ATOM     34  C   UNL     1     -21.277   1.525  11.704  1.00  0.00     0.174 C 
ATOM     35  N   UNL     1     -21.760   0.862  12.934  1.00  0.00    -0.329 N 
ATOM     36  C   UNL     1     -20.382   2.731  12.055  1.00  0.00     0.035 C 
ATOM     37  C   UNL     1     -22.326   1.682  14.019  1.00  0.00     0.120 C 
ATOM     38  C   UNL     1     -21.029   3.636  13.112  1.00  0.00     0.004 C 
ATOM     39  C   UNL     1     -21.380   2.833  14.367  1.00  0.00     0.022 C 
BRANCH  35  40
ATOM     40  C   UNL     1     -21.249  -0.438  13.268  1.00  0.00     0.246 CG0
ATOM     41  O   UNL     1     -21.278  -0.813  14.473  1.00  0.00    -0.272 OA
ATOM     42  G   UNL     1     -20.750  -1.408  12.217  1.00  0.00     0.000 G0
ENDBRANCH  35  40
ENDBRANCH  31  34
ENDBRANCH   2  30
ENDBRANCH   1   2
BRANCH   1  43
ATOM     43  C   UNL     1     -22.265   5.426   8.356  1.00  0.00     0.003 C 
BRANCH  43  44
ATOM     44  C   UNL     1     -21.146   5.623   9.391  1.00  0.00     0.001 C 
BRANCH  44  45
ATOM     45  C   UNL     1     -19.938   6.388   8.816  1.00  0.00     0.008 C 
BRANCH  45  46
ATOM     46  C   UNL     1     -18.918   6.769   9.897  1.00  0.00     0.075 C 
BRANCH  46  47
ATOM     47  C   UNL     1     -18.201   8.052   9.554  1.00  0.00     0.132 C 
ATOM     48  O   UNL     1     -18.834   9.099   9.502  1.00  0.00    -0.300 OA
BRANCH  47  49
ATOM     49  C   UNL     1     -16.726   8.066   9.252  1.00  0.00     0.072 C 
ATOM     50  C   UNL     1     -16.004   9.126  10.078  1.00  0.00     0.012 C 
ENDBRANCH  47  49
ENDBRANCH  46  47
ENDBRANCH  45  46
ENDBRANCH  44  45
ENDBRANCH  43  44
ENDBRANCH   1  43
TORSDOF 12
ENDMDL
MODEL 3
REMARK VINA RESULT:    31.363      2.554      9.052
REMARK INTER + INTRA:          66.653
REMARK INTER:                  63.538
REMARK INTRA:                   3.115
REMARK UNBOUND:                 0.453
REMARK SMILES CCC(=O)CCCCC[C@@H]1NC(=O)[C@H]2CCCCN2C(=O)[C@@H]([C@@H](C)CC)NC(=O)[C@@H](Cc2cn(OC)c3ccccc23)NC1=O
REMARK SMILES IDX 9 1 10 2 44 3 43 4 45 6 30 7 28 8 27 9 29 11 22 12 23 14
REMARK SMILES IDX 24 15 25 16 26 17 31 18 32 19 33 20 42 21 34 22 37 23 41 24
REMARK SMILES IDX 38 25 40 26 39 27 35 28 36 29 11 30 12 31 13 33 14 34 19 35
REMARK SMILES IDX 15 36 18 37 16 38 17 39 20 40 21 41 8 43 7 44 6 45 5 46 3 47
REMARK SMILES IDX 4 48 2 49 1 50
REMARK H PARENT 43 5 27 10 11 32
REMARK Flexibility Score: 80.00
ROOT
ATOM      1  C   UNL     1     -19.849  -4.212   8.032  1.00  0.00     0.035 C 
ENDROOT
BRANCH   1   2
ATOM      2  C   UNL     1     -19.932  -2.954   8.934  1.00  0.00     0.171 C 
BRANCH   2   3
ATOM      3  C   UNL     1     -20.735  -1.819   8.354  1.00  0.00     0.243 C 
ATOM      4  N   UNL     1     -20.318  -0.466   8.563  1.00  0.00    -0.342 N 
ATOM      5  H   UNL     1     -19.403  -0.292   9.032  1.00  0.00     0.164 HD
ATOM      6  O   UNL     1     -21.824  -2.059   7.761  1.00  0.00    -0.273 OA
BRANCH   4   7
ATOM      7  C   UNL     1     -21.211   0.666   8.299  1.00  0.00     0.175 C 
BRANCH   7   8
ATOM      8  C   UNL     1     -21.807   1.210   9.580  1.00  0.00     0.243 C 
ATOM      9  N   UNL     1     -21.382   0.746  10.877  1.00  0.00    -0.342 N 
ATOM     10  H   UNL     1     -20.625   0.033  10.935  1.00  0.00     0.164 HD
ATOM     11  O   UNL     1     -22.696   2.100   9.490  1.00  0.00    -0.273 OA
BRANCH   9  12
ATOM     12  C   UNL     1     -21.835   1.364  12.131  1.00  0.00     0.174 CG0
ATOM     13  G   UNL     1     -22.049   0.328  13.215  1.00  0.00     0.000 G0
BRANCH  12  14
ATOM     14  C   UNL     1     -20.867   2.494  12.598  1.00  0.00     0.018 C 
ATOM     15  C   UNL     1     -20.590   3.534  11.495  1.00  0.00     0.010 C 
BRANCH  14  16
ATOM     16  C   UNL     1     -21.387   3.218  13.866  1.00  0.00     0.002 C 
ATOM     17  C   UNL     1     -20.585   2.872  15.122  1.00  0.00     0.004 C 
ENDBRANCH  14  16
ENDBRANCH  12  14
ENDBRANCH   9  12
ENDBRANCH   7   8
BRANCH   7  18
ATOM     18  C   UNL     1     -20.463   1.773   7.536  1.00  0.00     0.073 C 
BRANCH  18  19
ATOM     19  C   UNL     1     -21.386   2.919   7.233  1.00  0.00    -0.016 A 
ATOM     20  C   UNL     1     -22.368   2.942   6.253  1.00  0.00     0.134 A 
ATOM     21  C   UNL     1     -21.590   4.058   7.989  1.00  0.00     0.006 A 
ATOM     22  N   UNL     1     -23.150   4.035   6.386  1.00  0.00    -0.191 N 
ATOM     23  C   UNL     1     -22.672   4.724   7.456  1.00  0.00     0.087 A 
ATOM     24  C   UNL     1     -20.927   4.510   9.130  1.00  0.00     0.011 A 
ATOM     25  C   UNL     1     -23.128   5.920   8.035  1.00  0.00     0.030 A 
ATOM     26  C   UNL     1     -21.378   5.695   9.728  1.00  0.00     0.001 A 
ATOM     27  C   UNL     1     -22.469   6.398   9.181  1.00  0.00     0.002 A 
BRANCH  22  28
ATOM     28  O   UNL     1     -24.256   4.254   5.578  1.00  0.00    -0.417 OA
ATOM     29  C   UNL     1     -24.459   3.671   4.298  1.00  0.00     0.313 C 
ENDBRANCH  22  28
ENDBRANCH  18  19
ENDBRANCH   7  18
ENDBRANCH   4   7
ENDBRANCH   2   3
BRANCH   2  30
ATOM     30  N   UNL     1     -20.425  -3.258  10.276  1.00  0.00    -0.343 N 
ATOM     31  C   UNL     1     -20.406  -2.226  11.270  1.00  0.00     0.243 C 
ATOM     32  H   UNL     1     -21.127  -4.021  10.392  1.00  0.00     0.164 HD
ATOM     33  O   UNL     1     -19.316  -1.650  11.543  1.00  0.00    -0.273 OA
BRANCH  31  34
ATOM     34  C   UNL     1     -21.693  -1.803  11.936  1.00  0.00     0.174 C 
ATOM     35  N   UNL     1     -21.452  -0.933  13.106  1.00  0.00    -0.329 N 
ATOM     36  C   UNL     1     -22.554  -3.019  12.334  1.00  0.00     0.035 C 
ATOM     37  C   UNL     1     -21.012  -1.538  14.375  1.00  0.00     0.120 C 
ATOM     38  C   UNL     1     -22.025  -3.706  13.600  1.00  0.00     0.004 C 
ATOM     39  C   UNL     1     -21.926  -2.705  14.754  1.00  0.00     0.022 C 
BRANCH  35  40
ATOM     40  C   UNL     1     -22.091   0.352  13.158  1.00  0.00     0.246 CG0
ATOM     41  O   UNL     1     -22.849   0.617  14.132  1.00  0.00    -0.272 OA
ATOM     42  G   UNL     1     -21.824   1.433  12.130  1.00  0.00     0.000 G0
ENDBRANCH  35  40
ENDBRANCH  31  34
ENDBRANCH   2  30
ENDBRANCH   1   2
BRANCH   1  43
ATOM     43  C   UNL     1     -20.455  -5.529   8.568  1.00  0.00     0.003 C 
BRANCH  43  44
ATOM     44  C   UNL     1     -21.723  -6.014   7.848  1.00  0.00     0.001 C 
BRANCH  44  45
ATOM     45  C   UNL     1     -22.470  -7.107   8.638  1.00  0.00     0.008 C 
BRANCH  45  46
ATOM     46  C   UNL     1     -23.316  -8.009   7.731  1.00  0.00     0.075 C 
BRANCH  46  47
ATOM     47  C   UNL     1     -24.791  -7.848   8.009  1.00  0.00     0.132 C 
ATOM     48  O   UNL     1     -25.215  -6.766   8.392  1.00  0.00    -0.300 OA
BRANCH  47  49
ATOM     49  C   UNL     1     -25.747  -9.000   7.847  1.00  0.00     0.072 C 
ATOM     50  C   UNL     1     -26.595  -8.840   6.589  1.00  0.00     0.012 C 
ENDBRANCH  47  49
ENDBRANCH  46  47
ENDBRANCH  45  46
ENDBRANCH  44  45
ENDBRANCH  43  44
ENDBRANCH   1  43
TORSDOF 12
ENDMDL
MODEL 4
REMARK VINA RESULT:    32.474      1.047      2.135
REMARK INTER + INTRA:          68.999
REMARK INTER:                  68.610
REMARK INTRA:                   0.389
REMARK UNBOUND:                 0.453
REMARK SMILES CCC(=O)CCCCC[C@@H]1NC(=O)[C@H]2CCCCN2C(=O)[C@@H]([C@@H](C)CC)NC(=O)[C@@H](Cc2cn(OC)c3ccccc23)NC1=O
REMARK SMILES IDX 9 1 10 2 44 3 43 4 45 6 30 7 28 8 27 9 29 11 22 12 23 14
REMARK SMILES IDX 24 15 25 16 26 17 31 18 32 19 33 20 42 21 34 22 37 23 41 24
REMARK SMILES IDX 38 25 40 26 39 27 35 28 36 29 11 30 12 31 13 33 14 34 19 35
REMARK SMILES IDX 15 36 18 37 16 38 17 39 20 40 21 41 8 43 7 44 6 45 5 46 3 47
REMARK SMILES IDX 4 48 2 49 1 50
REMARK H PARENT 43 5 27 10 11 32
REMARK Flexibility Score: 80.00
ROOT
ATOM      1  C   UNL     1     -22.709   4.604   8.042  1.00  0.00     0.035 C 
ENDROOT
BRANCH   1   2
ATOM      2  C   UNL     1     -22.732   3.249   8.795  1.00  0.00     0.171 C 
BRANCH   2   3
ATOM      3  C   UNL     1     -21.802   2.205   8.236  1.00  0.00     0.243 C 
ATOM      4  N   UNL     1     -22.096   0.816   8.408  1.00  0.00    -0.342 N 
ATOM      5  H   UNL     1     -23.009   0.547   8.836  1.00  0.00     0.164 HD
ATOM      6  O   UNL     1     -20.718   2.557   7.692  1.00  0.00    -0.273 OA
BRANCH   4   7
ATOM      7  C   UNL     1     -21.089  -0.222   8.168  1.00  0.00     0.175 C 
BRANCH   7   8
ATOM      8  C   UNL     1     -20.524  -0.756   9.467  1.00  0.00     0.243 C 
ATOM      9  N   UNL     1     -21.180  -0.536  10.731  1.00  0.00    -0.342 N 
ATOM     10  H   UNL     1     -22.082  -0.014  10.749  1.00  0.00     0.164 HD
ATOM     11  O   UNL     1     -19.451  -1.417   9.421  1.00  0.00    -0.273 OA
BRANCH   9  12
ATOM     12  C   UNL     1     -20.734  -1.170  11.980  1.00  0.00     0.174 CG0
ATOM     13  G   UNL     1     -21.111  -0.339  13.190  1.00  0.00     0.000 G0
BRANCH  12  14
ATOM     14  C   UNL     1     -21.259  -2.634  12.102  1.00  0.00     0.018 C 
ATOM     15  C   UNL     1     -22.067  -3.080  10.868  1.00  0.00     0.010 C 
BRANCH  14  16
ATOM     16  C   UNL     1     -20.111  -3.644  12.354  1.00  0.00     0.002 C 
ATOM     17  C   UNL     1     -18.730  -3.072  12.028  1.00  0.00     0.004 C 
ENDBRANCH  14  16
ENDBRANCH  12  14
ENDBRANCH   9  12
ENDBRANCH   7   8
BRANCH   7  18
ATOM     18  C   UNL     1     -21.686  -1.364   7.325  1.00  0.00     0.073 C 
BRANCH  18  19
ATOM     19  C   UNL     1     -20.701  -2.492   7.196  1.00  0.00    -0.016 A 
ATOM     20  C   UNL     1     -20.654  -3.630   7.987  1.00  0.00     0.134 A 
ATOM     21  C   UNL     1     -19.817  -2.723   6.159  1.00  0.00     0.006 A 
ATOM     22  N   UNL     1     -19.789  -4.532   7.475  1.00  0.00    -0.191 N 
ATOM     23  C   UNL     1     -19.272  -3.975   6.347  1.00  0.00     0.087 A 
ATOM     24  C   UNL     1     -19.508  -1.937   5.050  1.00  0.00     0.011 A 
ATOM     25  C   UNL     1     -18.343  -4.492   5.429  1.00  0.00     0.030 A 
ATOM     26  C   UNL     1     -18.593  -2.444   4.117  1.00  0.00     0.001 A 
ATOM     27  C   UNL     1     -18.012  -3.713   4.307  1.00  0.00     0.002 A 
BRANCH  22  28
ATOM     28  O   UNL     1     -19.614  -5.789   8.035  1.00  0.00    -0.417 OA
ATOM     29  C   UNL     1     -20.655  -6.728   8.271  1.00  0.00     0.313 C 
ENDBRANCH  22  28
ENDBRANCH  18  19
ENDBRANCH   7  18
ENDBRANCH   4   7
ENDBRANCH   2   3
BRANCH   2  30
ATOM     30  N   UNL     1     -22.483   3.399  10.228  1.00  0.00    -0.343 N 
ATOM     31  C   UNL     1     -22.563   2.241  11.069  1.00  0.00     0.243 C 
ATOM     32  H   UNL     1     -21.880   4.186  10.553  1.00  0.00     0.164 HD
ATOM     33  O   UNL     1     -23.625   1.559  11.083  1.00  0.00    -0.273 OA
BRANCH  31  34
ATOM     34  C   UNL     1     -21.361   1.822  11.881  1.00  0.00     0.174 C 
ATOM     35  N   UNL     1     -21.735   0.947  13.012  1.00  0.00    -0.329 N 
ATOM     36  C   UNL     1     -20.559   3.040  12.382  1.00  0.00     0.035 C 
ATOM     37  C   UNL     1     -22.325   1.546  14.222  1.00  0.00     0.120 C 
ATOM     38  C   UNL     1     -21.238   3.720  13.578  1.00  0.00     0.004 C 
ATOM     39  C   UNL     1     -21.468   2.715  14.710  1.00  0.00     0.022 C 
BRANCH  35  40
ATOM     40  C   UNL     1     -21.101  -0.336  13.136  1.00  0.00     0.246 CG0
ATOM     41  O   UNL     1     -20.913  -0.814  14.288  1.00  0.00    -0.272 OA
ATOM     42  G   UNL     1     -20.723  -1.173  11.931  1.00  0.00     0.000 G0
ENDBRANCH  35  40
ENDBRANCH  31  34
ENDBRANCH   2  30
ENDBRANCH   1   2
BRANCH   1  43
ATOM     43  C   UNL     1     -22.139   5.834   8.784  1.00  0.00     0.003 C 
BRANCH  43  44
ATOM     44  C   UNL     1     -20.624   6.050   8.637  1.00  0.00     0.001 C 
BRANCH  44  45
ATOM     45  C   UNL     1     -19.977   6.597   9.924  1.00  0.00     0.008 C 
BRANCH  45  46
ATOM     46  C   UNL     1     -18.452   6.715   9.808  1.00  0.00     0.075 C 
BRANCH  46  47
ATOM     47  C   UNL     1     -18.026   8.136   9.525  1.00  0.00     0.132 C 
ATOM     48  O   UNL     1     -18.875   9.016   9.470  1.00  0.00    -0.300 OA
BRANCH  47  49
ATOM     49  C   UNL     1     -16.582   8.486   9.286  1.00  0.00     0.072 C 
ATOM     50  C   UNL     1     -15.985   9.211  10.488  1.00  0.00     0.012 C 
ENDBRANCH  47  49
ENDBRANCH  46  47
ENDBRANCH  45  46
ENDBRANCH  44  45
ENDBRANCH  43  44
ENDBRANCH   1  43
TORSDOF 12
ENDMDL
MODEL 5
REMARK VINA RESULT:    32.536      2.837      7.987
REMARK INTER + INTRA:          69.129
REMARK INTER:                  62.152
REMARK INTRA:                   6.977
REMARK UNBOUND:                 0.453
REMARK SMILES CCC(=O)CCCCC[C@@H]1NC(=O)[C@H]2CCCCN2C(=O)[C@@H]([C@@H](C)CC)NC(=O)[C@@H](Cc2cn(OC)c3ccccc23)NC1=O
REMARK SMILES IDX 9 1 10 2 44 3 43 4 45 6 30 7 28 8 27 9 29 11 22 12 23 14
REMARK SMILES IDX 24 15 25 16 26 17 31 18 32 19 33 20 42 21 34 22 37 23 41 24
REMARK SMILES IDX 38 25 40 26 39 27 35 28 36 29 11 30 12 31 13 33 14 34 19 35
REMARK SMILES IDX 15 36 18 37 16 38 17 39 20 40 21 41 8 43 7 44 6 45 5 46 3 47
REMARK SMILES IDX 4 48 2 49 1 50
REMARK H PARENT 43 5 27 10 11 32
REMARK Flexibility Score: 80.00
ROOT
ATOM      1  C   UNL     1     -20.164  -3.960   7.670  1.00  0.00     0.035 C 
ENDROOT
BRANCH   1   2
ATOM      2  C   UNL     1     -20.183  -2.736   8.621  1.00  0.00     0.171 C 
BRANCH   2   3
ATOM      3  C   UNL     1     -21.104  -1.624   8.192  1.00  0.00     0.243 C 
ATOM      4  N   UNL     1     -20.786  -0.266   8.513  1.00  0.00    -0.342 N 
ATOM      5  H   UNL     1     -19.864  -0.059   8.955  1.00  0.00     0.164 HD
ATOM      6  O   UNL     1     -22.200  -1.899   7.628  1.00  0.00    -0.273 OA
BRANCH   4   7
ATOM      7  C   UNL     1     -21.780   0.806   8.402  1.00  0.00     0.175 C 
BRANCH   7   8
ATOM      8  C   UNL     1     -22.114   1.392   9.757  1.00  0.00     0.243 C 
ATOM      9  N   UNL     1     -21.928   0.649  10.978  1.00  0.00    -0.342 N 
ATOM     10  H   UNL     1     -21.530  -0.313  10.927  1.00  0.00     0.164 HD
ATOM     11  O   UNL     1     -22.560   2.571   9.800  1.00  0.00    -0.273 OA
BRANCH   9  12
ATOM     12  C   UNL     1     -22.101   1.247  12.309  1.00  0.00     0.174 CG0
ATOM     13  G   UNL     1     -22.132   0.190  13.393  1.00  0.00     0.000 G0
BRANCH  12  14
ATOM     14  C   UNL     1     -21.019   2.334  12.596  1.00  0.00     0.018 C 
ATOM     15  C   UNL     1     -20.818   3.300  11.412  1.00  0.00     0.010 C 
BRANCH  14  16
ATOM     16  C   UNL     1     -21.339   3.150  13.874  1.00  0.00     0.002 C 
ATOM     17  C   UNL     1     -20.661   2.589  15.125  1.00  0.00     0.004 C 
ENDBRANCH  14  16
ENDBRANCH  12  14
ENDBRANCH   9  12
ENDBRANCH   7   8
BRANCH   7  18
ATOM     18  C   UNL     1     -21.282   1.902   7.443  1.00  0.00     0.073 C 
BRANCH  18  19
ATOM     19  C   UNL     1     -20.201   1.365   6.548  1.00  0.00    -0.016 A 
ATOM     20  C   UNL     1     -18.923   1.887   6.406  1.00  0.00     0.134 A 
ATOM     21  C   UNL     1     -20.185   0.157   5.878  1.00  0.00     0.006 A 
ATOM     22  N   UNL     1     -18.144   1.050   5.688  1.00  0.00    -0.191 N 
ATOM     23  C   UNL     1     -18.920  -0.018   5.362  1.00  0.00     0.087 A 
ATOM     24  C   UNL     1     -21.183  -0.808   5.742  1.00  0.00     0.011 A 
ATOM     25  C   UNL     1     -18.600  -1.178   4.638  1.00  0.00     0.030 A 
ATOM     26  C   UNL     1     -20.876  -1.979   5.035  1.00  0.00     0.001 A 
ATOM     27  C   UNL     1     -19.593  -2.161   4.483  1.00  0.00     0.002 A 
BRANCH  22  28
ATOM     28  O   UNL     1     -16.797   1.301   5.468  1.00  0.00    -0.417 OA
ATOM     29  C   UNL     1     -15.814   1.428   6.487  1.00  0.00     0.313 C 
ENDBRANCH  22  28
ENDBRANCH  18  19
ENDBRANCH   7  18
ENDBRANCH   4   7
ENDBRANCH   2   3
BRANCH   2  30
ATOM     30  N   UNL     1     -20.482  -3.104  10.003  1.00  0.00    -0.343 N 
ATOM     31  C   UNL     1     -20.474  -2.083  11.008  1.00  0.00     0.243 C 
ATOM     32  H   UNL     1     -21.070  -3.948  10.182  1.00  0.00     0.164 HD
ATOM     33  O   UNL     1     -19.436  -1.381  11.169  1.00  0.00    -0.273 OA
BRANCH  31  34
ATOM     34  C   UNL     1     -21.719  -1.823  11.821  1.00  0.00     0.174 C 
ATOM     35  N   UNL     1     -21.425  -1.073  13.061  1.00  0.00    -0.329 N 
ATOM     36  C   UNL     1     -22.472  -3.129  12.144  1.00  0.00     0.035 C 
ATOM     37  C   UNL     1     -20.841  -1.785  14.211  1.00  0.00     0.120 C 
ATOM     38  C   UNL     1     -21.795  -3.916  13.275  1.00  0.00     0.004 C 
ATOM     39  C   UNL     1     -21.651  -3.044  14.525  1.00  0.00     0.022 C 
BRANCH  35  40
ATOM     40  C   UNL     1     -22.128   0.153  13.313  1.00  0.00     0.246 CG0
ATOM     41  O   UNL     1     -22.716   0.302  14.420  1.00  0.00    -0.272 OA
ATOM     42  G   UNL     1     -22.122   1.308  12.333  1.00  0.00     0.000 G0
ENDBRANCH  35  40
ENDBRANCH  31  34
ENDBRANCH   2  30
ENDBRANCH   1   2
BRANCH   1  43
ATOM     43  C   UNL     1     -20.383  -5.360   8.287  1.00  0.00     0.003 C 
BRANCH  43  44
ATOM     44  C   UNL     1     -21.586  -5.482   9.236  1.00  0.00     0.001 C 
BRANCH  44  45
ATOM     45  C   UNL     1     -22.328  -6.823   9.080  1.00  0.00     0.008 C 
BRANCH  45  46
ATOM     46  C   UNL     1     -23.437  -6.759   8.021  1.00  0.00     0.075 C 
BRANCH  46  47
ATOM     47  C   UNL     1     -24.259  -8.025   8.001  1.00  0.00     0.132 C 
ATOM     48  O   UNL     1     -23.691  -9.109   8.016  1.00  0.00    -0.300 OA
BRANCH  47  49
ATOM     49  C   UNL     1     -25.762  -7.980   7.942  1.00  0.00     0.072 C 
ATOM     50  C   UNL     1     -26.359  -9.382   8.005  1.00  0.00     0.012 C 
ENDBRANCH  47  49
ENDBRANCH  46  47
ENDBRANCH  45  46
ENDBRANCH  44  45
ENDBRANCH  43  44
ENDBRANCH   1  43
TORSDOF 12
ENDMDL
