MODEL 1
REMARK VINA RESULT:    -9.860      0.000      0.000
REMARK INTER + INTRA:         -10.725
REMARK INTER:                 -10.725
REMARK INTRA:                   0.000
REMARK UNBOUND:                 0.000
REMARK SMILES C[C@H]1CC[C@@H]2[N@@H+](C1)C[C@H]1[C@@H]3C[C@H]4[C@H](C[C@H](O)[C@@H]5C[C@@H](O)CC[C@]45C)[C@@H]3CC[C@@H]1[C@]2(C)O
REMARK SMILES IDX 5 1 6 2 8 3 7 4 4 5 29 6 3 7 28 8 30 9 2 10 27 11 9 12 1 13
REMARK SMILES IDX 26 14 10 15 25 16 11 17 13 18 12 19 14 20 23 21 15 22 17 23
REMARK SMILES IDX 22 24 24 25 18 26 21 27 19 28 31 30 16 32 20 34
REMARK H PARENT 6 29 31 31 16 33 20 35
REMARK Flexibility Score: inf
ROOT
ATOM      1  C   UNL     1     -29.876 -22.138 104.482  1.00  0.00     0.216 C 
ATOM      2  N   UNL     1     -29.356 -22.202 105.879  1.00  0.00    -0.330 N 
ATOM      3  C   UNL     1     -29.611 -23.527 106.483  1.00  0.00     0.266 C 
ATOM      4  C   UNL     1     -29.987 -21.168 106.737  1.00  0.00     0.265 C 
ATOM      5  C   UNL     1     -29.613 -20.729 103.881  1.00  0.00     0.069 C 
ATOM      6  C   UNL     1     -29.281 -23.276 103.556  1.00  0.00     0.117 C 
ATOM      7  C   UNL     1     -30.213 -19.626 104.753  1.00  0.00     0.015 C 
ATOM      8  C   UNL     1     -29.378 -24.674 104.257  1.00  0.00     0.036 C 
ATOM      9  C   UNL     1     -30.097 -23.332 102.239  1.00  0.00     0.049 C 
ATOM     10  C   UNL     1     -29.757 -19.738 106.213  1.00  0.00     0.041 C 
ATOM     11  C   UNL     1     -28.712 -25.828 103.435  1.00  0.00     0.007 C 
ATOM     12  C   UNL     1     -28.867 -24.631 105.719  1.00  0.00     0.054 C 
ATOM     13  C   UNL     1     -28.306 -19.269 106.408  1.00  0.00     0.013 C 
ATOM     14  C   UNL     1     -27.750 -26.702 104.250  1.00  0.00     0.004 C 
ATOM     15  C   UNL     1     -29.077 -26.022 106.370  1.00  0.00     0.002 C 
ATOM     16  C   UNL     1     -28.393 -27.164 105.581  1.00  0.00    -0.004 C 
ATOM     17  C   UNL     1     -28.546 -26.127 107.806  1.00  0.00     0.009 C 
ATOM     18  C   UNL     1     -27.445 -27.880 106.581  1.00  0.00    -0.001 C 
ATOM     19  C   UNL     1     -28.086 -27.583 107.946  1.00  0.00    -0.001 C 
ATOM     20  C   UNL     1     -25.988 -27.362 106.518  1.00  0.00     0.036 C 
ATOM     21  C   UNL     1     -27.220 -27.934 109.220  1.00  0.00    -0.024 C 
ATOM     22  C   UNL     1     -25.131 -27.928 107.645  1.00  0.00     0.118 C 
ATOM     23  C   UNL     1     -25.717 -27.538 109.029  1.00  0.00     0.026 C 
ATOM     24  C   UNL     1     -27.333 -29.465 109.494  1.00  0.00     0.010 C 
ATOM     25  C   UNL     1     -27.814 -27.173 110.444  1.00  0.00     0.012 C 
ATOM     26  C   UNL     1     -24.821 -28.045 110.190  1.00  0.00     0.038 C 
ATOM     27  C   UNL     1     -26.446 -29.956 110.653  1.00  0.00     0.032 C 
ATOM     28  C   UNL     1     -24.976 -29.551 110.493  1.00  0.00     0.114 C 
ATOM     29  H   UNL     1     -28.321 -22.039 105.883  1.00  0.00     0.348 HD
ENDROOT
BRANCH   6  30
ATOM     30  O   UNL     1     -27.945 -22.989 103.205  1.00  0.00    -0.384 OA
ATOM     31  H   UNL     1     -27.398 -22.961 104.030  1.00  0.00     0.211 HD
ENDBRANCH   6  30
BRANCH  22  32
ATOM     32  O   UNL     1     -25.013 -29.318 107.494  1.00  0.00    -0.393 OA
ATOM     33  H   UNL     1     -24.859 -29.496 106.529  1.00  0.00     0.210 HD
ENDBRANCH  22  32
BRANCH  28  34
ATOM     34  O   UNL     1     -24.292 -29.864 111.678  1.00  0.00    -0.393 OA
ATOM     35  H   UNL     1     -24.948 -29.789 112.419  1.00  0.00     0.210 HD
ENDBRANCH  28  34
TORSDOF 3
ENDMDL
MODEL 2
REMARK VINA RESULT:    -8.722      4.741      7.592
REMARK INTER + INTRA:          -9.487
REMARK INTER:                  -9.487
REMARK INTRA:                   0.000
REMARK UNBOUND:                 0.000
REMARK SMILES C[C@H]1CC[C@@H]2[N@@H+](C1)C[C@H]1[C@@H]3C[C@H]4[C@H](C[C@H](O)[C@@H]5C[C@@H](O)CC[C@]45C)[C@@H]3CC[C@@H]1[C@]2(C)O
REMARK SMILES IDX 5 1 6 2 8 3 7 4 4 5 29 6 3 7 28 8 30 9 2 10 27 11 9 12 1 13
REMARK SMILES IDX 26 14 10 15 25 16 11 17 13 18 12 19 14 20 23 21 15 22 17 23
REMARK SMILES IDX 22 24 24 25 18 26 21 27 19 28 31 30 16 32 20 34
REMARK H PARENT 6 29 31 31 16 33 20 35
REMARK Flexibility Score: inf
ROOT
ATOM      1  C   UNL     1     -28.235 -18.003 109.109  1.00  0.00     0.216 C 
ATOM      2  N   UNL     1     -27.688 -19.379 108.921  1.00  0.00    -0.330 N 
ATOM      3  C   UNL     1     -28.649 -20.242 108.202  1.00  0.00     0.266 C 
ATOM      4  C   UNL     1     -27.374 -20.016 110.225  1.00  0.00     0.265 C 
ATOM      5  C   UNL     1     -27.214 -17.127 109.886  1.00  0.00     0.069 C 
ATOM      6  C   UNL     1     -28.654 -17.321 107.744  1.00  0.00     0.117 C 
ATOM      7  C   UNL     1     -26.829 -17.764 111.222  1.00  0.00     0.015 C 
ATOM      8  C   UNL     1     -29.530 -18.292 106.880  1.00  0.00     0.036 C 
ATOM      9  C   UNL     1     -29.489 -16.051 108.049  1.00  0.00     0.049 C 
ATOM     10  C   UNL     1     -26.352 -19.211 111.050  1.00  0.00     0.041 C 
ATOM     11  C   UNL     1     -29.891 -17.714 105.470  1.00  0.00     0.007 C 
ATOM     12  C   UNL     1     -28.911 -19.709 106.787  1.00  0.00     0.054 C 
ATOM     13  C   UNL     1     -24.933 -19.291 110.466  1.00  0.00     0.013 C 
ATOM     14  C   UNL     1     -29.617 -18.679 104.309  1.00  0.00     0.004 C 
ATOM     15  C   UNL     1     -29.874 -20.631 105.996  1.00  0.00     0.002 C 
ATOM     16  C   UNL     1     -30.210 -20.083 104.587  1.00  0.00    -0.004 C 
ATOM     17  C   UNL     1     -29.340 -22.053 105.776  1.00  0.00     0.009 C 
ATOM     18  C   UNL     1     -29.818 -21.197 103.579  1.00  0.00    -0.001 C 
ATOM     19  C   UNL     1     -29.914 -22.481 104.420  1.00  0.00    -0.001 C 
ATOM     20  C   UNL     1     -28.399 -21.015 102.990  1.00  0.00     0.036 C 
ATOM     21  C   UNL     1     -29.311 -23.790 103.775  1.00  0.00    -0.024 C 
ATOM     22  C   UNL     1     -27.961 -22.224 102.170  1.00  0.00     0.118 C 
ATOM     23  C   UNL     1     -27.953 -23.507 103.046  1.00  0.00     0.026 C 
ATOM     24  C   UNL     1     -30.344 -24.370 102.761  1.00  0.00     0.010 C 
ATOM     25  C   UNL     1     -29.092 -24.840 104.905  1.00  0.00     0.012 C 
ATOM     26  C   UNL     1     -27.443 -24.737 102.249  1.00  0.00     0.038 C 
ATOM     27  C   UNL     1     -29.832 -25.595 101.983  1.00  0.00     0.032 C 
ATOM     28  C   UNL     1     -28.488 -25.340 101.287  1.00  0.00     0.114 C 
ATOM     29  H   UNL     1     -26.806 -19.339 108.359  1.00  0.00     0.348 HD
ENDROOT
BRANCH   6  30
ATOM     30  O   UNL     1     -27.516 -16.906 107.021  1.00  0.00    -0.384 OA
ATOM     31  H   UNL     1     -27.497 -15.916 106.997  1.00  0.00     0.211 HD
ENDBRANCH   6  30
BRANCH  22  32
ATOM     32  O   UNL     1     -28.791 -22.357 101.046  1.00  0.00    -0.393 OA
ATOM     33  H   UNL     1     -29.723 -22.440 101.379  1.00  0.00     0.210 HD
ENDBRANCH  22  32
BRANCH  28  34
ATOM     34  O   UNL     1     -28.009 -26.557 100.777  1.00  0.00    -0.393 OA
ATOM     35  H   UNL     1     -27.082 -26.393 100.461  1.00  0.00     0.210 HD
ENDBRANCH  28  34
TORSDOF 3
ENDMDL
MODEL 3
REMARK VINA RESULT:    -8.566      4.249      7.056
REMARK INTER + INTRA:          -9.317
REMARK INTER:                  -9.317
REMARK INTRA:                   0.000
REMARK UNBOUND:                 0.000
REMARK SMILES C[C@H]1CC[C@@H]2[N@@H+](C1)C[C@H]1[C@@H]3C[C@H]4[C@H](C[C@H](O)[C@@H]5C[C@@H](O)CC[C@]45C)[C@@H]3CC[C@@H]1[C@]2(C)O
REMARK SMILES IDX 5 1 6 2 8 3 7 4 4 5 29 6 3 7 28 8 30 9 2 10 27 11 9 12 1 13
REMARK SMILES IDX 26 14 10 15 25 16 11 17 13 18 12 19 14 20 23 21 15 22 17 23
REMARK SMILES IDX 22 24 24 25 18 26 21 27 19 28 31 30 16 32 20 34
REMARK H PARENT 6 29 31 31 16 33 20 35
REMARK Flexibility Score: inf
ROOT
ATOM      1  C   UNL     1     -29.462 -18.578 108.751  1.00  0.00     0.216 C 
ATOM      2  N   UNL     1     -29.633 -18.548 107.268  1.00  0.00    -0.330 N 
ATOM      3  C   UNL     1     -28.564 -19.312 106.592  1.00  0.00     0.266 C 
ATOM      4  C   UNL     1     -29.610 -17.156 106.753  1.00  0.00     0.265 C 
ATOM      5  C   UNL     1     -30.586 -17.750 109.433  1.00  0.00     0.069 C 
ATOM      6  C   UNL     1     -29.405 -20.051 109.328  1.00  0.00     0.117 C 
ATOM      7  C   UNL     1     -30.626 -16.316 108.903  1.00  0.00     0.015 C 
ATOM      8  C   UNL     1     -28.404 -20.935 108.507  1.00  0.00     0.036 C 
ATOM      9  C   UNL     1     -28.915 -19.997 110.799  1.00  0.00     0.049 C 
ATOM     10  C   UNL     1     -30.709 -16.272 107.372  1.00  0.00     0.041 C 
ATOM     11  C   UNL     1     -28.379 -22.432 108.965  1.00  0.00     0.007 C 
ATOM     12  C   UNL     1     -28.622 -20.796 106.980  1.00  0.00     0.054 C 
ATOM     13  C   UNL     1     -32.112 -16.631 106.855  1.00  0.00     0.013 C 
ATOM     14  C   UNL     1     -28.514 -23.439 107.815  1.00  0.00     0.004 C 
ATOM     15  C   UNL     1     -27.543 -21.626 106.237  1.00  0.00     0.002 C 
ATOM     16  C   UNL     1     -27.534 -23.115 106.660  1.00  0.00    -0.004 C 
ATOM     17  C   UNL     1     -27.693 -21.624 104.710  1.00  0.00     0.009 C 
ATOM     18  C   UNL     1     -27.723 -23.940 105.358  1.00  0.00    -0.001 C 
ATOM     19  C   UNL     1     -27.186 -23.001 104.266  1.00  0.00    -0.001 C 
ATOM     20  C   UNL     1     -29.196 -24.330 105.091  1.00  0.00     0.036 C 
ATOM     21  C   UNL     1     -27.482 -23.419 102.772  1.00  0.00    -0.024 C 
ATOM     22  C   UNL     1     -29.382 -24.954 103.711  1.00  0.00     0.118 C 
ATOM     23  C   UNL     1     -28.940 -23.965 102.599  1.00  0.00     0.026 C 
ATOM     24  C   UNL     1     -26.455 -24.511 102.345  1.00  0.00     0.010 C 
ATOM     25  C   UNL     1     -27.275 -22.171 101.861  1.00  0.00     0.012 C 
ATOM     26  C   UNL     1     -29.186 -24.553 101.184  1.00  0.00     0.038 C 
ATOM     27  C   UNL     1     -26.702 -25.082 100.937  1.00  0.00     0.032 C 
ATOM     28  C   UNL     1     -28.135 -25.595 100.744  1.00  0.00     0.114 C 
ATOM     29  H   UNL     1     -30.552 -18.975 107.006  1.00  0.00     0.348 HD
ENDROOT
BRANCH   6  30
ATOM     30  O   UNL     1     -30.689 -20.635 109.339  1.00  0.00    -0.384 OA
ATOM     31  H   UNL     1     -31.356 -19.934 109.547  1.00  0.00     0.211 HD
ENDBRANCH   6  30
BRANCH  22  32
ATOM     32  O   UNL     1     -28.683 -26.169 103.646  1.00  0.00    -0.393 OA
ATOM     33  H   UNL     1     -28.282 -26.227 102.739  1.00  0.00     0.210 HD
ENDBRANCH  22  32
BRANCH  28  34
ATOM     34  O   UNL     1     -28.323 -25.907  99.389  1.00  0.00    -0.393 OA
ATOM     35  H   UNL     1     -28.428 -25.046  98.906  1.00  0.00     0.210 HD
ENDBRANCH  28  34
TORSDOF 3
ENDMDL
MODEL 4
REMARK VINA RESULT:    -8.385      2.791      8.220
REMARK INTER + INTRA:          -9.120
REMARK INTER:                  -9.120
REMARK INTRA:                   0.000
REMARK UNBOUND:                 0.000
REMARK SMILES C[C@H]1CC[C@@H]2[N@@H+](C1)C[C@H]1[C@@H]3C[C@H]4[C@H](C[C@H](O)[C@@H]5C[C@@H](O)CC[C@]45C)[C@@H]3CC[C@@H]1[C@]2(C)O
REMARK SMILES IDX 5 1 6 2 8 3 7 4 4 5 29 6 3 7 28 8 30 9 2 10 27 11 9 12 1 13
REMARK SMILES IDX 26 14 10 15 25 16 11 17 13 18 12 19 14 20 23 21 15 22 17 23
REMARK SMILES IDX 22 24 24 25 18 26 21 27 19 28 31 30 16 32 20 34
REMARK H PARENT 6 29 31 31 16 33 20 35
REMARK Flexibility Score: inf
ROOT
ATOM      1  C   UNL     1     -26.653 -27.060 111.522  1.00  0.00     0.216 C 
ATOM      2  N   UNL     1     -25.846 -26.804 110.292  1.00  0.00    -0.330 N 
ATOM      3  C   UNL     1     -26.630 -27.085 109.071  1.00  0.00     0.266 C 
ATOM      4  C   UNL     1     -24.623 -27.644 110.266  1.00  0.00     0.265 C 
ATOM      5  C   UNL     1     -25.797 -26.776 112.787  1.00  0.00     0.069 C 
ATOM      6  C   UNL     1     -28.004 -26.237 111.548  1.00  0.00     0.117 C 
ATOM      7  C   UNL     1     -24.504 -27.593 112.786  1.00  0.00     0.015 C 
ATOM      8  C   UNL     1     -28.770 -26.377 110.187  1.00  0.00     0.036 C 
ATOM      9  C   UNL     1     -28.910 -26.790 112.677  1.00  0.00     0.049 C 
ATOM     10  C   UNL     1     -23.711 -27.409 111.486  1.00  0.00     0.041 C 
ATOM     11  C   UNL     1     -30.066 -25.501 110.112  1.00  0.00     0.007 C 
ATOM     12  C   UNL     1     -27.841 -26.148 108.969  1.00  0.00     0.054 C 
ATOM     13  C   UNL     1     -22.995 -26.050 111.428  1.00  0.00     0.013 C 
ATOM     14  C   UNL     1     -30.175 -24.655 108.837  1.00  0.00     0.004 C 
ATOM     15  C   UNL     1     -28.645 -26.390 107.666  1.00  0.00     0.002 C 
ATOM     16  C   UNL     1     -29.911 -25.503 107.568  1.00  0.00    -0.004 C 
ATOM     17  C   UNL     1     -27.849 -26.127 106.381  1.00  0.00     0.009 C 
ATOM     18  C   UNL     1     -29.790 -24.714 106.236  1.00  0.00    -0.001 C 
ATOM     19  C   UNL     1     -28.887 -25.613 105.376  1.00  0.00    -0.001 C 
ATOM     20  C   UNL     1     -29.177 -23.305 106.415  1.00  0.00     0.036 C 
ATOM     21  C   UNL     1     -28.330 -24.978 104.042  1.00  0.00    -0.024 C 
ATOM     22  C   UNL     1     -28.878 -22.638 105.077  1.00  0.00     0.118 C 
ATOM     23  C   UNL     1     -27.880 -23.492 104.249  1.00  0.00     0.026 C 
ATOM     24  C   UNL     1     -29.444 -25.046 102.953  1.00  0.00     0.010 C 
ATOM     25  C   UNL     1     -27.120 -25.833 103.558  1.00  0.00     0.012 C 
ATOM     26  C   UNL     1     -27.508 -22.797 102.912  1.00  0.00     0.038 C 
ATOM     27  C   UNL     1     -29.061 -24.361 101.628  1.00  0.00     0.032 C 
ATOM     28  C   UNL     1     -28.591 -22.913 101.819  1.00  0.00     0.114 C 
ATOM     29  H   UNL     1     -25.550 -25.800 110.262  1.00  0.00     0.348 HD
ENDROOT
BRANCH   6  30
ATOM     30  O   UNL     1     -27.758 -24.879 111.840  1.00  0.00    -0.384 OA
ATOM     31  H   UNL     1     -26.802 -24.771 112.077  1.00  0.00     0.211 HD
ENDBRANCH   6  30
BRANCH  22  32
ATOM     32  O   UNL     1     -30.078 -22.410 104.386  1.00  0.00    -0.393 OA
ATOM     33  H   UNL     1     -30.600 -23.255 104.420  1.00  0.00     0.210 HD
ENDBRANCH  22  32
BRANCH  28  34
ATOM     34  O   UNL     1     -28.080 -22.442 100.600  1.00  0.00    -0.393 OA
ATOM     35  H   UNL     1     -28.846 -22.382  99.970  1.00  0.00     0.210 HD
ENDBRANCH  28  34
TORSDOF 3
ENDMDL
MODEL 5
REMARK VINA RESULT:    -8.332      1.319      1.733
REMARK INTER + INTRA:          -9.062
REMARK INTER:                  -9.062
REMARK INTRA:                   0.000
REMARK UNBOUND:                 0.000
REMARK SMILES C[C@H]1CC[C@@H]2[N@@H+](C1)C[C@H]1[C@@H]3C[C@H]4[C@H](C[C@H](O)[C@@H]5C[C@@H](O)CC[C@]45C)[C@@H]3CC[C@@H]1[C@]2(C)O
REMARK SMILES IDX 5 1 6 2 8 3 7 4 4 5 29 6 3 7 28 8 30 9 2 10 27 11 9 12 1 13
REMARK SMILES IDX 26 14 10 15 25 16 11 17 13 18 12 19 14 20 23 21 15 22 17 23
REMARK SMILES IDX 22 24 24 25 18 26 21 27 19 28 31 30 16 32 20 34
REMARK H PARENT 6 29 31 31 16 33 20 35
REMARK Flexibility Score: inf
ROOT
ATOM      1  C   UNL     1     -29.281 -23.242 104.726  1.00  0.00     0.216 C 
ATOM      2  N   UNL     1     -29.006 -22.974 106.168  1.00  0.00    -0.330 N 
ATOM      3  C   UNL     1     -29.273 -24.170 106.994  1.00  0.00     0.266 C 
ATOM      4  C   UNL     1     -29.843 -21.859 106.677  1.00  0.00     0.265 C 
ATOM      5  C   UNL     1     -29.012 -21.962 103.887  1.00  0.00     0.069 C 
ATOM      6  C   UNL     1     -28.462 -24.475 104.167  1.00  0.00     0.117 C 
ATOM      7  C   UNL     1     -29.826 -20.773 104.401  1.00  0.00     0.015 C 
ATOM      8  C   UNL     1     -28.585 -25.709 105.126  1.00  0.00     0.036 C 
ATOM      9  C   UNL     1     -29.033 -24.875 102.782  1.00  0.00     0.049 C 
ATOM     10  C   UNL     1     -29.622 -20.545 105.904  1.00  0.00     0.041 C 
ATOM     11  C   UNL     1     -27.712 -26.931 104.682  1.00  0.00     0.007 C 
ATOM     12  C   UNL     1     -28.338 -25.324 106.606  1.00  0.00     0.054 C 
ATOM     13  C   UNL     1     -28.260 -19.904 106.216  1.00  0.00     0.013 C 
ATOM     14  C   UNL     1     -26.849 -27.523 105.803  1.00  0.00     0.004 C 
ATOM     15  C   UNL     1     -28.564 -26.571 107.499  1.00  0.00     0.002 C 
ATOM     16  C   UNL     1     -27.680 -27.774 107.086  1.00  0.00    -0.004 C 
ATOM     17  C   UNL     1     -28.283 -26.335 108.988  1.00  0.00     0.009 C 
ATOM     18  C   UNL     1     -26.873 -28.176 108.350  1.00  0.00    -0.001 C 
ATOM     19  C   UNL     1     -27.758 -27.680 109.505  1.00  0.00    -0.001 C 
ATOM     20  C   UNL     1     -25.465 -27.538 108.404  1.00  0.00     0.036 C 
ATOM     21  C   UNL     1     -27.104 -27.681 110.942  1.00  0.00    -0.024 C 
ATOM     22  C   UNL     1     -24.779 -27.779 109.745  1.00  0.00     0.118 C 
ATOM     23  C   UNL     1     -25.619 -27.182 110.906  1.00  0.00     0.026 C 
ATOM     24  C   UNL     1     -27.160 -29.130 111.516  1.00  0.00     0.010 C 
ATOM     25  C   UNL     1     -27.949 -26.756 111.869  1.00  0.00     0.012 C 
ATOM     26  C   UNL     1     -24.905 -27.355 112.273  1.00  0.00     0.038 C 
ATOM     27  C   UNL     1     -26.456 -29.290 112.876  1.00  0.00     0.032 C 
ATOM     28  C   UNL     1     -25.010 -28.778 112.862  1.00  0.00     0.114 C 
ATOM     29  H   UNL     1     -28.001 -22.710 106.297  1.00  0.00     0.348 HD
ENDROOT
BRANCH   6  30
ATOM     30  O   UNL     1     -27.107 -24.131 103.975  1.00  0.00    -0.384 OA
ATOM     31  H   UNL     1     -26.741 -24.679 103.235  1.00  0.00     0.211 HD
ENDBRANCH   6  30
BRANCH  22  32
ATOM     32  O   UNL     1     -24.545 -29.152 109.914  1.00  0.00    -0.393 OA
ATOM     33  H   UNL     1     -23.643 -29.248 110.319  1.00  0.00     0.210 HD
ENDBRANCH  22  32
BRANCH  28  34
ATOM     34  O   UNL     1     -24.521 -28.778 114.178  1.00  0.00    -0.393 OA
ATOM     35  H   UNL     1     -24.547 -27.838 114.496  1.00  0.00     0.210 HD
ENDBRANCH  28  34
TORSDOF 3
ENDMDL
MODEL 6
REMARK VINA RESULT:    -8.322      6.051      8.011
REMARK INTER + INTRA:          -9.052
REMARK INTER:                  -9.052
REMARK INTRA:                   0.000
REMARK UNBOUND:                 0.000
REMARK SMILES C[C@H]1CC[C@@H]2[N@@H+](C1)C[C@H]1[C@@H]3C[C@H]4[C@H](C[C@H](O)[C@@H]5C[C@@H](O)CC[C@]45C)[C@@H]3CC[C@@H]1[C@]2(C)O
REMARK SMILES IDX 5 1 6 2 8 3 7 4 4 5 29 6 3 7 28 8 30 9 2 10 27 11 9 12 1 13
REMARK SMILES IDX 26 14 10 15 25 16 11 17 13 18 12 19 14 20 23 21 15 22 17 23
REMARK SMILES IDX 22 24 24 25 18 26 21 27 19 28 31 30 16 32 20 34
REMARK H PARENT 6 29 31 31 16 33 20 35
REMARK Flexibility Score: inf
ROOT
ATOM      1  C   UNL     1     -21.597 -18.982 100.968  1.00  0.00     0.216 C 
ATOM      2  N   UNL     1     -22.731 -18.748 101.910  1.00  0.00    -0.330 N 
ATOM      3  C   UNL     1     -23.916 -19.543 101.527  1.00  0.00     0.266 C 
ATOM      4  C   UNL     1     -23.120 -17.316 101.940  1.00  0.00     0.265 C 
ATOM      5  C   UNL     1     -20.375 -18.117 101.383  1.00  0.00     0.069 C 
ATOM      6  C   UNL     1     -21.206 -20.510 100.852  1.00  0.00     0.117 C 
ATOM      7  C   UNL     1     -20.738 -16.634 101.466  1.00  0.00     0.015 C 
ATOM      8  C   UNL     1     -22.477 -21.398 100.623  1.00  0.00     0.036 C 
ATOM      9  C   UNL     1     -20.256 -20.697  99.640  1.00  0.00     0.049 C 
ATOM     10  C   UNL     1     -21.960 -16.392 102.360  1.00  0.00     0.041 C 
ATOM     11  C   UNL     1     -22.168 -22.933 100.602  1.00  0.00     0.007 C 
ATOM     12  C   UNL     1     -23.618 -21.047 101.610  1.00  0.00     0.054 C 
ATOM     13  C   UNL     1     -21.622 -16.517 103.855  1.00  0.00     0.013 C 
ATOM     14  C   UNL     1     -23.085 -23.767 101.506  1.00  0.00     0.004 C 
ATOM     15  C   UNL     1     -24.866 -21.899 101.265  1.00  0.00     0.002 C 
ATOM     16  C   UNL     1     -24.576 -23.420 101.275  1.00  0.00    -0.004 C 
ATOM     17  C   UNL     1     -26.050 -21.691 102.219  1.00  0.00     0.009 C 
ATOM     18  C   UNL     1     -25.583 -24.050 102.277  1.00  0.00    -0.001 C 
ATOM     19  C   UNL     1     -26.753 -23.052 102.273  1.00  0.00    -0.001 C 
ATOM     20  C   UNL     1     -24.999 -24.228 103.698  1.00  0.00     0.036 C 
ATOM     21  C   UNL     1     -27.843 -23.245 103.399  1.00  0.00    -0.024 C 
ATOM     22  C   UNL     1     -26.064 -24.650 104.705  1.00  0.00     0.118 C 
ATOM     23  C   UNL     1     -27.196 -23.590 104.783  1.00  0.00     0.026 C 
ATOM     24  C   UNL     1     -28.810 -24.390 102.968  1.00  0.00     0.010 C 
ATOM     25  C   UNL     1     -28.667 -21.927 103.517  1.00  0.00     0.012 C 
ATOM     26  C   UNL     1     -28.255 -23.966 105.853  1.00  0.00     0.038 C 
ATOM     27  C   UNL     1     -29.863 -24.749 104.033  1.00  0.00     0.032 C 
ATOM     28  C   UNL     1     -29.244 -25.062 105.401  1.00  0.00     0.114 C 
ATOM     29  H   UNL     1     -22.453 -19.029 102.880  1.00  0.00     0.348 HD
ENDROOT
BRANCH   6  30
ATOM     30  O   UNL     1     -20.504 -20.937 101.999  1.00  0.00    -0.384 OA
ATOM     31  H   UNL     1     -21.158 -21.234 102.680  1.00  0.00     0.211 HD
ENDBRANCH   6  30
BRANCH  22  32
ATOM     32  O   UNL     1     -26.553 -25.921 104.368  1.00  0.00    -0.393 OA
ATOM     33  H   UNL     1     -27.035 -26.270 105.163  1.00  0.00     0.210 HD
ENDBRANCH  22  32
BRANCH  28  34
ATOM     34  O   UNL     1     -30.276 -25.180 106.345  1.00  0.00    -0.393 OA
ATOM     35  H   UNL     1     -30.017 -25.910 106.967  1.00  0.00     0.210 HD
ENDBRANCH  28  34
TORSDOF 3
ENDMDL
MODEL 7
REMARK VINA RESULT:    -8.284      7.868     11.310
REMARK INTER + INTRA:          -9.010
REMARK INTER:                  -9.010
REMARK INTRA:                   0.000
REMARK UNBOUND:                 0.000
REMARK SMILES C[C@H]1CC[C@@H]2[N@@H+](C1)C[C@H]1[C@@H]3C[C@H]4[C@H](C[C@H](O)[C@@H]5C[C@@H](O)CC[C@]45C)[C@@H]3CC[C@@H]1[C@]2(C)O
REMARK SMILES IDX 5 1 6 2 8 3 7 4 4 5 29 6 3 7 28 8 30 9 2 10 27 11 9 12 1 13
REMARK SMILES IDX 26 14 10 15 25 16 11 17 13 18 12 19 14 20 23 21 15 22 17 23
REMARK SMILES IDX 22 24 24 25 18 26 21 27 19 28 31 30 16 32 20 34
REMARK H PARENT 6 29 31 31 16 33 20 35
REMARK Flexibility Score: inf
ROOT
ATOM      1  C   UNL     1     -25.262 -27.274 115.408  1.00  0.00     0.216 C 
ATOM      2  N   UNL     1     -25.730 -28.119 114.269  1.00  0.00    -0.330 N 
ATOM      3  C   UNL     1     -26.326 -29.383 114.752  1.00  0.00     0.266 C 
ATOM      4  C   UNL     1     -24.612 -28.451 113.351  1.00  0.00     0.265 C 
ATOM      5  C   UNL     1     -24.622 -25.965 114.870  1.00  0.00     0.069 C 
ATOM      6  C   UNL     1     -26.412 -26.964 116.450  1.00  0.00     0.117 C 
ATOM      7  C   UNL     1     -23.488 -26.257 113.886  1.00  0.00     0.015 C 
ATOM      8  C   UNL     1     -27.179 -28.273 116.842  1.00  0.00     0.036 C 
ATOM      9  C   UNL     1     -25.781 -26.366 117.734  1.00  0.00     0.049 C 
ATOM     10  C   UNL     1     -23.933 -27.200 112.761  1.00  0.00     0.041 C 
ATOM     11  C   UNL     1     -28.397 -28.018 117.793  1.00  0.00     0.007 C 
ATOM     12  C   UNL     1     -27.576 -29.111 115.600  1.00  0.00     0.054 C 
ATOM     13  C   UNL     1     -24.815 -26.489 111.721  1.00  0.00     0.013 C 
ATOM     14  C   UNL     1     -29.699 -28.690 117.336  1.00  0.00     0.004 C 
ATOM     15  C   UNL     1     -28.248 -30.426 116.070  1.00  0.00     0.002 C 
ATOM     16  C   UNL     1     -29.474 -30.181 116.984  1.00  0.00    -0.004 C 
ATOM     17  C   UNL     1     -28.750 -31.316 114.925  1.00  0.00     0.009 C 
ATOM     18  C   UNL     1     -30.671 -30.909 116.314  1.00  0.00    -0.001 C 
ATOM     19  C   UNL     1     -29.992 -32.015 115.489  1.00  0.00    -0.001 C 
ATOM     20  C   UNL     1     -31.525 -29.981 115.418  1.00  0.00     0.036 C 
ATOM     21  C   UNL     1     -30.908 -32.780 114.455  1.00  0.00    -0.024 C 
ATOM     22  C   UNL     1     -32.561 -30.759 114.613  1.00  0.00     0.118 C 
ATOM     23  C   UNL     1     -31.871 -31.805 113.697  1.00  0.00     0.026 C 
ATOM     24  C   UNL     1     -31.738 -33.855 115.221  1.00  0.00     0.010 C 
ATOM     25  C   UNL     1     -29.988 -33.513 113.432  1.00  0.00     0.012 C 
ATOM     26  C   UNL     1     -32.903 -32.560 112.817  1.00  0.00     0.038 C 
ATOM     27  C   UNL     1     -32.753 -34.603 114.338  1.00  0.00     0.032 C 
ATOM     28  C   UNL     1     -33.685 -33.659 113.568  1.00  0.00     0.114 C 
ATOM     29  H   UNL     1     -26.460 -27.607 113.721  1.00  0.00     0.348 HD
ENDROOT
BRANCH   6  30
ATOM     30  O   UNL     1     -27.305 -26.000 115.938  1.00  0.00    -0.384 OA
ATOM     31  H   UNL     1     -26.799 -25.363 115.375  1.00  0.00     0.211 HD
ENDBRANCH   6  30
BRANCH  22  32
ATOM     32  O   UNL     1     -33.488 -31.350 115.485  1.00  0.00    -0.393 OA
ATOM     33  H   UNL     1     -33.096 -32.210 115.790  1.00  0.00     0.210 HD
ENDBRANCH  22  32
BRANCH  28  34
ATOM     34  O   UNL     1     -34.431 -34.414 112.649  1.00  0.00    -0.393 OA
ATOM     35  H   UNL     1     -34.451 -33.899 111.801  1.00  0.00     0.210 HD
ENDBRANCH  28  34
TORSDOF 3
ENDMDL
MODEL 8
REMARK VINA RESULT:    -8.148      2.443      8.223
REMARK INTER + INTRA:          -8.863
REMARK INTER:                  -8.863
REMARK INTRA:                   0.000
REMARK UNBOUND:                 0.000
REMARK SMILES C[C@H]1CC[C@@H]2[N@@H+](C1)C[C@H]1[C@@H]3C[C@H]4[C@H](C[C@H](O)[C@@H]5C[C@@H](O)CC[C@]45C)[C@@H]3CC[C@@H]1[C@]2(C)O
REMARK SMILES IDX 5 1 6 2 8 3 7 4 4 5 29 6 3 7 28 8 30 9 2 10 27 11 9 12 1 13
REMARK SMILES IDX 26 14 10 15 25 16 11 17 13 18 12 19 14 20 23 21 15 22 17 23
REMARK SMILES IDX 22 24 24 25 18 26 21 27 19 28 31 30 16 32 20 34
REMARK H PARENT 6 29 31 31 16 33 20 35
REMARK Flexibility Score: inf
ROOT
ATOM      1  C   UNL     1     -28.086 -28.931 111.353  1.00  0.00     0.216 C 
ATOM      2  N   UNL     1     -29.139 -28.057 110.757  1.00  0.00    -0.330 N 
ATOM      3  C   UNL     1     -28.540 -26.921 110.027  1.00  0.00     0.266 C 
ATOM      4  C   UNL     1     -30.045 -27.517 111.801  1.00  0.00     0.265 C 
ATOM      5  C   UNL     1     -28.745 -30.103 112.131  1.00  0.00     0.069 C 
ATOM      6  C   UNL     1     -27.055 -29.464 110.278  1.00  0.00     0.117 C 
ATOM      7  C   UNL     1     -29.719 -29.594 113.195  1.00  0.00     0.015 C 
ATOM      8  C   UNL     1     -26.539 -28.295 109.369  1.00  0.00     0.036 C 
ATOM      9  C   UNL     1     -25.838 -30.086 111.010  1.00  0.00     0.049 C 
ATOM     10  C   UNL     1     -30.751 -28.623 112.609  1.00  0.00     0.041 C 
ATOM     11  C   UNL     1     -25.594 -28.776 108.217  1.00  0.00     0.007 C 
ATOM     12  C   UNL     1     -27.697 -27.412 108.842  1.00  0.00     0.054 C 
ATOM     13  C   UNL     1     -31.833 -29.346 111.791  1.00  0.00     0.013 C 
ATOM     14  C   UNL     1     -25.969 -28.232 106.833  1.00  0.00     0.004 C 
ATOM     15  C   UNL     1     -27.105 -26.232 108.030  1.00  0.00     0.002 C 
ATOM     16  C   UNL     1     -26.195 -26.700 106.868  1.00  0.00    -0.004 C 
ATOM     17  C   UNL     1     -28.160 -25.318 107.394  1.00  0.00     0.009 C 
ATOM     18  C   UNL     1     -26.780 -26.070 105.574  1.00  0.00    -0.001 C 
ATOM     19  C   UNL     1     -27.518 -24.825 106.093  1.00  0.00    -0.001 C 
ATOM     20  C   UNL     1     -27.738 -27.017 104.814  1.00  0.00     0.036 C 
ATOM     21  C   UNL     1     -28.467 -24.093 105.065  1.00  0.00    -0.024 C 
ATOM     22  C   UNL     1     -28.455 -26.307 103.670  1.00  0.00     0.118 C 
ATOM     23  C   UNL     1     -29.290 -25.111 104.205  1.00  0.00     0.026 C 
ATOM     24  C   UNL     1     -27.597 -23.195 104.132  1.00  0.00     0.010 C 
ATOM     25  C   UNL     1     -29.439 -23.171 105.862  1.00  0.00     0.012 C 
ATOM     26  C   UNL     1     -30.084 -24.417 103.067  1.00  0.00     0.038 C 
ATOM     27  C   UNL     1     -28.396 -22.505 103.011  1.00  0.00     0.032 C 
ATOM     28  C   UNL     1     -29.229 -23.488 102.179  1.00  0.00     0.114 C 
ATOM     29  H   UNL     1     -29.718 -28.607 110.079  1.00  0.00     0.348 HD
ENDROOT
BRANCH   6  30
ATOM     30  O   UNL     1     -27.633 -30.484 109.492  1.00  0.00    -0.384 OA
ATOM     31  H   UNL     1     -27.321 -30.382 108.558  1.00  0.00     0.211 HD
ENDBRANCH   6  30
BRANCH  22  32
ATOM     32  O   UNL     1     -27.520 -25.907 102.703  1.00  0.00    -0.393 OA
ATOM     33  H   UNL     1     -27.916 -25.141 102.212  1.00  0.00     0.210 HD
ENDBRANCH  22  32
BRANCH  28  34
ATOM     34  O   UNL     1     -30.066 -22.755 101.323  1.00  0.00    -0.393 OA
ATOM     35  H   UNL     1     -30.403 -23.389 100.637  1.00  0.00     0.210 HD
ENDBRANCH  28  34
TORSDOF 3
ENDMDL
MODEL 9
REMARK VINA RESULT:    -8.127      2.955      8.304
REMARK INTER + INTRA:          -8.840
REMARK INTER:                  -8.840
REMARK INTRA:                   0.000
REMARK UNBOUND:                 0.000
REMARK SMILES C[C@H]1CC[C@@H]2[N@@H+](C1)C[C@H]1[C@@H]3C[C@H]4[C@H](C[C@H](O)[C@@H]5C[C@@H](O)CC[C@]45C)[C@@H]3CC[C@@H]1[C@]2(C)O
REMARK SMILES IDX 5 1 6 2 8 3 7 4 4 5 29 6 3 7 28 8 30 9 2 10 27 11 9 12 1 13
REMARK SMILES IDX 26 14 10 15 25 16 11 17 13 18 12 19 14 20 23 21 15 22 17 23
REMARK SMILES IDX 22 24 24 25 18 26 21 27 19 28 31 30 16 32 20 34
REMARK H PARENT 6 29 31 31 16 33 20 35
REMARK Flexibility Score: inf
ROOT
ATOM      1  C   UNL     1     -26.205 -27.859 111.943  1.00  0.00     0.216 C 
ATOM      2  N   UNL     1     -25.247 -27.339 110.923  1.00  0.00    -0.330 N 
ATOM      3  C   UNL     1     -25.741 -27.582 109.552  1.00  0.00     0.266 C 
ATOM      4  C   UNL     1     -23.915 -27.979 111.060  1.00  0.00     0.265 C 
ATOM      5  C   UNL     1     -25.649 -27.607 113.372  1.00  0.00     0.069 C 
ATOM      6  C   UNL     1     -27.658 -27.254 111.779  1.00  0.00     0.117 C 
ATOM      7  C   UNL     1     -24.257 -28.218 113.548  1.00  0.00     0.015 C 
ATOM      8  C   UNL     1     -28.134 -27.339 110.288  1.00  0.00     0.036 C 
ATOM      9  C   UNL     1     -28.645 -28.068 112.654  1.00  0.00     0.049 C 
ATOM     10  C   UNL     1     -23.288 -27.761 112.451  1.00  0.00     0.041 C 
ATOM     11  C   UNL     1     -29.525 -26.662 110.041  1.00  0.00     0.007 C 
ATOM     12  C   UNL     1     -27.055 -26.829 109.301  1.00  0.00     0.054 C 
ATOM     13  C   UNL     1     -22.812 -26.314 112.659  1.00  0.00     0.013 C 
ATOM     14  C   UNL     1     -29.546 -25.693 108.852  1.00  0.00     0.004 C 
ATOM     15  C   UNL     1     -27.561 -27.027 107.849  1.00  0.00     0.002 C 
ATOM     16  C   UNL     1     -28.921 -26.333 107.588  1.00  0.00    -0.004 C 
ATOM     17  C   UNL     1     -26.605 -26.496 106.774  1.00  0.00     0.009 C 
ATOM     18  C   UNL     1     -28.699 -25.379 106.382  1.00  0.00    -0.001 C 
ATOM     19  C   UNL     1     -27.518 -26.023 105.637  1.00  0.00    -0.001 C 
ATOM     20  C   UNL     1     -28.373 -23.927 106.806  1.00  0.00     0.036 C 
ATOM     21  C   UNL     1     -26.847 -25.155 104.501  1.00  0.00    -0.024 C 
ATOM     22  C   UNL     1     -27.957 -23.065 105.618  1.00  0.00     0.118 C 
ATOM     23  C   UNL     1     -26.697 -23.655 104.927  1.00  0.00     0.026 C 
ATOM     24  C   UNL     1     -27.721 -25.254 103.214  1.00  0.00     0.010 C 
ATOM     25  C   UNL     1     -25.444 -25.756 104.187  1.00  0.00     0.012 C 
ATOM     26  C   UNL     1     -26.215 -22.755 103.759  1.00  0.00     0.038 C 
ATOM     27  C   UNL     1     -27.229 -24.364 102.058  1.00  0.00     0.032 C 
ATOM     28  C   UNL     1     -27.052 -22.897 102.469  1.00  0.00     0.114 C 
ATOM     29  H   UNL     1     -25.123 -26.306 111.043  1.00  0.00     0.348 HD
ENDROOT
BRANCH   6  30
ATOM     30  O   UNL     1     -27.700 -25.920 112.237  1.00  0.00    -0.384 OA
ATOM     31  H   UNL     1     -26.819 -25.499 112.074  1.00  0.00     0.211 HD
ENDBRANCH   6  30
BRANCH  22  32
ATOM     32  O   UNL     1     -29.035 -22.935 104.730  1.00  0.00    -0.393 OA
ATOM     33  H   UNL     1     -29.129 -23.803 104.255  1.00  0.00     0.210 HD
ENDBRANCH  22  32
BRANCH  28  34
ATOM     34  O   UNL     1     -26.418 -22.211 101.421  1.00  0.00    -0.393 OA
ATOM     35  H   UNL     1     -26.638 -22.696 100.583  1.00  0.00     0.210 HD
ENDBRANCH  28  34
TORSDOF 3
ENDMDL
