MODEL 1
REMARK VINA RESULT:    66.948      0.000      0.000
REMARK INTER + INTRA:          91.447
REMARK INTER:                  92.388
REMARK INTRA:                  -0.941
REMARK UNBOUND:                -0.941
REMARK SMILES CC[C@@H](CC[C@@H](C)[C@H]1CC[C@H]2[C@H]3CC=C4C[C@@H](O)CC[C@]4(C)[C@@H]3CC[C@@]12C)C(C)C
REMARK SMILES IDX 5 1 4 2 3 3 2 4 1 5 28 6 29 7 30 8 6 9 7 10 8 11 9 12 26 13
REMARK SMILES IDX 10 14 11 15 25 16 27 17 12 18 24 19 23 20 13 21 21 22 14 23
REMARK SMILES IDX 15 24 20 25 22 26 16 27 19 28 17 29 18 30
REMARK H PARENT 18 31
REMARK Flexibility Score: inf
ROOT
ATOM      1  C   UNL     1     -31.047  31.352  -2.064  1.00  0.00     0.004 C 
ENDROOT
BRANCH   1   2
ATOM      2  C   UNL     1     -32.269  30.949  -2.930  1.00  0.00     0.004 C 
BRANCH   2   3
ATOM      3  C   UNL     1     -33.323  30.098  -2.150  1.00  0.00    -0.009 C 
BRANCH   3   4
ATOM      4  C   UNL     1     -32.738  28.685  -1.810  1.00  0.00     0.000 C 
ATOM      5  C   UNL     1     -31.822  28.140  -2.910  1.00  0.00     0.004 C 
ENDBRANCH   3   4
BRANCH   3   6
ATOM      6  C   UNL     1     -34.678  29.985  -2.940  1.00  0.00    -0.014 C 
ATOM      7  C   UNL     1     -34.569  30.540  -4.379  1.00  0.00     0.007 C 
ATOM      8  C   UNL     1     -35.821  30.714  -2.215  1.00  0.00     0.007 C 
ENDBRANCH   3   6
ENDBRANCH   2   3
ENDBRANCH   1   2
BRANCH   1   9
ATOM      9  C   UNL     1     -30.105  32.410  -2.718  1.00  0.00    -0.011 C 
ATOM     10  C   UNL     1     -30.245  33.759  -1.986  1.00  0.00     0.008 C 
BRANCH   9  11
ATOM     11  C   UNL     1     -28.609  31.937  -2.829  1.00  0.00    -0.002 C 
ATOM     12  C   UNL     1     -28.489  30.404  -2.855  1.00  0.00     0.005 C 
ATOM     13  C   UNL     1     -27.778  32.410  -4.065  1.00  0.00    -0.026 C 
ATOM     14  C   UNL     1     -27.229  30.056  -3.636  1.00  0.00     0.005 C 
ATOM     15  C   UNL     1     -26.610  31.392  -4.080  1.00  0.00    -0.001 C 
ATOM     16  C   UNL     1     -28.605  32.312  -5.380  1.00  0.00     0.007 C 
ATOM     17  C   UNL     1     -27.223  33.846  -3.868  1.00  0.00     0.012 C 
ATOM     18  C   UNL     1     -25.794  31.341  -5.415  1.00  0.00     0.000 C 
ATOM     19  C   UNL     1     -27.742  32.388  -6.637  1.00  0.00     0.005 C 
ATOM     20  C   UNL     1     -26.686  31.256  -6.672  1.00  0.00     0.003 C 
ATOM     21  C   UNL     1     -24.808  30.163  -5.407  1.00  0.00     0.031 C 
ATOM     22  C   UNL     1     -25.850  31.202  -8.027  1.00  0.00    -0.008 C 
ATOM     23  C   UNL     1     -23.985  30.149  -6.652  1.00  0.00    -0.027 C 
ATOM     24  C   UNL     1     -24.466  30.543  -7.850  1.00  0.00    -0.065 C 
ATOM     25  C   UNL     1     -25.600  32.632  -8.608  1.00  0.00     0.014 C 
ATOM     26  C   UNL     1     -26.668  30.358  -9.043  1.00  0.00     0.016 C 
ATOM     27  C   UNL     1     -23.528  30.531  -9.039  1.00  0.00     0.063 C 
ATOM     28  C   UNL     1     -24.658  32.664  -9.828  1.00  0.00     0.033 C 
ATOM     29  C   UNL     1     -23.316  31.969  -9.535  1.00  0.00     0.118 C 
BRANCH  29  30
ATOM     30  O   UNL     1     -22.486  31.985 -10.669  1.00  0.00    -0.393 OA
ATOM     31  H   UNL     1     -21.595  32.307 -10.372  1.00  0.00     0.210 HD
ENDBRANCH  29  30
ENDBRANCH   9  11
ENDBRANCH   1   9
TORSDOF 7
ENDMDL
MODEL 2
REMARK VINA RESULT:    68.079      4.290      7.758
REMARK INTER + INTRA:          93.007
REMARK INTER:                  94.678
REMARK INTRA:                  -1.670
REMARK UNBOUND:                -0.941
REMARK SMILES CC[C@@H](CC[C@@H](C)[C@H]1CC[C@H]2[C@H]3CC=C4C[C@@H](O)CC[C@]4(C)[C@@H]3CC[C@@]12C)C(C)C
REMARK SMILES IDX 5 1 4 2 3 3 2 4 1 5 28 6 29 7 30 8 6 9 7 10 8 11 9 12 26 13
REMARK SMILES IDX 10 14 11 15 25 16 27 17 12 18 24 19 23 20 13 21 21 22 14 23
REMARK SMILES IDX 15 24 20 25 22 26 16 27 19 28 17 29 18 30
REMARK H PARENT 18 31
REMARK Flexibility Score: inf
ROOT
ATOM      1  C   UNL     1     -25.972  31.494  -7.788  1.00  0.00     0.004 C 
ENDROOT
BRANCH   1   2
ATOM      2  C   UNL     1     -27.106  31.236  -6.761  1.00  0.00     0.004 C 
BRANCH   2   3
ATOM      3  C   UNL     1     -26.625  30.458  -5.494  1.00  0.00    -0.009 C 
BRANCH   3   4
ATOM      4  C   UNL     1     -27.519  29.194  -5.259  1.00  0.00     0.000 C 
ATOM      5  C   UNL     1     -27.856  28.454  -6.557  1.00  0.00     0.004 C 
ENDBRANCH   3   4
BRANCH   3   6
ATOM      6  C   UNL     1     -26.592  31.384  -4.223  1.00  0.00    -0.014 C 
ATOM      7  C   UNL     1     -26.995  30.631  -2.934  1.00  0.00     0.007 C 
ATOM      8  C   UNL     1     -27.510  32.607  -4.387  1.00  0.00     0.007 C 
ENDBRANCH   3   6
ENDBRANCH   2   3
ENDBRANCH   1   2
BRANCH   1   9
ATOM      9  C   UNL     1     -25.799  30.376  -8.862  1.00  0.00    -0.011 C 
ATOM     10  C   UNL     1     -26.543  30.770 -10.152  1.00  0.00     0.008 C 
BRANCH   9  11
ATOM     11  C   UNL     1     -24.298  29.987  -9.127  1.00  0.00    -0.002 C 
ATOM     12  C   UNL     1     -23.321  30.947  -8.429  1.00  0.00     0.005 C 
ATOM     13  C   UNL     1     -23.820  28.565  -8.691  1.00  0.00    -0.026 C 
ATOM     14  C   UNL     1     -22.046  30.168  -8.131  1.00  0.00     0.005 C 
ATOM     15  C   UNL     1     -22.280  28.738  -8.648  1.00  0.00    -0.001 C 
ATOM     16  C   UNL     1     -24.365  28.185  -7.284  1.00  0.00     0.007 C 
ATOM     17  C   UNL     1     -24.199  27.485  -9.739  1.00  0.00     0.012 C 
ATOM     18  C   UNL     1     -21.508  27.613  -7.881  1.00  0.00     0.000 C 
ATOM     19  C   UNL     1     -23.632  27.002  -6.657  1.00  0.00     0.005 C 
ATOM     20  C   UNL     1     -22.118  27.289  -6.500  1.00  0.00     0.003 C 
ATOM     21  C   UNL     1     -20.027  27.987  -7.711  1.00  0.00     0.031 C 
ATOM     22  C   UNL     1     -21.327  26.145  -5.723  1.00  0.00    -0.008 C 
ATOM     23  C   UNL     1     -19.276  26.888  -7.035  1.00  0.00    -0.027 C 
ATOM     24  C   UNL     1     -19.828  26.104  -6.086  1.00  0.00    -0.065 C 
ATOM     25  C   UNL     1     -21.908  24.728  -6.035  1.00  0.00     0.014 C 
ATOM     26  C   UNL     1     -21.455  26.444  -4.204  1.00  0.00     0.016 C 
ATOM     27  C   UNL     1     -18.986  24.988  -5.499  1.00  0.00     0.063 C 
ATOM     28  C   UNL     1     -21.087  23.563  -5.446  1.00  0.00     0.033 C 
ATOM     29  C   UNL     1     -19.608  23.633  -5.867  1.00  0.00     0.118 C 
BRANCH  29  30
ATOM     30  O   UNL     1     -18.875  22.580  -5.296  1.00  0.00    -0.393 OA
ATOM     31  H   UNL     1     -17.975  22.938  -5.075  1.00  0.00     0.210 HD
ENDBRANCH  29  30
ENDBRANCH   9  11
ENDBRANCH   1   9
TORSDOF 7
ENDMDL
MODEL 3
REMARK VINA RESULT:    68.743      5.552      8.970
REMARK INTER + INTRA:          93.923
REMARK INTER:                  92.269
REMARK INTRA:                   1.654
REMARK UNBOUND:                -0.941
REMARK SMILES CC[C@@H](CC[C@@H](C)[C@H]1CC[C@H]2[C@H]3CC=C4C[C@@H](O)CC[C@]4(C)[C@@H]3CC[C@@]12C)C(C)C
REMARK SMILES IDX 5 1 4 2 3 3 2 4 1 5 28 6 29 7 30 8 6 9 7 10 8 11 9 12 26 13
REMARK SMILES IDX 10 14 11 15 25 16 27 17 12 18 24 19 23 20 13 21 21 22 14 23
REMARK SMILES IDX 15 24 20 25 22 26 16 27 19 28 17 29 18 30
REMARK H PARENT 18 31
REMARK Flexibility Score: inf
ROOT
ATOM      1  C   UNL     1     -26.577  31.805  -8.194  1.00  0.00     0.004 C 
ENDROOT
BRANCH   1   2
ATOM      2  C   UNL     1     -25.610  33.014  -8.293  1.00  0.00     0.004 C 
BRANCH   2   3
ATOM      3  C   UNL     1     -25.021  33.217  -9.727  1.00  0.00    -0.009 C 
BRANCH   3   4
ATOM      4  C   UNL     1     -24.736  31.830 -10.399  1.00  0.00     0.000 C 
ATOM      5  C   UNL     1     -25.576  31.595 -11.658  1.00  0.00     0.004 C 
ENDBRANCH   3   4
BRANCH   3   6
ATOM      6  C   UNL     1     -23.734  34.120  -9.703  1.00  0.00    -0.014 C 
ATOM      7  C   UNL     1     -22.504  33.380  -9.128  1.00  0.00     0.007 C 
ATOM      8  C   UNL     1     -23.959  35.408  -8.894  1.00  0.00     0.007 C 
ENDBRANCH   3   6
ENDBRANCH   2   3
ENDBRANCH   1   2
BRANCH   1   9
ATOM      9  C   UNL     1     -25.959  30.527  -7.549  1.00  0.00    -0.011 C 
ATOM     10  C   UNL     1     -27.020  29.411  -7.478  1.00  0.00     0.008 C 
BRANCH   9  11
ATOM     11  C   UNL     1     -24.630  30.051  -8.244  1.00  0.00    -0.002 C 
ATOM     12  C   UNL     1     -23.425  30.915  -7.837  1.00  0.00     0.005 C 
ATOM     13  C   UNL     1     -24.154  28.584  -7.993  1.00  0.00    -0.026 C 
ATOM     14  C   UNL     1     -22.180  30.043  -7.935  1.00  0.00     0.005 C 
ATOM     15  C   UNL     1     -22.658  28.655  -8.391  1.00  0.00    -0.001 C 
ATOM     16  C   UNL     1     -24.301  28.184  -6.495  1.00  0.00     0.007 C 
ATOM     17  C   UNL     1     -24.896  27.574  -8.909  1.00  0.00     0.012 C 
ATOM     18  C   UNL     1     -21.785  27.451  -7.902  1.00  0.00     0.000 C 
ATOM     19  C   UNL     1     -23.509  26.931  -6.130  1.00  0.00     0.005 C 
ATOM     20  C   UNL     1     -21.997  27.111  -6.411  1.00  0.00     0.003 C 
ATOM     21  C   UNL     1     -20.294  27.720  -8.158  1.00  0.00     0.031 C 
ATOM     22  C   UNL     1     -21.104  25.887  -5.918  1.00  0.00    -0.008 C 
ATOM     23  C   UNL     1     -19.464  26.548  -7.750  1.00  0.00    -0.027 C 
ATOM     24  C   UNL     1     -19.778  25.763  -6.698  1.00  0.00    -0.065 C 
ATOM     25  C   UNL     1     -21.854  24.525  -6.078  1.00  0.00     0.014 C 
ATOM     26  C   UNL     1     -20.770  26.132  -4.420  1.00  0.00     0.016 C 
ATOM     27  C   UNL     1     -18.889  24.572  -6.401  1.00  0.00     0.063 C 
ATOM     28  C   UNL     1     -20.987  23.286  -5.774  1.00  0.00     0.033 C 
ATOM     29  C   UNL     1     -19.690  23.277  -6.602  1.00  0.00     0.118 C 
BRANCH  29  30
ATOM     30  O   UNL     1     -18.904  22.155  -6.287  1.00  0.00    -0.393 OA
ATOM     31  H   UNL     1     -19.121  21.452  -6.954  1.00  0.00     0.210 HD
ENDBRANCH  29  30
ENDBRANCH   9  11
ENDBRANCH   1   9
TORSDOF 7
ENDMDL
