MODEL 1
REMARK VINA RESULT:     3.549      0.000      0.000
REMARK INTER + INTRA:           4.563
REMARK INTER:                   4.898
REMARK INTRA:                  -0.335
REMARK UNBOUND:                -0.335
REMARK SMILES CC[C@@H](CC[C@@H](C)[C@H]1CC[C@H]2[C@@H]3CC=C4C[C@H](O)CC[C@]4(C)[C@@H]3CC[C@@]12C)C(C)C
REMARK SMILES IDX 5 1 4 2 3 3 2 4 1 5 28 6 29 7 30 8 6 9 7 10 8 11 9 12 26 13
REMARK SMILES IDX 10 14 11 15 25 16 27 17 12 18 24 19 23 20 13 21 21 22 14 23
REMARK SMILES IDX 15 24 20 25 22 26 16 27 19 28 17 29 18 30
REMARK H PARENT 18 31
REMARK Flexibility Score: inf
ROOT
ATOM      1  C   UNL     1     139.417 126.996 146.002  1.00  0.00     0.004 C 
ENDROOT
BRANCH   1   2
ATOM      2  C   UNL     1     140.787 126.394 145.605  1.00  0.00     0.004 C 
BRANCH   2   3
ATOM      3  C   UNL     1     141.251 126.575 144.122  1.00  0.00    -0.009 C 
BRANCH   3   4
ATOM      4  C   UNL     1     140.730 125.383 143.265  1.00  0.00     0.000 C 
ATOM      5  C   UNL     1     140.940 125.581 141.761  1.00  0.00     0.004 C 
ENDBRANCH   3   4
BRANCH   3   6
ATOM      6  C   UNL     1     142.801 126.729 143.921  1.00  0.00    -0.014 C 
ATOM      7  C   UNL     1     143.221 128.057 143.271  1.00  0.00     0.007 C 
ATOM      8  C   UNL     1     143.448 125.545 143.189  1.00  0.00     0.007 C 
ENDBRANCH   3   6
ENDBRANCH   2   3
ENDBRANCH   1   2
BRANCH   1   9
ATOM      9  C   UNL     1     138.395 126.014 146.659  1.00  0.00    -0.011 C 
ATOM     10  C   UNL     1     138.183 126.371 148.148  1.00  0.00     0.008 C 
BRANCH   9  11
ATOM     11  C   UNL     1     136.983 125.909 145.961  1.00  0.00    -0.002 C 
ATOM     12  C   UNL     1     136.394 127.222 145.428  1.00  0.00     0.005 C 
ATOM     13  C   UNL     1     136.707 124.842 144.856  1.00  0.00    -0.026 C 
ATOM     14  C   UNL     1     135.303 126.821 144.438  1.00  0.00     0.005 C 
ATOM     15  C   UNL     1     135.300 125.282 144.369  1.00  0.00    -0.001 C 
ATOM     16  C   UNL     1     137.726 124.905 143.690  1.00  0.00     0.007 C 
ATOM     17  C   UNL     1     136.695 123.422 145.474  1.00  0.00     0.012 C 
ATOM     18  C   UNL     1     134.832 124.750 142.979  1.00  0.00     0.000 C 
ATOM     19  C   UNL     1     137.250 124.210 142.413  1.00  0.00     0.005 C 
ATOM     20  C   UNL     1     135.932 124.818 141.879  1.00  0.00     0.003 C 
ATOM     21  C   UNL     1     134.133 123.362 143.088  1.00  0.00     0.031 C 
ATOM     22  C   UNL     1     135.417 124.166 140.539  1.00  0.00    -0.008 C 
ATOM     23  C   UNL     1     134.434 122.381 141.980  1.00  0.00    -0.027 C 
ATOM     24  C   UNL     1     134.997 122.727 140.806  1.00  0.00    -0.065 C 
ATOM     25  C   UNL     1     136.520 124.179 139.435  1.00  0.00     0.014 C 
ATOM     26  C   UNL     1     134.189 124.963 140.015  1.00  0.00     0.016 C 
ATOM     27  C   UNL     1     135.331 121.647 139.797  1.00  0.00     0.063 C 
ATOM     28  C   UNL     1     136.114 123.459 138.130  1.00  0.00     0.033 C 
ATOM     29  C   UNL     1     135.247 122.192 138.359  1.00  0.00     0.118 C 
BRANCH  29  30
ATOM     30  O   UNL     1     135.577 121.190 137.431  1.00  0.00    -0.393 OA
ATOM     31  H   UNL     1     136.075 121.620 136.687  1.00  0.00     0.210 HD
ENDBRANCH  29  30
ENDBRANCH   9  11
ENDBRANCH   1   9
TORSDOF 7
ENDMDL
MODEL 2
REMARK VINA RESULT:     5.703      3.267      6.822
REMARK INTER + INTRA:           7.536
REMARK INTER:                   7.488
REMARK INTRA:                   0.048
REMARK UNBOUND:                -0.335
REMARK SMILES CC[C@@H](CC[C@@H](C)[C@H]1CC[C@H]2[C@@H]3CC=C4C[C@H](O)CC[C@]4(C)[C@@H]3CC[C@@]12C)C(C)C
REMARK SMILES IDX 5 1 4 2 3 3 2 4 1 5 28 6 29 7 30 8 6 9 7 10 8 11 9 12 26 13
REMARK SMILES IDX 10 14 11 15 25 16 27 17 12 18 24 19 23 20 13 21 21 22 14 23
REMARK SMILES IDX 15 24 20 25 22 26 16 27 19 28 17 29 18 30
REMARK H PARENT 18 31
REMARK Flexibility Score: inf
ROOT
ATOM      1  C   UNL     1     135.404 123.046 137.962  1.00  0.00     0.004 C 
ENDROOT
BRANCH   1   2
ATOM      2  C   UNL     1     136.949 122.958 137.938  1.00  0.00     0.004 C 
BRANCH   2   3
ATOM      3  C   UNL     1     137.731 123.705 139.069  1.00  0.00    -0.009 C 
BRANCH   3   4
ATOM      4  C   UNL     1     138.340 125.021 138.499  1.00  0.00     0.000 C 
ATOM      5  C   UNL     1     137.575 126.277 138.928  1.00  0.00     0.004 C 
ENDBRANCH   3   4
BRANCH   3   6
ATOM      6  C   UNL     1     138.858 122.864 139.769  1.00  0.00    -0.014 C 
ATOM      7  C   UNL     1     139.535 123.580 140.949  1.00  0.00     0.007 C 
ATOM      8  C   UNL     1     139.913 122.318 138.796  1.00  0.00     0.007 C 
ENDBRANCH   3   6
ENDBRANCH   2   3
ENDBRANCH   1   2
BRANCH   1   9
ATOM      9  C   UNL     1     134.682 122.216 139.071  1.00  0.00    -0.011 C 
ATOM     10  C   UNL     1     135.665 121.218 139.726  1.00  0.00     0.008 C 
BRANCH   9  11
ATOM     11  C   UNL     1     133.974 123.045 140.212  1.00  0.00    -0.002 C 
ATOM     12  C   UNL     1     132.996 122.268 141.103  1.00  0.00     0.005 C 
ATOM     13  C   UNL     1     134.798 123.952 141.179  1.00  0.00    -0.026 C 
ATOM     14  C   UNL     1     132.802 123.120 142.356  1.00  0.00     0.005 C 
ATOM     15  C   UNL     1     133.703 124.360 142.203  1.00  0.00    -0.001 C 
ATOM     16  C   UNL     1     135.944 123.190 141.890  1.00  0.00     0.007 C 
ATOM     17  C   UNL     1     135.366 125.173 140.413  1.00  0.00     0.012 C 
ATOM     18  C   UNL     1     134.188 124.916 143.577  1.00  0.00     0.000 C 
ATOM     19  C   UNL     1     136.475 123.895 143.140  1.00  0.00     0.005 C 
ATOM     20  C   UNL     1     135.367 124.109 144.198  1.00  0.00     0.003 C 
ATOM     21  C   UNL     1     134.429 126.455 143.535  1.00  0.00     0.031 C 
ATOM     22  C   UNL     1     135.867 124.795 145.527  1.00  0.00    -0.008 C 
ATOM     23  C   UNL     1     135.627 126.958 144.305  1.00  0.00    -0.027 C 
ATOM     24  C   UNL     1     136.281 126.230 145.230  1.00  0.00    -0.065 C 
ATOM     25  C   UNL     1     137.082 124.031 146.143  1.00  0.00     0.014 C 
ATOM     26  C   UNL     1     134.715 124.806 146.569  1.00  0.00     0.016 C 
ATOM     27  C   UNL     1     137.522 126.805 145.884  1.00  0.00     0.063 C 
ATOM     28  C   UNL     1     137.687 124.713 147.390  1.00  0.00     0.033 C 
ATOM     29  C   UNL     1     137.692 126.262 147.315  1.00  0.00     0.118 C 
BRANCH  29  30
ATOM     30  O   UNL     1     138.853 126.785 147.907  1.00  0.00    -0.393 OA
ATOM     31  H   UNL     1     138.694 126.842 148.886  1.00  0.00     0.210 HD
ENDBRANCH  29  30
ENDBRANCH   9  11
ENDBRANCH   1   9
TORSDOF 7
ENDMDL
MODEL 3
REMARK VINA RESULT:     5.900      3.299      6.983
REMARK INTER + INTRA:           7.807
REMARK INTER:                   6.983
REMARK INTRA:                   0.824
REMARK UNBOUND:                -0.335
REMARK SMILES CC[C@@H](CC[C@@H](C)[C@H]1CC[C@H]2[C@@H]3CC=C4C[C@H](O)CC[C@]4(C)[C@@H]3CC[C@@]12C)C(C)C
REMARK SMILES IDX 5 1 4 2 3 3 2 4 1 5 28 6 29 7 30 8 6 9 7 10 8 11 9 12 26 13
REMARK SMILES IDX 10 14 11 15 25 16 27 17 12 18 24 19 23 20 13 21 21 22 14 23
REMARK SMILES IDX 15 24 20 25 22 26 16 27 19 28 17 29 18 30
REMARK H PARENT 18 31
REMARK Flexibility Score: inf
ROOT
ATOM      1  C   UNL     1     136.164 121.864 139.586  1.00  0.00     0.004 C 
ENDROOT
BRANCH   1   2
ATOM      2  C   UNL     1     137.491 122.324 140.234  1.00  0.00     0.004 C 
BRANCH   2   3
ATOM      3  C   UNL     1     138.683 122.657 139.278  1.00  0.00    -0.009 C 
BRANCH   3   4
ATOM      4  C   UNL     1     139.854 123.274 140.100  1.00  0.00     0.000 C 
ATOM      5  C   UNL     1     139.420 123.799 141.472  1.00  0.00     0.004 C 
ENDBRANCH   3   4
BRANCH   3   6
ATOM      6  C   UNL     1     138.331 123.603 138.074  1.00  0.00    -0.014 C 
ATOM      7  C   UNL     1     137.613 124.899 138.482  1.00  0.00     0.007 C 
ATOM      8  C   UNL     1     137.568 122.900 136.942  1.00  0.00     0.007 C 
ENDBRANCH   3   6
ENDBRANCH   2   3
ENDBRANCH   1   2
BRANCH   1   9
ATOM      9  C   UNL     1     135.168 122.995 139.174  1.00  0.00    -0.011 C 
ATOM     10  C   UNL     1     134.152 122.468 138.133  1.00  0.00     0.008 C 
BRANCH   9  11
ATOM     11  C   UNL     1     134.370 123.682 140.350  1.00  0.00    -0.002 C 
ATOM     12  C   UNL     1     133.373 122.791 141.101  1.00  0.00     0.005 C 
ATOM     13  C   UNL     1     135.108 124.511 141.448  1.00  0.00    -0.026 C 
ATOM     14  C   UNL     1     133.081 123.505 142.419  1.00  0.00     0.005 C 
ATOM     15  C   UNL     1     133.945 124.780 142.442  1.00  0.00    -0.001 C 
ATOM     16  C   UNL     1     136.239 123.714 142.144  1.00  0.00     0.007 C 
ATOM     17  C   UNL     1     135.673 125.819 140.842  1.00  0.00     0.012 C 
ATOM     18  C   UNL     1     134.335 125.208 143.891  1.00  0.00     0.000 C 
ATOM     19  C   UNL     1     136.677 124.304 143.487  1.00  0.00     0.005 C 
ATOM     20  C   UNL     1     135.506 124.377 144.495  1.00  0.00     0.003 C 
ATOM     21  C   UNL     1     134.524 126.749 144.016  1.00  0.00     0.031 C 
ATOM     22  C   UNL     1     135.909 124.939 145.913  1.00  0.00    -0.008 C 
ATOM     23  C   UNL     1     135.660 127.207 144.901  1.00  0.00    -0.027 C 
ATOM     24  C   UNL     1     136.288 126.408 145.785  1.00  0.00    -0.065 C 
ATOM     25  C   UNL     1     137.114 124.153 146.518  1.00  0.00     0.014 C 
ATOM     26  C   UNL     1     134.702 124.810 146.883  1.00  0.00     0.016 C 
ATOM     27  C   UNL     1     137.470 126.950 146.563  1.00  0.00     0.063 C 
ATOM     28  C   UNL     1     137.627 124.721 147.860  1.00  0.00     0.033 C 
ATOM     29  C   UNL     1     137.581 126.270 147.941  1.00  0.00     0.118 C 
BRANCH  29  30
ATOM     30  O   UNL     1     138.689 126.764 148.647  1.00  0.00    -0.393 OA
ATOM     31  H   UNL     1     139.464 126.774 148.025  1.00  0.00     0.210 HD
ENDBRANCH  29  30
ENDBRANCH   9  11
ENDBRANCH   1   9
TORSDOF 7
ENDMDL
