MODEL 1
REMARK VINA RESULT:    -8.664      0.000      0.000
REMARK INTER + INTRA:         -13.039
REMARK INTER:                 -11.957
REMARK INTRA:                  -1.082
REMARK UNBOUND:                -1.082
REMARK SMILES CC[C@H](CC[C@@H](C)[C@H]1CC[C@H]2[C@H]3CC=C4C[C@@H](O)CC[C@]4(C)[C@H]3CC[C@]12C)C(C)C
REMARK SMILES IDX 5 1 4 2 3 3 2 4 1 5 28 6 29 7 30 8 6 9 7 10 8 11 9 12 26 13
REMARK SMILES IDX 10 14 11 15 25 16 27 17 12 18 24 19 23 20 13 21 21 22 14 23
REMARK SMILES IDX 15 24 20 25 22 26 16 27 19 28 17 29 18 30
REMARK H PARENT 18 31
REMARK Flexibility Score: inf
ROOT
ATOM      1  C   UNL     1     -23.709 -18.056 -13.980  1.00  0.00     0.004 C 
ENDROOT
BRANCH   1   2
ATOM      2  C   UNL     1     -23.871 -16.928 -15.018  1.00  0.00     0.004 C 
BRANCH   2   3
ATOM      3  C   UNL     1     -23.410 -15.540 -14.488  1.00  0.00    -0.009 C 
BRANCH   3   4
ATOM      4  C   UNL     1     -21.855 -15.399 -14.510  1.00  0.00     0.000 C 
ATOM      5  C   UNL     1     -21.393 -13.939 -14.514  1.00  0.00     0.004 C 
ENDBRANCH   3   4
BRANCH   3   6
ATOM      6  C   UNL     1     -24.079 -14.355 -15.263  1.00  0.00    -0.014 C 
ATOM      7  C   UNL     1     -25.384 -13.879 -14.607  1.00  0.00     0.007 C 
ATOM      8  C   UNL     1     -24.313 -14.657 -16.755  1.00  0.00     0.007 C 
ENDBRANCH   3   6
ENDBRANCH   2   3
ENDBRANCH   1   2
BRANCH   1   9
ATOM      9  C   UNL     1     -25.038 -18.417 -13.259  1.00  0.00    -0.011 C 
ATOM     10  C   UNL     1     -26.203 -17.616 -13.875  1.00  0.00     0.008 C 
BRANCH   9  11
ATOM     11  C   UNL     1     -25.388 -19.950 -13.263  1.00  0.00    -0.002 C 
ATOM     12  C   UNL     1     -24.427 -20.891 -14.041  1.00  0.00     0.005 C 
ATOM     13  C   UNL     1     -25.604 -20.650 -11.889  1.00  0.00    -0.026 C 
ATOM     14  C   UNL     1     -24.508 -22.266 -13.352  1.00  0.00     0.005 C 
ATOM     15  C   UNL     1     -25.647 -22.110 -12.350  1.00  0.00    -0.001 C 
ATOM     16  C   UNL     1     -26.968 -20.340 -11.226  1.00  0.00     0.007 C 
ATOM     17  C   UNL     1     -24.430 -20.335 -10.917  1.00  0.00     0.012 C 
ATOM     18  C   UNL     1     -25.887 -23.179 -11.263  1.00  0.00     0.000 C 
ATOM     19  C   UNL     1     -27.248 -21.288 -10.036  1.00  0.00     0.005 C 
ATOM     20  C   UNL     1     -27.117 -22.819 -10.362  1.00  0.00     0.003 C 
ATOM     21  C   UNL     1     -24.688 -23.652 -10.425  1.00  0.00     0.031 C 
ATOM     22  C   UNL     1     -27.252 -23.776  -9.081  1.00  0.00    -0.008 C 
ATOM     23  C   UNL     1     -25.115 -24.916  -9.730  1.00  0.00    -0.027 C 
ATOM     24  C   UNL     1     -26.351 -25.017  -9.198  1.00  0.00    -0.065 C 
ATOM     25  C   UNL     1     -28.728 -24.252  -8.970  1.00  0.00     0.014 C 
ATOM     26  C   UNL     1     -26.850 -23.059  -7.763  1.00  0.00     0.016 C 
ATOM     27  C   UNL     1     -26.897 -26.391  -8.871  1.00  0.00     0.063 C 
ATOM     28  C   UNL     1     -28.985 -25.273  -7.843  1.00  0.00     0.033 C 
ATOM     29  C   UNL     1     -27.891 -26.361  -7.696  1.00  0.00     0.118 C 
BRANCH  29  30
ATOM     30  O   UNL     1     -27.201 -26.178  -6.486  1.00  0.00    -0.393 OA
ATOM     31  H   UNL     1     -26.362 -26.703  -6.548  1.00  0.00     0.210 HD
ENDBRANCH  29  30
ENDBRANCH   9  11
ENDBRANCH   1   9
TORSDOF 7
ENDMDL
MODEL 2
REMARK VINA RESULT:    -7.199      3.495      8.586
REMARK INTER + INTRA:         -11.017
REMARK INTER:                 -10.611
REMARK INTRA:                  -0.406
REMARK UNBOUND:                -1.082
REMARK SMILES CC[C@H](CC[C@@H](C)[C@H]1CC[C@H]2[C@H]3CC=C4C[C@@H](O)CC[C@]4(C)[C@H]3CC[C@]12C)C(C)C
REMARK SMILES IDX 5 1 4 2 3 3 2 4 1 5 28 6 29 7 30 8 6 9 7 10 8 11 9 12 26 13
REMARK SMILES IDX 10 14 11 15 25 16 27 17 12 18 24 19 23 20 13 21 21 22 14 23
REMARK SMILES IDX 15 24 20 25 22 26 16 27 19 28 17 29 18 30
REMARK H PARENT 18 31
REMARK Flexibility Score: inf
ROOT
ATOM      1  C   UNL     1     -28.652 -21.969  -8.484  1.00  0.00     0.004 C 
ENDROOT
BRANCH   1   2
ATOM      2  C   UNL     1     -28.595 -21.367  -7.067  1.00  0.00     0.004 C 
BRANCH   2   3
ATOM      3  C   UNL     1     -28.598 -19.811  -7.063  1.00  0.00    -0.009 C 
BRANCH   3   4
ATOM      4  C   UNL     1     -29.810 -19.232  -7.858  1.00  0.00     0.000 C 
ATOM      5  C   UNL     1     -29.448 -17.982  -8.664  1.00  0.00     0.004 C 
ENDBRANCH   3   4
BRANCH   3   6
ATOM      6  C   UNL     1     -28.558 -19.219  -5.614  1.00  0.00    -0.014 C 
ATOM      7  C   UNL     1     -28.494 -20.306  -4.531  1.00  0.00     0.007 C 
ATOM      8  C   UNL     1     -29.714 -18.244  -5.323  1.00  0.00     0.007 C 
ENDBRANCH   3   6
ENDBRANCH   2   3
ENDBRANCH   1   2
BRANCH   1   9
ATOM      9  C   UNL     1     -27.498 -22.970  -8.769  1.00  0.00    -0.011 C 
ATOM     10  C   UNL     1     -27.986 -24.073  -9.730  1.00  0.00     0.008 C 
BRANCH   9  11
ATOM     11  C   UNL     1     -26.187 -22.313  -9.337  1.00  0.00    -0.002 C 
ATOM     12  C   UNL     1     -25.024 -23.272  -9.714  1.00  0.00     0.005 C 
ATOM     13  C   UNL     1     -26.323 -21.353 -10.555  1.00  0.00    -0.026 C 
ATOM     14  C   UNL     1     -24.231 -22.577 -10.837  1.00  0.00     0.005 C 
ATOM     15  C   UNL     1     -24.843 -21.183 -10.911  1.00  0.00    -0.001 C 
ATOM     16  C   UNL     1     -26.872 -19.950 -10.200  1.00  0.00     0.007 C 
ATOM     17  C   UNL     1     -27.167 -22.010 -11.685  1.00  0.00     0.012 C 
ATOM     18  C   UNL     1     -24.513 -20.244 -12.092  1.00  0.00     0.000 C 
ATOM     19  C   UNL     1     -26.697 -18.960 -11.376  1.00  0.00     0.005 C 
ATOM     20  C   UNL     1     -25.238 -18.863 -11.950  1.00  0.00     0.003 C 
ATOM     21  C   UNL     1     -24.623 -20.799 -13.522  1.00  0.00     0.031 C 
ATOM     22  C   UNL     1     -25.112 -17.955 -13.268  1.00  0.00    -0.008 C 
ATOM     23  C   UNL     1     -23.909 -19.829 -14.421  1.00  0.00    -0.027 C 
ATOM     24  C   UNL     1     -24.048 -18.499 -14.236  1.00  0.00    -0.065 C 
ATOM     25  C   UNL     1     -24.697 -16.518 -12.842  1.00  0.00     0.014 C 
ATOM     26  C   UNL     1     -26.443 -17.883 -14.066  1.00  0.00     0.016 C 
ATOM     27  C   UNL     1     -23.038 -17.563 -14.865  1.00  0.00     0.063 C 
ATOM     28  C   UNL     1     -24.428 -15.558 -14.019  1.00  0.00     0.033 C 
ATOM     29  C   UNL     1     -23.644 -16.187 -15.199  1.00  0.00     0.118 C 
BRANCH  29  30
ATOM     30  O   UNL     1     -24.481 -16.289 -16.322  1.00  0.00    -0.393 OA
ATOM     31  H   UNL     1     -25.274 -15.720 -16.147  1.00  0.00     0.210 HD
ENDBRANCH  29  30
ENDBRANCH   9  11
ENDBRANCH   1   9
TORSDOF 7
ENDMDL
MODEL 3
REMARK VINA RESULT:    -6.933      2.949      9.829
REMARK INTER + INTRA:         -10.650
REMARK INTER:                  -9.410
REMARK INTRA:                  -1.240
REMARK UNBOUND:                -1.082
REMARK SMILES CC[C@H](CC[C@@H](C)[C@H]1CC[C@H]2[C@H]3CC=C4C[C@@H](O)CC[C@]4(C)[C@H]3CC[C@]12C)C(C)C
REMARK SMILES IDX 5 1 4 2 3 3 2 4 1 5 28 6 29 7 30 8 6 9 7 10 8 11 9 12 26 13
REMARK SMILES IDX 10 14 11 15 25 16 27 17 12 18 24 19 23 20 13 21 21 22 14 23
REMARK SMILES IDX 15 24 20 25 22 26 16 27 19 28 17 29 18 30
REMARK H PARENT 18 31
REMARK Flexibility Score: inf
ROOT
ATOM      1  C   UNL     1     -26.705 -25.071  -9.516  1.00  0.00     0.004 C 
ENDROOT
BRANCH   1   2
ATOM      2  C   UNL     1     -26.420 -25.633  -8.110  1.00  0.00     0.004 C 
BRANCH   2   3
ATOM      3  C   UNL     1     -27.455 -26.703  -7.659  1.00  0.00    -0.009 C 
BRANCH   3   4
ATOM      4  C   UNL     1     -27.567 -26.781  -6.104  1.00  0.00     0.000 C 
ATOM      5  C   UNL     1     -26.536 -27.728  -5.483  1.00  0.00     0.004 C 
ENDBRANCH   3   4
BRANCH   3   6
ATOM      6  C   UNL     1     -28.866 -26.474  -8.299  1.00  0.00    -0.014 C 
ATOM      7  C   UNL     1     -29.769 -25.577  -7.439  1.00  0.00     0.007 C 
ATOM      8  C   UNL     1     -29.596 -27.784  -8.649  1.00  0.00     0.007 C 
ENDBRANCH   3   6
ENDBRANCH   2   3
ENDBRANCH   1   2
BRANCH   1   9
ATOM      9  C   UNL     1     -26.895 -23.528  -9.530  1.00  0.00    -0.011 C 
ATOM     10  C   UNL     1     -27.285 -23.036  -8.121  1.00  0.00     0.008 C 
BRANCH   9  11
ATOM     11  C   UNL     1     -25.649 -22.720 -10.049  1.00  0.00    -0.002 C 
ATOM     12  C   UNL     1     -24.443 -23.546 -10.575  1.00  0.00     0.005 C 
ATOM     13  C   UNL     1     -25.891 -21.631 -11.134  1.00  0.00    -0.026 C 
ATOM     14  C   UNL     1     -23.737 -22.667 -11.625  1.00  0.00     0.005 C 
ATOM     15  C   UNL     1     -24.438 -21.319 -11.509  1.00  0.00    -0.001 C 
ATOM     16  C   UNL     1     -26.514 -20.322 -10.594  1.00  0.00     0.007 C 
ATOM     17  C   UNL     1     -26.732 -22.201 -12.313  1.00  0.00     0.012 C 
ATOM     18  C   UNL     1     -24.211 -20.224 -12.573  1.00  0.00     0.000 C 
ATOM     19  C   UNL     1     -26.445 -19.186 -11.642  1.00  0.00     0.005 C 
ATOM     20  C   UNL     1     -25.017 -18.922 -12.242  1.00  0.00     0.003 C 
ATOM     21  C   UNL     1     -24.338 -20.607 -14.057  1.00  0.00     0.031 C 
ATOM     22  C   UNL     1     -24.997 -17.855 -13.440  1.00  0.00    -0.008 C 
ATOM     23  C   UNL     1     -23.721 -19.489 -14.849  1.00  0.00    -0.027 C 
ATOM     24  C   UNL     1     -23.936 -18.204 -14.498  1.00  0.00    -0.065 C 
ATOM     25  C   UNL     1     -24.659 -16.455 -12.852  1.00  0.00     0.014 C 
ATOM     26  C   UNL     1     -26.358 -17.776 -14.185  1.00  0.00     0.016 C 
ATOM     27  C   UNL     1     -23.012 -17.132 -15.035  1.00  0.00     0.063 C 
ATOM     28  C   UNL     1     -24.495 -15.344 -13.908  1.00  0.00     0.033 C 
ATOM     29  C   UNL     1     -23.715 -15.770 -15.178  1.00  0.00     0.118 C 
BRANCH  29  30
ATOM     30  O   UNL     1     -24.584 -15.791 -16.281  1.00  0.00    -0.393 OA
ATOM     31  H   UNL     1     -25.093 -16.642 -16.235  1.00  0.00     0.210 HD
ENDBRANCH  29  30
ENDBRANCH   9  11
ENDBRANCH   1   9
TORSDOF 7
ENDMDL
MODEL 4
REMARK VINA RESULT:    -6.788      3.512      8.590
REMARK INTER + INTRA:         -10.449
REMARK INTER:                 -10.683
REMARK INTRA:                   0.234
REMARK UNBOUND:                -1.082
REMARK SMILES CC[C@H](CC[C@@H](C)[C@H]1CC[C@H]2[C@H]3CC=C4C[C@@H](O)CC[C@]4(C)[C@H]3CC[C@]12C)C(C)C
REMARK SMILES IDX 5 1 4 2 3 3 2 4 1 5 28 6 29 7 30 8 6 9 7 10 8 11 9 12 26 13
REMARK SMILES IDX 10 14 11 15 25 16 27 17 12 18 24 19 23 20 13 21 21 22 14 23
REMARK SMILES IDX 15 24 20 25 22 26 16 27 19 28 17 29 18 30
REMARK H PARENT 18 31
REMARK Flexibility Score: inf
ROOT
ATOM      1  C   UNL     1     -28.181 -22.262  -7.686  1.00  0.00     0.004 C 
ENDROOT
BRANCH   1   2
ATOM      2  C   UNL     1     -29.178 -21.108  -7.911  1.00  0.00     0.004 C 
BRANCH   2   3
ATOM      3  C   UNL     1     -29.243 -20.116  -6.714  1.00  0.00    -0.009 C 
BRANCH   3   4
ATOM      4  C   UNL     1     -28.315 -20.561  -5.541  1.00  0.00     0.000 C 
ATOM      5  C   UNL     1     -28.902 -20.236  -4.165  1.00  0.00     0.004 C 
ENDBRANCH   3   4
BRANCH   3   6
ATOM      6  C   UNL     1     -28.919 -18.645  -7.143  1.00  0.00    -0.014 C 
ATOM      7  C   UNL     1     -29.416 -17.608  -6.124  1.00  0.00     0.007 C 
ATOM      8  C   UNL     1     -29.430 -18.293  -8.552  1.00  0.00     0.007 C 
ENDBRANCH   3   6
ENDBRANCH   2   3
ENDBRANCH   1   2
BRANCH   1   9
ATOM      9  C   UNL     1     -27.608 -22.840  -9.010  1.00  0.00    -0.011 C 
ATOM     10  C   UNL     1     -28.678 -22.767 -10.119  1.00  0.00     0.008 C 
BRANCH   9  11
ATOM     11  C   UNL     1     -26.283 -22.153  -9.505  1.00  0.00    -0.002 C 
ATOM     12  C   UNL     1     -25.075 -23.084  -9.799  1.00  0.00     0.005 C 
ATOM     13  C   UNL     1     -26.370 -21.210 -10.740  1.00  0.00    -0.026 C 
ATOM     14  C   UNL     1     -24.233 -22.379 -10.880  1.00  0.00     0.005 C 
ATOM     15  C   UNL     1     -24.876 -21.003 -11.008  1.00  0.00    -0.001 C 
ATOM     16  C   UNL     1     -26.976 -19.819 -10.436  1.00  0.00     0.007 C 
ATOM     17  C   UNL     1     -27.125 -21.901 -11.912  1.00  0.00     0.012 C 
ATOM     18  C   UNL     1     -24.499 -20.068 -12.177  1.00  0.00     0.000 C 
ATOM     19  C   UNL     1     -26.756 -18.836 -11.610  1.00  0.00     0.005 C 
ATOM     20  C   UNL     1     -25.268 -18.706 -12.096  1.00  0.00     0.003 C 
ATOM     21  C   UNL     1     -24.506 -20.640 -13.604  1.00  0.00     0.031 C 
ATOM     22  C   UNL     1     -25.085 -17.808 -13.414  1.00  0.00    -0.008 C 
ATOM     23  C   UNL     1     -23.765 -19.660 -14.470  1.00  0.00    -0.027 C 
ATOM     24  C   UNL     1     -23.950 -18.333 -14.309  1.00  0.00    -0.065 C 
ATOM     25  C   UNL     1     -24.735 -16.356 -12.981  1.00  0.00     0.014 C 
ATOM     26  C   UNL     1     -26.366 -17.780 -14.293  1.00  0.00     0.016 C 
ATOM     27  C   UNL     1     -22.929 -17.376 -14.887  1.00  0.00     0.063 C 
ATOM     28  C   UNL     1     -24.421 -15.401 -14.151  1.00  0.00     0.033 C 
ATOM     29  C   UNL     1     -23.549 -16.021 -15.273  1.00  0.00     0.118 C 
BRANCH  29  30
ATOM     30  O   UNL     1     -24.313 -16.157 -16.444  1.00  0.00    -0.393 OA
ATOM     31  H   UNL     1     -25.115 -16.691 -16.208  1.00  0.00     0.210 HD
ENDBRANCH  29  30
ENDBRANCH   9  11
ENDBRANCH   1   9
TORSDOF 7
ENDMDL
MODEL 5
REMARK VINA RESULT:    -6.290      2.381      5.053
REMARK INTER + INTRA:          -9.762
REMARK INTER:                  -9.094
REMARK INTRA:                  -0.669
REMARK UNBOUND:                -1.082
REMARK SMILES CC[C@H](CC[C@@H](C)[C@H]1CC[C@H]2[C@H]3CC=C4C[C@@H](O)CC[C@]4(C)[C@H]3CC[C@]12C)C(C)C
REMARK SMILES IDX 5 1 4 2 3 3 2 4 1 5 28 6 29 7 30 8 6 9 7 10 8 11 9 12 26 13
REMARK SMILES IDX 10 14 11 15 25 16 27 17 12 18 24 19 23 20 13 21 21 22 14 23
REMARK SMILES IDX 15 24 20 25 22 26 16 27 19 28 17 29 18 30
REMARK H PARENT 18 31
REMARK Flexibility Score: inf
ROOT
ATOM      1  C   UNL     1     -25.399 -20.169 -14.002  1.00  0.00     0.004 C 
ENDROOT
BRANCH   1   2
ATOM      2  C   UNL     1     -24.480 -21.126 -14.785  1.00  0.00     0.004 C 
BRANCH   2   3
ATOM      3  C   UNL     1     -24.905 -22.618 -14.662  1.00  0.00    -0.009 C 
BRANCH   3   4
ATOM      4  C   UNL     1     -25.617 -23.125 -15.956  1.00  0.00     0.000 C 
ATOM      5  C   UNL     1     -26.773 -24.084 -15.659  1.00  0.00     0.004 C 
ENDBRANCH   3   4
BRANCH   3   6
ATOM      6  C   UNL     1     -23.703 -23.552 -14.296  1.00  0.00    -0.014 C 
ATOM      7  C   UNL     1     -24.105 -24.689 -13.345  1.00  0.00     0.007 C 
ATOM      8  C   UNL     1     -22.490 -22.791 -13.732  1.00  0.00     0.007 C 
ENDBRANCH   3   6
ENDBRANCH   2   3
ENDBRANCH   1   2
BRANCH   1   9
ATOM      9  C   UNL     1     -24.752 -19.637 -12.692  1.00  0.00    -0.011 C 
ATOM     10  C   UNL     1     -24.476 -18.125 -12.820  1.00  0.00     0.008 C 
BRANCH   9  11
ATOM     11  C   UNL     1     -25.588 -19.916 -11.390  1.00  0.00    -0.002 C 
ATOM     12  C   UNL     1     -26.881 -19.078 -11.190  1.00  0.00     0.005 C 
ATOM     13  C   UNL     1     -26.016 -21.385 -11.101  1.00  0.00    -0.026 C 
ATOM     14  C   UNL     1     -27.839 -19.946 -10.351  1.00  0.00     0.005 C 
ATOM     15  C   UNL     1     -26.988 -21.143  -9.942  1.00  0.00    -0.001 C 
ATOM     16  C   UNL     1     -24.878 -22.284 -10.563  1.00  0.00     0.007 C 
ATOM     17  C   UNL     1     -26.683 -22.023 -12.354  1.00  0.00     0.012 C 
ATOM     18  C   UNL     1     -27.644 -22.389  -9.309  1.00  0.00     0.000 C 
ATOM     19  C   UNL     1     -25.426 -23.623 -10.012  1.00  0.00     0.005 C 
ATOM     20  C   UNL     1     -26.579 -23.483  -8.955  1.00  0.00     0.003 C 
ATOM     21  C   UNL     1     -28.876 -22.999  -9.998  1.00  0.00     0.031 C 
ATOM     22  C   UNL     1     -27.241 -24.878  -8.519  1.00  0.00    -0.008 C 
ATOM     23  C   UNL     1     -29.511 -23.932  -9.005  1.00  0.00    -0.027 C 
ATOM     24  C   UNL     1     -28.746 -24.732  -8.234  1.00  0.00    -0.065 C 
ATOM     25  C   UNL     1     -26.543 -25.374  -7.220  1.00  0.00     0.014 C 
ATOM     26  C   UNL     1     -27.101 -25.968  -9.617  1.00  0.00     0.016 C 
ATOM     27  C   UNL     1     -29.351 -25.352  -6.993  1.00  0.00     0.063 C 
ATOM     28  C   UNL     1     -27.155 -26.656  -6.619  1.00  0.00     0.033 C 
ATOM     29  C   UNL     1     -28.704 -26.703  -6.637  1.00  0.00     0.118 C 
BRANCH  29  30
ATOM     30  O   UNL     1     -29.137 -27.695  -7.531  1.00  0.00    -0.393 OA
ATOM     31  H   UNL     1     -30.111 -27.812  -7.386  1.00  0.00     0.210 HD
ENDBRANCH  29  30
ENDBRANCH   9  11
ENDBRANCH   1   9
TORSDOF 7
ENDMDL
MODEL 6
REMARK VINA RESULT:    -5.860      1.218      2.797
REMARK INTER + INTRA:          -9.169
REMARK INTER:                  -8.897
REMARK INTRA:                  -0.272
REMARK UNBOUND:                -1.082
REMARK SMILES CC[C@H](CC[C@@H](C)[C@H]1CC[C@H]2[C@H]3CC=C4C[C@@H](O)CC[C@]4(C)[C@H]3CC[C@]12C)C(C)C
REMARK SMILES IDX 5 1 4 2 3 3 2 4 1 5 28 6 29 7 30 8 6 9 7 10 8 11 9 12 26 13
REMARK SMILES IDX 10 14 11 15 25 16 27 17 12 18 24 19 23 20 13 21 21 22 14 23
REMARK SMILES IDX 15 24 20 25 22 26 16 27 19 28 17 29 18 30
REMARK H PARENT 18 31
REMARK Flexibility Score: inf
ROOT
ATOM      1  C   UNL     1     -24.498 -18.084 -12.859  1.00  0.00     0.004 C 
ENDROOT
BRANCH   1   2
ATOM      2  C   UNL     1     -25.164 -17.355 -14.042  1.00  0.00     0.004 C 
BRANCH   2   3
ATOM      3  C   UNL     1     -24.452 -16.024 -14.418  1.00  0.00    -0.009 C 
BRANCH   3   4
ATOM      4  C   UNL     1     -23.008 -16.271 -14.957  1.00  0.00     0.000 C 
ATOM      5  C   UNL     1     -21.971 -15.339 -14.325  1.00  0.00     0.004 C 
ENDBRANCH   3   4
BRANCH   3   6
ATOM      6  C   UNL     1     -25.280 -15.173 -15.439  1.00  0.00    -0.014 C 
ATOM      7  C   UNL     1     -24.498 -14.863 -16.724  1.00  0.00     0.007 C 
ATOM      8  C   UNL     1     -25.845 -13.875 -14.834  1.00  0.00     0.007 C 
ENDBRANCH   3   6
ENDBRANCH   2   3
ENDBRANCH   1   2
BRANCH   1   9
ATOM      9  C   UNL     1     -24.959 -19.561 -12.716  1.00  0.00    -0.011 C 
ATOM     10  C   UNL     1     -23.737 -20.500 -12.788  1.00  0.00     0.008 C 
BRANCH   9  11
ATOM     11  C   UNL     1     -25.786 -19.866 -11.413  1.00  0.00    -0.002 C 
ATOM     12  C   UNL     1     -27.104 -19.067 -11.213  1.00  0.00     0.005 C 
ATOM     13  C   UNL     1     -26.170 -21.347 -11.126  1.00  0.00    -0.026 C 
ATOM     14  C   UNL     1     -28.035 -19.964 -10.375  1.00  0.00     0.005 C 
ATOM     15  C   UNL     1     -27.149 -21.135  -9.967  1.00  0.00    -0.001 C 
ATOM     16  C   UNL     1     -25.006 -22.212 -10.588  1.00  0.00     0.007 C 
ATOM     17  C   UNL     1     -26.817 -22.004 -12.379  1.00  0.00     0.012 C 
ATOM     18  C   UNL     1     -27.767 -22.401  -9.335  1.00  0.00     0.000 C 
ATOM     19  C   UNL     1     -25.513 -23.567 -10.039  1.00  0.00     0.005 C 
ATOM     20  C   UNL     1     -26.671 -23.462  -8.981  1.00  0.00     0.003 C 
ATOM     21  C   UNL     1     -28.981 -23.047 -10.024  1.00  0.00     0.031 C 
ATOM     22  C   UNL     1     -27.290 -24.877  -8.546  1.00  0.00    -0.008 C 
ATOM     23  C   UNL     1     -29.588 -23.999  -9.033  1.00  0.00    -0.027 C 
ATOM     24  C   UNL     1     -28.799 -24.777  -8.262  1.00  0.00    -0.065 C 
ATOM     25  C   UNL     1     -26.579 -25.353  -7.248  1.00  0.00     0.014 C 
ATOM     26  C   UNL     1     -27.117 -25.961  -9.646  1.00  0.00     0.016 C 
ATOM     27  C   UNL     1     -29.386 -25.415  -7.021  1.00  0.00     0.063 C 
ATOM     28  C   UNL     1     -27.151 -26.653  -6.648  1.00  0.00     0.033 C 
ATOM     29  C   UNL     1     -28.699 -26.746  -6.666  1.00  0.00     0.118 C 
BRANCH  29  30
ATOM     30  O   UNL     1     -29.102 -27.750  -7.562  1.00  0.00    -0.393 OA
ATOM     31  H   UNL     1     -29.047 -27.365  -8.474  1.00  0.00     0.210 HD
ENDBRANCH  29  30
ENDBRANCH   9  11
ENDBRANCH   1   9
TORSDOF 7
ENDMDL
