MODEL 1
REMARK VINA RESULT:    -6.422      0.000      0.000
REMARK INTER + INTRA:          -7.735
REMARK INTER:                  -7.549
REMARK INTRA:                  -0.186
REMARK UNBOUND:                -0.186
REMARK SMILES Oc1ccc(-c2[o+]c3cc(O)cc(O)c3cc2O)cc1.[Cl-]
REMARK SMILES IDX 6 1 7 2 8 3 9 4 10 5 12 6 13 7 15 8 16 9 17 10 5 11 4 12
REMARK SMILES IDX 3 13 2 14 19 15 20 16 1 17 18 19 11 21 14 23
REMARK H PARENT 1 18 18 20 11 22 14 24
REMARK Flexibility Score: inf
ROOT
ATOM      1  C   UNL     1     -22.211  32.947 -13.157  1.00  0.00     0.401 A 
ATOM      2  O   UNL     1     -21.214  33.629 -13.714  1.00  0.00    -0.202 OA
ATOM      3  C   UNL     1     -19.936  33.286 -13.590  1.00  0.00     0.368 A 
ATOM      4  C   UNL     1     -18.960  34.070 -14.210  1.00  0.00     0.162 A 
ATOM      5  C   UNL     1     -17.608  33.734 -14.094  1.00  0.00     0.128 A 
ATOM      6  C   UNL     1     -17.231  32.611 -13.352  1.00  0.00     0.093 A 
ATOM      7  C   UNL     1     -18.192  31.810 -12.721  1.00  0.00     0.136 A 
ATOM      8  C   UNL     1     -19.566  32.146 -12.840  1.00  0.00     0.125 A 
ATOM      9  C   UNL     1     -20.597  31.394 -12.252  1.00  0.00     0.078 A 
ATOM     10  C   UNL     1     -21.929  31.784 -12.416  1.00  0.00     0.223 A 
ENDROOT
BRANCH   1  11
ATOM     11  C   UNL     1     -23.594  33.435 -13.361  1.00  0.00     0.084 A 
ATOM     12  C   UNL     1     -24.109  33.531 -14.665  1.00  0.00     0.022 A 
ATOM     13  C   UNL     1     -25.404  34.010 -14.882  1.00  0.00     0.047 A 
ATOM     14  C   UNL     1     -26.196  34.414 -13.802  1.00  0.00     0.115 A 
ATOM     15  C   UNL     1     -24.388  33.862 -12.281  1.00  0.00     0.022 A 
ATOM     16  C   UNL     1     -25.683  34.342 -12.500  1.00  0.00     0.047 A 
BRANCH  14  17
ATOM     17  O   UNL     1     -27.484  34.889 -14.034  1.00  0.00    -0.508 OA
ATOM     18  H   UNL     1     -28.297  34.425 -13.646  1.00  0.00     0.293 HD
ENDBRANCH  14  17
ENDBRANCH   1  11
BRANCH  10  19
ATOM     19  O   UNL     1     -22.956  31.010 -11.876  1.00  0.00    -0.500 OA
ATOM     20  H   UNL     1     -23.704  31.424 -11.332  1.00  0.00     0.294 HD
ENDBRANCH  10  19
BRANCH   5  21
ATOM     21  O   UNL     1     -16.628  34.509 -14.709  1.00  0.00    -0.507 OA
ATOM     22  H   UNL     1     -15.668  34.507 -14.383  1.00  0.00     0.293 HD
ENDBRANCH   5  21
BRANCH   7  23
ATOM     23  O   UNL     1     -17.733  30.706 -11.996  1.00  0.00    -0.507 OA
ATOM     24  H   UNL     1     -17.007  30.081 -12.309  1.00  0.00     0.293 HD
ENDBRANCH   7  23
TORSDOF 5
ENDMDL
MODEL 2
REMARK VINA RESULT:    -6.202      1.095      2.693
REMARK INTER + INTRA:          -7.476
REMARK INTER:                  -7.369
REMARK INTRA:                  -0.107
REMARK UNBOUND:                -0.186
REMARK SMILES Oc1ccc(-c2[o+]c3cc(O)cc(O)c3cc2O)cc1.[Cl-]
REMARK SMILES IDX 6 1 7 2 8 3 9 4 10 5 12 6 13 7 15 8 16 9 17 10 5 11 4 12
REMARK SMILES IDX 3 13 2 14 19 15 20 16 1 17 18 19 11 21 14 23
REMARK H PARENT 1 18 18 20 11 22 14 24
REMARK Flexibility Score: inf
ROOT
ATOM      1  C   UNL     1     -22.051  34.084 -13.462  1.00  0.00     0.401 A 
ATOM      2  O   UNL     1     -21.412  33.056 -12.911  1.00  0.00    -0.202 OA
ATOM      3  C   UNL     1     -20.099  32.875 -13.009  1.00  0.00     0.368 A 
ATOM      4  C   UNL     1     -19.520  31.760 -12.397  1.00  0.00     0.162 A 
ATOM      5  C   UNL     1     -18.141  31.543 -12.488  1.00  0.00     0.128 A 
ATOM      6  C   UNL     1     -17.340  32.444 -13.195  1.00  0.00     0.093 A 
ATOM      7  C   UNL     1     -17.898  33.569 -13.817  1.00  0.00     0.136 A 
ATOM      8  C   UNL     1     -19.296  33.794 -13.725  1.00  0.00     0.125 A 
ATOM      9  C   UNL     1     -19.940  34.900 -14.306  1.00  0.00     0.078 A 
ATOM     10  C   UNL     1     -21.321  35.058 -14.169  1.00  0.00     0.223 A 
ENDROOT
BRANCH   1  11
ATOM     11  C   UNL     1     -23.519  34.171 -13.289  1.00  0.00     0.084 A 
ATOM     12  C   UNL     1     -24.348  34.208 -14.423  1.00  0.00     0.022 A 
ATOM     13  C   UNL     1     -25.735  34.313 -14.284  1.00  0.00     0.047 A 
ATOM     14  C   UNL     1     -26.311  34.397 -13.012  1.00  0.00     0.115 A 
ATOM     15  C   UNL     1     -24.102  34.277 -12.014  1.00  0.00     0.022 A 
ATOM     16  C   UNL     1     -25.491  34.383 -11.877  1.00  0.00     0.047 A 
BRANCH  14  17
ATOM     17  O   UNL     1     -27.694  34.501 -12.889  1.00  0.00    -0.508 OA
ATOM     18  H   UNL     1     -28.177  34.181 -12.057  1.00  0.00     0.293 HD
ENDBRANCH  14  17
ENDBRANCH   1  11
BRANCH  10  19
ATOM     19  O   UNL     1     -21.953  36.182 -14.701  1.00  0.00    -0.500 OA
ATOM     20  H   UNL     1     -22.938  36.175 -14.939  1.00  0.00     0.294 HD
ENDBRANCH  10  19
BRANCH   5  21
ATOM     21  O   UNL     1     -17.556  30.435 -11.881  1.00  0.00    -0.507 OA
ATOM     22  H   UNL     1     -17.400  29.572 -12.389  1.00  0.00     0.293 HD
ENDBRANCH   5  21
BRANCH   7  23
ATOM     23  O   UNL     1     -17.030  34.419 -14.506  1.00  0.00    -0.507 OA
ATOM     24  H   UNL     1     -16.241  34.108 -15.053  1.00  0.00     0.293 HD
ENDBRANCH   7  23
TORSDOF 5
ENDMDL
MODEL 3
REMARK VINA RESULT:    -6.139      7.069      9.860
REMARK INTER + INTRA:          -7.402
REMARK INTER:                  -7.118
REMARK INTRA:                  -0.284
REMARK UNBOUND:                -0.186
REMARK SMILES Oc1ccc(-c2[o+]c3cc(O)cc(O)c3cc2O)cc1.[Cl-]
REMARK SMILES IDX 6 1 7 2 8 3 9 4 10 5 12 6 13 7 15 8 16 9 17 10 5 11 4 12
REMARK SMILES IDX 3 13 2 14 19 15 20 16 1 17 18 19 11 21 14 23
REMARK H PARENT 1 18 18 20 11 22 14 24
REMARK Flexibility Score: inf
ROOT
ATOM      1  C   UNL     1     -25.626  29.098 -17.587  1.00  0.00     0.401 A 
ATOM      2  O   UNL     1     -25.391  28.468 -18.735  1.00  0.00    -0.202 OA
ATOM      3  C   UNL     1     -26.355  28.017 -19.531  1.00  0.00     0.368 A 
ATOM      4  C   UNL     1     -26.006  27.364 -20.716  1.00  0.00     0.162 A 
ATOM      5  C   UNL     1     -27.000  26.877 -21.571  1.00  0.00     0.128 A 
ATOM      6  C   UNL     1     -28.347  27.042 -21.237  1.00  0.00     0.093 A 
ATOM      7  C   UNL     1     -28.721  27.693 -20.055  1.00  0.00     0.136 A 
ATOM      8  C   UNL     1     -27.716  28.192 -19.186  1.00  0.00     0.125 A 
ATOM      9  C   UNL     1     -27.998  28.867 -17.987  1.00  0.00     0.078 A 
ATOM     10  C   UNL     1     -26.954  29.335 -17.184  1.00  0.00     0.223 A 
ENDROOT
BRANCH   1  11
ATOM     11  C   UNL     1     -24.467  29.545 -16.782  1.00  0.00     0.084 A 
ATOM     12  C   UNL     1     -24.091  28.812 -15.643  1.00  0.00     0.022 A 
ATOM     13  C   UNL     1     -23.013  29.229 -14.857  1.00  0.00     0.047 A 
ATOM     14  C   UNL     1     -22.308  30.390 -15.187  1.00  0.00     0.115 A 
ATOM     15  C   UNL     1     -23.767  30.724 -17.097  1.00  0.00     0.022 A 
ATOM     16  C   UNL     1     -22.689  31.139 -16.307  1.00  0.00     0.047 A 
BRANCH  14  17
ATOM     17  O   UNL     1     -21.237  30.793 -14.394  1.00  0.00    -0.508 OA
ATOM     18  H   UNL     1     -20.344  31.050 -14.800  1.00  0.00     0.293 HD
ENDBRANCH  14  17
ENDBRANCH   1  11
BRANCH  10  19
ATOM     19  O   UNL     1     -27.233  30.050 -16.020  1.00  0.00    -0.500 OA
ATOM     20  H   UNL     1     -27.150  31.060 -15.982  1.00  0.00     0.294 HD
ENDBRANCH  10  19
BRANCH   5  21
ATOM     21  O   UNL     1     -26.661  26.225 -22.754  1.00  0.00    -0.507 OA
ATOM     22  H   UNL     1     -27.123  25.369 -23.039  1.00  0.00     0.293 HD
ENDBRANCH   5  21
BRANCH   7  23
ATOM     23  O   UNL     1     -30.088  27.815 -19.793  1.00  0.00    -0.507 OA
ATOM     24  H   UNL     1     -30.477  28.066 -18.896  1.00  0.00     0.293 HD
ENDBRANCH   7  23
TORSDOF 5
ENDMDL
MODEL 4
REMARK VINA RESULT:    -6.118      6.132      7.650
REMARK INTER + INTRA:          -7.377
REMARK INTER:                  -7.076
REMARK INTRA:                  -0.301
REMARK UNBOUND:                -0.186
REMARK SMILES Oc1ccc(-c2[o+]c3cc(O)cc(O)c3cc2O)cc1.[Cl-]
REMARK SMILES IDX 6 1 7 2 8 3 9 4 10 5 12 6 13 7 15 8 16 9 17 10 5 11 4 12
REMARK SMILES IDX 3 13 2 14 19 15 20 16 1 17 18 19 11 21 14 23
REMARK H PARENT 1 18 18 20 11 22 14 24
REMARK Flexibility Score: inf
ROOT
ATOM      1  C   UNL     1     -24.414  29.608 -18.343  1.00  0.00     0.401 A 
ATOM      2  O   UNL     1     -24.265  29.182 -17.091  1.00  0.00    -0.202 OA
ATOM      3  C   UNL     1     -23.628  29.877 -16.155  1.00  0.00     0.368 A 
ATOM      4  C   UNL     1     -23.521  29.344 -14.868  1.00  0.00     0.162 A 
ATOM      5  C   UNL     1     -22.852  30.052 -13.864  1.00  0.00     0.128 A 
ATOM      6  C   UNL     1     -22.287  31.298 -14.151  1.00  0.00     0.093 A 
ATOM      7  C   UNL     1     -22.381  31.853 -15.433  1.00  0.00     0.136 A 
ATOM      8  C   UNL     1     -23.061  31.139 -16.454  1.00  0.00     0.125 A 
ATOM      9  C   UNL     1     -23.215  31.623 -17.763  1.00  0.00     0.078 A 
ATOM     10  C   UNL     1     -23.903  30.865 -18.715  1.00  0.00     0.223 A 
ENDROOT
BRANCH   1  11
ATOM     11  C   UNL     1     -25.138  28.738 -19.297  1.00  0.00     0.084 A 
ATOM     12  C   UNL     1     -24.409  27.940 -20.195  1.00  0.00     0.022 A 
ATOM     13  C   UNL     1     -25.072  27.127 -21.120  1.00  0.00     0.047 A 
ATOM     14  C   UNL     1     -26.469  27.114 -21.171  1.00  0.00     0.115 A 
ATOM     15  C   UNL     1     -26.543  28.735 -19.367  1.00  0.00     0.022 A 
ATOM     16  C   UNL     1     -27.203  27.922 -20.294  1.00  0.00     0.047 A 
BRANCH  14  17
ATOM     17  O   UNL     1     -27.115  26.299 -22.098  1.00  0.00    -0.508 OA
ATOM     18  H   UNL     1     -26.716  26.116 -23.011  1.00  0.00     0.293 HD
ENDBRANCH  14  17
ENDBRANCH   1  11
BRANCH  10  19
ATOM     19  O   UNL     1     -24.100  31.368 -20.001  1.00  0.00    -0.500 OA
ATOM     20  H   UNL     1     -24.504  30.801 -20.737  1.00  0.00     0.294 HD
ENDBRANCH  10  19
BRANCH   5  21
ATOM     21  O   UNL     1     -22.741  29.528 -12.579  1.00  0.00    -0.507 OA
ATOM     22  H   UNL     1     -21.914  29.024 -12.281  1.00  0.00     0.293 HD
ENDBRANCH   5  21
BRANCH   7  23
ATOM     23  O   UNL     1     -21.787  33.102 -15.639  1.00  0.00    -0.507 OA
ATOM     24  H   UNL     1     -21.133  33.533 -15.004  1.00  0.00     0.293 HD
ENDBRANCH   7  23
TORSDOF 5
ENDMDL
MODEL 5
REMARK VINA RESULT:    -6.080      5.456      7.515
REMARK INTER + INTRA:          -7.332
REMARK INTER:                  -7.110
REMARK INTRA:                  -0.222
REMARK UNBOUND:                -0.186
REMARK SMILES Oc1ccc(-c2[o+]c3cc(O)cc(O)c3cc2O)cc1.[Cl-]
REMARK SMILES IDX 6 1 7 2 8 3 9 4 10 5 12 6 13 7 15 8 16 9 17 10 5 11 4 12
REMARK SMILES IDX 3 13 2 14 19 15 20 16 1 17 18 19 11 21 14 23
REMARK H PARENT 1 18 18 20 11 22 14 24
REMARK Flexibility Score: inf
ROOT
ATOM      1  C   UNL     1     -25.209  29.592 -16.910  1.00  0.00     0.401 A 
ATOM      2  O   UNL     1     -25.601  30.861 -16.833  1.00  0.00    -0.202 OA
ATOM      3  C   UNL     1     -25.425  31.615 -15.753  1.00  0.00     0.368 A 
ATOM      4  C   UNL     1     -25.876  32.937 -15.768  1.00  0.00     0.162 A 
ATOM      5  C   UNL     1     -25.707  33.752 -14.644  1.00  0.00     0.128 A 
ATOM      6  C   UNL     1     -25.087  33.241 -13.501  1.00  0.00     0.093 A 
ATOM      7  C   UNL     1     -24.627  31.918 -13.462  1.00  0.00     0.136 A 
ATOM      8  C   UNL     1     -24.794  31.089 -14.602  1.00  0.00     0.125 A 
ATOM      9  C   UNL     1     -24.354  29.756 -14.656  1.00  0.00     0.078 A 
ATOM     10  C   UNL     1     -24.548  29.001 -15.816  1.00  0.00     0.223 A 
ENDROOT
BRANCH   1  11
ATOM     11  C   UNL     1     -25.469  28.852 -18.166  1.00  0.00     0.084 A 
ATOM     12  C   UNL     1     -26.776  28.431 -18.462  1.00  0.00     0.022 A 
ATOM     13  C   UNL     1     -27.041  27.712 -19.632  1.00  0.00     0.047 A 
ATOM     14  C   UNL     1     -26.002  27.392 -20.512  1.00  0.00     0.115 A 
ATOM     15  C   UNL     1     -24.425  28.509 -19.045  1.00  0.00     0.022 A 
ATOM     16  C   UNL     1     -24.693  27.789 -20.214  1.00  0.00     0.047 A 
BRANCH  14  17
ATOM     17  O   UNL     1     -26.281  26.675 -21.673  1.00  0.00    -0.508 OA
ATOM     18  H   UNL     1     -26.776  25.791 -21.644  1.00  0.00     0.293 HD
ENDBRANCH  14  17
ENDBRANCH   1  11
BRANCH  10  19
ATOM     19  O   UNL     1     -24.066  27.694 -15.890  1.00  0.00    -0.500 OA
ATOM     20  H   UNL     1     -23.486  27.384 -16.660  1.00  0.00     0.294 HD
ENDBRANCH  10  19
BRANCH   5  21
ATOM     21  O   UNL     1     -26.153  35.071 -14.651  1.00  0.00    -0.507 OA
ATOM     22  H   UNL     1     -25.661  35.795 -15.163  1.00  0.00     0.293 HD
ENDBRANCH   5  21
BRANCH   7  23
ATOM     23  O   UNL     1     -24.021  31.483 -12.280  1.00  0.00    -0.507 OA
ATOM     24  H   UNL     1     -23.098  31.080 -12.228  1.00  0.00     0.293 HD
ENDBRANCH   7  23
TORSDOF 5
ENDMDL
MODEL 6
REMARK VINA RESULT:    -5.952      6.034      8.094
REMARK INTER + INTRA:          -7.182
REMARK INTER:                  -7.007
REMARK INTRA:                  -0.175
REMARK UNBOUND:                -0.186
REMARK SMILES Oc1ccc(-c2[o+]c3cc(O)cc(O)c3cc2O)cc1.[Cl-]
REMARK SMILES IDX 6 1 7 2 8 3 9 4 10 5 12 6 13 7 15 8 16 9 17 10 5 11 4 12
REMARK SMILES IDX 3 13 2 14 19 15 20 16 1 17 18 19 11 21 14 23
REMARK H PARENT 1 18 18 20 11 22 14 24
REMARK Flexibility Score: inf
ROOT
ATOM      1  C   UNL     1     -25.764  29.646 -17.860  1.00  0.00     0.401 A 
ATOM      2  O   UNL     1     -24.907  29.237 -16.928  1.00  0.00    -0.202 OA
ATOM      3  C   UNL     1     -24.640  29.932 -15.827  1.00  0.00     0.368 A 
ATOM      4  C   UNL     1     -23.721  29.419 -14.907  1.00  0.00     0.162 A 
ATOM      5  C   UNL     1     -23.418  30.131 -13.743  1.00  0.00     0.128 A 
ATOM      6  C   UNL     1     -24.035  31.361 -13.498  1.00  0.00     0.093 A 
ATOM      7  C   UNL     1     -24.959  31.895 -14.406  1.00  0.00     0.136 A 
ATOM      8  C   UNL     1     -25.272  31.174 -15.588  1.00  0.00     0.125 A 
ATOM      9  C   UNL     1     -26.194  31.627 -16.546  1.00  0.00     0.078 A 
ATOM     10  C   UNL     1     -26.455  30.860 -17.685  1.00  0.00     0.223 A 
ENDROOT
BRANCH   1  11
ATOM     11  C   UNL     1     -25.971  28.786 -19.047  1.00  0.00     0.084 A 
ATOM     12  C   UNL     1     -27.205  28.138 -19.225  1.00  0.00     0.022 A 
ATOM     13  C   UNL     1     -27.415  27.304 -20.328  1.00  0.00     0.047 A 
ATOM     14  C   UNL     1     -26.391  27.093 -21.256  1.00  0.00     0.115 A 
ATOM     15  C   UNL     1     -24.938  28.553 -19.974  1.00  0.00     0.022 A 
ATOM     16  C   UNL     1     -25.151  27.717 -21.075  1.00  0.00     0.047 A 
BRANCH  14  17
ATOM     17  O   UNL     1     -26.615  26.260 -22.349  1.00  0.00    -0.508 OA
ATOM     18  H   UNL     1     -26.773  26.635 -23.277  1.00  0.00     0.293 HD
ENDBRANCH  14  17
ENDBRANCH   1  11
BRANCH  10  19
ATOM     19  O   UNL     1     -27.407  31.283 -18.611  1.00  0.00    -0.500 OA
ATOM     20  H   UNL     1     -27.218  31.280 -19.607  1.00  0.00     0.294 HD
ENDBRANCH  10  19
BRANCH   5  21
ATOM     21  O   UNL     1     -22.505  29.627 -12.820  1.00  0.00    -0.507 OA
ATOM     22  H   UNL     1     -22.246  28.647 -12.811  1.00  0.00     0.293 HD
ENDBRANCH   5  21
BRANCH   7  23
ATOM     23  O   UNL     1     -25.530  33.131 -14.090  1.00  0.00    -0.507 OA
ATOM     24  H   UNL     1     -25.682  33.875 -14.753  1.00  0.00     0.293 HD
ENDBRANCH   7  23
TORSDOF 5
ENDMDL
MODEL 7
REMARK VINA RESULT:    -5.925      8.199      8.946
REMARK INTER + INTRA:          -7.150
REMARK INTER:                  -7.303
REMARK INTRA:                   0.153
REMARK UNBOUND:                -0.186
REMARK SMILES Oc1ccc(-c2[o+]c3cc(O)cc(O)c3cc2O)cc1.[Cl-]
REMARK SMILES IDX 6 1 7 2 8 3 9 4 10 5 12 6 13 7 15 8 16 9 17 10 5 11 4 12
REMARK SMILES IDX 3 13 2 14 19 15 20 16 1 17 18 19 11 21 14 23
REMARK H PARENT 1 18 18 20 11 22 14 24
REMARK Flexibility Score: inf
ROOT
ATOM      1  C   UNL     1     -23.336  29.401 -20.698  1.00  0.00     0.401 A 
ATOM      2  O   UNL     1     -22.187  28.819 -21.031  1.00  0.00    -0.202 OA
ATOM      3  C   UNL     1     -21.020  29.455 -21.032  1.00  0.00     0.368 A 
ATOM      4  C   UNL     1     -19.867  28.757 -21.401  1.00  0.00     0.162 A 
ATOM      5  C   UNL     1     -18.627  29.403 -21.413  1.00  0.00     0.128 A 
ATOM      6  C   UNL     1     -18.540  30.752 -21.058  1.00  0.00     0.093 A 
ATOM      7  C   UNL     1     -19.682  31.472 -20.685  1.00  0.00     0.136 A 
ATOM      8  C   UNL     1     -20.943  30.820 -20.668  1.00  0.00     0.125 A 
ATOM      9  C   UNL     1     -22.137  31.460 -20.296  1.00  0.00     0.078 A 
ATOM     10  C   UNL     1     -23.341  30.751 -20.298  1.00  0.00     0.223 A 
ENDROOT
BRANCH   1  11
ATOM     11  C   UNL     1     -24.573  28.588 -20.745  1.00  0.00     0.084 A 
ATOM     12  C   UNL     1     -24.785  27.713 -21.824  1.00  0.00     0.022 A 
ATOM     13  C   UNL     1     -25.956  26.952 -21.899  1.00  0.00     0.047 A 
ATOM     14  C   UNL     1     -26.936  27.068 -20.909  1.00  0.00     0.115 A 
ATOM     15  C   UNL     1     -25.572  28.715 -19.763  1.00  0.00     0.022 A 
ATOM     16  C   UNL     1     -26.742  27.954 -19.841  1.00  0.00     0.047 A 
BRANCH  14  17
ATOM     17  O   UNL     1     -28.096  26.304 -20.997  1.00  0.00    -0.508 OA
ATOM     18  H   UNL     1     -28.299  25.741 -21.816  1.00  0.00     0.293 HD
ENDBRANCH  14  17
ENDBRANCH   1  11
BRANCH  10  19
ATOM     19  O   UNL     1     -24.519  31.370 -19.880  1.00  0.00    -0.500 OA
ATOM     20  H   UNL     1     -25.391  30.860 -19.807  1.00  0.00     0.294 HD
ENDBRANCH  10  19
BRANCH   5  21
ATOM     21  O   UNL     1     -17.473  28.715 -21.780  1.00  0.00    -0.507 OA
ATOM     22  H   UNL     1     -17.403  28.231 -22.667  1.00  0.00     0.293 HD
ENDBRANCH   5  21
BRANCH   7  23
ATOM     23  O   UNL     1     -19.512  32.817 -20.346  1.00  0.00    -0.507 OA
ATOM     24  H   UNL     1     -19.107  33.141 -19.481  1.00  0.00     0.293 HD
ENDBRANCH   7  23
TORSDOF 5
ENDMDL
MODEL 8
REMARK VINA RESULT:    -5.825      6.727      9.091
REMARK INTER + INTRA:          -7.033
REMARK INTER:                  -6.751
REMARK INTRA:                  -0.282
REMARK UNBOUND:                -0.186
REMARK SMILES Oc1ccc(-c2[o+]c3cc(O)cc(O)c3cc2O)cc1.[Cl-]
REMARK SMILES IDX 6 1 7 2 8 3 9 4 10 5 12 6 13 7 15 8 16 9 17 10 5 11 4 12
REMARK SMILES IDX 3 13 2 14 19 15 20 16 1 17 18 19 11 21 14 23
REMARK H PARENT 1 18 18 20 11 22 14 24
REMARK Flexibility Score: inf
ROOT
ATOM      1  C   UNL     1     -26.436  29.577 -17.086  1.00  0.00     0.401 A 
ATOM      2  O   UNL     1     -25.636  29.176 -18.070  1.00  0.00    -0.202 OA
ATOM      3  C   UNL     1     -26.061  28.475 -19.116  1.00  0.00     0.368 A 
ATOM      4  C   UNL     1     -25.141  28.097 -20.099  1.00  0.00     0.162 A 
ATOM      5  C   UNL     1     -25.561  27.357 -21.208  1.00  0.00     0.128 A 
ATOM      6  C   UNL     1     -26.904  26.992 -21.335  1.00  0.00     0.093 A 
ATOM      7  C   UNL     1     -27.844  27.360 -20.363  1.00  0.00     0.136 A 
ATOM      8  C   UNL     1     -27.423  28.114 -19.237  1.00  0.00     0.125 A 
ATOM      9  C   UNL     1     -28.297  28.536 -18.221  1.00  0.00     0.078 A 
ATOM     10  C   UNL     1     -27.811  29.281 -17.144  1.00  0.00     0.223 A 
ENDROOT
BRANCH   1  11
ATOM     11  C   UNL     1     -25.841  30.345 -15.968  1.00  0.00     0.084 A 
ATOM     12  C   UNL     1     -25.953  31.746 -15.955  1.00  0.00     0.022 A 
ATOM     13  C   UNL     1     -25.380  32.493 -14.921  1.00  0.00     0.047 A 
ATOM     14  C   UNL     1     -24.676  31.852 -13.897  1.00  0.00     0.115 A 
ATOM     15  C   UNL     1     -25.114  29.709 -14.946  1.00  0.00     0.022 A 
ATOM     16  C   UNL     1     -24.541  30.458 -13.914  1.00  0.00     0.047 A 
BRANCH  14  17
ATOM     17  O   UNL     1     -24.111  32.609 -12.874  1.00  0.00    -0.508 OA
ATOM     18  H   UNL     1     -23.281  33.171 -13.027  1.00  0.00     0.293 HD
ENDBRANCH  14  17
ENDBRANCH   1  11
BRANCH  10  19
ATOM     19  O   UNL     1     -28.686  29.744 -16.161  1.00  0.00    -0.500 OA
ATOM     20  H   UNL     1     -28.348  30.165 -15.304  1.00  0.00     0.294 HD
ENDBRANCH  10  19
BRANCH   5  21
ATOM     21  O   UNL     1     -24.651  26.975 -22.191  1.00  0.00    -0.507 OA
ATOM     22  H   UNL     1     -24.091  26.136 -22.099  1.00  0.00     0.293 HD
ENDBRANCH   5  21
BRANCH   7  23
ATOM     23  O   UNL     1     -29.167  26.954 -20.562  1.00  0.00    -0.507 OA
ATOM     24  H   UNL     1     -29.822  26.763 -19.820  1.00  0.00     0.293 HD
ENDBRANCH   7  23
TORSDOF 5
ENDMDL
MODEL 9
REMARK VINA RESULT:    -5.812      5.064      7.020
REMARK INTER + INTRA:          -7.018
REMARK INTER:                  -6.702
REMARK INTRA:                  -0.316
REMARK UNBOUND:                -0.186
REMARK SMILES Oc1ccc(-c2[o+]c3cc(O)cc(O)c3cc2O)cc1.[Cl-]
REMARK SMILES IDX 6 1 7 2 8 3 9 4 10 5 12 6 13 7 15 8 16 9 17 10 5 11 4 12
REMARK SMILES IDX 3 13 2 14 19 15 20 16 1 17 18 19 11 21 14 23
REMARK H PARENT 1 18 18 20 11 22 14 24
REMARK Flexibility Score: inf
ROOT
ATOM      1  C   UNL     1     -24.435  30.450 -17.233  1.00  0.00     0.401 A 
ATOM      2  O   UNL     1     -23.480  30.226 -16.334  1.00  0.00    -0.202 OA
ATOM      3  C   UNL     1     -23.480  30.763 -15.119  1.00  0.00     0.368 A 
ATOM      4  C   UNL     1     -22.429  30.469 -14.247  1.00  0.00     0.162 A 
ATOM      5  C   UNL     1     -22.403  31.023 -12.963  1.00  0.00     0.128 A 
ATOM      6  C   UNL     1     -23.431  31.874 -12.551  1.00  0.00     0.093 A 
ATOM      7  C   UNL     1     -24.496  32.183 -13.408  1.00  0.00     0.136 A 
ATOM      8  C   UNL     1     -24.528  31.621 -14.710  1.00  0.00     0.125 A 
ATOM      9  C   UNL     1     -25.561  31.866 -15.631  1.00  0.00     0.078 A 
ATOM     10  C   UNL     1     -25.527  31.272 -16.895  1.00  0.00     0.223 A 
ENDROOT
BRANCH   1  11
ATOM     11  C   UNL     1     -24.318  29.801 -18.558  1.00  0.00     0.084 A 
ATOM     12  C   UNL     1     -23.734  30.506 -19.624  1.00  0.00     0.022 A 
ATOM     13  C   UNL     1     -23.633  29.920 -20.890  1.00  0.00     0.047 A 
ATOM     14  C   UNL     1     -24.127  28.631 -21.111  1.00  0.00     0.115 A 
ATOM     15  C   UNL     1     -24.831  28.512 -18.792  1.00  0.00     0.022 A 
ATOM     16  C   UNL     1     -24.730  27.929 -20.059  1.00  0.00     0.047 A 
BRANCH  14  17
ATOM     17  O   UNL     1     -24.019  28.061 -22.377  1.00  0.00    -0.508 OA
ATOM     18  H   UNL     1     -24.587  27.268 -22.650  1.00  0.00     0.293 HD
ENDBRANCH  14  17
ENDBRANCH   1  11
BRANCH  10  19
ATOM     19  O   UNL     1     -26.577  31.473 -17.791  1.00  0.00    -0.500 OA
ATOM     20  H   UNL     1     -26.417  31.828 -18.727  1.00  0.00     0.294 HD
ENDBRANCH  10  19
BRANCH   5  21
ATOM     21  O   UNL     1     -21.359  30.735 -12.087  1.00  0.00    -0.507 OA
ATOM     22  H   UNL     1     -21.211  31.275 -11.242  1.00  0.00     0.293 HD
ENDBRANCH   5  21
BRANCH   7  23
ATOM     23  O   UNL     1     -25.483  33.045 -12.921  1.00  0.00    -0.507 OA
ATOM     24  H   UNL     1     -25.303  33.961 -12.540  1.00  0.00     0.293 HD
ENDBRANCH   7  23
TORSDOF 5
ENDMDL
