MODEL 1
REMARK VINA RESULT:    42.915      0.000      0.000
REMARK INTER + INTRA:          58.980
REMARK INTER:                  59.223
REMARK INTRA:                  -0.243
REMARK UNBOUND:                -0.243
REMARK SMILES CC[C@H](CC[C@H](C)[C@H]1CC[C@H]2[C@H]3CC=C4C[C@H](O)CC[C@]4(C)[C@@H]3CC[C@@]12C)C(C)C
REMARK SMILES IDX 5 1 4 2 3 3 2 4 1 5 28 6 29 7 30 8 6 9 7 10 8 11 9 12 26 13
REMARK SMILES IDX 10 14 11 15 25 16 27 17 12 18 24 19 23 20 13 21 21 22 14 23
REMARK SMILES IDX 15 24 20 25 22 26 16 27 19 28 17 29 18 30
REMARK H PARENT 18 31
REMARK Flexibility Score: inf
ROOT
ATOM      1  C   UNL     1     -18.517 -37.460  22.629  1.00  0.00     0.004 C 
ENDROOT
BRANCH   1   2
ATOM      2  C   UNL     1     -20.032 -37.700  22.781  1.00  0.00     0.004 C 
BRANCH   2   3
ATOM      3  C   UNL     1     -20.429 -39.211  22.701  1.00  0.00    -0.009 C 
BRANCH   3   4
ATOM      4  C   UNL     1     -21.906 -39.412  23.147  1.00  0.00     0.000 C 
ATOM      5  C   UNL     1     -22.179 -38.917  24.570  1.00  0.00     0.004 C 
ENDBRANCH   3   4
BRANCH   3   6
ATOM      6  C   UNL     1     -20.124 -39.857  21.308  1.00  0.00    -0.014 C 
ATOM      7  C   UNL     1     -21.350 -40.592  20.740  1.00  0.00     0.007 C 
ATOM      8  C   UNL     1     -18.887 -40.778  21.287  1.00  0.00     0.007 C 
ENDBRANCH   3   6
ENDBRANCH   2   3
ENDBRANCH   1   2
BRANCH   1   9
ATOM      9  C   UNL     1     -17.808 -37.136  23.975  1.00  0.00    -0.011 C 
ATOM     10  C   UNL     1     -18.167 -35.715  24.450  1.00  0.00     0.008 C 
BRANCH   9  11
ATOM     11  C   UNL     1     -16.264 -37.419  24.052  1.00  0.00    -0.002 C 
ATOM     12  C   UNL     1     -15.466 -36.767  22.906  1.00  0.00     0.005 C 
ATOM     13  C   UNL     1     -15.437 -37.182  25.360  1.00  0.00    -0.026 C 
ATOM     14  C   UNL     1     -14.054 -36.523  23.430  1.00  0.00     0.005 C 
ATOM     15  C   UNL     1     -13.990 -37.193  24.806  1.00  0.00    -0.001 C 
ATOM     16  C   UNL     1     -15.757 -35.820  26.041  1.00  0.00     0.007 C 
ATOM     17  C   UNL     1     -15.627 -38.342  26.374  1.00  0.00     0.012 C 
ATOM     18  C   UNL     1     -12.935 -36.617  25.785  1.00  0.00     0.000 C 
ATOM     19  C   UNL     1     -14.684 -35.342  27.039  1.00  0.00     0.005 C 
ATOM     20  C   UNL     1     -13.302 -35.219  26.354  1.00  0.00     0.003 C 
ATOM     21  C   UNL     1     -11.522 -36.587  25.190  1.00  0.00     0.031 C 
ATOM     22  C   UNL     1     -12.092 -34.562  27.196  1.00  0.00    -0.008 C 
ATOM     23  C   UNL     1     -10.566 -36.362  26.322  1.00  0.00    -0.027 C 
ATOM     24  C   UNL     1     -10.904 -35.557  27.354  1.00  0.00    -0.065 C 
ATOM     25  C   UNL     1     -12.521 -33.954  28.583  1.00  0.00     0.014 C 
ATOM     26  C   UNL     1     -11.537 -33.368  26.368  1.00  0.00     0.016 C 
ATOM     27  C   UNL     1     -10.191 -35.834  28.669  1.00  0.00     0.063 C 
ATOM     28  C   UNL     1     -12.281 -34.898  29.752  1.00  0.00     0.033 C 
ATOM     29  C   UNL     1     -10.770 -35.112  29.894  1.00  0.00     0.118 C 
BRANCH  29  30
ATOM     30  O   UNL     1     -10.468 -35.819  31.073  1.00  0.00    -0.393 OA
ATOM     31  H   UNL     1     -10.670 -36.785  30.924  1.00  0.00     0.210 HD
ENDBRANCH  29  30
ENDBRANCH   9  11
ENDBRANCH   1   9
TORSDOF 7
ENDMDL
MODEL 2
REMARK VINA RESULT:    43.257      1.997      3.414
REMARK INTER + INTRA:          59.451
REMARK INTER:                  54.980
REMARK INTRA:                   4.471
REMARK UNBOUND:                -0.243
REMARK SMILES CC[C@H](CC[C@H](C)[C@H]1CC[C@H]2[C@H]3CC=C4C[C@H](O)CC[C@]4(C)[C@@H]3CC[C@@]12C)C(C)C
REMARK SMILES IDX 5 1 4 2 3 3 2 4 1 5 28 6 29 7 30 8 6 9 7 10 8 11 9 12 26 13
REMARK SMILES IDX 10 14 11 15 25 16 27 17 12 18 24 19 23 20 13 21 21 22 14 23
REMARK SMILES IDX 15 24 20 25 22 26 16 27 19 28 17 29 18 30
REMARK H PARENT 18 31
REMARK Flexibility Score: inf
ROOT
ATOM      1  C   UNL     1     -17.785 -36.800  24.146  1.00  0.00     0.004 C 
ENDROOT
BRANCH   1   2
ATOM      2  C   UNL     1     -17.496 -35.476  24.881  1.00  0.00     0.004 C 
BRANCH   2   3
ATOM      3  C   UNL     1     -17.449 -35.631  26.437  1.00  0.00    -0.009 C 
BRANCH   3   4
ATOM      4  C   UNL     1     -18.397 -34.602  27.117  1.00  0.00     0.000 C 
ATOM      5  C   UNL     1     -18.191 -33.169  26.618  1.00  0.00     0.004 C 
ENDBRANCH   3   4
BRANCH   3   6
ATOM      6  C   UNL     1     -17.701 -37.099  26.919  1.00  0.00    -0.014 C 
ATOM      7  C   UNL     1     -19.051 -37.237  27.643  1.00  0.00     0.007 C 
ATOM      8  C   UNL     1     -16.567 -37.694  27.779  1.00  0.00     0.007 C 
ENDBRANCH   3   6
ENDBRANCH   2   3
ENDBRANCH   1   2
BRANCH   1   9
ATOM      9  C   UNL     1     -16.815 -37.068  22.960  1.00  0.00    -0.011 C 
ATOM     10  C   UNL     1     -17.373 -38.170  22.040  1.00  0.00     0.008 C 
BRANCH   9  11
ATOM     11  C   UNL     1     -15.302 -37.298  23.318  1.00  0.00    -0.002 C 
ATOM     12  C   UNL     1     -14.332 -36.567  22.368  1.00  0.00     0.005 C 
ATOM     13  C   UNL     1     -14.747 -37.089  24.767  1.00  0.00    -0.026 C 
ATOM     14  C   UNL     1     -13.056 -36.296  23.159  1.00  0.00     0.005 C 
ATOM     15  C   UNL     1     -13.222 -37.023  24.497  1.00  0.00    -0.001 C 
ATOM     16  C   UNL     1     -15.249 -35.771  25.423  1.00  0.00     0.007 C 
ATOM     17  C   UNL     1     -15.072 -38.298  25.683  1.00  0.00     0.012 C 
ATOM     18  C   UNL     1     -12.396 -36.452  25.679  1.00  0.00     0.000 C 
ATOM     19  C   UNL     1     -14.405 -35.299  26.623  1.00  0.00     0.005 C 
ATOM     20  C   UNL     1     -12.925 -35.095  26.218  1.00  0.00     0.003 C 
ATOM     21  C   UNL     1     -10.899 -36.344  25.364  1.00  0.00     0.031 C 
ATOM     22  C   UNL     1     -11.926 -34.432  27.298  1.00  0.00    -0.008 C 
ATOM     23  C   UNL     1     -10.184 -36.135  26.664  1.00  0.00    -0.027 C 
ATOM     24  C   UNL     1     -10.746 -35.389  27.642  1.00  0.00    -0.065 C 
ATOM     25  C   UNL     1     -12.634 -33.901  28.599  1.00  0.00     0.014 C 
ATOM     26  C   UNL     1     -11.278 -33.183  26.634  1.00  0.00     0.016 C 
ATOM     27  C   UNL     1     -10.281 -35.697  29.057  1.00  0.00     0.063 C 
ATOM     28  C   UNL     1     -12.576 -34.888  29.758  1.00  0.00     0.033 C 
ATOM     29  C   UNL     1     -11.111 -35.052  30.175  1.00  0.00     0.118 C 
BRANCH  29  30
ATOM     30  O   UNL     1     -11.006 -35.799  31.364  1.00  0.00    -0.393 OA
ATOM     31  H   UNL     1     -10.821 -36.750  31.125  1.00  0.00     0.210 HD
ENDBRANCH  29  30
ENDBRANCH   9  11
ENDBRANCH   1   9
TORSDOF 7
ENDMDL
MODEL 3
REMARK VINA RESULT:    43.780      2.110      2.860
REMARK INTER + INTRA:          60.173
REMARK INTER:                  60.792
REMARK INTRA:                  -0.619
REMARK UNBOUND:                -0.243
REMARK SMILES CC[C@H](CC[C@H](C)[C@H]1CC[C@H]2[C@H]3CC=C4C[C@H](O)CC[C@]4(C)[C@@H]3CC[C@@]12C)C(C)C
REMARK SMILES IDX 5 1 4 2 3 3 2 4 1 5 28 6 29 7 30 8 6 9 7 10 8 11 9 12 26 13
REMARK SMILES IDX 10 14 11 15 25 16 27 17 12 18 24 19 23 20 13 21 21 22 14 23
REMARK SMILES IDX 15 24 20 25 22 26 16 27 19 28 17 29 18 30
REMARK H PARENT 18 31
REMARK Flexibility Score: inf
ROOT
ATOM      1  C   UNL     1     -19.770 -37.623  26.180  1.00  0.00     0.004 C 
ENDROOT
BRANCH   1   2
ATOM      2  C   UNL     1     -20.435 -38.566  27.204  1.00  0.00     0.004 C 
BRANCH   2   3
ATOM      3  C   UNL     1     -21.364 -39.637  26.544  1.00  0.00    -0.009 C 
BRANCH   3   4
ATOM      4  C   UNL     1     -21.885 -40.640  27.613  1.00  0.00     0.000 C 
ATOM      5  C   UNL     1     -20.770 -41.235  28.477  1.00  0.00     0.004 C 
ENDBRANCH   3   4
BRANCH   3   6
ATOM      6  C   UNL     1     -22.516 -39.012  25.688  1.00  0.00    -0.014 C 
ATOM      7  C   UNL     1     -23.661 -38.486  26.570  1.00  0.00     0.007 C 
ATOM      8  C   UNL     1     -23.069 -39.938  24.585  1.00  0.00     0.007 C 
ENDBRANCH   3   6
ENDBRANCH   2   3
ENDBRANCH   1   2
BRANCH   1   9
ATOM      9  C   UNL     1     -18.548 -36.854  26.758  1.00  0.00    -0.011 C 
ATOM     10  C   UNL     1     -18.810 -35.336  26.755  1.00  0.00     0.008 C 
BRANCH   9  11
ATOM     11  C   UNL     1     -17.137 -37.217  26.169  1.00  0.00    -0.002 C 
ATOM     12  C   UNL     1     -16.856 -36.559  24.804  1.00  0.00     0.005 C 
ATOM     13  C   UNL     1     -15.822 -37.076  27.008  1.00  0.00    -0.026 C 
ATOM     14  C   UNL     1     -15.343 -36.409  24.684  1.00  0.00     0.005 C 
ATOM     15  C   UNL     1     -14.748 -37.138  25.893  1.00  0.00    -0.001 C 
ATOM     16  C   UNL     1     -15.738 -35.729  27.782  1.00  0.00     0.007 C 
ATOM     17  C   UNL     1     -15.640 -38.266  27.988  1.00  0.00     0.012 C 
ATOM     18  C   UNL     1     -13.343 -36.656  26.343  1.00  0.00     0.000 C 
ATOM     19  C   UNL     1     -14.317 -35.348  28.240  1.00  0.00     0.005 C 
ATOM     20  C   UNL     1     -13.348 -35.266  27.036  1.00  0.00     0.003 C 
ATOM     21  C   UNL     1     -12.314 -36.672  25.206  1.00  0.00     0.031 C 
ATOM     22  C   UNL     1     -11.857 -34.706  27.298  1.00  0.00    -0.008 C 
ATOM     23  C   UNL     1     -10.958 -36.543  25.830  1.00  0.00    -0.027 C 
ATOM     24  C   UNL     1     -10.779 -35.766  26.922  1.00  0.00    -0.065 C 
ATOM     25  C   UNL     1     -11.622 -34.135  28.745  1.00  0.00     0.014 C 
ATOM     26  C   UNL     1     -11.628 -33.508  26.332  1.00  0.00     0.016 C 
ATOM     27  C   UNL     1      -9.596 -36.132  27.806  1.00  0.00     0.063 C 
ATOM     28  C   UNL     1     -10.971 -35.138  29.687  1.00  0.00     0.033 C 
ATOM     29  C   UNL     1      -9.558 -35.434  29.172  1.00  0.00     0.118 C 
BRANCH  29  30
ATOM     30  O   UNL     1      -8.833 -36.203  30.102  1.00  0.00    -0.393 OA
ATOM     31  H   UNL     1      -7.916 -35.817  30.186  1.00  0.00     0.210 HD
ENDBRANCH  29  30
ENDBRANCH   9  11
ENDBRANCH   1   9
TORSDOF 7
ENDMDL
MODEL 4
REMARK VINA RESULT:    44.048      0.689      1.718
REMARK INTER + INTRA:          60.543
REMARK INTER:                  60.304
REMARK INTRA:                   0.239
REMARK UNBOUND:                -0.243
REMARK SMILES CC[C@H](CC[C@H](C)[C@H]1CC[C@H]2[C@H]3CC=C4C[C@H](O)CC[C@]4(C)[C@@H]3CC[C@@]12C)C(C)C
REMARK SMILES IDX 5 1 4 2 3 3 2 4 1 5 28 6 29 7 30 8 6 9 7 10 8 11 9 12 26 13
REMARK SMILES IDX 10 14 11 15 25 16 27 17 12 18 24 19 23 20 13 21 21 22 14 23
REMARK SMILES IDX 15 24 20 25 22 26 16 27 19 28 17 29 18 30
REMARK H PARENT 18 31
REMARK Flexibility Score: inf
ROOT
ATOM      1  C   UNL     1     -18.103 -37.898  22.302  1.00  0.00     0.004 C 
ENDROOT
BRANCH   1   2
ATOM      2  C   UNL     1     -18.139 -39.437  22.218  1.00  0.00     0.004 C 
BRANCH   2   3
ATOM      3  C   UNL     1     -19.277 -39.979  21.292  1.00  0.00    -0.009 C 
BRANCH   3   4
ATOM      4  C   UNL     1     -18.848 -41.318  20.626  1.00  0.00     0.000 C 
ATOM      5  C   UNL     1     -19.340 -41.459  19.183  1.00  0.00     0.004 C 
ENDBRANCH   3   4
BRANCH   3   6
ATOM      6  C   UNL     1     -20.664 -40.078  22.011  1.00  0.00    -0.014 C 
ATOM      7  C   UNL     1     -21.749 -40.647  21.081  1.00  0.00     0.007 C 
ATOM      8  C   UNL     1     -21.145 -38.762  22.656  1.00  0.00     0.007 C 
ENDBRANCH   3   6
ENDBRANCH   2   3
ENDBRANCH   1   2
BRANCH   1   9
ATOM      9  C   UNL     1     -17.482 -37.370  23.627  1.00  0.00    -0.011 C 
ATOM     10  C   UNL     1     -17.931 -35.922  23.899  1.00  0.00     0.008 C 
BRANCH   9  11
ATOM     11  C   UNL     1     -15.932 -37.558  23.809  1.00  0.00    -0.002 C 
ATOM     12  C   UNL     1     -15.098 -36.838  22.731  1.00  0.00     0.005 C 
ATOM     13  C   UNL     1     -15.215 -37.292  25.176  1.00  0.00    -0.026 C 
ATOM     14  C   UNL     1     -13.745 -36.516  23.357  1.00  0.00     0.005 C 
ATOM     15  C   UNL     1     -13.735 -37.205  24.725  1.00  0.00    -0.001 C 
ATOM     16  C   UNL     1     -15.667 -35.965  25.850  1.00  0.00     0.007 C 
ATOM     17  C   UNL     1     -15.402 -38.479  26.159  1.00  0.00     0.012 C 
ATOM     18  C   UNL     1     -12.789 -36.581  25.784  1.00  0.00     0.000 C 
ATOM     19  C   UNL     1     -14.699 -35.439  26.927  1.00  0.00     0.005 C 
ATOM     20  C   UNL     1     -13.283 -35.219  26.344  1.00  0.00     0.003 C 
ATOM     21  C   UNL     1     -11.343 -36.453  25.291  1.00  0.00     0.031 C 
ATOM     22  C   UNL     1     -12.179 -34.502  27.278  1.00  0.00    -0.008 C 
ATOM     23  C   UNL     1     -10.485 -36.189  26.491  1.00  0.00    -0.027 C 
ATOM     24  C   UNL     1     -10.945 -35.425  27.507  1.00  0.00    -0.065 C 
ATOM     25  C   UNL     1     -12.741 -33.946  28.638  1.00  0.00     0.014 C 
ATOM     26  C   UNL     1     -11.644 -33.262  26.507  1.00  0.00     0.016 C 
ATOM     27  C   UNL     1     -10.309 -35.680  28.866  1.00  0.00     0.063 C 
ATOM     28  C   UNL     1     -12.524 -34.894  29.810  1.00  0.00     0.033 C 
ATOM     29  C   UNL     1     -11.016 -35.016  30.055  1.00  0.00     0.118 C 
BRANCH  29  30
ATOM     30  O   UNL     1     -10.755 -35.724  31.244  1.00  0.00    -0.393 OA
ATOM     31  H   UNL     1     -10.069 -35.222  31.767  1.00  0.00     0.210 HD
ENDBRANCH  29  30
ENDBRANCH   9  11
ENDBRANCH   1   9
TORSDOF 7
ENDMDL
MODEL 5
REMARK VINA RESULT:    44.954      2.648      3.694
REMARK INTER + INTRA:          61.793
REMARK INTER:                  57.623
REMARK INTRA:                   4.170
REMARK UNBOUND:                -0.243
REMARK SMILES CC[C@H](CC[C@H](C)[C@H]1CC[C@H]2[C@H]3CC=C4C[C@H](O)CC[C@]4(C)[C@@H]3CC[C@@]12C)C(C)C
REMARK SMILES IDX 5 1 4 2 3 3 2 4 1 5 28 6 29 7 30 8 6 9 7 10 8 11 9 12 26 13
REMARK SMILES IDX 10 14 11 15 25 16 27 17 12 18 24 19 23 20 13 21 21 22 14 23
REMARK SMILES IDX 15 24 20 25 22 26 16 27 19 28 17 29 18 30
REMARK H PARENT 18 31
REMARK Flexibility Score: inf
ROOT
ATOM      1  C   UNL     1     -18.326 -37.066  26.393  1.00  0.00     0.004 C 
ENDROOT
BRANCH   1   2
ATOM      2  C   UNL     1     -18.124 -36.513  24.968  1.00  0.00     0.004 C 
BRANCH   2   3
ATOM      3  C   UNL     1     -17.007 -35.421  24.883  1.00  0.00    -0.009 C 
BRANCH   3   4
ATOM      4  C   UNL     1     -16.727 -34.815  26.288  1.00  0.00     0.000 C 
ATOM      5  C   UNL     1     -17.852 -33.906  26.788  1.00  0.00     0.004 C 
ENDBRANCH   3   4
BRANCH   3   6
ATOM      6  C   UNL     1     -15.707 -35.922  24.168  1.00  0.00    -0.014 C 
ATOM      7  C   UNL     1     -14.526 -34.962  24.395  1.00  0.00     0.007 C 
ATOM      8  C   UNL     1     -15.878 -36.219  22.664  1.00  0.00     0.007 C 
ENDBRANCH   3   6
ENDBRANCH   2   3
ENDBRANCH   1   2
BRANCH   1   9
ATOM      9  C   UNL     1     -17.773 -38.509  26.575  1.00  0.00    -0.011 C 
ATOM     10  C   UNL     1     -18.149 -39.065  27.961  1.00  0.00     0.008 C 
BRANCH   9  11
ATOM     11  C   UNL     1     -16.256 -38.737  26.233  1.00  0.00    -0.002 C 
ATOM     12  C   UNL     1     -15.894 -38.362  24.782  1.00  0.00     0.005 C 
ATOM     13  C   UNL     1     -15.104 -38.178  27.135  1.00  0.00    -0.026 C 
ATOM     14  C   UNL     1     -14.419 -37.974  24.777  1.00  0.00     0.005 C 
ATOM     15  C   UNL     1     -13.891 -38.295  26.179  1.00  0.00    -0.001 C 
ATOM     16  C   UNL     1     -15.332 -36.700  27.562  1.00  0.00     0.007 C 
ATOM     17  C   UNL     1     -14.880 -39.066  28.389  1.00  0.00     0.012 C 
ATOM     18  C   UNL     1     -12.650 -37.481  26.631  1.00  0.00     0.000 C 
ATOM     19  C   UNL     1     -14.060 -35.978  28.049  1.00  0.00     0.005 C 
ATOM     20  C   UNL     1     -12.959 -35.995  26.961  1.00  0.00     0.003 C 
ATOM     21  C   UNL     1     -11.485 -37.567  25.638  1.00  0.00     0.031 C 
ATOM     22  C   UNL     1     -11.620 -35.133  27.222  1.00  0.00    -0.008 C 
ATOM     23  C   UNL     1     -10.262 -37.061  26.341  1.00  0.00    -0.027 C 
ATOM     24  C   UNL     1     -10.353 -36.040  27.222  1.00  0.00    -0.065 C 
ATOM     25  C   UNL     1     -11.673 -34.220  28.502  1.00  0.00     0.014 C 
ATOM     26  C   UNL     1     -11.445 -34.161  26.020  1.00  0.00     0.016 C 
ATOM     27  C   UNL     1      -9.260 -35.981  28.280  1.00  0.00     0.063 C 
ATOM     28  C   UNL     1     -11.013 -34.854  29.719  1.00  0.00     0.033 C 
ATOM     29  C   UNL     1      -9.515 -34.999  29.431  1.00  0.00     0.118 C 
BRANCH  29  30
ATOM     30  O   UNL     1      -8.816 -35.398  30.586  1.00  0.00    -0.393 OA
ATOM     31  H   UNL     1      -9.446 -35.380  31.360  1.00  0.00     0.210 HD
ENDBRANCH  29  30
ENDBRANCH   9  11
ENDBRANCH   1   9
TORSDOF 7
ENDMDL
