MODEL 1
REMARK VINA RESULT:    -7.051      0.000      0.000
REMARK INTER + INTRA:          -8.596
REMARK INTER:                  -8.287
REMARK INTRA:                  -0.308
REMARK UNBOUND:                -0.308
REMARK SMILES Oc1ccc(-c2[o+]c3cc(O)cc(O)c3cc2O)cc1.[Cl-]
REMARK SMILES IDX 6 1 7 2 8 3 9 4 10 5 12 6 13 7 15 8 16 9 17 10 5 11 4 12
REMARK SMILES IDX 3 13 2 14 19 15 20 16 1 17 18 19 11 21 14 23
REMARK H PARENT 1 18 18 20 11 22 14 24
REMARK Flexibility Score: inf
ROOT
ATOM      1  C   UNL     1     -29.324  19.347  -0.671  1.00  0.00     0.401 A 
ATOM      2  O   UNL     1     -29.798  18.657   0.364  1.00  0.00    -0.202 OA
ATOM      3  C   UNL     1     -29.126  18.494   1.500  1.00  0.00     0.368 A 
ATOM      4  C   UNL     1     -29.692  17.750   2.539  1.00  0.00     0.162 A 
ATOM      5  C   UNL     1     -28.995  17.569   3.737  1.00  0.00     0.128 A 
ATOM      6  C   UNL     1     -27.722  18.135   3.899  1.00  0.00     0.093 A 
ATOM      7  C   UNL     1     -27.142  18.884   2.865  1.00  0.00     0.136 A 
ATOM      8  C   UNL     1     -27.846  19.066   1.659  1.00  0.00     0.125 A 
ATOM      9  C   UNL     1     -27.319  19.811   0.597  1.00  0.00     0.078 A 
ATOM     10  C   UNL     1     -28.062  19.967  -0.577  1.00  0.00     0.223 A 
ENDROOT
BRANCH   1  11
ATOM     11  C   UNL     1     -30.163  19.450  -1.887  1.00  0.00     0.084 A 
ATOM     12  C   UNL     1     -31.249  20.342  -1.904  1.00  0.00     0.022 A 
ATOM     13  C   UNL     1     -32.066  20.440  -3.034  1.00  0.00     0.047 A 
ATOM     14  C   UNL     1     -31.819  19.636  -4.154  1.00  0.00     0.115 A 
ATOM     15  C   UNL     1     -29.933  18.633  -3.009  1.00  0.00     0.022 A 
ATOM     16  C   UNL     1     -30.754  18.732  -4.137  1.00  0.00     0.047 A 
BRANCH  14  17
ATOM     17  O   UNL     1     -32.627  19.726  -5.285  1.00  0.00    -0.508 OA
ATOM     18  H   UNL     1     -32.383  19.254  -6.149  1.00  0.00     0.293 HD
ENDBRANCH  14  17
ENDBRANCH   1  11
BRANCH  10  19
ATOM     19  O   UNL     1     -27.565  20.750  -1.619  1.00  0.00    -0.500 OA
ATOM     20  H   UNL     1     -27.139  20.335  -2.440  1.00  0.00     0.294 HD
ENDBRANCH  10  19
BRANCH   5  21
ATOM     21  O   UNL     1     -29.575  16.824   4.762  1.00  0.00    -0.507 OA
ATOM     22  H   UNL     1     -30.567  16.619   4.773  1.00  0.00     0.293 HD
ENDBRANCH   5  21
BRANCH   7  23
ATOM     23  O   UNL     1     -25.875  19.445   3.037  1.00  0.00    -0.507 OA
ATOM     24  H   UNL     1     -25.090  19.169   2.459  1.00  0.00     0.293 HD
ENDBRANCH   7  23
TORSDOF 5
ENDMDL
MODEL 2
REMARK VINA RESULT:    -6.701      3.930      6.647
REMARK INTER + INTRA:          -8.184
REMARK INTER:                  -7.906
REMARK INTRA:                  -0.279
REMARK UNBOUND:                -0.308
REMARK SMILES Oc1ccc(-c2[o+]c3cc(O)cc(O)c3cc2O)cc1.[Cl-]
REMARK SMILES IDX 6 1 7 2 8 3 9 4 10 5 12 6 13 7 15 8 16 9 17 10 5 11 4 12
REMARK SMILES IDX 3 13 2 14 19 15 20 16 1 17 18 19 11 21 14 23
REMARK H PARENT 1 18 18 20 11 22 14 24
REMARK Flexibility Score: inf
ROOT
ATOM      1  C   UNL     1     -29.132  16.623  -3.505  1.00  0.00     0.401 A 
ATOM      2  O   UNL     1     -30.205  17.170  -4.073  1.00  0.00    -0.202 OA
ATOM      3  C   UNL     1     -30.713  18.338  -3.694  1.00  0.00     0.368 A 
ATOM      4  C   UNL     1     -31.846  18.843  -4.339  1.00  0.00     0.162 A 
ATOM      5  C   UNL     1     -32.393  20.069  -3.949  1.00  0.00     0.128 A 
ATOM      6  C   UNL     1     -31.804  20.797  -2.905  1.00  0.00     0.093 A 
ATOM      7  C   UNL     1     -30.666  20.303  -2.249  1.00  0.00     0.136 A 
ATOM      8  C   UNL     1     -30.117  19.069  -2.644  1.00  0.00     0.125 A 
ATOM      9  C   UNL     1     -28.979  18.532  -2.030  1.00  0.00     0.078 A 
ATOM     10  C   UNL     1     -28.469  17.305  -2.465  1.00  0.00     0.223 A 
ENDROOT
BRANCH   1  11
ATOM     11  C   UNL     1     -28.665  15.311  -4.010  1.00  0.00     0.084 A 
ATOM     12  C   UNL     1     -27.577  15.259  -4.897  1.00  0.00     0.022 A 
ATOM     13  C   UNL     1     -27.134  14.033  -5.402  1.00  0.00     0.047 A 
ATOM     14  C   UNL     1     -27.781  12.846  -5.038  1.00  0.00     0.115 A 
ATOM     15  C   UNL     1     -29.322  14.115  -3.664  1.00  0.00     0.022 A 
ATOM     16  C   UNL     1     -28.877  12.891  -4.172  1.00  0.00     0.047 A 
BRANCH  14  17
ATOM     17  O   UNL     1     -27.347  11.619  -5.534  1.00  0.00    -0.508 OA
ATOM     18  H   UNL     1     -27.659  11.271  -6.434  1.00  0.00     0.293 HD
ENDBRANCH  14  17
ENDBRANCH   1  11
BRANCH  10  19
ATOM     19  O   UNL     1     -27.306  16.789  -1.893  1.00  0.00    -0.500 OA
ATOM     20  H   UNL     1     -27.293  16.434  -0.944  1.00  0.00     0.294 HD
ENDBRANCH  10  19
BRANCH   5  21
ATOM     21  O   UNL     1     -33.523  20.556  -4.603  1.00  0.00    -0.507 OA
ATOM     22  H   UNL     1     -33.467  20.950  -5.535  1.00  0.00     0.293 HD
ENDBRANCH   5  21
BRANCH   7  23
ATOM     23  O   UNL     1     -30.087  21.036  -1.212  1.00  0.00    -0.507 OA
ATOM     24  H   UNL     1     -30.466  21.018  -0.272  1.00  0.00     0.293 HD
ENDBRANCH   7  23
TORSDOF 5
ENDMDL
MODEL 3
REMARK VINA RESULT:    -6.265      1.462      6.821
REMARK INTER + INTRA:          -7.671
REMARK INTER:                  -7.514
REMARK INTRA:                  -0.158
REMARK UNBOUND:                -0.308
REMARK SMILES Oc1ccc(-c2[o+]c3cc(O)cc(O)c3cc2O)cc1.[Cl-]
REMARK SMILES IDX 6 1 7 2 8 3 9 4 10 5 12 6 13 7 15 8 16 9 17 10 5 11 4 12
REMARK SMILES IDX 3 13 2 14 19 15 20 16 1 17 18 19 11 21 14 23
REMARK H PARENT 1 18 18 20 11 22 14 24
REMARK Flexibility Score: inf
ROOT
ATOM      1  C   UNL     1     -29.686  18.920  -0.801  1.00  0.00     0.401 A 
ATOM      2  O   UNL     1     -30.928  19.372  -0.966  1.00  0.00    -0.202 OA
ATOM      3  C   UNL     1     -31.480  19.566  -2.159  1.00  0.00     0.368 A 
ATOM      4  C   UNL     1     -32.790  20.047  -2.246  1.00  0.00     0.162 A 
ATOM      5  C   UNL     1     -33.382  20.258  -3.495  1.00  0.00     0.128 A 
ATOM      6  C   UNL     1     -32.660  19.985  -4.666  1.00  0.00     0.093 A 
ATOM      7  C   UNL     1     -31.346  19.502  -4.594  1.00  0.00     0.136 A 
ATOM      8  C   UNL     1     -30.752  19.290  -3.336  1.00  0.00     0.125 A 
ATOM      9  C   UNL     1     -29.446  18.801  -3.204  1.00  0.00     0.078 A 
ATOM     10  C   UNL     1     -28.904  18.601  -1.930  1.00  0.00     0.223 A 
ENDROOT
BRANCH   1  11
ATOM     11  C   UNL     1     -29.178  18.755   0.580  1.00  0.00     0.084 A 
ATOM     12  C   UNL     1     -28.074  19.514   1.006  1.00  0.00     0.022 A 
ATOM     13  C   UNL     1     -27.566  19.359   2.298  1.00  0.00     0.047 A 
ATOM     14  C   UNL     1     -28.143  18.433   3.176  1.00  0.00     0.115 A 
ATOM     15  C   UNL     1     -29.740  17.814   1.462  1.00  0.00     0.022 A 
ATOM     16  C   UNL     1     -29.227  17.660   2.753  1.00  0.00     0.047 A 
BRANCH  14  17
ATOM     17  O   UNL     1     -27.644  18.271   4.467  1.00  0.00    -0.508 OA
ATOM     18  H   UNL     1     -28.257  18.075   5.250  1.00  0.00     0.293 HD
ENDBRANCH  14  17
ENDBRANCH   1  11
BRANCH  10  19
ATOM     19  O   UNL     1     -27.624  18.067  -1.792  1.00  0.00    -0.500 OA
ATOM     20  H   UNL     1     -26.841  18.414  -2.333  1.00  0.00     0.294 HD
ENDBRANCH  10  19
BRANCH   5  21
ATOM     21  O   UNL     1     -34.688  20.738  -3.563  1.00  0.00    -0.507 OA
ATOM     22  H   UNL     1     -35.483  20.110  -3.589  1.00  0.00     0.293 HD
ENDBRANCH   5  21
BRANCH   7  23
ATOM     23  O   UNL     1     -30.637  19.233  -5.766  1.00  0.00    -0.507 OA
ATOM     24  H   UNL     1     -30.782  19.775  -6.610  1.00  0.00     0.293 HD
ENDBRANCH   7  23
TORSDOF 5
ENDMDL
MODEL 4
REMARK VINA RESULT:    -6.146      4.198      7.080
REMARK INTER + INTRA:          -7.532
REMARK INTER:                  -7.413
REMARK INTRA:                  -0.119
REMARK UNBOUND:                -0.308
REMARK SMILES Oc1ccc(-c2[o+]c3cc(O)cc(O)c3cc2O)cc1.[Cl-]
REMARK SMILES IDX 6 1 7 2 8 3 9 4 10 5 12 6 13 7 15 8 16 9 17 10 5 11 4 12
REMARK SMILES IDX 3 13 2 14 19 15 20 16 1 17 18 19 11 21 14 23
REMARK H PARENT 1 18 18 20 11 22 14 24
REMARK Flexibility Score: inf
ROOT
ATOM      1  C   UNL     1     -30.762  16.566  -4.363  1.00  0.00     0.401 A 
ATOM      2  O   UNL     1     -30.212  17.473  -3.559  1.00  0.00    -0.202 OA
ATOM      3  C   UNL     1     -30.782  18.640  -3.279  1.00  0.00     0.368 A 
ATOM      4  C   UNL     1     -30.136  19.541  -2.428  1.00  0.00     0.162 A 
ATOM      5  C   UNL     1     -30.725  20.773  -2.127  1.00  0.00     0.128 A 
ATOM      6  C   UNL     1     -31.968  21.109  -2.682  1.00  0.00     0.093 A 
ATOM      7  C   UNL     1     -32.628  20.215  -3.538  1.00  0.00     0.136 A 
ATOM      8  C   UNL     1     -32.035  18.974  -3.838  1.00  0.00     0.125 A 
ATOM      9  C   UNL     1     -32.652  18.040  -4.679  1.00  0.00     0.078 A 
ATOM     10  C   UNL     1     -32.023  16.819  -4.941  1.00  0.00     0.223 A 
ENDROOT
BRANCH   1  11
ATOM     11  C   UNL     1     -30.024  15.306  -4.607  1.00  0.00     0.084 A 
ATOM     12  C   UNL     1     -30.587  14.085  -4.197  1.00  0.00     0.022 A 
ATOM     13  C   UNL     1     -29.898  12.885  -4.397  1.00  0.00     0.047 A 
ATOM     14  C   UNL     1     -28.631  12.892  -4.996  1.00  0.00     0.115 A 
ATOM     15  C   UNL     1     -28.743  15.305  -5.190  1.00  0.00     0.022 A 
ATOM     16  C   UNL     1     -28.056  14.104  -5.388  1.00  0.00     0.047 A 
BRANCH  14  17
ATOM     17  O   UNL     1     -27.936  11.702  -5.201  1.00  0.00    -0.508 OA
ATOM     18  H   UNL     1     -28.015  11.187  -6.071  1.00  0.00     0.293 HD
ENDBRANCH  14  17
ENDBRANCH   1  11
BRANCH  10  19
ATOM     19  O   UNL     1     -32.655  15.864  -5.737  1.00  0.00    -0.500 OA
ATOM     20  H   UNL     1     -32.221  14.972  -5.943  1.00  0.00     0.294 HD
ENDBRANCH  10  19
BRANCH   5  21
ATOM     21  O   UNL     1     -30.066  21.659  -1.277  1.00  0.00    -0.507 OA
ATOM     22  H   UNL     1     -30.106  21.555  -0.269  1.00  0.00     0.293 HD
ENDBRANCH   5  21
BRANCH   7  23
ATOM     23  O   UNL     1     -33.866  20.558  -4.083  1.00  0.00    -0.507 OA
ATOM     24  H   UNL     1     -34.119  21.523  -4.261  1.00  0.00     0.293 HD
ENDBRANCH   7  23
TORSDOF 5
ENDMDL
MODEL 5
REMARK VINA RESULT:    -6.085      1.795      2.547
REMARK INTER + INTRA:          -7.461
REMARK INTER:                  -7.431
REMARK INTRA:                  -0.029
REMARK UNBOUND:                -0.308
REMARK SMILES Oc1ccc(-c2[o+]c3cc(O)cc(O)c3cc2O)cc1.[Cl-]
REMARK SMILES IDX 6 1 7 2 8 3 9 4 10 5 12 6 13 7 15 8 16 9 17 10 5 11 4 12
REMARK SMILES IDX 3 13 2 14 19 15 20 16 1 17 18 19 11 21 14 23
REMARK H PARENT 1 18 18 20 11 22 14 24
REMARK Flexibility Score: inf
ROOT
ATOM      1  C   UNL     1     -29.169  18.911  -0.925  1.00  0.00     0.401 A 
ATOM      2  O   UNL     1     -28.655  19.887  -0.179  1.00  0.00    -0.202 OA
ATOM      3  C   UNL     1     -27.769  19.674   0.789  1.00  0.00     0.368 A 
ATOM      4  C   UNL     1     -27.281  20.753   1.531  1.00  0.00     0.162 A 
ATOM      5  C   UNL     1     -26.351  20.543   2.553  1.00  0.00     0.128 A 
ATOM      6  C   UNL     1     -25.905  19.245   2.837  1.00  0.00     0.093 A 
ATOM      7  C   UNL     1     -26.386  18.152   2.101  1.00  0.00     0.136 A 
ATOM      8  C   UNL     1     -27.322  18.366   1.071  1.00  0.00     0.125 A 
ATOM      9  C   UNL     1     -27.829  17.314   0.299  1.00  0.00     0.078 A 
ATOM     10  C   UNL     1     -28.753  17.581  -0.717  1.00  0.00     0.223 A 
ENDROOT
BRANCH   1  11
ATOM     11  C   UNL     1     -30.156  19.273  -1.968  1.00  0.00     0.084 A 
ATOM     12  C   UNL     1     -31.311  19.989  -1.607  1.00  0.00     0.022 A 
ATOM     13  C   UNL     1     -32.266  20.323  -2.571  1.00  0.00     0.047 A 
ATOM     14  C   UNL     1     -32.088  19.932  -3.905  1.00  0.00     0.115 A 
ATOM     15  C   UNL     1     -29.994  18.868  -3.306  1.00  0.00     0.022 A 
ATOM     16  C   UNL     1     -30.953  19.203  -4.267  1.00  0.00     0.047 A 
BRANCH  14  17
ATOM     17  O   UNL     1     -33.033  20.260  -4.874  1.00  0.00    -0.508 OA
ATOM     18  H   UNL     1     -33.533  21.142  -4.848  1.00  0.00     0.293 HD
ENDBRANCH  14  17
ENDBRANCH   1  11
BRANCH  10  19
ATOM     19  O   UNL     1     -29.223  16.545  -1.523  1.00  0.00    -0.500 OA
ATOM     20  H   UNL     1     -28.715  15.674  -1.620  1.00  0.00     0.294 HD
ENDBRANCH  10  19
BRANCH   5  21
ATOM     21  O   UNL     1     -25.875  21.631   3.283  1.00  0.00    -0.507 OA
ATOM     22  H   UNL     1     -25.091  21.541   3.918  1.00  0.00     0.293 HD
ENDBRANCH   5  21
BRANCH   7  23
ATOM     23  O   UNL     1     -25.934  16.863   2.391  1.00  0.00    -0.507 OA
ATOM     24  H   UNL     1     -25.490  16.643   3.274  1.00  0.00     0.293 HD
ENDBRANCH   7  23
TORSDOF 5
ENDMDL
MODEL 6
REMARK VINA RESULT:    -5.945      2.152      2.579
REMARK INTER + INTRA:          -7.296
REMARK INTER:                  -6.993
REMARK INTRA:                  -0.303
REMARK UNBOUND:                -0.308
REMARK SMILES Oc1ccc(-c2[o+]c3cc(O)cc(O)c3cc2O)cc1.[Cl-]
REMARK SMILES IDX 6 1 7 2 8 3 9 4 10 5 12 6 13 7 15 8 16 9 17 10 5 11 4 12
REMARK SMILES IDX 3 13 2 14 19 15 20 16 1 17 18 19 11 21 14 23
REMARK H PARENT 1 18 18 20 11 22 14 24
REMARK Flexibility Score: inf
ROOT
ATOM      1  C   UNL     1     -28.260  18.578  -0.335  1.00  0.00     0.401 A 
ATOM      2  O   UNL     1     -28.743  18.117   0.817  1.00  0.00    -0.202 OA
ATOM      3  C   UNL     1     -28.592  18.751   1.975  1.00  0.00     0.368 A 
ATOM      4  C   UNL     1     -29.125  18.197   3.143  1.00  0.00     0.162 A 
ATOM      5  C   UNL     1     -28.972  18.853   4.368  1.00  0.00     0.128 A 
ATOM      6  C   UNL     1     -28.280  20.071   4.428  1.00  0.00     0.093 A 
ATOM      7  C   UNL     1     -27.740  20.639   3.265  1.00  0.00     0.136 A 
ATOM      8  C   UNL     1     -27.896  19.978   2.032  1.00  0.00     0.125 A 
ATOM      9  C   UNL     1     -27.386  20.502   0.839  1.00  0.00     0.078 A 
ATOM     10  C   UNL     1     -27.574  19.809  -0.361  1.00  0.00     0.223 A 
ENDROOT
BRANCH   1  11
ATOM     11  C   UNL     1     -28.484  17.775  -1.559  1.00  0.00     0.084 A 
ATOM     12  C   UNL     1     -29.583  18.067  -2.386  1.00  0.00     0.022 A 
ATOM     13  C   UNL     1     -29.824  17.309  -3.535  1.00  0.00     0.047 A 
ATOM     14  C   UNL     1     -28.981  16.240  -3.864  1.00  0.00     0.115 A 
ATOM     15  C   UNL     1     -27.653  16.688  -1.887  1.00  0.00     0.022 A 
ATOM     16  C   UNL     1     -27.899  15.931  -3.036  1.00  0.00     0.047 A 
BRANCH  14  17
ATOM     17  O   UNL     1     -29.213  15.478  -5.007  1.00  0.00    -0.508 OA
ATOM     18  H   UNL     1     -29.904  14.736  -5.018  1.00  0.00     0.293 HD
ENDBRANCH  14  17
ENDBRANCH   1  11
BRANCH  10  19
ATOM     19  O   UNL     1     -27.112  20.350  -1.561  1.00  0.00    -0.500 OA
ATOM     20  H   UNL     1     -26.169  20.181  -1.892  1.00  0.00     0.294 HD
ENDBRANCH  10  19
BRANCH   5  21
ATOM     21  O   UNL     1     -29.510  18.286   5.522  1.00  0.00    -0.507 OA
ATOM     22  H   UNL     1     -30.018  18.843   6.199  1.00  0.00     0.293 HD
ENDBRANCH   5  21
BRANCH   7  23
ATOM     23  O   UNL     1     -27.055  21.853   3.335  1.00  0.00    -0.507 OA
ATOM     24  H   UNL     1     -27.058  22.510   2.564  1.00  0.00     0.293 HD
ENDBRANCH   7  23
TORSDOF 5
ENDMDL
MODEL 7
REMARK VINA RESULT:    -5.853      2.142      6.725
REMARK INTER + INTRA:          -7.188
REMARK INTER:                  -6.885
REMARK INTRA:                  -0.303
REMARK UNBOUND:                -0.308
REMARK SMILES Oc1ccc(-c2[o+]c3cc(O)cc(O)c3cc2O)cc1.[Cl-]
REMARK SMILES IDX 6 1 7 2 8 3 9 4 10 5 12 6 13 7 15 8 16 9 17 10 5 11 4 12
REMARK SMILES IDX 3 13 2 14 19 15 20 16 1 17 18 19 11 21 14 23
REMARK H PARENT 1 18 18 20 11 22 14 24
REMARK Flexibility Score: inf
ROOT
ATOM      1  C   UNL     1     -28.076  19.051   1.006  1.00  0.00     0.401 A 
ATOM      2  O   UNL     1     -28.922  19.645   0.166  1.00  0.00    -0.202 OA
ATOM      3  C   UNL     1     -29.260  19.131  -1.012  1.00  0.00     0.368 A 
ATOM      4  C   UNL     1     -30.153  19.819  -1.839  1.00  0.00     0.162 A 
ATOM      5  C   UNL     1     -30.515  19.290  -3.081  1.00  0.00     0.128 A 
ATOM      6  C   UNL     1     -29.980  18.064  -3.502  1.00  0.00     0.093 A 
ATOM      7  C   UNL     1     -29.084  17.362  -2.683  1.00  0.00     0.136 A 
ATOM      8  C   UNL     1     -28.721  17.895  -1.432  1.00  0.00     0.125 A 
ATOM      9  C   UNL     1     -27.838  17.234  -0.571  1.00  0.00     0.078 A 
ATOM     10  C   UNL     1     -27.515  17.804   0.665  1.00  0.00     0.223 A 
ENDROOT
BRANCH   1  11
ATOM     11  C   UNL     1     -27.770  19.729   2.286  1.00  0.00     0.084 A 
ATOM     12  C   UNL     1     -28.496  19.386   3.440  1.00  0.00     0.022 A 
ATOM     13  C   UNL     1     -28.237  20.027   4.655  1.00  0.00     0.047 A 
ATOM     14  C   UNL     1     -27.262  21.030   4.729  1.00  0.00     0.115 A 
ATOM     15  C   UNL     1     -26.806  20.750   2.365  1.00  0.00     0.022 A 
ATOM     16  C   UNL     1     -26.551  21.391   3.581  1.00  0.00     0.047 A 
BRANCH  14  17
ATOM     17  O   UNL     1     -26.996  21.676   5.934  1.00  0.00    -0.508 OA
ATOM     18  H   UNL     1     -27.314  22.622   6.109  1.00  0.00     0.293 HD
ENDBRANCH  14  17
ENDBRANCH   1  11
BRANCH  10  19
ATOM     19  O   UNL     1     -26.676  17.126   1.549  1.00  0.00    -0.500 OA
ATOM     20  H   UNL     1     -25.672  17.268   1.543  1.00  0.00     0.294 HD
ENDBRANCH  10  19
BRANCH   5  21
ATOM     21  O   UNL     1     -31.405  19.991  -3.892  1.00  0.00    -0.507 OA
ATOM     22  H   UNL     1     -32.272  19.574  -4.212  1.00  0.00     0.293 HD
ENDBRANCH   5  21
BRANCH   7  23
ATOM     23  O   UNL     1     -28.559  16.141  -3.111  1.00  0.00    -0.507 OA
ATOM     24  H   UNL     1     -29.114  15.294  -3.107  1.00  0.00     0.293 HD
ENDBRANCH   7  23
TORSDOF 5
ENDMDL
MODEL 8
REMARK VINA RESULT:    -5.758      2.832      3.447
REMARK INTER + INTRA:          -7.076
REMARK INTER:                  -6.875
REMARK INTRA:                  -0.201
REMARK UNBOUND:                -0.308
REMARK SMILES Oc1ccc(-c2[o+]c3cc(O)cc(O)c3cc2O)cc1.[Cl-]
REMARK SMILES IDX 6 1 7 2 8 3 9 4 10 5 12 6 13 7 15 8 16 9 17 10 5 11 4 12
REMARK SMILES IDX 3 13 2 14 19 15 20 16 1 17 18 19 11 21 14 23
REMARK H PARENT 1 18 18 20 11 22 14 24
REMARK Flexibility Score: inf
ROOT
ATOM      1  C   UNL     1     -28.074  17.498  -1.175  1.00  0.00     0.401 A 
ATOM      2  O   UNL     1     -27.915  16.852  -0.021  1.00  0.00    -0.202 OA
ATOM      3  C   UNL     1     -27.836  17.469   1.154  1.00  0.00     0.368 A 
ATOM      4  C   UNL     1     -27.664  16.719   2.320  1.00  0.00     0.162 A 
ATOM      5  C   UNL     1     -27.576  17.355   3.562  1.00  0.00     0.128 A 
ATOM      6  C   UNL     1     -27.661  18.753   3.639  1.00  0.00     0.093 A 
ATOM      7  C   UNL     1     -27.834  19.519   2.477  1.00  0.00     0.136 A 
ATOM      8  C   UNL     1     -27.922  18.876   1.228  1.00  0.00     0.125 A 
ATOM      9  C   UNL     1     -28.103  19.590   0.037  1.00  0.00     0.078 A 
ATOM     10  C   UNL     1     -28.192  18.903  -1.178  1.00  0.00     0.223 A 
ENDROOT
BRANCH   1  11
ATOM     11  C   UNL     1     -28.138  16.700  -2.420  1.00  0.00     0.084 A 
ATOM     12  C   UNL     1     -26.973  16.080  -2.905  1.00  0.00     0.022 A 
ATOM     13  C   UNL     1     -27.007  15.340  -4.089  1.00  0.00     0.047 A 
ATOM     14  C   UNL     1     -28.200  15.222  -4.814  1.00  0.00     0.115 A 
ATOM     15  C   UNL     1     -29.328  16.592  -3.163  1.00  0.00     0.022 A 
ATOM     16  C   UNL     1     -29.358  15.851  -4.349  1.00  0.00     0.047 A 
BRANCH  14  17
ATOM     17  O   UNL     1     -28.245  14.485  -5.995  1.00  0.00    -0.508 OA
ATOM     18  H   UNL     1     -27.851  14.844  -6.858  1.00  0.00     0.293 HD
ENDBRANCH  14  17
ENDBRANCH   1  11
BRANCH  10  19
ATOM     19  O   UNL     1     -28.422  19.603  -2.361  1.00  0.00    -0.500 OA
ATOM     20  H   UNL     1     -27.660  19.935  -2.940  1.00  0.00     0.294 HD
ENDBRANCH  10  19
BRANCH   5  21
ATOM     21  O   UNL     1     -27.405  16.591   4.715  1.00  0.00    -0.507 OA
ATOM     22  H   UNL     1     -26.643  15.928   4.802  1.00  0.00     0.293 HD
ENDBRANCH   5  21
BRANCH   7  23
ATOM     23  O   UNL     1     -27.918  20.909   2.565  1.00  0.00    -0.507 OA
ATOM     24  H   UNL     1     -28.494  21.363   3.265  1.00  0.00     0.293 HD
ENDBRANCH   7  23
TORSDOF 5
ENDMDL
MODEL 9
REMARK VINA RESULT:    -5.505      3.097      3.782
REMARK INTER + INTRA:          -6.779
REMARK INTER:                  -6.465
REMARK INTRA:                  -0.313
REMARK UNBOUND:                -0.308
REMARK SMILES Oc1ccc(-c2[o+]c3cc(O)cc(O)c3cc2O)cc1.[Cl-]
REMARK SMILES IDX 6 1 7 2 8 3 9 4 10 5 12 6 13 7 15 8 16 9 17 10 5 11 4 12
REMARK SMILES IDX 3 13 2 14 19 15 20 16 1 17 18 19 11 21 14 23
REMARK H PARENT 1 18 18 20 11 22 14 24
REMARK Flexibility Score: inf
ROOT
ATOM      1  C   UNL     1     -28.703  16.677  -1.280  1.00  0.00     0.401 A 
ATOM      2  O   UNL     1     -29.104  15.863  -0.306  1.00  0.00    -0.202 OA
ATOM      3  C   UNL     1     -29.288  16.263   0.948  1.00  0.00     0.368 A 
ATOM      4  C   UNL     1     -29.707  15.344   1.914  1.00  0.00     0.162 A 
ATOM      5  C   UNL     1     -29.902  15.751   3.237  1.00  0.00     0.128 A 
ATOM      6  C   UNL     1     -29.676  17.087   3.599  1.00  0.00     0.093 A 
ATOM      7  C   UNL     1     -29.255  18.020   2.640  1.00  0.00     0.136 A 
ATOM      8  C   UNL     1     -29.060  17.609   1.308  1.00  0.00     0.125 A 
ATOM      9  C   UNL     1     -28.649  18.499   0.308  1.00  0.00     0.078 A 
ATOM     10  C   UNL     1     -28.477  18.040  -1.002  1.00  0.00     0.223 A 
ENDROOT
BRANCH   1  11
ATOM     11  C   UNL     1     -28.524  16.111  -2.637  1.00  0.00     0.084 A 
ATOM     12  C   UNL     1     -27.244  15.707  -3.054  1.00  0.00     0.022 A 
ATOM     13  C   UNL     1     -27.049  15.189  -4.337  1.00  0.00     0.047 A 
ATOM     14  C   UNL     1     -28.126  15.083  -5.226  1.00  0.00     0.115 A 
ATOM     15  C   UNL     1     -29.597  16.018  -3.542  1.00  0.00     0.022 A 
ATOM     16  C   UNL     1     -29.398  15.501  -4.825  1.00  0.00     0.047 A 
BRANCH  14  17
ATOM     17  O   UNL     1     -27.943  14.568  -6.507  1.00  0.00    -0.508 OA
ATOM     18  H   UNL     1     -28.482  14.907  -7.296  1.00  0.00     0.293 HD
ENDBRANCH  14  17
ENDBRANCH   1  11
BRANCH  10  19
ATOM     19  O   UNL     1     -28.117  18.932  -2.012  1.00  0.00    -0.500 OA
ATOM     20  H   UNL     1     -27.166  18.986  -2.359  1.00  0.00     0.294 HD
ENDBRANCH  10  19
BRANCH   5  21
ATOM     21  O   UNL     1     -30.320  14.821   4.187  1.00  0.00    -0.507 OA
ATOM     22  H   UNL     1     -31.207  14.339   4.102  1.00  0.00     0.293 HD
ENDBRANCH   5  21
BRANCH   7  23
ATOM     23  O   UNL     1     -29.034  19.348   3.010  1.00  0.00    -0.507 OA
ATOM     24  H   UNL     1     -28.343  19.596   3.708  1.00  0.00     0.293 HD
ENDBRANCH   7  23
TORSDOF 5
ENDMDL
