MODEL 1
REMARK VINA RESULT:    -5.682      0.000      0.000
REMARK INTER + INTRA:         -14.877
REMARK INTER:                 -11.993
REMARK INTRA:                  -2.884
REMARK UNBOUND:                -2.884
REMARK SMILES CCC(=O)CCCCC[C@H]1NC(=O)[C@@H]2CCCCN2C(=O)[C@H]([C@@H](C)CC)NC(=O)[C@@H](Cc2cn(OC)c3ccccc23)NC1=O
REMARK SMILES IDX 9 1 10 2 44 3 43 4 45 6 30 7 28 8 27 9 29 11 22 12 23 14
REMARK SMILES IDX 24 15 25 16 26 17 31 18 32 19 33 20 42 21 34 22 37 23 41 24
REMARK SMILES IDX 38 25 40 26 39 27 35 28 36 29 11 30 12 31 13 33 14 34 19 35
REMARK SMILES IDX 15 36 18 37 16 38 17 39 20 40 21 41 8 43 7 44 6 45 5 46 3 47
REMARK SMILES IDX 4 48 2 49 1 50
REMARK H PARENT 43 5 27 10 11 32
REMARK Flexibility Score: 80.00
ROOT
ATOM      1  C   UNL     1      22.353 -34.191  24.703  1.00  0.00     0.035 C 
ENDROOT
BRANCH   1   2
ATOM      2  C   UNL     1      21.338 -33.022  24.694  1.00  0.00     0.171 C 
BRANCH   2   3
ATOM      3  C   UNL     1      20.930 -32.585  23.315  1.00  0.00     0.243 C 
ATOM      4  N   UNL     1      19.941 -31.547  23.168  1.00  0.00    -0.342 N 
ATOM      5  H   UNL     1      19.452 -31.192  24.025  1.00  0.00     0.164 HD
ATOM      6  O   UNL     1      21.490 -33.083  22.301  1.00  0.00    -0.273 OA
BRANCH   4   7
ATOM      7  C   UNL     1      19.667 -30.848  21.905  1.00  0.00     0.175 C 
BRANCH   7   8
ATOM      8  C   UNL     1      20.747 -29.825  21.651  1.00  0.00     0.243 C 
ATOM      9  N   UNL     1      21.390 -29.211  22.777  1.00  0.00    -0.342 N 
ATOM     10  H   UNL     1      20.839 -29.121  23.662  1.00  0.00     0.164 HD
ATOM     11  O   UNL     1      21.146 -29.585  20.486  1.00  0.00    -0.273 OA
BRANCH   9  12
ATOM     12  C   UNL     1      22.834 -28.946  22.802  1.00  0.00     0.174 CG0
ATOM     13  G   UNL     1      23.414 -29.353  24.145  1.00  0.00     0.000 G0
BRANCH  12  14
ATOM     14  C   UNL     1      23.142 -27.460  22.407  1.00  0.00     0.018 C 
ATOM     15  C   UNL     1      23.768 -27.412  21.002  1.00  0.00     0.010 C 
BRANCH  14  16
ATOM     16  C   UNL     1      21.904 -26.548  22.496  1.00  0.00     0.002 C 
ATOM     17  C   UNL     1      21.409 -26.049  21.131  1.00  0.00     0.004 C 
ENDBRANCH  14  16
ENDBRANCH  12  14
ENDBRANCH   9  12
ENDBRANCH   7   8
BRANCH   7  18
ATOM     18  C   UNL     1      19.480 -31.856  20.748  1.00  0.00     0.073 C 
BRANCH  18  19
ATOM     19  C   UNL     1      18.110 -32.474  20.799  1.00  0.00    -0.016 A 
ATOM     20  C   UNL     1      16.948 -31.870  21.275  1.00  0.00     0.134 A 
ATOM     21  C   UNL     1      17.766 -33.783  20.502  1.00  0.00     0.006 A 
ATOM     22  N   UNL     1      15.933 -32.767  21.272  1.00  0.00    -0.191 N 
ATOM     23  C   UNL     1      16.430 -33.924  20.800  1.00  0.00     0.087 A 
ATOM     24  C   UNL     1      18.521 -34.841  19.997  1.00  0.00     0.011 A 
ATOM     25  C   UNL     1      15.760 -35.135  20.612  1.00  0.00     0.030 A 
ATOM     26  C   UNL     1      17.878 -36.074  19.808  1.00  0.00     0.001 A 
ATOM     27  C   UNL     1      16.503 -36.216  20.101  1.00  0.00     0.002 A 
BRANCH  22  28
ATOM     28  O   UNL     1      14.630 -32.569  21.698  1.00  0.00    -0.417 OA
ATOM     29  C   UNL     1      13.598 -32.166  20.804  1.00  0.00     0.313 C 
ENDBRANCH  22  28
ENDBRANCH  18  19
ENDBRANCH   7  18
ENDBRANCH   4   7
ENDBRANCH   2   3
BRANCH   2  30
ATOM     30  N   UNL     1      21.755 -31.838  25.469  1.00  0.00    -0.343 N 
ATOM     31  C   UNL     1      23.031 -31.592  26.089  1.00  0.00     0.243 C 
ATOM     32  H   UNL     1      20.959 -31.271  25.857  1.00  0.00     0.164 HD
ATOM     33  O   UNL     1      23.045 -31.408  27.337  1.00  0.00    -0.273 OA
BRANCH  31  34
ATOM     34  C   UNL     1      24.338 -31.497  25.308  1.00  0.00     0.174 C 
ATOM     35  N   UNL     1      24.397 -30.431  24.281  1.00  0.00    -0.329 N 
ATOM     36  C   UNL     1      25.558 -31.339  26.243  1.00  0.00     0.035 C 
ATOM     37  C   UNL     1      25.599 -30.369  23.428  1.00  0.00     0.120 C 
ATOM     38  C   UNL     1      26.887 -31.112  25.480  1.00  0.00     0.004 C 
ATOM     39  C   UNL     1      26.738 -31.252  23.958  1.00  0.00     0.022 C 
BRANCH  35  40
ATOM     40  C   UNL     1      23.426 -29.362  24.175  1.00  0.00     0.246 CG0
ATOM     41  O   UNL     1      23.058 -28.744  25.213  1.00  0.00    -0.272 OA
ATOM     42  G   UNL     1      22.845 -28.956  22.831  1.00  0.00     0.000 G0
ENDBRANCH  35  40
ENDBRANCH  31  34
ENDBRANCH   2  30
ENDBRANCH   1   2
BRANCH   1  43
ATOM     43  C   UNL     1      21.843 -35.418  25.508  1.00  0.00     0.003 C 
BRANCH  43  44
ATOM     44  C   UNL     1      20.315 -35.584  25.502  1.00  0.00     0.001 C 
BRANCH  44  45
ATOM     45  C   UNL     1      19.792 -36.279  24.232  1.00  0.00     0.008 C 
BRANCH  45  46
ATOM     46  C   UNL     1      18.410 -35.757  23.810  1.00  0.00     0.075 C 
BRANCH  46  47
ATOM     47  C   UNL     1      17.407 -35.802  24.930  1.00  0.00     0.132 C 
ATOM     48  O   UNL     1      17.153 -36.876  25.457  1.00  0.00    -0.300 OA
BRANCH  47  49
ATOM     49  C   UNL     1      16.765 -34.524  25.411  1.00  0.00     0.072 C 
ATOM     50  C   UNL     1      17.243 -33.285  24.656  1.00  0.00     0.012 C 
ENDBRANCH  47  49
ENDBRANCH  46  47
ENDBRANCH  45  46
ENDBRANCH  44  45
ENDBRANCH  43  44
ENDBRANCH   1  43
TORSDOF 12
ENDMDL
MODEL 2
REMARK VINA RESULT:    -5.652      2.595      9.348
REMARK INTER + INTRA:         -14.814
REMARK INTER:                 -12.729
REMARK INTRA:                  -2.086
REMARK UNBOUND:                -2.884
REMARK SMILES CCC(=O)CCCCC[C@H]1NC(=O)[C@@H]2CCCCN2C(=O)[C@H]([C@@H](C)CC)NC(=O)[C@@H](Cc2cn(OC)c3ccccc23)NC1=O
REMARK SMILES IDX 9 1 10 2 44 3 43 4 45 6 30 7 28 8 27 9 29 11 22 12 23 14
REMARK SMILES IDX 24 15 25 16 26 17 31 18 32 19 33 20 42 21 34 22 37 23 41 24
REMARK SMILES IDX 38 25 40 26 39 27 35 28 36 29 11 30 12 31 13 33 14 34 19 35
REMARK SMILES IDX 15 36 18 37 16 38 17 39 20 40 21 41 8 43 7 44 6 45 5 46 3 47
REMARK SMILES IDX 4 48 2 49 1 50
REMARK H PARENT 43 5 27 10 11 32
REMARK Flexibility Score: 80.00
ROOT
ATOM      1  C   UNL     1      18.544 -30.696  21.611  1.00  0.00     0.035 C 
ENDROOT
BRANCH   1   2
ATOM      2  C   UNL     1      18.490 -31.049  23.117  1.00  0.00     0.171 C 
BRANCH   2   3
ATOM      3  C   UNL     1      19.632 -31.909  23.579  1.00  0.00     0.243 C 
ATOM      4  N   UNL     1      19.938 -31.980  24.986  1.00  0.00    -0.342 N 
ATOM      5  H   UNL     1      19.424 -31.348  25.645  1.00  0.00     0.164 HD
ATOM      6  O   UNL     1      20.279 -32.605  22.749  1.00  0.00    -0.273 OA
BRANCH   4   7
ATOM      7  C   UNL     1      20.832 -32.982  25.582  1.00  0.00     0.175 C 
BRANCH   7   8
ATOM      8  C   UNL     1      20.303 -34.365  25.291  1.00  0.00     0.243 C 
ATOM      9  N   UNL     1      18.883 -34.555  25.211  1.00  0.00    -0.342 N 
ATOM     10  H   UNL     1      18.275 -33.914  25.771  1.00  0.00     0.164 HD
ATOM     11  O   UNL     1      21.083 -35.312  25.026  1.00  0.00    -0.273 OA
BRANCH   9  12
ATOM     12  C   UNL     1      18.268 -35.426  24.202  1.00  0.00     0.174 CG0
ATOM     13  G   UNL     1      16.999 -34.785  23.667  1.00  0.00     0.000 G0
BRANCH  12  14
ATOM     14  C   UNL     1      18.053 -36.875  24.762  1.00  0.00     0.018 C 
ATOM     15  C   UNL     1      19.124 -37.820  24.189  1.00  0.00     0.010 C 
BRANCH  14  16
ATOM     16  C   UNL     1      18.034 -36.924  26.302  1.00  0.00     0.002 C 
ATOM     17  C   UNL     1      17.424 -38.215  26.868  1.00  0.00     0.004 C 
ENDBRANCH  14  16
ENDBRANCH  12  14
ENDBRANCH   9  12
ENDBRANCH   7   8
BRANCH   7  18
ATOM     18  C   UNL     1      22.290 -32.764  25.117  1.00  0.00     0.073 C 
BRANCH  18  19
ATOM     19  C   UNL     1      22.830 -31.468  25.658  1.00  0.00    -0.016 A 
ATOM     20  C   UNL     1      23.189 -31.209  26.979  1.00  0.00     0.134 A 
ATOM     21  C   UNL     1      22.958 -30.264  24.985  1.00  0.00     0.006 A 
ATOM     22  N   UNL     1      23.523 -29.903  27.114  1.00  0.00    -0.191 N 
ATOM     23  C   UNL     1      23.384 -29.333  25.904  1.00  0.00     0.087 A 
ATOM     24  C   UNL     1      22.733 -29.928  23.650  1.00  0.00     0.011 A 
ATOM     25  C   UNL     1      23.616 -28.003  25.548  1.00  0.00     0.030 A 
ATOM     26  C   UNL     1      22.947 -28.595  23.264  1.00  0.00     0.001 A 
ATOM     27  C   UNL     1      23.399 -27.642  24.204  1.00  0.00     0.002 A 
BRANCH  22  28
ATOM     28  O   UNL     1      23.904 -29.244  28.271  1.00  0.00    -0.417 OA
ATOM     29  C   UNL     1      25.245 -28.819  28.488  1.00  0.00     0.313 C 
ENDBRANCH  22  28
ENDBRANCH  18  19
ENDBRANCH   7  18
ENDBRANCH   4   7
ENDBRANCH   2   3
BRANCH   2  30
ATOM     30  N   UNL     1      17.222 -31.656  23.562  1.00  0.00    -0.343 N 
ATOM     31  C   UNL     1      16.130 -32.119  22.746  1.00  0.00     0.243 C 
ATOM     32  H   UNL     1      16.969 -31.451  24.562  1.00  0.00     0.164 HD
ATOM     33  O   UNL     1      15.000 -31.587  22.931  1.00  0.00    -0.273 OA
BRANCH  31  34
ATOM     34  C   UNL     1      16.265 -33.241  21.721  1.00  0.00     0.174 C 
ATOM     35  N   UNL     1      16.820 -34.516  22.234  1.00  0.00    -0.329 N 
ATOM     36  C   UNL     1      14.924 -33.544  21.017  1.00  0.00     0.035 C 
ATOM     37  C   UNL     1      17.070 -35.594  21.259  1.00  0.00     0.120 C 
ATOM     38  C   UNL     1      14.997 -34.762  20.062  1.00  0.00     0.004 C 
ATOM     39  C   UNL     1      16.421 -35.311  19.896  1.00  0.00     0.022 C 
BRANCH  35  40
ATOM     40  C   UNL     1      16.978 -34.816  23.642  1.00  0.00     0.246 CG0
ATOM     41  O   UNL     1      16.030 -34.582  24.444  1.00  0.00    -0.272 OA
ATOM     42  G   UNL     1      18.264 -35.422  24.178  1.00  0.00     0.000 G0
ENDBRANCH  35  40
ENDBRANCH  31  34
ENDBRANCH   2  30
ENDBRANCH   1   2
BRANCH   1  43
ATOM     43  C   UNL     1      19.716 -29.737  21.264  1.00  0.00     0.003 C 
BRANCH  43  44
ATOM     44  C   UNL     1      19.280 -28.432  20.580  1.00  0.00     0.001 C 
BRANCH  44  45
ATOM     45  C   UNL     1      19.772 -27.175  21.320  1.00  0.00     0.008 C 
BRANCH  45  46
ATOM     46  C   UNL     1      20.430 -26.161  20.371  1.00  0.00     0.075 C 
BRANCH  46  47
ATOM     47  C   UNL     1      21.858 -25.863  20.740  1.00  0.00     0.132 C 
ATOM     48  O   UNL     1      22.113 -25.500  21.879  1.00  0.00    -0.300 OA
BRANCH  47  49
ATOM     49  C   UNL     1      22.951 -26.057  19.718  1.00  0.00     0.072 C 
ATOM     50  C   UNL     1      23.968 -27.126  20.115  1.00  0.00     0.012 C 
ENDBRANCH  47  49
ENDBRANCH  46  47
ENDBRANCH  45  46
ENDBRANCH  44  45
ENDBRANCH  43  44
ENDBRANCH   1  43
TORSDOF 12
ENDMDL
MODEL 3
REMARK VINA RESULT:    -5.581      2.824      7.601
REMARK INTER + INTRA:         -14.664
REMARK INTER:                 -12.524
REMARK INTRA:                  -2.140
REMARK UNBOUND:                -2.884
REMARK SMILES CCC(=O)CCCCC[C@H]1NC(=O)[C@@H]2CCCCN2C(=O)[C@H]([C@@H](C)CC)NC(=O)[C@@H](Cc2cn(OC)c3ccccc23)NC1=O
REMARK SMILES IDX 9 1 10 2 44 3 43 4 45 6 30 7 28 8 27 9 29 11 22 12 23 14
REMARK SMILES IDX 24 15 25 16 26 17 31 18 32 19 33 20 42 21 34 22 37 23 41 24
REMARK SMILES IDX 38 25 40 26 39 27 35 28 36 29 11 30 12 31 13 33 14 34 19 35
REMARK SMILES IDX 15 36 18 37 16 38 17 39 20 40 21 41 8 43 7 44 6 45 5 46 3 47
REMARK SMILES IDX 4 48 2 49 1 50
REMARK H PARENT 43 5 27 10 11 32
REMARK Flexibility Score: 80.00
ROOT
ATOM      1  C   UNL     1      22.702 -34.911  24.926  1.00  0.00     0.035 C 
ENDROOT
BRANCH   1   2
ATOM      2  C   UNL     1      22.084 -34.979  23.508  1.00  0.00     0.171 C 
BRANCH   2   3
ATOM      3  C   UNL     1      21.091 -33.888  23.226  1.00  0.00     0.243 C 
ATOM      4  N   UNL     1      21.062 -33.280  21.919  1.00  0.00    -0.342 N 
ATOM      5  H   UNL     1      21.805 -33.540  21.227  1.00  0.00     0.164 HD
ATOM      6  O   UNL     1      20.254 -33.548  24.107  1.00  0.00    -0.273 OA
BRANCH   4   7
ATOM      7  C   UNL     1      19.974 -32.416  21.440  1.00  0.00     0.175 C 
BRANCH   7   8
ATOM      8  C   UNL     1      18.771 -33.263  21.105  1.00  0.00     0.243 C 
ATOM      9  N   UNL     1      18.868 -34.686  21.254  1.00  0.00    -0.342 N 
ATOM     10  H   UNL     1      19.812 -35.122  21.138  1.00  0.00     0.164 HD
ATOM     11  O   UNL     1      17.675 -32.732  20.798  1.00  0.00    -0.273 OA
BRANCH   9  12
ATOM     12  C   UNL     1      17.767 -35.491  21.798  1.00  0.00     0.174 CG0
ATOM     13  G   UNL     1      18.318 -36.583  22.698  1.00  0.00     0.000 G0
BRANCH  12  14
ATOM     14  C   UNL     1      16.840 -36.026  20.652  1.00  0.00     0.018 C 
ATOM     15  C   UNL     1      15.595 -35.130  20.527  1.00  0.00     0.010 C 
BRANCH  14  16
ATOM     16  C   UNL     1      17.570 -36.156  19.302  1.00  0.00     0.002 C 
ATOM     17  C   UNL     1      17.706 -37.605  18.814  1.00  0.00     0.004 C 
ENDBRANCH  14  16
ENDBRANCH  12  14
ENDBRANCH   9  12
ENDBRANCH   7   8
BRANCH   7  18
ATOM     18  C   UNL     1      19.680 -31.288  22.455  1.00  0.00     0.073 C 
BRANCH  18  19
ATOM     19  C   UNL     1      20.580 -30.108  22.212  1.00  0.00    -0.016 A 
ATOM     20  C   UNL     1      20.380 -29.094  21.277  1.00  0.00     0.134 A 
ATOM     21  C   UNL     1      21.823 -29.869  22.774  1.00  0.00     0.006 A 
ATOM     22  N   UNL     1      21.452 -28.267  21.264  1.00  0.00    -0.191 N 
ATOM     23  C   UNL     1      22.324 -28.737  22.174  1.00  0.00     0.087 A 
ATOM     24  C   UNL     1      22.536 -30.556  23.757  1.00  0.00     0.011 A 
ATOM     25  C   UNL     1      23.573 -28.214  22.518  1.00  0.00     0.030 A 
ATOM     26  C   UNL     1      23.801 -30.061  24.116  1.00  0.00     0.001 A 
ATOM     27  C   UNL     1      24.309 -28.890  23.510  1.00  0.00     0.002 A 
BRANCH  22  28
ATOM     28  O   UNL     1      21.656 -27.161  20.455  1.00  0.00    -0.417 OA
ATOM     29  C   UNL     1      20.600 -26.263  20.130  1.00  0.00     0.313 C 
ENDBRANCH  22  28
ENDBRANCH  18  19
ENDBRANCH   7  18
ENDBRANCH   4   7
ENDBRANCH   2   3
BRANCH   2  30
ATOM     30  N   UNL     1      21.480 -36.279  23.162  1.00  0.00    -0.343 N 
ATOM     31  C   UNL     1      20.861 -37.230  24.048  1.00  0.00     0.243 C 
ATOM     32  H   UNL     1      21.803 -36.678  22.243  1.00  0.00     0.164 HD
ATOM     33  O   UNL     1      21.356 -38.390  24.095  1.00  0.00    -0.273 OA
BRANCH  31  34
ATOM     34  C   UNL     1      19.621 -36.916  24.880  1.00  0.00     0.174 C 
ATOM     35  N   UNL     1      18.424 -36.494  24.116  1.00  0.00    -0.329 N 
ATOM     36  C   UNL     1      19.223 -38.099  25.791  1.00  0.00     0.035 C 
ATOM     37  C   UNL     1      17.235 -36.077  24.884  1.00  0.00     0.120 C 
ATOM     38  C   UNL     1      17.897 -37.863  26.556  1.00  0.00     0.004 C 
ATOM     39  C   UNL     1      17.343 -36.443  26.371  1.00  0.00     0.022 C 
BRANCH  35  40
ATOM     40  C   UNL     1      18.302 -36.618  22.679  1.00  0.00     0.246 CG0
ATOM     41  O   UNL     1      18.637 -37.696  22.112  1.00  0.00    -0.272 OA
ATOM     42  G   UNL     1      17.766 -35.476  21.832  1.00  0.00     0.000 G0
ENDBRANCH  35  40
ENDBRANCH  31  34
ENDBRANCH   2  30
ENDBRANCH   1   2
BRANCH   1  43
ATOM     43  C   UNL     1      24.088 -34.210  24.940  1.00  0.00     0.003 C 
BRANCH  43  44
ATOM     44  C   UNL     1      24.205 -33.068  25.961  1.00  0.00     0.001 C 
BRANCH  44  45
ATOM     45  C   UNL     1      23.155 -33.156  27.084  1.00  0.00     0.008 C 
BRANCH  45  46
ATOM     46  C   UNL     1      21.849 -32.436  26.717  1.00  0.00     0.075 C 
BRANCH  46  47
ATOM     47  C   UNL     1      21.462 -31.387  27.723  1.00  0.00     0.132 C 
ATOM     48  O   UNL     1      21.730 -31.568  28.902  1.00  0.00    -0.300 OA
BRANCH  47  49
ATOM     49  C   UNL     1      20.793 -30.116  27.259  1.00  0.00     0.072 C 
ATOM     50  C   UNL     1      20.049 -29.383  28.374  1.00  0.00     0.012 C 
ENDBRANCH  47  49
ENDBRANCH  46  47
ENDBRANCH  45  46
ENDBRANCH  44  45
ENDBRANCH  43  44
ENDBRANCH   1  43
TORSDOF 12
ENDMDL
MODEL 4
REMARK VINA RESULT:    -5.550      2.802      7.788
REMARK INTER + INTRA:         -14.599
REMARK INTER:                 -12.958
REMARK INTRA:                  -1.641
REMARK UNBOUND:                -2.884
REMARK SMILES CCC(=O)CCCCC[C@H]1NC(=O)[C@@H]2CCCCN2C(=O)[C@H]([C@@H](C)CC)NC(=O)[C@@H](Cc2cn(OC)c3ccccc23)NC1=O
REMARK SMILES IDX 9 1 10 2 44 3 43 4 45 6 30 7 28 8 27 9 29 11 22 12 23 14
REMARK SMILES IDX 24 15 25 16 26 17 31 18 32 19 33 20 42 21 34 22 37 23 41 24
REMARK SMILES IDX 38 25 40 26 39 27 35 28 36 29 11 30 12 31 13 33 14 34 19 35
REMARK SMILES IDX 15 36 18 37 16 38 17 39 20 40 21 41 8 43 7 44 6 45 5 46 3 47
REMARK SMILES IDX 4 48 2 49 1 50
REMARK H PARENT 43 5 27 10 11 32
REMARK Flexibility Score: 80.00
ROOT
ATOM      1  C   UNL     1      22.701 -35.017  24.790  1.00  0.00     0.035 C 
ENDROOT
BRANCH   1   2
ATOM      2  C   UNL     1      22.008 -35.073  23.407  1.00  0.00     0.171 C 
BRANCH   2   3
ATOM      3  C   UNL     1      21.053 -33.939  23.162  1.00  0.00     0.243 C 
ATOM      4  N   UNL     1      21.033 -33.300  21.870  1.00  0.00    -0.342 N 
ATOM      5  H   UNL     1      21.758 -33.571  21.163  1.00  0.00     0.164 HD
ATOM      6  O   UNL     1      20.239 -33.590  24.060  1.00  0.00    -0.273 OA
BRANCH   4   7
ATOM      7  C   UNL     1      19.973 -32.386  21.423  1.00  0.00     0.175 C 
BRANCH   7   8
ATOM      8  C   UNL     1      18.720 -33.174  21.128  1.00  0.00     0.243 C 
ATOM      9  N   UNL     1      18.751 -34.599  21.288  1.00  0.00    -0.342 N 
ATOM     10  H   UNL     1      19.668 -35.083  21.152  1.00  0.00     0.164 HD
ATOM     11  O   UNL     1      17.645 -32.592  20.845  1.00  0.00    -0.273 OA
BRANCH   9  12
ATOM     12  C   UNL     1      17.627 -35.343  21.869  1.00  0.00     0.174 CG0
ATOM     13  G   UNL     1      18.147 -36.465  22.751  1.00  0.00     0.000 G0
BRANCH  12  14
ATOM     14  C   UNL     1      16.634 -35.827  20.755  1.00  0.00     0.018 C 
ATOM     15  C   UNL     1      15.420 -34.884  20.693  1.00  0.00     0.010 C 
BRANCH  14  16
ATOM     16  C   UNL     1      17.305 -35.963  19.375  1.00  0.00     0.002 C 
ATOM     17  C   UNL     1      17.619 -37.415  18.985  1.00  0.00     0.004 C 
ENDBRANCH  14  16
ENDBRANCH  12  14
ENDBRANCH   9  12
ENDBRANCH   7   8
BRANCH   7  18
ATOM     18  C   UNL     1      19.765 -31.244  22.444  1.00  0.00     0.073 C 
BRANCH  18  19
ATOM     19  C   UNL     1      20.967 -30.340  22.481  1.00  0.00    -0.016 A 
ATOM     20  C   UNL     1      22.109 -30.514  23.260  1.00  0.00     0.134 A 
ATOM     21  C   UNL     1      21.117 -29.115  21.853  1.00  0.00     0.006 A 
ATOM     22  N   UNL     1      22.927 -29.444  23.117  1.00  0.00    -0.191 N 
ATOM     23  C   UNL     1      22.325 -28.599  22.262  1.00  0.00     0.087 A 
ATOM     24  C   UNL     1      20.289 -28.430  20.963  1.00  0.00     0.011 A 
ATOM     25  C   UNL     1      22.787 -27.362  21.807  1.00  0.00     0.030 A 
ATOM     26  C   UNL     1      20.722 -27.178  20.496  1.00  0.00     0.001 A 
ATOM     27  C   UNL     1      21.969 -26.654  20.905  1.00  0.00     0.002 A 
BRANCH  22  28
ATOM     28  O   UNL     1      24.141 -29.219  23.745  1.00  0.00    -0.417 OA
ATOM     29  C   UNL     1      25.293 -30.006  23.460  1.00  0.00     0.313 C 
ENDBRANCH  22  28
ENDBRANCH  18  19
ENDBRANCH   7  18
ENDBRANCH   4   7
ENDBRANCH   2   3
BRANCH   2  30
ATOM     30  N   UNL     1      21.326 -36.347  23.112  1.00  0.00    -0.343 N 
ATOM     31  C   UNL     1      20.691 -37.246  24.040  1.00  0.00     0.243 C 
ATOM     32  H   UNL     1      21.596 -36.781  22.192  1.00  0.00     0.164 HD
ATOM     33  O   UNL     1      21.128 -38.429  24.096  1.00  0.00    -0.273 OA
BRANCH  31  34
ATOM     34  C   UNL     1      19.500 -36.851  24.907  1.00  0.00     0.174 C 
ATOM     35  N   UNL     1      18.304 -36.370  24.176  1.00  0.00    -0.329 N 
ATOM     36  C   UNL     1      19.064 -37.998  25.846  1.00  0.00     0.035 C 
ATOM     37  C   UNL     1      17.167 -35.876  24.974  1.00  0.00     0.120 C 
ATOM     38  C   UNL     1      17.780 -37.676  26.650  1.00  0.00     0.004 C 
ATOM     39  C   UNL     1      17.302 -36.229  26.463  1.00  0.00     0.022 C 
BRANCH  35  40
ATOM     40  C   UNL     1      18.128 -36.504  22.744  1.00  0.00     0.246 CG0
ATOM     41  O   UNL     1      18.376 -37.609  22.183  1.00  0.00    -0.272 OA
ATOM     42  G   UNL     1      17.638 -35.342  21.899  1.00  0.00     0.000 G0
ENDBRANCH  35  40
ENDBRANCH  31  34
ENDBRANCH   2  30
ENDBRANCH   1   2
BRANCH   1  43
ATOM     43  C   UNL     1      23.219 -33.595  25.142  1.00  0.00     0.003 C 
BRANCH  43  44
ATOM     44  C   UNL     1      23.065 -33.217  26.622  1.00  0.00     0.001 C 
BRANCH  44  45
ATOM     45  C   UNL     1      23.435 -31.750  26.908  1.00  0.00     0.008 C 
BRANCH  45  46
ATOM     46  C   UNL     1      22.243 -30.800  26.710  1.00  0.00     0.075 C 
BRANCH  46  47
ATOM     47  C   UNL     1      21.621 -30.371  28.011  1.00  0.00     0.132 C 
ATOM     48  O   UNL     1      22.166 -30.681  29.060  1.00  0.00    -0.300 OA
BRANCH  47  49
ATOM     49  C   UNL     1      20.366 -29.534  28.000  1.00  0.00     0.072 C 
ATOM     50  C   UNL     1      19.153 -30.269  27.431  1.00  0.00     0.012 C 
ENDBRANCH  47  49
ENDBRANCH  46  47
ENDBRANCH  45  46
ENDBRANCH  44  45
ENDBRANCH  43  44
ENDBRANCH   1  43
TORSDOF 12
ENDMDL
MODEL 5
REMARK VINA RESULT:    -5.526      2.857      9.044
REMARK INTER + INTRA:         -14.548
REMARK INTER:                 -12.925
REMARK INTRA:                  -1.623
REMARK UNBOUND:                -2.884
REMARK SMILES CCC(=O)CCCCC[C@H]1NC(=O)[C@@H]2CCCCN2C(=O)[C@H]([C@@H](C)CC)NC(=O)[C@@H](Cc2cn(OC)c3ccccc23)NC1=O
REMARK SMILES IDX 9 1 10 2 44 3 43 4 45 6 30 7 28 8 27 9 29 11 22 12 23 14
REMARK SMILES IDX 24 15 25 16 26 17 31 18 32 19 33 20 42 21 34 22 37 23 41 24
REMARK SMILES IDX 38 25 40 26 39 27 35 28 36 29 11 30 12 31 13 33 14 34 19 35
REMARK SMILES IDX 15 36 18 37 16 38 17 39 20 40 21 41 8 43 7 44 6 45 5 46 3 47
REMARK SMILES IDX 4 48 2 49 1 50
REMARK H PARENT 43 5 27 10 11 32
REMARK Flexibility Score: 80.00
ROOT
ATOM      1  C   UNL     1      18.811 -31.550  21.446  1.00  0.00     0.035 C 
ENDROOT
BRANCH   1   2
ATOM      2  C   UNL     1      18.371 -31.926  22.882  1.00  0.00     0.171 C 
BRANCH   2   3
ATOM      3  C   UNL     1      19.458 -32.560  23.703  1.00  0.00     0.243 C 
ATOM      4  N   UNL     1      19.443 -32.405  25.135  1.00  0.00    -0.342 N 
ATOM      5  H   UNL     1      18.732 -31.766  25.565  1.00  0.00     0.164 HD
ATOM      6  O   UNL     1      20.342 -33.268  23.146  1.00  0.00    -0.273 OA
BRANCH   4   7
ATOM      7  C   UNL     1      20.274 -33.194  26.056  1.00  0.00     0.175 C 
BRANCH   7   8
ATOM      8  C   UNL     1      20.338 -34.623  25.576  1.00  0.00     0.243 C 
ATOM      9  N   UNL     1      19.110 -35.339  25.380  1.00  0.00    -0.342 N 
ATOM     10  H   UNL     1      18.289 -35.063  25.968  1.00  0.00     0.164 HD
ATOM     11  O   UNL     1      21.433 -35.147  25.258  1.00  0.00    -0.273 OA
BRANCH   9  12
ATOM     12  C   UNL     1      18.905 -36.241  24.241  1.00  0.00     0.174 CG0
ATOM     13  G   UNL     1      17.751 -35.745  23.386  1.00  0.00     0.000 G0
BRANCH  12  14
ATOM     14  C   UNL     1      18.742 -37.726  24.719  1.00  0.00     0.018 C 
ATOM     15  C   UNL     1      19.946 -38.560  24.250  1.00  0.00     0.010 C 
BRANCH  14  16
ATOM     16  C   UNL     1      18.541 -37.845  26.242  1.00  0.00     0.002 C 
ATOM     17  C   UNL     1      17.091 -37.618  26.690  1.00  0.00     0.004 C 
ENDBRANCH  14  16
ENDBRANCH  12  14
ENDBRANCH   9  12
ENDBRANCH   7   8
BRANCH   7  18
ATOM     18  C   UNL     1      21.661 -32.538  26.244  1.00  0.00     0.073 C 
BRANCH  18  19
ATOM     19  C   UNL     1      21.517 -31.136  26.770  1.00  0.00    -0.016 A 
ATOM     20  C   UNL     1      20.565 -30.689  27.684  1.00  0.00     0.134 A 
ATOM     21  C   UNL     1      22.212 -30.009  26.361  1.00  0.00     0.006 A 
ATOM     22  N   UNL     1      20.669 -29.347  27.833  1.00  0.00    -0.191 N 
ATOM     23  C   UNL     1      21.669 -28.937  27.033  1.00  0.00     0.087 A 
ATOM     24  C   UNL     1      23.267 -29.854  25.463  1.00  0.00     0.011 A 
ATOM     25  C   UNL     1      22.147 -27.638  26.850  1.00  0.00     0.030 A 
ATOM     26  C   UNL     1      23.762 -28.557  25.249  1.00  0.00     0.001 A 
ATOM     27  C   UNL     1      23.214 -27.459  25.949  1.00  0.00     0.002 A 
BRANCH  22  28
ATOM     28  O   UNL     1      19.886 -28.522  28.624  1.00  0.00    -0.417 OA
ATOM     29  C   UNL     1      18.645 -28.958  29.168  1.00  0.00     0.313 C 
ENDBRANCH  22  28
ENDBRANCH  18  19
ENDBRANCH   7  18
ENDBRANCH   4   7
ENDBRANCH   2   3
BRANCH   2  30
ATOM     30  N   UNL     1      17.162 -32.768  22.955  1.00  0.00    -0.343 N 
ATOM     31  C   UNL     1      16.525 -33.494  21.887  1.00  0.00     0.243 C 
ATOM     32  H   UNL     1      16.546 -32.574  23.785  1.00  0.00     0.164 HD
ATOM     33  O   UNL     1      15.323 -33.207  21.626  1.00  0.00    -0.273 OA
BRANCH  31  34
ATOM     34  C   UNL     1      17.211 -34.609  21.104  1.00  0.00     0.174 C 
ATOM     35  N   UNL     1      17.906 -35.632  21.920  1.00  0.00    -0.329 N 
ATOM     36  C   UNL     1      16.233 -35.331  20.150  1.00  0.00     0.035 C 
ATOM     37  C   UNL     1      18.674 -36.670  21.206  1.00  0.00     0.120 C 
ATOM     38  C   UNL     1      16.865 -36.550  19.434  1.00  0.00     0.004 C 
ATOM     39  C   UNL     1      18.371 -36.688  19.700  1.00  0.00     0.022 C 
BRANCH  35  40
ATOM     40  C   UNL     1      17.745 -35.765  23.353  1.00  0.00     0.246 CG0
ATOM     41  O   UNL     1      16.631 -35.499  23.886  1.00  0.00    -0.272 OA
ATOM     42  G   UNL     1      18.891 -36.230  24.234  1.00  0.00     0.000 G0
ENDBRANCH  35  40
ENDBRANCH  31  34
ENDBRANCH   2  30
ENDBRANCH   1   2
BRANCH   1  43
ATOM     43  C   UNL     1      19.412 -30.120  21.361  1.00  0.00     0.003 C 
BRANCH  43  44
ATOM     44  C   UNL     1      20.939 -30.088  21.198  1.00  0.00     0.001 C 
BRANCH  44  45
ATOM     45  C   UNL     1      21.632 -29.164  22.216  1.00  0.00     0.008 C 
BRANCH  45  46
ATOM     46  C   UNL     1      22.281 -27.943  21.546  1.00  0.00     0.075 C 
BRANCH  46  47
ATOM     47  C   UNL     1      21.277 -26.896  21.151  1.00  0.00     0.132 C 
ATOM     48  O   UNL     1      20.204 -26.851  21.735  1.00  0.00    -0.300 OA
BRANCH  47  49
ATOM     49  C   UNL     1      21.623 -25.895  20.075  1.00  0.00     0.072 C 
ATOM     50  C   UNL     1      23.115 -25.848  19.750  1.00  0.00     0.012 C 
ENDBRANCH  47  49
ENDBRANCH  46  47
ENDBRANCH  45  46
ENDBRANCH  44  45
ENDBRANCH  43  44
ENDBRANCH   1  43
TORSDOF 12
ENDMDL
MODEL 6
REMARK VINA RESULT:    -5.523      1.559      1.941
REMARK INTER + INTRA:         -14.542
REMARK INTER:                 -11.577
REMARK INTRA:                  -2.966
REMARK UNBOUND:                -2.884
REMARK SMILES CCC(=O)CCCCC[C@H]1NC(=O)[C@@H]2CCCCN2C(=O)[C@H]([C@@H](C)CC)NC(=O)[C@@H](Cc2cn(OC)c3ccccc23)NC1=O
REMARK SMILES IDX 9 1 10 2 44 3 43 4 45 6 30 7 28 8 27 9 29 11 22 12 23 14
REMARK SMILES IDX 24 15 25 16 26 17 31 18 32 19 33 20 42 21 34 22 37 23 41 24
REMARK SMILES IDX 38 25 40 26 39 27 35 28 36 29 11 30 12 31 13 33 14 34 19 35
REMARK SMILES IDX 15 36 18 37 16 38 17 39 20 40 21 41 8 43 7 44 6 45 5 46 3 47
REMARK SMILES IDX 4 48 2 49 1 50
REMARK H PARENT 43 5 27 10 11 32
REMARK Flexibility Score: 80.00
ROOT
ATOM      1  C   UNL     1      22.278 -35.623  22.893  1.00  0.00     0.035 C 
ENDROOT
BRANCH   1   2
ATOM      2  C   UNL     1      21.443 -34.510  23.570  1.00  0.00     0.171 C 
BRANCH   2   3
ATOM      3  C   UNL     1      21.138 -33.347  22.669  1.00  0.00     0.243 C 
ATOM      4  N   UNL     1      20.009 -32.501  22.965  1.00  0.00    -0.342 N 
ATOM      5  H   UNL     1      19.365 -32.777  23.744  1.00  0.00     0.164 HD
ATOM      6  O   UNL     1      21.896 -33.083  21.696  1.00  0.00    -0.273 OA
BRANCH   4   7
ATOM      7  C   UNL     1      19.776 -31.194  22.335  1.00  0.00     0.175 C 
BRANCH   7   8
ATOM      8  C   UNL     1      21.035 -30.366  22.413  1.00  0.00     0.243 C 
ATOM      9  N   UNL     1      21.799 -30.388  23.627  1.00  0.00    -0.342 N 
ATOM     10  H   UNL     1      21.285 -30.571  24.520  1.00  0.00     0.164 HD
ATOM     11  O   UNL     1      21.462 -29.747  21.409  1.00  0.00    -0.273 OA
BRANCH   9  12
ATOM     12  C   UNL     1      23.267 -30.417  23.625  1.00  0.00     0.174 CG0
ATOM     13  G   UNL     1      23.767 -31.449  24.621  1.00  0.00     0.000 G0
BRANCH  12  14
ATOM     14  C   UNL     1      23.859 -28.983  23.853  1.00  0.00     0.018 C 
ATOM     15  C   UNL     1      24.384 -28.418  22.522  1.00  0.00     0.010 C 
BRANCH  14  16
ATOM     16  C   UNL     1      22.854 -28.018  24.510  1.00  0.00     0.002 C 
ATOM     17  C   UNL     1      23.259 -27.578  25.924  1.00  0.00     0.004 C 
ENDBRANCH  14  16
ENDBRANCH  12  14
ENDBRANCH   9  12
ENDBRANCH   7   8
BRANCH   7  18
ATOM     18  C   UNL     1      19.232 -31.366  20.899  1.00  0.00     0.073 C 
BRANCH  18  19
ATOM     19  C   UNL     1      17.911 -32.085  20.915  1.00  0.00    -0.016 A 
ATOM     20  C   UNL     1      16.731 -31.635  21.503  1.00  0.00     0.134 A 
ATOM     21  C   UNL     1      17.647 -33.369  20.463  1.00  0.00     0.006 A 
ATOM     22  N   UNL     1      15.782 -32.598  21.418  1.00  0.00    -0.191 N 
ATOM     23  C   UNL     1      16.338 -33.646  20.785  1.00  0.00     0.087 A 
ATOM     24  C   UNL     1      18.452 -34.295  19.801  1.00  0.00     0.011 A 
ATOM     25  C   UNL     1      15.747 -34.870  20.465  1.00  0.00     0.030 A 
ATOM     26  C   UNL     1      17.889 -35.540  19.476  1.00  0.00     0.001 A 
ATOM     27  C   UNL     1      16.541 -35.819  19.794  1.00  0.00     0.002 A 
BRANCH  22  28
ATOM     28  O   UNL     1      14.487 -32.554  21.910  1.00  0.00    -0.417 OA
ATOM     29  C   UNL     1      13.417 -31.986  21.161  1.00  0.00     0.313 C 
ENDBRANCH  22  28
ENDBRANCH  18  19
ENDBRANCH   7  18
ENDBRANCH   4   7
ENDBRANCH   2   3
BRANCH   2  30
ATOM     30  N   UNL     1      22.006 -34.001  24.835  1.00  0.00    -0.343 N 
ATOM     31  C   UNL     1      23.307 -34.265  25.393  1.00  0.00     0.243 C 
ATOM     32  H   UNL     1      21.288 -33.670  25.528  1.00  0.00     0.164 HD
ATOM     33  O   UNL     1      23.352 -34.806  26.533  1.00  0.00    -0.273 OA
BRANCH  31  34
ATOM     34  C   UNL     1      24.610 -33.881  24.700  1.00  0.00     0.174 C 
ATOM     35  N   UNL     1      24.703 -32.475  24.242  1.00  0.00    -0.329 N 
ATOM     36  C   UNL     1      25.843 -34.188  25.579  1.00  0.00     0.035 C 
ATOM     37  C   UNL     1      25.900 -32.085  23.472  1.00  0.00     0.120 C 
ATOM     38  C   UNL     1      27.174 -33.694  24.959  1.00  0.00     0.004 C 
ATOM     39  C   UNL     1      27.006 -33.148  23.534  1.00  0.00     0.022 C 
BRANCH  35  40
ATOM     40  C   UNL     1      23.776 -31.436  24.638  1.00  0.00     0.246 CG0
ATOM     41  O   UNL     1      23.402 -31.355  25.842  1.00  0.00    -0.272 OA
ATOM     42  G   UNL     1      23.247 -30.427  23.633  1.00  0.00     0.000 G0
ENDBRANCH  35  40
ENDBRANCH  31  34
ENDBRANCH   2  30
ENDBRANCH   1   2
BRANCH   1  43
ATOM     43  C   UNL     1      21.773 -37.049  23.248  1.00  0.00     0.003 C 
BRANCH  43  44
ATOM     44  C   UNL     1      21.144 -37.164  24.645  1.00  0.00     0.001 C 
BRANCH  44  45
ATOM     45  C   UNL     1      19.853 -38.002  24.654  1.00  0.00     0.008 C 
BRANCH  45  46
ATOM     46  C   UNL     1      18.618 -37.165  25.020  1.00  0.00     0.075 C 
BRANCH  46  47
ATOM     47  C   UNL     1      18.187 -36.250  23.907  1.00  0.00     0.132 C 
ATOM     48  O   UNL     1      18.100 -36.695  22.772  1.00  0.00    -0.300 OA
BRANCH  47  49
ATOM     49  C   UNL     1      17.830 -34.816  24.213  1.00  0.00     0.072 C 
ATOM     50  C   UNL     1      16.324 -34.573  24.306  1.00  0.00     0.012 C 
ENDBRANCH  47  49
ENDBRANCH  46  47
ENDBRANCH  45  46
ENDBRANCH  44  45
ENDBRANCH  43  44
ENDBRANCH   1  43
TORSDOF 12
ENDMDL
MODEL 7
REMARK VINA RESULT:    -5.408      2.059      5.249
REMARK INTER + INTRA:         -14.300
REMARK INTER:                 -12.659
REMARK INTRA:                  -1.641
REMARK UNBOUND:                -2.884
REMARK SMILES CCC(=O)CCCCC[C@H]1NC(=O)[C@@H]2CCCCN2C(=O)[C@H]([C@@H](C)CC)NC(=O)[C@@H](Cc2cn(OC)c3ccccc23)NC1=O
REMARK SMILES IDX 9 1 10 2 44 3 43 4 45 6 30 7 28 8 27 9 29 11 22 12 23 14
REMARK SMILES IDX 24 15 25 16 26 17 31 18 32 19 33 20 42 21 34 22 37 23 41 24
REMARK SMILES IDX 38 25 40 26 39 27 35 28 36 29 11 30 12 31 13 33 14 34 19 35
REMARK SMILES IDX 15 36 18 37 16 38 17 39 20 40 21 41 8 43 7 44 6 45 5 46 3 47
REMARK SMILES IDX 4 48 2 49 1 50
REMARK H PARENT 43 5 27 10 11 32
REMARK Flexibility Score: 80.00
ROOT
ATOM      1  C   UNL     1      19.311 -29.075  21.629  1.00  0.00     0.035 C 
ENDROOT
BRANCH   1   2
ATOM      2  C   UNL     1      20.494 -30.030  21.337  1.00  0.00     0.171 C 
BRANCH   2   3
ATOM      3  C   UNL     1      20.716 -31.064  22.405  1.00  0.00     0.243 C 
ATOM      4  N   UNL     1      21.477 -32.248  22.094  1.00  0.00    -0.342 N 
ATOM      5  H   UNL     1      21.770 -32.411  21.101  1.00  0.00     0.164 HD
ATOM      6  O   UNL     1      20.289 -30.868  23.576  1.00  0.00    -0.273 OA
BRANCH   4   7
ATOM      7  C   UNL     1      21.994 -33.180  23.105  1.00  0.00     0.175 C 
BRANCH   7   8
ATOM      8  C   UNL     1      23.150 -32.541  23.835  1.00  0.00     0.243 C 
ATOM      9  N   UNL     1      23.746 -31.361  23.279  1.00  0.00    -0.342 N 
ATOM     10  H   UNL     1      23.705 -31.239  22.241  1.00  0.00     0.164 HD
ATOM     11  O   UNL     1      23.521 -32.970  24.955  1.00  0.00    -0.273 OA
BRANCH   9  12
ATOM     12  C   UNL     1      24.171 -30.232  24.117  1.00  0.00     0.174 CG0
ATOM     13  G   UNL     1      24.028 -28.931  23.346  1.00  0.00     0.000 G0
BRANCH  12  14
ATOM     14  C   UNL     1      25.610 -30.468  24.693  1.00  0.00     0.018 C 
ATOM     15  C   UNL     1      25.534 -30.690  26.214  1.00  0.00     0.010 C 
BRANCH  14  16
ATOM     16  C   UNL     1      26.351 -31.626  23.998  1.00  0.00     0.002 C 
ATOM     17  C   UNL     1      27.754 -31.248  23.502  1.00  0.00     0.004 C 
ENDBRANCH  14  16
ENDBRANCH  12  14
ENDBRANCH   9  12
ENDBRANCH   7   8
BRANCH   7  18
ATOM     18  C   UNL     1      20.860 -33.663  24.038  1.00  0.00     0.073 C 
BRANCH  18  19
ATOM     19  C   UNL     1      19.781 -34.352  23.248  1.00  0.00    -0.016 A 
ATOM     20  C   UNL     1      19.964 -35.158  22.126  1.00  0.00     0.134 A 
ATOM     21  C   UNL     1      18.410 -34.220  23.403  1.00  0.00     0.006 A 
ATOM     22  N   UNL     1      18.760 -35.508  21.614  1.00  0.00    -0.191 N 
ATOM     23  C   UNL     1      17.820 -34.941  22.390  1.00  0.00     0.087 A 
ATOM     24  C   UNL     1      17.654 -33.529  24.349  1.00  0.00     0.011 A 
ATOM     25  C   UNL     1      16.432 -35.020  22.258  1.00  0.00     0.030 A 
ATOM     26  C   UNL     1      16.255 -33.580  24.235  1.00  0.00     0.001 A 
ATOM     27  C   UNL     1      15.649 -34.332  23.205  1.00  0.00     0.002 A 
BRANCH  22  28
ATOM     28  O   UNL     1      18.512 -36.274  20.486  1.00  0.00    -0.417 OA
ATOM     29  C   UNL     1      17.782 -35.763  19.375  1.00  0.00     0.313 C 
ENDBRANCH  22  28
ENDBRANCH  18  19
ENDBRANCH   7  18
ENDBRANCH   4   7
ENDBRANCH   2   3
BRANCH   2  30
ATOM     30  N   UNL     1      21.773 -29.355  21.048  1.00  0.00    -0.343 N 
ATOM     31  C   UNL     1      22.110 -27.972  21.261  1.00  0.00     0.243 C 
ATOM     32  H   UNL     1      22.379 -29.855  20.348  1.00  0.00     0.164 HD
ATOM     33  O   UNL     1      22.458 -27.297  20.253  1.00  0.00    -0.273 OA
BRANCH  31  34
ATOM     34  C   UNL     1      22.114 -27.312  22.636  1.00  0.00     0.174 C 
ATOM     35  N   UNL     1      23.005 -27.933  23.644  1.00  0.00    -0.329 N 
ATOM     36  C   UNL     1      22.449 -25.807  22.553  1.00  0.00     0.035 C 
ATOM     37  C   UNL     1      22.962 -27.397  25.018  1.00  0.00     0.120 C 
ATOM     38  C   UNL     1      22.586 -25.133  23.941  1.00  0.00     0.004 C 
ATOM     39  C   UNL     1      22.204 -26.064  25.101  1.00  0.00     0.022 C 
BRANCH  35  40
ATOM     40  C   UNL     1      24.019 -28.916  23.325  1.00  0.00     0.246 CG0
ATOM     41  O   UNL     1      24.824 -28.701  22.375  1.00  0.00    -0.272 OA
ATOM     42  G   UNL     1      24.145 -30.205  24.120  1.00  0.00     0.000 G0
ENDBRANCH  35  40
ENDBRANCH  31  34
ENDBRANCH   2  30
ENDBRANCH   1   2
BRANCH   1  43
ATOM     43  C   UNL     1      18.018 -29.476  20.866  1.00  0.00     0.003 C 
BRANCH  43  44
ATOM     44  C   UNL     1      17.290 -30.693  21.456  1.00  0.00     0.001 C 
BRANCH  44  45
ATOM     45  C   UNL     1      15.853 -30.373  21.905  1.00  0.00     0.008 C 
BRANCH  45  46
ATOM     46  C   UNL     1      14.825 -31.345  21.307  1.00  0.00     0.075 C 
BRANCH  46  47
ATOM     47  C   UNL     1      13.542 -31.387  22.091  1.00  0.00     0.132 C 
ATOM     48  O   UNL     1      12.495 -31.623  21.505  1.00  0.00    -0.300 OA
BRANCH  47  49
ATOM     49  C   UNL     1      13.571 -31.182  23.586  1.00  0.00     0.072 C 
ATOM     50  C   UNL     1      13.369 -29.726  24.000  1.00  0.00     0.012 C 
ENDBRANCH  47  49
ENDBRANCH  46  47
ENDBRANCH  45  46
ENDBRANCH  44  45
ENDBRANCH  43  44
ENDBRANCH   1  43
TORSDOF 12
ENDMDL
MODEL 8
REMARK VINA RESULT:    -5.276      2.926      5.940
REMARK INTER + INTRA:         -14.021
REMARK INTER:                 -11.286
REMARK INTRA:                  -2.736
REMARK UNBOUND:                -2.884
REMARK SMILES CCC(=O)CCCCC[C@H]1NC(=O)[C@@H]2CCCCN2C(=O)[C@H]([C@@H](C)CC)NC(=O)[C@@H](Cc2cn(OC)c3ccccc23)NC1=O
REMARK SMILES IDX 9 1 10 2 44 3 43 4 45 6 30 7 28 8 27 9 29 11 22 12 23 14
REMARK SMILES IDX 24 15 25 16 26 17 31 18 32 19 33 20 42 21 34 22 37 23 41 24
REMARK SMILES IDX 38 25 40 26 39 27 35 28 36 29 11 30 12 31 13 33 14 34 19 35
REMARK SMILES IDX 15 36 18 37 16 38 17 39 20 40 21 41 8 43 7 44 6 45 5 46 3 47
REMARK SMILES IDX 4 48 2 49 1 50
REMARK H PARENT 43 5 27 10 11 32
REMARK Flexibility Score: 80.00
ROOT
ATOM      1  C   UNL     1      20.436 -31.945  21.934  1.00  0.00     0.035 C 
ENDROOT
BRANCH   1   2
ATOM      2  C   UNL     1      21.552 -33.007  22.080  1.00  0.00     0.171 C 
BRANCH   2   3
ATOM      3  C   UNL     1      21.143 -34.210  22.883  1.00  0.00     0.243 C 
ATOM      4  N   UNL     1      21.378 -35.528  22.349  1.00  0.00    -0.342 N 
ATOM      5  H   UNL     1      21.734 -35.617  21.367  1.00  0.00     0.164 HD
ATOM      6  O   UNL     1      20.651 -34.066  24.035  1.00  0.00    -0.273 OA
BRANCH   4   7
ATOM      7  C   UNL     1      21.283 -36.763  23.140  1.00  0.00     0.175 C 
BRANCH   7   8
ATOM      8  C   UNL     1      22.433 -36.825  24.115  1.00  0.00     0.243 C 
ATOM      9  N   UNL     1      23.382 -35.749  24.130  1.00  0.00    -0.342 N 
ATOM     10  H   UNL     1      23.533 -35.223  23.237  1.00  0.00     0.164 HD
ATOM     11  O   UNL     1      22.509 -37.746  24.964  1.00  0.00    -0.273 OA
BRANCH   9  12
ATOM     12  C   UNL     1      23.937 -35.214  25.380  1.00  0.00     0.174 CG0
ATOM     13  G   UNL     1      24.049 -33.702  25.293  1.00  0.00     0.000 G0
BRANCH  12  14
ATOM     14  C   UNL     1      25.285 -35.926  25.747  1.00  0.00     0.018 C 
ATOM     15  C   UNL     1      25.086 -36.810  26.991  1.00  0.00     0.010 C 
BRANCH  14  16
ATOM     16  C   UNL     1      25.873 -36.737  24.577  1.00  0.00     0.002 C 
ATOM     17  C   UNL     1      27.405 -36.688  24.504  1.00  0.00     0.004 C 
ENDBRANCH  14  16
ENDBRANCH  12  14
ENDBRANCH   9  12
ENDBRANCH   7   8
BRANCH   7  18
ATOM     18  C   UNL     1      19.894 -36.882  23.807  1.00  0.00     0.073 C 
BRANCH  18  19
ATOM     19  C   UNL     1      18.801 -36.769  22.781  1.00  0.00    -0.016 A 
ATOM     20  C   UNL     1      18.692 -37.508  21.604  1.00  0.00     0.134 A 
ATOM     21  C   UNL     1      17.775 -35.838  22.743  1.00  0.00     0.006 A 
ATOM     22  N   UNL     1      17.645 -37.054  20.875  1.00  0.00    -0.191 N 
ATOM     23  C   UNL     1      17.090 -36.044  21.568  1.00  0.00     0.087 A 
ATOM     24  C   UNL     1      17.402 -34.843  23.646  1.00  0.00     0.011 A 
ATOM     25  C   UNL     1      15.983 -35.267  21.218  1.00  0.00     0.030 A 
ATOM     26  C   UNL     1      16.300 -34.038  23.317  1.00  0.00     0.001 A 
ATOM     27  C   UNL     1      15.587 -34.258  22.117  1.00  0.00     0.002 A 
BRANCH  22  28
ATOM     28  O   UNL     1      17.224 -37.500  19.632  1.00  0.00    -0.417 OA
ATOM     29  C   UNL     1      18.120 -38.109  18.709  1.00  0.00     0.313 C 
ENDBRANCH  22  28
ENDBRANCH  18  19
ENDBRANCH   7  18
ENDBRANCH   4   7
ENDBRANCH   2   3
BRANCH   2  30
ATOM     30  N   UNL     1      22.829 -32.490  22.606  1.00  0.00    -0.343 N 
ATOM     31  C   UNL     1      23.026 -31.476  23.608  1.00  0.00     0.243 C 
ATOM     32  H   UNL     1      23.657 -32.658  21.980  1.00  0.00     0.164 HD
ATOM     33  O   UNL     1      23.681 -30.449  23.276  1.00  0.00    -0.273 OA
BRANCH  31  34
ATOM     34  C   UNL     1      22.528 -31.607  25.044  1.00  0.00     0.174 C 
ATOM     35  N   UNL     1      22.991 -32.810  25.776  1.00  0.00    -0.329 N 
ATOM     36  C   UNL     1      22.872 -30.362  25.891  1.00  0.00     0.035 C 
ATOM     37  C   UNL     1      22.451 -33.036  27.131  1.00  0.00     0.120 C 
ATOM     38  C   UNL     1      22.494 -30.515  27.385  1.00  0.00     0.004 C 
ATOM     39  C   UNL     1      21.715 -31.804  27.678  1.00  0.00     0.022 C 
BRANCH  35  40
ATOM     40  C   UNL     1      24.051 -33.678  25.309  1.00  0.00     0.246 CG0
ATOM     41  O   UNL     1      25.105 -33.177  24.824  1.00  0.00    -0.272 OA
ATOM     42  G   UNL     1      23.928 -35.190  25.399  1.00  0.00     0.000 G0
ENDBRANCH  35  40
ENDBRANCH  31  34
ENDBRANCH   2  30
ENDBRANCH   1   2
BRANCH   1  43
ATOM     43  C   UNL     1      19.099 -32.549  21.423  1.00  0.00     0.003 C 
BRANCH  43  44
ATOM     44  C   UNL     1      18.134 -31.520  20.815  1.00  0.00     0.001 C 
BRANCH  44  45
ATOM     45  C   UNL     1      17.612 -30.504  21.848  1.00  0.00     0.008 C 
BRANCH  45  46
ATOM     46  C   UNL     1      16.267 -29.889  21.432  1.00  0.00     0.075 C 
BRANCH  46  47
ATOM     47  C   UNL     1      15.101 -30.500  22.158  1.00  0.00     0.132 C 
ATOM     48  O   UNL     1      14.174 -30.963  21.509  1.00  0.00    -0.300 OA
BRANCH  47  49
ATOM     49  C   UNL     1      15.111 -30.572  23.665  1.00  0.00     0.072 C 
ATOM     50  C   UNL     1      13.826 -31.153  24.252  1.00  0.00     0.012 C 
ENDBRANCH  47  49
ENDBRANCH  46  47
ENDBRANCH  45  46
ENDBRANCH  44  45
ENDBRANCH  43  44
ENDBRANCH   1  43
TORSDOF 12
ENDMDL
MODEL 9
REMARK VINA RESULT:    -5.210      2.606      6.548
REMARK INTER + INTRA:         -13.882
REMARK INTER:                 -12.078
REMARK INTRA:                  -1.804
REMARK UNBOUND:                -2.884
REMARK SMILES CCC(=O)CCCCC[C@H]1NC(=O)[C@@H]2CCCCN2C(=O)[C@H]([C@@H](C)CC)NC(=O)[C@@H](Cc2cn(OC)c3ccccc23)NC1=O
REMARK SMILES IDX 9 1 10 2 44 3 43 4 45 6 30 7 28 8 27 9 29 11 22 12 23 14
REMARK SMILES IDX 24 15 25 16 26 17 31 18 32 19 33 20 42 21 34 22 37 23 41 24
REMARK SMILES IDX 38 25 40 26 39 27 35 28 36 29 11 30 12 31 13 33 14 34 19 35
REMARK SMILES IDX 15 36 18 37 16 38 17 39 20 40 21 41 8 43 7 44 6 45 5 46 3 47
REMARK SMILES IDX 4 48 2 49 1 50
REMARK H PARENT 43 5 27 10 11 32
REMARK Flexibility Score: 80.00
ROOT
ATOM      1  C   UNL     1      20.105 -31.032  22.263  1.00  0.00     0.035 C 
ENDROOT
BRANCH   1   2
ATOM      2  C   UNL     1      21.264 -32.058  22.292  1.00  0.00     0.171 C 
BRANCH   2   3
ATOM      3  C   UNL     1      20.938 -33.320  23.041  1.00  0.00     0.243 C 
ATOM      4  N   UNL     1      21.311 -34.592  22.477  1.00  0.00    -0.342 N 
ATOM      5  H   UNL     1      21.709 -34.616  21.507  1.00  0.00     0.164 HD
ATOM      6  O   UNL     1      20.395 -33.259  24.178  1.00  0.00    -0.273 OA
BRANCH   4   7
ATOM      7  C   UNL     1      21.302 -35.856  23.226  1.00  0.00     0.175 C 
BRANCH   7   8
ATOM      8  C   UNL     1      22.487 -35.897  24.159  1.00  0.00     0.243 C 
ATOM      9  N   UNL     1      23.387 -34.781  24.177  1.00  0.00    -0.342 N 
ATOM     10  H   UNL     1      23.484 -34.221  23.298  1.00  0.00     0.164 HD
ATOM     11  O   UNL     1      22.633 -36.841  24.974  1.00  0.00    -0.273 OA
BRANCH   9  12
ATOM     12  C   UNL     1      23.962 -34.262  25.425  1.00  0.00     0.174 CG0
ATOM     13  G   UNL     1      23.996 -32.744  25.388  1.00  0.00     0.000 G0
BRANCH  12  14
ATOM     14  C   UNL     1      25.356 -34.916  25.718  1.00  0.00     0.018 C 
ATOM     15  C   UNL     1      25.241 -35.873  26.918  1.00  0.00     0.010 C 
BRANCH  14  16
ATOM     16  C   UNL     1      25.952 -35.631  24.491  1.00  0.00     0.002 C 
ATOM     17  C   UNL     1      26.917 -36.770  24.852  1.00  0.00     0.004 C 
ENDBRANCH  14  16
ENDBRANCH  12  14
ENDBRANCH   9  12
ENDBRANCH   7   8
BRANCH   7  18
ATOM     18  C   UNL     1      19.944 -36.065  23.935  1.00  0.00     0.073 C 
BRANCH  18  19
ATOM     19  C   UNL     1      18.853 -36.311  22.929  1.00  0.00    -0.016 A 
ATOM     20  C   UNL     1      18.812 -37.339  21.988  1.00  0.00     0.134 A 
ATOM     21  C   UNL     1      17.757 -35.507  22.662  1.00  0.00     0.006 A 
ATOM     22  N   UNL     1      17.738 -37.176  21.180  1.00  0.00    -0.191 N 
ATOM     23  C   UNL     1      17.099 -36.066  21.592  1.00  0.00     0.087 A 
ATOM     24  C   UNL     1      17.300 -34.342  23.278  1.00  0.00     0.011 A 
ATOM     25  C   UNL     1      15.937 -35.498  21.065  1.00  0.00     0.030 A 
ATOM     26  C   UNL     1      16.139 -33.741  22.764  1.00  0.00     0.001 A 
ATOM     27  C   UNL     1      15.455 -34.323  21.674  1.00  0.00     0.002 A 
BRANCH  22  28
ATOM     28  O   UNL     1      17.363 -37.964  20.104  1.00  0.00    -0.417 OA
ATOM     29  C   UNL     1      17.716 -37.627  18.766  1.00  0.00     0.313 C 
ENDBRANCH  22  28
ENDBRANCH  18  19
ENDBRANCH   7  18
ENDBRANCH   4   7
ENDBRANCH   2   3
BRANCH   2  30
ATOM     30  N   UNL     1      22.547 -31.524  22.786  1.00  0.00    -0.343 N 
ATOM     31  C   UNL     1      22.757 -30.549  23.823  1.00  0.00     0.243 C 
ATOM     32  H   UNL     1      23.351 -31.638  22.118  1.00  0.00     0.164 HD
ATOM     33  O   UNL     1      23.366 -29.488  23.509  1.00  0.00    -0.273 OA
BRANCH  31  34
ATOM     34  C   UNL     1      22.328 -30.759  25.272  1.00  0.00     0.174 C 
ATOM     35  N   UNL     1      22.902 -31.947  25.946  1.00  0.00    -0.329 N 
ATOM     36  C   UNL     1      22.619 -29.518  26.145  1.00  0.00     0.035 C 
ATOM     37  C   UNL     1      22.434 -32.251  27.311  1.00  0.00     0.120 C 
ATOM     38  C   UNL     1      22.312 -29.742  27.647  1.00  0.00     0.004 C 
ATOM     39  C   UNL     1      21.637 -31.092  27.927  1.00  0.00     0.022 C 
BRANCH  35  40
ATOM     40  C   UNL     1      24.000 -32.724  25.410  1.00  0.00     0.246 CG0
ATOM     41  O   UNL     1      25.017 -32.135  24.945  1.00  0.00    -0.272 OA
ATOM     42  G   UNL     1      23.962 -34.242  25.405  1.00  0.00     0.000 G0
ENDBRANCH  35  40
ENDBRANCH  31  34
ENDBRANCH   2  30
ENDBRANCH   1   2
BRANCH   1  43
ATOM     43  C   UNL     1      20.310 -29.931  21.187  1.00  0.00     0.003 C 
BRANCH  43  44
ATOM     44  C   UNL     1      19.243 -28.825  21.207  1.00  0.00     0.001 C 
BRANCH  44  45
ATOM     45  C   UNL     1      19.815 -27.435  20.872  1.00  0.00     0.008 C 
BRANCH  45  46
ATOM     46  C   UNL     1      21.175 -27.188  21.542  1.00  0.00     0.075 C 
BRANCH  46  47
ATOM     47  C   UNL     1      22.262 -26.877  20.550  1.00  0.00     0.132 C 
ATOM     48  O   UNL     1      22.946 -27.791  20.113  1.00  0.00    -0.300 OA
BRANCH  47  49
ATOM     49  C   UNL     1      22.462 -25.457  20.080  1.00  0.00     0.072 C 
ATOM     50  C   UNL     1      23.253 -24.599  21.066  1.00  0.00     0.012 C 
ENDBRANCH  47  49
ENDBRANCH  46  47
ENDBRANCH  45  46
ENDBRANCH  44  45
ENDBRANCH  43  44
ENDBRANCH   1  43
TORSDOF 12
ENDMDL
