MODEL 1
REMARK VINA RESULT:    -6.167      0.000      0.000
REMARK INTER + INTRA:          -9.835
REMARK INTER:                  -8.511
REMARK INTRA:                  -1.324
REMARK UNBOUND:                -1.324
REMARK SMILES CC[C@H](CC[C@@H](C)[C@@H]1CC[C@H]2[C@H]3CC=C4C[C@@H](O)CC[C@@]4(C)[C@@H]3CC[C@]21C)C(C)C
REMARK SMILES IDX 5 1 4 2 3 3 2 4 1 5 28 6 29 7 30 8 6 9 7 10 8 11 9 12 26 13
REMARK SMILES IDX 10 14 11 15 25 16 27 17 12 18 24 19 23 20 13 21 21 22 14 23
REMARK SMILES IDX 15 24 20 25 22 26 16 27 19 28 17 29 18 30
REMARK H PARENT 18 31
REMARK Flexibility Score: inf
ROOT
ATOM      1  C   UNL     1      -6.302  30.132  47.447  1.00  0.00     0.004 C 
ENDROOT
BRANCH   1   2
ATOM      2  C   UNL     1      -7.238  31.324  47.156  1.00  0.00     0.004 C 
BRANCH   2   3
ATOM      3  C   UNL     1      -6.518  32.704  47.133  1.00  0.00    -0.009 C 
BRANCH   3   4
ATOM      4  C   UNL     1      -7.481  33.869  46.749  1.00  0.00     0.000 C 
ATOM      5  C   UNL     1      -8.334  33.598  45.508  1.00  0.00     0.004 C 
ENDBRANCH   3   4
BRANCH   3   6
ATOM      6  C   UNL     1      -5.747  32.972  48.473  1.00  0.00    -0.014 C 
ATOM      7  C   UNL     1      -6.484  33.976  49.379  1.00  0.00     0.007 C 
ATOM      8  C   UNL     1      -4.318  33.497  48.225  1.00  0.00     0.007 C 
ENDBRANCH   3   6
ENDBRANCH   2   3
ENDBRANCH   1   2
BRANCH   1   9
ATOM      9  C   UNL     1      -5.962  29.298  46.182  1.00  0.00    -0.011 C 
ATOM     10  C   UNL     1      -4.802  28.317  46.467  1.00  0.00     0.008 C 
BRANCH   9  11
ATOM     11  C   UNL     1      -7.257  28.601  45.615  1.00  0.00    -0.002 C 
ATOM     12  C   UNL     1      -7.098  27.077  45.508  1.00  0.00     0.005 C 
ATOM     13  C   UNL     1      -7.785  29.076  44.207  1.00  0.00    -0.026 C 
ATOM     14  C   UNL     1      -6.872  26.750  44.043  1.00  0.00     0.005 C 
ATOM     15  C   UNL     1      -7.346  27.958  43.208  1.00  0.00    -0.001 C 
ATOM     16  C   UNL     1      -9.347  29.241  44.236  1.00  0.00     0.007 C 
ATOM     17  C   UNL     1      -7.221  30.449  43.753  1.00  0.00     0.012 C 
ATOM     18  C   UNL     1      -8.456  27.621  42.172  1.00  0.00     0.000 C 
ATOM     19  C   UNL     1     -10.121  27.922  44.121  1.00  0.00     0.005 C 
ATOM     20  C   UNL     1      -9.755  27.100  42.845  1.00  0.00     0.003 C 
ATOM     21  C   UNL     1      -7.978  26.650  41.083  1.00  0.00     0.031 C 
ATOM     22  C   UNL     1     -10.914  26.963  41.790  1.00  0.00    -0.008 C 
ATOM     23  C   UNL     1      -9.095  26.193  40.184  1.00  0.00    -0.027 C 
ATOM     24  C   UNL     1     -10.402  26.240  40.532  1.00  0.00    -0.065 C 
ATOM     25  C   UNL     1     -12.108  26.139  42.397  1.00  0.00     0.014 C 
ATOM     26  C   UNL     1     -11.442  28.350  41.337  1.00  0.00     0.016 C 
ATOM     27  C   UNL     1     -11.416  25.470  39.714  1.00  0.00     0.063 C 
ATOM     28  C   UNL     1     -12.002  24.635  42.094  1.00  0.00     0.033 C 
ATOM     29  C   UNL     1     -12.077  24.361  40.572  1.00  0.00     0.118 C 
BRANCH  29  30
ATOM     30  O   UNL     1     -11.524  23.103  40.275  1.00  0.00    -0.393 OA
ATOM     31  H   UNL     1     -11.802  22.479  40.995  1.00  0.00     0.210 HD
ENDBRANCH  29  30
ENDBRANCH   9  11
ENDBRANCH   1   9
TORSDOF 7
ENDMDL
MODEL 2
REMARK VINA RESULT:    -6.155      0.538      1.570
REMARK INTER + INTRA:          -9.818
REMARK INTER:                  -8.038
REMARK INTRA:                  -1.781
REMARK UNBOUND:                -1.324
REMARK SMILES CC[C@H](CC[C@@H](C)[C@@H]1CC[C@H]2[C@H]3CC=C4C[C@@H](O)CC[C@@]4(C)[C@@H]3CC[C@]21C)C(C)C
REMARK SMILES IDX 5 1 4 2 3 3 2 4 1 5 28 6 29 7 30 8 6 9 7 10 8 11 9 12 26 13
REMARK SMILES IDX 10 14 11 15 25 16 27 17 12 18 24 19 23 20 13 21 21 22 14 23
REMARK SMILES IDX 15 24 20 25 22 26 16 27 19 28 17 29 18 30
REMARK H PARENT 18 31
REMARK Flexibility Score: inf
ROOT
ATOM      1  C   UNL     1      -6.157  30.208  47.273  1.00  0.00     0.004 C 
ENDROOT
BRANCH   1   2
ATOM      2  C   UNL     1      -7.443  31.040  47.077  1.00  0.00     0.004 C 
BRANCH   2   3
ATOM      3  C   UNL     1      -7.259  32.562  47.347  1.00  0.00    -0.009 C 
BRANCH   3   4
ATOM      4  C   UNL     1      -5.885  32.886  48.007  1.00  0.00     0.000 C 
ATOM      5  C   UNL     1      -5.988  33.564  49.376  1.00  0.00     0.004 C 
ENDBRANCH   3   4
BRANCH   3   6
ATOM      6  C   UNL     1      -7.525  33.410  46.053  1.00  0.00    -0.014 C 
ATOM      7  C   UNL     1      -8.706  32.862  45.230  1.00  0.00     0.007 C 
ATOM      8  C   UNL     1      -6.285  33.480  45.140  1.00  0.00     0.007 C 
ENDBRANCH   3   6
ENDBRANCH   2   3
ENDBRANCH   1   2
BRANCH   1   9
ATOM      9  C   UNL     1      -5.859  29.253  46.086  1.00  0.00    -0.011 C 
ATOM     10  C   UNL     1      -4.786  28.211  46.476  1.00  0.00     0.008 C 
BRANCH   9  11
ATOM     11  C   UNL     1      -7.193  28.616  45.540  1.00  0.00    -0.002 C 
ATOM     12  C   UNL     1      -7.174  27.082  45.606  1.00  0.00     0.005 C 
ATOM     13  C   UNL     1      -7.624  28.976  44.067  1.00  0.00    -0.026 C 
ATOM     14  C   UNL     1      -6.929  26.574  44.196  1.00  0.00     0.005 C 
ATOM     15  C   UNL     1      -7.258  27.718  43.215  1.00  0.00    -0.001 C 
ATOM     16  C   UNL     1      -9.164  29.283  44.008  1.00  0.00     0.007 C 
ATOM     17  C   UNL     1      -6.918  30.233  43.493  1.00  0.00     0.012 C 
ATOM     18  C   UNL     1      -8.359  27.369  42.173  1.00  0.00     0.000 C 
ATOM     19  C   UNL     1     -10.054  28.034  44.001  1.00  0.00     0.005 C 
ATOM     20  C   UNL     1      -9.723  27.046  42.840  1.00  0.00     0.003 C 
ATOM     21  C   UNL     1      -7.936  26.244  41.218  1.00  0.00     0.031 C 
ATOM     22  C   UNL     1     -10.852  26.895  41.754  1.00  0.00    -0.008 C 
ATOM     23  C   UNL     1      -9.060  25.791  40.324  1.00  0.00    -0.027 C 
ATOM     24  C   UNL     1     -10.367  25.993  40.606  1.00  0.00    -0.065 C 
ATOM     25  C   UNL     1     -12.139  26.255  42.393  1.00  0.00     0.014 C 
ATOM     26  C   UNL     1     -11.232  28.265  41.131  1.00  0.00     0.016 C 
ATOM     27  C   UNL     1     -11.420  25.231  39.831  1.00  0.00     0.063 C 
ATOM     28  C   UNL     1     -12.164  24.724  42.259  1.00  0.00     0.033 C 
ATOM     29  C   UNL     1     -12.212  24.289  40.773  1.00  0.00     0.118 C 
BRANCH  29  30
ATOM     30  O   UNL     1     -11.769  22.961  40.639  1.00  0.00    -0.393 OA
ATOM     31  H   UNL     1     -12.476  22.373  41.015  1.00  0.00     0.210 HD
ENDBRANCH  29  30
ENDBRANCH   9  11
ENDBRANCH   1   9
TORSDOF 7
ENDMDL
MODEL 3
REMARK VINA RESULT:    -5.812      2.939      8.368
REMARK INTER + INTRA:          -9.345
REMARK INTER:                  -7.268
REMARK INTRA:                  -2.077
REMARK UNBOUND:                -1.324
REMARK SMILES CC[C@H](CC[C@@H](C)[C@@H]1CC[C@H]2[C@H]3CC=C4C[C@@H](O)CC[C@@]4(C)[C@@H]3CC[C@]21C)C(C)C
REMARK SMILES IDX 5 1 4 2 3 3 2 4 1 5 28 6 29 7 30 8 6 9 7 10 8 11 9 12 26 13
REMARK SMILES IDX 10 14 11 15 25 16 27 17 12 18 24 19 23 20 13 21 21 22 14 23
REMARK SMILES IDX 15 24 20 25 22 26 16 27 19 28 17 29 18 30
REMARK H PARENT 18 31
REMARK Flexibility Score: inf
ROOT
ATOM      1  C   UNL     1      -9.464  25.602  40.380  1.00  0.00     0.004 C 
ENDROOT
BRANCH   1   2
ATOM      2  C   UNL     1     -10.183  25.442  41.736  1.00  0.00     0.004 C 
BRANCH   2   3
ATOM      3  C   UNL     1     -11.729  25.610  41.657  1.00  0.00    -0.009 C 
BRANCH   3   4
ATOM      4  C   UNL     1     -12.488  24.313  42.072  1.00  0.00     0.000 C 
ATOM      5  C   UNL     1     -11.631  23.046  42.047  1.00  0.00     0.004 C 
ENDBRANCH   3   4
BRANCH   3   6
ATOM      6  C   UNL     1     -12.210  26.875  42.451  1.00  0.00    -0.014 C 
ATOM      7  C   UNL     1     -12.311  28.122  41.553  1.00  0.00     0.007 C 
ATOM      8  C   UNL     1     -11.282  27.202  43.639  1.00  0.00     0.007 C 
ENDBRANCH   3   6
ENDBRANCH   2   3
ENDBRANCH   1   2
BRANCH   1   9
ATOM      9  C   UNL     1      -8.653  26.921  40.268  1.00  0.00    -0.011 C 
ATOM     10  C   UNL     1      -9.268  27.853  39.200  1.00  0.00     0.008 C 
BRANCH   9  11
ATOM     11  C   UNL     1      -8.497  27.595  41.684  1.00  0.00    -0.002 C 
ATOM     12  C   UNL     1      -8.725  29.113  41.634  1.00  0.00     0.005 C 
ATOM     13  C   UNL     1      -7.131  27.392  42.442  1.00  0.00    -0.026 C 
ATOM     14  C   UNL     1      -7.361  29.775  41.710  1.00  0.00     0.005 C 
ATOM     15  C   UNL     1      -6.361  28.740  42.266  1.00  0.00    -0.001 C 
ATOM     16  C   UNL     1      -7.389  27.071  43.959  1.00  0.00     0.007 C 
ATOM     17  C   UNL     1      -6.277  26.215  41.899  1.00  0.00     0.012 C 
ATOM     18  C   UNL     1      -5.640  29.185  43.570  1.00  0.00     0.000 C 
ATOM     19  C   UNL     1      -7.721  28.301  44.813  1.00  0.00     0.005 C 
ATOM     20  C   UNL     1      -6.630  29.415  44.744  1.00  0.00     0.003 C 
ATOM     21  C   UNL     1      -4.743  30.414  43.362  1.00  0.00     0.031 C 
ATOM     22  C   UNL     1      -5.852  29.667  46.088  1.00  0.00    -0.008 C 
ATOM     23  C   UNL     1      -4.183  30.946  44.655  1.00  0.00    -0.027 C 
ATOM     24  C   UNL     1      -4.730  30.696  45.866  1.00  0.00    -0.065 C 
ATOM     25  C   UNL     1      -6.833  30.216  47.189  1.00  0.00     0.014 C 
ATOM     26  C   UNL     1      -5.185  28.368  46.615  1.00  0.00     0.016 C 
ATOM     27  C   UNL     1      -4.303  31.523  47.059  1.00  0.00     0.063 C 
ATOM     28  C   UNL     1      -6.877  31.752  47.227  1.00  0.00     0.033 C 
ATOM     29  C   UNL     1      -5.497  32.345  47.606  1.00  0.00     0.118 C 
BRANCH  29  30
ATOM     30  O   UNL     1      -5.412  33.686  47.191  1.00  0.00    -0.393 OA
ATOM     31  H   UNL     1      -5.125  33.685  46.240  1.00  0.00     0.210 HD
ENDBRANCH  29  30
ENDBRANCH   9  11
ENDBRANCH   1   9
TORSDOF 7
ENDMDL
MODEL 4
REMARK VINA RESULT:    -5.696      2.033      3.232
REMARK INTER + INTRA:          -9.185
REMARK INTER:                  -7.484
REMARK INTRA:                  -1.701
REMARK UNBOUND:                -1.324
REMARK SMILES CC[C@H](CC[C@@H](C)[C@@H]1CC[C@H]2[C@H]3CC=C4C[C@@H](O)CC[C@@]4(C)[C@@H]3CC[C@]21C)C(C)C
REMARK SMILES IDX 5 1 4 2 3 3 2 4 1 5 28 6 29 7 30 8 6 9 7 10 8 11 9 12 26 13
REMARK SMILES IDX 10 14 11 15 25 16 27 17 12 18 24 19 23 20 13 21 21 22 14 23
REMARK SMILES IDX 15 24 20 25 22 26 16 27 19 28 17 29 18 30
REMARK H PARENT 18 31
REMARK Flexibility Score: inf
ROOT
ATOM      1  C   UNL     1      -4.295  31.134  45.980  1.00  0.00     0.004 C 
ENDROOT
BRANCH   1   2
ATOM      2  C   UNL     1      -4.217  32.190  47.102  1.00  0.00     0.004 C 
BRANCH   2   3
ATOM      3  C   UNL     1      -4.682  33.611  46.669  1.00  0.00    -0.009 C 
BRANCH   3   4
ATOM      4  C   UNL     1      -5.225  33.637  45.208  1.00  0.00     0.000 C 
ATOM      5  C   UNL     1      -4.307  34.342  44.207  1.00  0.00     0.004 C 
ENDBRANCH   3   4
BRANCH   3   6
ATOM      6  C   UNL     1      -5.692  34.224  47.702  1.00  0.00    -0.014 C 
ATOM      7  C   UNL     1      -5.492  33.656  49.119  1.00  0.00     0.007 C 
ATOM      8  C   UNL     1      -7.159  33.994  47.286  1.00  0.00     0.007 C 
ENDBRANCH   3   6
ENDBRANCH   2   3
ENDBRANCH   1   2
BRANCH   1   9
ATOM      9  C   UNL     1      -5.460  30.125  46.169  1.00  0.00    -0.011 C 
ATOM     10  C   UNL     1      -6.142  30.327  47.541  1.00  0.00     0.008 C 
BRANCH   9  11
ATOM     11  C   UNL     1      -6.456  30.196  44.950  1.00  0.00    -0.002 C 
ATOM     12  C   UNL     1      -7.773  30.896  45.314  1.00  0.00     0.005 C 
ATOM     13  C   UNL     1      -6.868  28.838  44.264  1.00  0.00    -0.026 C 
ATOM     14  C   UNL     1      -8.826  29.814  45.482  1.00  0.00     0.005 C 
ATOM     15  C   UNL     1      -8.310  28.538  44.786  1.00  0.00    -0.001 C 
ATOM     16  C   UNL     1      -6.840  28.984  42.700  1.00  0.00     0.007 C 
ATOM     17  C   UNL     1      -5.923  27.652  44.596  1.00  0.00     0.012 C 
ATOM     18  C   UNL     1      -9.244  28.000  43.665  1.00  0.00     0.000 C 
ATOM     19  C   UNL     1      -8.068  29.693  42.114  1.00  0.00     0.005 C 
ATOM     20  C   UNL     1      -9.418  29.014  42.502  1.00  0.00     0.003 C 
ATOM     21  C   UNL     1     -10.609  27.541  44.199  1.00  0.00     0.031 C 
ATOM     22  C   UNL     1     -10.201  28.360  41.304  1.00  0.00    -0.008 C 
ATOM     23  C   UNL     1     -11.571  27.183  43.098  1.00  0.00    -0.027 C 
ATOM     24  C   UNL     1     -11.448  27.624  41.825  1.00  0.00    -0.065 C 
ATOM     25  C   UNL     1     -10.656  29.467  40.284  1.00  0.00     0.014 C 
ATOM     26  C   UNL     1      -9.332  27.315  40.555  1.00  0.00     0.016 C 
ATOM     27  C   UNL     1     -12.618  27.486  40.876  1.00  0.00     0.063 C 
ATOM     28  C   UNL     1     -12.067  29.999  40.579  1.00  0.00     0.033 C 
ATOM     29  C   UNL     1     -13.131  28.882  40.438  1.00  0.00     0.118 C 
BRANCH  29  30
ATOM     30  O   UNL     1     -14.298  29.228  41.141  1.00  0.00    -0.393 OA
ATOM     31  H   UNL     1     -14.731  29.974  40.649  1.00  0.00     0.210 HD
ENDBRANCH  29  30
ENDBRANCH   9  11
ENDBRANCH   1   9
TORSDOF 7
ENDMDL
MODEL 5
REMARK VINA RESULT:    -5.595      2.940      8.408
REMARK INTER + INTRA:          -9.045
REMARK INTER:                  -7.088
REMARK INTRA:                  -1.957
REMARK UNBOUND:                -1.324
REMARK SMILES CC[C@H](CC[C@@H](C)[C@@H]1CC[C@H]2[C@H]3CC=C4C[C@@H](O)CC[C@@]4(C)[C@@H]3CC[C@]21C)C(C)C
REMARK SMILES IDX 5 1 4 2 3 3 2 4 1 5 28 6 29 7 30 8 6 9 7 10 8 11 9 12 26 13
REMARK SMILES IDX 10 14 11 15 25 16 27 17 12 18 24 19 23 20 13 21 21 22 14 23
REMARK SMILES IDX 15 24 20 25 22 26 16 27 19 28 17 29 18 30
REMARK H PARENT 18 31
REMARK Flexibility Score: inf
ROOT
ATOM      1  C   UNL     1     -11.769  27.838  39.616  1.00  0.00     0.004 C 
ENDROOT
BRANCH   1   2
ATOM      2  C   UNL     1     -11.887  26.304  39.747  1.00  0.00     0.004 C 
BRANCH   2   3
ATOM      3  C   UNL     1     -12.495  25.828  41.099  1.00  0.00    -0.009 C 
BRANCH   3   4
ATOM      4  C   UNL     1     -11.537  24.875  41.876  1.00  0.00     0.000 C 
ATOM      5  C   UNL     1     -12.086  23.462  42.084  1.00  0.00     0.004 C 
ENDBRANCH   3   4
BRANCH   3   6
ATOM      6  C   UNL     1     -12.981  27.041  41.968  1.00  0.00    -0.014 C 
ATOM      7  C   UNL     1     -12.518  26.929  43.433  1.00  0.00     0.007 C 
ATOM      8  C   UNL     1     -14.516  27.189  41.951  1.00  0.00     0.007 C 
ENDBRANCH   3   6
ENDBRANCH   2   3
ENDBRANCH   1   2
BRANCH   1   9
ATOM      9  C   UNL     1     -10.308  28.350  39.720  1.00  0.00    -0.011 C 
ATOM     10  C   UNL     1     -10.033  29.443  38.662  1.00  0.00     0.008 C 
BRANCH   9  11
ATOM     11  C   UNL     1      -9.985  28.802  41.196  1.00  0.00    -0.002 C 
ATOM     12  C   UNL     1      -9.724  30.312  41.298  1.00  0.00     0.005 C 
ATOM     13  C   UNL     1      -8.770  28.108  41.922  1.00  0.00    -0.026 C 
ATOM     14  C   UNL     1      -8.223  30.501  41.431  1.00  0.00     0.005 C 
ATOM     15  C   UNL     1      -7.612  29.156  41.875  1.00  0.00    -0.001 C 
ATOM     16  C   UNL     1      -9.154  27.740  43.400  1.00  0.00     0.007 C 
ATOM     17  C   UNL     1      -8.314  26.780  41.259  1.00  0.00     0.012 C 
ATOM     18  C   UNL     1      -6.822  29.224  43.213  1.00  0.00     0.000 C 
ATOM     19  C   UNL     1      -9.107  28.923  44.375  1.00  0.00     0.005 C 
ATOM     20  C   UNL     1      -7.720  29.639  44.410  1.00  0.00     0.003 C 
ATOM     21  C   UNL     1      -5.580  30.123  43.123  1.00  0.00     0.031 C 
ATOM     22  C   UNL     1      -6.937  29.503  45.768  1.00  0.00    -0.008 C 
ATOM     23  C   UNL     1      -4.915  30.325  44.459  1.00  0.00    -0.027 C 
ATOM     24  C   UNL     1      -5.543  30.143  45.642  1.00  0.00    -0.065 C 
ATOM     25  C   UNL     1      -7.724  30.223  46.923  1.00  0.00     0.014 C 
ATOM     26  C   UNL     1      -6.724  28.016  46.158  1.00  0.00     0.016 C 
ATOM     27  C   UNL     1      -4.909  30.675  46.909  1.00  0.00     0.063 C 
ATOM     28  C   UNL     1      -7.285  31.684  47.115  1.00  0.00     0.033 C 
ATOM     29  C   UNL     1      -5.799  31.775  47.542  1.00  0.00     0.118 C 
BRANCH  29  30
ATOM     30  O   UNL     1      -5.288  33.054  47.262  1.00  0.00    -0.393 OA
ATOM     31  H   UNL     1      -5.831  33.710  47.775  1.00  0.00     0.210 HD
ENDBRANCH  29  30
ENDBRANCH   9  11
ENDBRANCH   1   9
TORSDOF 7
ENDMDL
MODEL 6
REMARK VINA RESULT:    -5.518      1.450      2.283
REMARK INTER + INTRA:          -8.939
REMARK INTER:                  -7.388
REMARK INTRA:                  -1.551
REMARK UNBOUND:                -1.324
REMARK SMILES CC[C@H](CC[C@@H](C)[C@@H]1CC[C@H]2[C@H]3CC=C4C[C@@H](O)CC[C@@]4(C)[C@@H]3CC[C@]21C)C(C)C
REMARK SMILES IDX 5 1 4 2 3 3 2 4 1 5 28 6 29 7 30 8 6 9 7 10 8 11 9 12 26 13
REMARK SMILES IDX 10 14 11 15 25 16 27 17 12 18 24 19 23 20 13 21 21 22 14 23
REMARK SMILES IDX 15 24 20 25 22 26 16 27 19 28 17 29 18 30
REMARK H PARENT 18 31
REMARK Flexibility Score: inf
ROOT
ATOM      1  C   UNL     1      -4.249  31.562  45.665  1.00  0.00     0.004 C 
ENDROOT
BRANCH   1   2
ATOM      2  C   UNL     1      -4.168  32.045  47.129  1.00  0.00     0.004 C 
BRANCH   2   3
ATOM      3  C   UNL     1      -5.451  32.771  47.629  1.00  0.00    -0.009 C 
BRANCH   3   4
ATOM      4  C   UNL     1      -5.137  33.863  48.696  1.00  0.00     0.000 C 
ATOM      5  C   UNL     1      -5.868  33.672  50.027  1.00  0.00     0.004 C 
ENDBRANCH   3   4
BRANCH   3   6
ATOM      6  C   UNL     1      -6.303  33.321  46.431  1.00  0.00    -0.014 C 
ATOM      7  C   UNL     1      -6.482  34.850  46.498  1.00  0.00     0.007 C 
ATOM      8  C   UNL     1      -7.699  32.669  46.364  1.00  0.00     0.007 C 
ENDBRANCH   3   6
ENDBRANCH   2   3
ENDBRANCH   1   2
BRANCH   1   9
ATOM      9  C   UNL     1      -4.469  30.031  45.537  1.00  0.00    -0.011 C 
ATOM     10  C   UNL     1      -4.089  29.311  46.851  1.00  0.00     0.008 C 
BRANCH   9  11
ATOM     11  C   UNL     1      -5.935  29.722  45.047  1.00  0.00    -0.002 C 
ATOM     12  C   UNL     1      -6.590  28.588  45.849  1.00  0.00     0.005 C 
ATOM     13  C   UNL     1      -6.132  29.342  43.530  1.00  0.00    -0.026 C 
ATOM     14  C   UNL     1      -6.560  27.345  44.978  1.00  0.00     0.005 C 
ATOM     15  C   UNL     1      -6.334  27.793  43.519  1.00  0.00    -0.001 C 
ATOM     16  C   UNL     1      -7.381  30.089  42.937  1.00  0.00     0.007 C 
ATOM     17  C   UNL     1      -4.935  29.731  42.622  1.00  0.00     0.012 C 
ATOM     18  C   UNL     1      -7.452  27.349  42.534  1.00  0.00     0.000 C 
ATOM     19  C   UNL     1      -8.727  29.454  43.308  1.00  0.00     0.005 C 
ATOM     20  C   UNL     1      -8.836  27.952  42.899  1.00  0.00     0.003 C 
ATOM     21  C   UNL     1      -7.542  25.823  42.387  1.00  0.00     0.031 C 
ATOM     22  C   UNL     1      -9.892  27.645  41.773  1.00  0.00    -0.008 C 
ATOM     23  C   UNL     1      -8.730  25.389  41.571  1.00  0.00    -0.027 C 
ATOM     24  C   UNL     1      -9.824  26.161  41.373  1.00  0.00    -0.065 C 
ATOM     25  C   UNL     1     -11.343  27.965  42.288  1.00  0.00     0.014 C 
ATOM     26  C   UNL     1      -9.620  28.477  40.492  1.00  0.00     0.016 C 
ATOM     27  C   UNL     1     -11.086  25.533  40.825  1.00  0.00     0.063 C 
ATOM     28  C   UNL     1     -12.032  26.740  42.911  1.00  0.00     0.033 C 
ATOM     29  C   UNL     1     -12.231  25.615  41.865  1.00  0.00     0.118 C 
BRANCH  29  30
ATOM     30  O   UNL     1     -12.411  24.378  42.509  1.00  0.00    -0.393 OA
ATOM     31  H   UNL     1     -13.042  23.845  41.958  1.00  0.00     0.210 HD
ENDBRANCH  29  30
ENDBRANCH   9  11
ENDBRANCH   1   9
TORSDOF 7
ENDMDL
MODEL 7
REMARK VINA RESULT:    -5.420      2.213      4.829
REMARK INTER + INTRA:          -8.804
REMARK INTER:                  -7.258
REMARK INTRA:                  -1.546
REMARK UNBOUND:                -1.324
REMARK SMILES CC[C@H](CC[C@@H](C)[C@@H]1CC[C@H]2[C@H]3CC=C4C[C@@H](O)CC[C@@]4(C)[C@@H]3CC[C@]21C)C(C)C
REMARK SMILES IDX 5 1 4 2 3 3 2 4 1 5 28 6 29 7 30 8 6 9 7 10 8 11 9 12 26 13
REMARK SMILES IDX 10 14 11 15 25 16 27 17 12 18 24 19 23 20 13 21 21 22 14 23
REMARK SMILES IDX 15 24 20 25 22 26 16 27 19 28 17 29 18 30
REMARK H PARENT 18 31
REMARK Flexibility Score: inf
ROOT
ATOM      1  C   UNL     1      -7.035  29.379  42.823  1.00  0.00     0.004 C 
ENDROOT
BRANCH   1   2
ATOM      2  C   UNL     1      -6.294  28.961  44.111  1.00  0.00     0.004 C 
BRANCH   2   3
ATOM      3  C   UNL     1      -7.237  28.595  45.295  1.00  0.00    -0.009 C 
BRANCH   3   4
ATOM      4  C   UNL     1      -7.219  27.070  45.617  1.00  0.00     0.000 C 
ATOM      5  C   UNL     1      -5.867  26.544  46.104  1.00  0.00     0.004 C 
ENDBRANCH   3   4
BRANCH   3   6
ATOM      6  C   UNL     1      -6.949  29.484  46.555  1.00  0.00    -0.014 C 
ATOM      7  C   UNL     1      -7.977  30.620  46.714  1.00  0.00     0.007 C 
ATOM      8  C   UNL     1      -5.537  30.106  46.516  1.00  0.00     0.007 C 
ENDBRANCH   3   6
ENDBRANCH   2   3
ENDBRANCH   1   2
BRANCH   1   9
ATOM      9  C   UNL     1      -8.579  29.399  42.985  1.00  0.00    -0.011 C 
ATOM     10  C   UNL     1      -9.138  30.818  42.732  1.00  0.00     0.008 C 
BRANCH   9  11
ATOM     11  C   UNL     1      -9.243  28.287  42.087  1.00  0.00    -0.002 C 
ATOM     12  C   UNL     1      -9.758  28.847  40.753  1.00  0.00     0.005 C 
ATOM     13  C   UNL     1     -10.445  27.474  42.702  1.00  0.00    -0.026 C 
ATOM     14  C   UNL     1     -11.268  28.966  40.868  1.00  0.00     0.005 C 
ATOM     15  C   UNL     1     -11.727  28.074  42.040  1.00  0.00    -0.001 C 
ATOM     16  C   UNL     1     -10.293  25.944  42.379  1.00  0.00     0.007 C 
ATOM     17  C   UNL     1     -10.548  27.573  44.248  1.00  0.00     0.012 C 
ATOM     18  C   UNL     1     -12.756  26.978  41.642  1.00  0.00     0.000 C 
ATOM     19  C   UNL     1     -10.714  25.557  40.956  1.00  0.00     0.005 C 
ATOM     20  C   UNL     1     -12.179  25.970  40.611  1.00  0.00     0.003 C 
ATOM     21  C   UNL     1     -14.087  27.564  41.149  1.00  0.00     0.031 C 
ATOM     22  C   UNL     1     -13.172  24.771  40.388  1.00  0.00    -0.008 C 
ATOM     23  C   UNL     1     -15.016  26.511  40.605  1.00  0.00    -0.027 C 
ATOM     24  C   UNL     1     -14.602  25.299  40.174  1.00  0.00    -0.065 C 
ATOM     25  C   UNL     1     -12.744  23.939  39.123  1.00  0.00     0.014 C 
ATOM     26  C   UNL     1     -13.213  23.825  41.618  1.00  0.00     0.016 C 
ATOM     27  C   UNL     1     -15.540  24.442  39.353  1.00  0.00     0.063 C 
ATOM     28  C   UNL     1     -13.440  24.418  37.838  1.00  0.00     0.033 C 
ATOM     29  C   UNL     1     -14.975  24.228  37.926  1.00  0.00     0.118 C 
BRANCH  29  30
ATOM     30  O   UNL     1     -15.623  25.066  37.001  1.00  0.00    -0.393 OA
ATOM     31  H   UNL     1     -15.359  26.001  37.211  1.00  0.00     0.210 HD
ENDBRANCH  29  30
ENDBRANCH   9  11
ENDBRANCH   1   9
TORSDOF 7
ENDMDL
MODEL 8
REMARK VINA RESULT:    -5.264     11.011     13.903
REMARK INTER + INTRA:          -8.589
REMARK INTER:                  -6.787
REMARK INTRA:                  -1.802
REMARK UNBOUND:                -1.324
REMARK SMILES CC[C@H](CC[C@@H](C)[C@@H]1CC[C@H]2[C@H]3CC=C4C[C@@H](O)CC[C@@]4(C)[C@@H]3CC[C@]21C)C(C)C
REMARK SMILES IDX 5 1 4 2 3 3 2 4 1 5 28 6 29 7 30 8 6 9 7 10 8 11 9 12 26 13
REMARK SMILES IDX 10 14 11 15 25 16 27 17 12 18 24 19 23 20 13 21 21 22 14 23
REMARK SMILES IDX 15 24 20 25 22 26 16 27 19 28 17 29 18 30
REMARK H PARENT 18 31
REMARK Flexibility Score: inf
ROOT
ATOM      1  C   UNL     1      -8.341  22.112  33.788  1.00  0.00     0.004 C 
ENDROOT
BRANCH   1   2
ATOM      2  C   UNL     1      -8.479  20.877  32.872  1.00  0.00     0.004 C 
BRANCH   2   3
ATOM      3  C   UNL     1      -8.573  19.526  33.639  1.00  0.00    -0.009 C 
BRANCH   3   4
ATOM      4  C   UNL     1      -7.730  19.528  34.950  1.00  0.00     0.000 C 
ATOM      5  C   UNL     1      -6.245  19.222  34.746  1.00  0.00     0.004 C 
ENDBRANCH   3   4
BRANCH   3   6
ATOM      6  C   UNL     1     -10.065  19.104  33.878  1.00  0.00    -0.014 C 
ATOM      7  C   UNL     1     -10.982  19.521  32.713  1.00  0.00     0.007 C 
ATOM      8  C   UNL     1     -10.634  19.697  35.183  1.00  0.00     0.007 C 
ENDBRANCH   3   6
ENDBRANCH   2   3
ENDBRANCH   1   2
BRANCH   1   9
ATOM      9  C   UNL     1      -9.079  23.364  33.243  1.00  0.00    -0.011 C 
ATOM     10  C   UNL     1      -8.499  23.790  31.875  1.00  0.00     0.008 C 
BRANCH   9  11
ATOM     11  C   UNL     1     -10.636  23.123  33.224  1.00  0.00    -0.002 C 
ATOM     12  C   UNL     1     -11.280  23.587  31.909  1.00  0.00     0.005 C 
ATOM     13  C   UNL     1     -11.490  23.780  34.374  1.00  0.00    -0.026 C 
ATOM     14  C   UNL     1     -11.980  24.905  32.192  1.00  0.00     0.005 C 
ATOM     15  C   UNL     1     -12.174  25.022  33.718  1.00  0.00    -0.001 C 
ATOM     16  C   UNL     1     -12.553  22.759  34.918  1.00  0.00     0.007 C 
ATOM     17  C   UNL     1     -10.655  24.220  35.607  1.00  0.00     0.012 C 
ATOM     18  C   UNL     1     -13.655  25.186  34.162  1.00  0.00     0.000 C 
ATOM     19  C   UNL     1     -13.795  22.612  34.031  1.00  0.00     0.005 C 
ATOM     20  C   UNL     1     -14.530  23.964  33.768  1.00  0.00     0.003 C 
ATOM     21  C   UNL     1     -14.284  26.493  33.661  1.00  0.00     0.031 C 
ATOM     22  C   UNL     1     -15.964  24.076  34.406  1.00  0.00    -0.008 C 
ATOM     23  C   UNL     1     -15.761  26.571  33.944  1.00  0.00    -0.027 C 
ATOM     24  C   UNL     1     -16.535  25.487  34.182  1.00  0.00    -0.065 C 
ATOM     25  C   UNL     1     -16.934  23.027  33.749  1.00  0.00     0.014 C 
ATOM     26  C   UNL     1     -15.928  23.835  35.939  1.00  0.00     0.016 C 
ATOM     27  C   UNL     1     -18.041  25.625  34.133  1.00  0.00     0.063 C 
ATOM     28  C   UNL     1     -17.704  23.604  32.550  1.00  0.00     0.033 C 
ATOM     29  C   UNL     1     -18.628  24.768  32.983  1.00  0.00     0.118 C 
BRANCH  29  30
ATOM     30  O   UNL     1     -18.950  25.572  31.875  1.00  0.00    -0.393 OA
ATOM     31  H   UNL     1     -19.912  25.427  31.672  1.00  0.00     0.210 HD
ENDBRANCH  29  30
ENDBRANCH   9  11
ENDBRANCH   1   9
TORSDOF 7
ENDMDL
MODEL 9
REMARK VINA RESULT:    -5.206      2.910      8.766
REMARK INTER + INTRA:          -8.508
REMARK INTER:                  -6.845
REMARK INTRA:                  -1.664
REMARK UNBOUND:                -1.324
REMARK SMILES CC[C@H](CC[C@@H](C)[C@@H]1CC[C@H]2[C@H]3CC=C4C[C@@H](O)CC[C@@]4(C)[C@@H]3CC[C@]21C)C(C)C
REMARK SMILES IDX 5 1 4 2 3 3 2 4 1 5 28 6 29 7 30 8 6 9 7 10 8 11 9 12 26 13
REMARK SMILES IDX 10 14 11 15 25 16 27 17 12 18 24 19 23 20 13 21 21 22 14 23
REMARK SMILES IDX 15 24 20 25 22 26 16 27 19 28 17 29 18 30
REMARK H PARENT 18 31
REMARK Flexibility Score: inf
ROOT
ATOM      1  C   UNL     1     -12.623  27.930  40.208  1.00  0.00     0.004 C 
ENDROOT
BRANCH   1   2
ATOM      2  C   UNL     1     -13.128  27.100  41.407  1.00  0.00     0.004 C 
BRANCH   2   3
ATOM      3  C   UNL     1     -13.398  25.603  41.073  1.00  0.00    -0.009 C 
BRANCH   3   4
ATOM      4  C   UNL     1     -13.922  25.406  39.618  1.00  0.00     0.000 C 
ATOM      5  C   UNL     1     -15.308  24.765  39.528  1.00  0.00     0.004 C 
ENDBRANCH   3   4
BRANCH   3   6
ATOM      6  C   UNL     1     -12.150  24.709  41.395  1.00  0.00    -0.014 C 
ATOM      7  C   UNL     1     -11.433  24.229  40.118  1.00  0.00     0.007 C 
ATOM      8  C   UNL     1     -12.523  23.473  42.239  1.00  0.00     0.007 C 
ENDBRANCH   3   6
ENDBRANCH   2   3
ENDBRANCH   1   2
BRANCH   1   9
ATOM      9  C   UNL     1     -11.083  28.128  40.207  1.00  0.00    -0.011 C 
ATOM     10  C   UNL     1     -10.650  29.050  39.045  1.00  0.00     0.008 C 
BRANCH   9  11
ATOM     11  C   UNL     1     -10.587  28.616  41.621  1.00  0.00    -0.002 C 
ATOM     12  C   UNL     1     -10.273  30.119  41.641  1.00  0.00     0.005 C 
ATOM     13  C   UNL     1      -9.321  27.906  42.236  1.00  0.00    -0.026 C 
ATOM     14  C   UNL     1      -8.762  30.263  41.604  1.00  0.00     0.005 C 
ATOM     15  C   UNL     1      -8.145  28.913  42.027  1.00  0.00    -0.001 C 
ATOM     16  C   UNL     1      -9.552  27.599  43.759  1.00  0.00     0.007 C 
ATOM     17  C   UNL     1      -8.980  26.543  41.575  1.00  0.00     0.012 C 
ATOM     18  C   UNL     1      -7.212  28.999  43.267  1.00  0.00     0.000 C 
ATOM     19  C   UNL     1      -9.363  28.811  44.680  1.00  0.00     0.005 C 
ATOM     20  C   UNL     1      -7.961  29.482  44.539  1.00  0.00     0.003 C 
ATOM     21  C   UNL     1      -5.961  29.853  43.012  1.00  0.00     0.031 C 
ATOM     22  C   UNL     1      -7.038  29.363  45.808  1.00  0.00    -0.008 C 
ATOM     23  C   UNL     1      -5.148  30.076  44.259  1.00  0.00    -0.027 C 
ATOM     24  C   UNL     1      -5.648  29.953  45.510  1.00  0.00    -0.065 C 
ATOM     25  C   UNL     1      -7.672  30.146  47.016  1.00  0.00     0.014 C 
ATOM     26  C   UNL     1      -6.827  27.884  46.226  1.00  0.00     0.016 C 
ATOM     27  C   UNL     1      -4.864  30.505  46.680  1.00  0.00     0.063 C 
ATOM     28  C   UNL     1      -7.172  31.598  47.106  1.00  0.00     0.033 C 
ATOM     29  C   UNL     1      -5.646  31.653  47.367  1.00  0.00     0.118 C 
BRANCH  29  30
ATOM     30  O   UNL     1      -5.132  32.905  46.987  1.00  0.00    -0.393 OA
ATOM     31  H   UNL     1      -5.421  33.074  46.051  1.00  0.00     0.210 HD
ENDBRANCH  29  30
ENDBRANCH   9  11
ENDBRANCH   1   9
TORSDOF 7
ENDMDL
