MODEL 1
REMARK VINA RESULT:    -6.443      0.000      0.000
REMARK INTER + INTRA:          -7.878
REMARK INTER:                  -7.573
REMARK INTRA:                  -0.305
REMARK UNBOUND:                -0.305
REMARK SMILES Oc1ccc(-c2[o+]c3cc(O)cc(O)c3cc2O)cc1
REMARK SMILES IDX 6 1 7 2 8 3 9 4 10 5 12 6 13 7 15 8 16 9 17 10 5 11 4 12
REMARK SMILES IDX 3 13 2 14 19 15 20 16 1 17 18 19 11 21 14 23
REMARK H PARENT 1 18 18 20 11 22 14 24
REMARK Flexibility Score: inf
ROOT
ATOM      1  C   UNL     1       7.954  -7.588  42.627  1.00  0.00     0.401 A 
ATOM      2  O   UNL     1       7.601  -8.255  41.531  1.00  0.00    -0.202 OA
ATOM      3  C   UNL     1       7.231  -9.531  41.542  1.00  0.00     0.368 A 
ATOM      4  C   UNL     1       6.875 -10.146  40.339  1.00  0.00     0.162 A 
ATOM      5  C   UNL     1       6.478 -11.483  40.320  1.00  0.00     0.128 A 
ATOM      6  C   UNL     1       6.436 -12.214  41.512  1.00  0.00     0.093 A 
ATOM      7  C   UNL     1       6.788 -11.621  42.731  1.00  0.00     0.136 A 
ATOM      8  C   UNL     1       7.195 -10.261  42.754  1.00  0.00     0.125 A 
ATOM      9  C   UNL     1       7.577  -9.589  43.926  1.00  0.00     0.078 A 
ATOM     10  C   UNL     1       7.970  -8.248  43.869  1.00  0.00     0.223 A 
ENDROOT
BRANCH   1  11
ATOM     11  C   UNL     1       8.339  -6.164  42.487  1.00  0.00     0.084 A 
ATOM     12  C   UNL     1       9.645  -5.790  42.123  1.00  0.00     0.022 A 
ATOM     13  C   UNL     1       9.991  -4.439  42.020  1.00  0.00     0.047 A 
ATOM     14  C   UNL     1       9.041  -3.446  42.291  1.00  0.00     0.115 A 
ATOM     15  C   UNL     1       7.398  -5.161  42.777  1.00  0.00     0.022 A 
ATOM     16  C   UNL     1       7.747  -3.811  42.672  1.00  0.00     0.047 A 
BRANCH  14  17
ATOM     17  O   UNL     1       9.373  -2.098  42.189  1.00  0.00    -0.508 OA
ATOM     18  H   UNL     1      10.097  -1.686  42.767  1.00  0.00     0.293 HD
ENDBRANCH  14  17
ENDBRANCH   1  11
BRANCH  10  19
ATOM     19  O   UNL     1       8.399  -7.595  45.025  1.00  0.00    -0.500 OA
ATOM     20  H   UNL     1       7.899  -6.800  45.403  1.00  0.00     0.294 HD
ENDBRANCH  10  19
BRANCH   5  21
ATOM     21  O   UNL     1       6.127 -12.078  39.110  1.00  0.00    -0.507 OA
ATOM     22  H   UNL     1       5.183 -12.022  38.746  1.00  0.00     0.293 HD
ENDBRANCH   5  21
BRANCH   7  23
ATOM     23  O   UNL     1       6.718 -12.418  43.878  1.00  0.00    -0.507 OA
ATOM     24  H   UNL     1       7.423 -12.442  44.600  1.00  0.00     0.293 HD
ENDBRANCH   7  23
TORSDOF 5
ENDMDL
MODEL 2
REMARK VINA RESULT:    -6.248      1.924      3.820
REMARK INTER + INTRA:          -7.648
REMARK INTER:                  -7.327
REMARK INTRA:                  -0.321
REMARK UNBOUND:                -0.305
REMARK SMILES Oc1ccc(-c2[o+]c3cc(O)cc(O)c3cc2O)cc1
REMARK SMILES IDX 6 1 7 2 8 3 9 4 10 5 12 6 13 7 15 8 16 9 17 10 5 11 4 12
REMARK SMILES IDX 3 13 2 14 19 15 20 16 1 17 18 19 11 21 14 23
REMARK H PARENT 1 18 18 20 11 22 14 24
REMARK Flexibility Score: inf
ROOT
ATOM      1  C   UNL     1       8.766  -4.910  42.202  1.00  0.00     0.401 A 
ATOM      2  O   UNL     1       8.740  -5.799  43.192  1.00  0.00    -0.202 OA
ATOM      3  C   UNL     1       8.276  -7.035  43.050  1.00  0.00     0.368 A 
ATOM      4  C   UNL     1       8.293  -7.898  44.150  1.00  0.00     0.162 A 
ATOM      5  C   UNL     1       7.815  -9.204  44.029  1.00  0.00     0.128 A 
ATOM      6  C   UNL     1       7.315  -9.653  42.802  1.00  0.00     0.093 A 
ATOM      7  C   UNL     1       7.288  -8.807  41.685  1.00  0.00     0.136 A 
ATOM      8  C   UNL     1       7.770  -7.478  41.805  1.00  0.00     0.125 A 
ATOM      9  C   UNL     1       7.769  -6.558  40.743  1.00  0.00     0.078 A 
ATOM     10  C   UNL     1       8.258  -5.262  40.938  1.00  0.00     0.223 A 
ENDROOT
BRANCH   1  11
ATOM     11  C   UNL     1       9.318  -3.564  42.483  1.00  0.00     0.084 A 
ATOM     12  C   UNL     1      10.659  -3.248  42.198  1.00  0.00     0.022 A 
ATOM     13  C   UNL     1      11.163  -1.978  42.495  1.00  0.00     0.047 A 
ATOM     14  C   UNL     1      10.340  -1.015  43.090  1.00  0.00     0.115 A 
ATOM     15  C   UNL     1       8.505  -2.598  43.099  1.00  0.00     0.022 A 
ATOM     16  C   UNL     1       9.013  -1.329  43.393  1.00  0.00     0.047 A 
BRANCH  14  17
ATOM     17  O   UNL     1      10.832   0.254  43.387  1.00  0.00    -0.508 OA
ATOM     18  H   UNL     1      11.384   0.778  42.719  1.00  0.00     0.293 HD
ENDBRANCH  14  17
ENDBRANCH   1  11
BRANCH  10  19
ATOM     19  O   UNL     1       8.210  -4.333  39.899  1.00  0.00    -0.500 OA
ATOM     20  H   UNL     1       9.045  -3.874  39.556  1.00  0.00     0.294 HD
ENDBRANCH  10  19
BRANCH   5  21
ATOM     21  O   UNL     1       7.841 -10.049  45.137  1.00  0.00    -0.507 OA
ATOM     22  H   UNL     1       7.542 -11.015  45.073  1.00  0.00     0.293 HD
ENDBRANCH   5  21
BRANCH   7  23
ATOM     23  O   UNL     1       6.776  -9.332  40.494  1.00  0.00    -0.507 OA
ATOM     24  H   UNL     1       7.070 -10.205  40.083  1.00  0.00     0.293 HD
ENDBRANCH   7  23
TORSDOF 5
ENDMDL
MODEL 3
REMARK VINA RESULT:    -6.081      1.916      7.446
REMARK INTER + INTRA:          -7.452
REMARK INTER:                  -7.143
REMARK INTRA:                  -0.309
REMARK UNBOUND:                -0.305
REMARK SMILES Oc1ccc(-c2[o+]c3cc(O)cc(O)c3cc2O)cc1
REMARK SMILES IDX 6 1 7 2 8 3 9 4 10 5 12 6 13 7 15 8 16 9 17 10 5 11 4 12
REMARK SMILES IDX 3 13 2 14 19 15 20 16 1 17 18 19 11 21 14 23
REMARK H PARENT 1 18 18 20 11 22 14 24
REMARK Flexibility Score: inf
ROOT
ATOM      1  C   UNL     1       8.443  -5.697  42.736  1.00  0.00     0.401 A 
ATOM      2  O   UNL     1       9.668  -5.337  42.361  1.00  0.00    -0.202 OA
ATOM      3  C   UNL     1      10.075  -4.073  42.318  1.00  0.00     0.368 A 
ATOM      4  C   UNL     1      11.382  -3.793  41.912  1.00  0.00     0.162 A 
ATOM      5  C   UNL     1      11.839  -2.476  41.861  1.00  0.00     0.128 A 
ATOM      6  C   UNL     1      10.982  -1.427  42.216  1.00  0.00     0.093 A 
ATOM      7  C   UNL     1       9.667  -1.682  42.626  1.00  0.00     0.136 A 
ATOM      8  C   UNL     1       9.199  -3.021  42.677  1.00  0.00     0.125 A 
ATOM      9  C   UNL     1       7.894  -3.368  43.063  1.00  0.00     0.078 A 
ATOM     10  C   UNL     1       7.504  -4.710  43.085  1.00  0.00     0.223 A 
ENDROOT
BRANCH   1  11
ATOM     11  C   UNL     1       8.112  -7.142  42.752  1.00  0.00     0.084 A 
ATOM     12  C   UNL     1       7.673  -7.806  41.592  1.00  0.00     0.022 A 
ATOM     13  C   UNL     1       7.344  -9.164  41.638  1.00  0.00     0.047 A 
ATOM     14  C   UNL     1       7.436  -9.871  42.843  1.00  0.00     0.115 A 
ATOM     15  C   UNL     1       8.182  -7.854  43.961  1.00  0.00     0.022 A 
ATOM     16  C   UNL     1       7.853  -9.212  44.003  1.00  0.00     0.047 A 
BRANCH  14  17
ATOM     17  O   UNL     1       7.113 -11.224  42.899  1.00  0.00    -0.508 OA
ATOM     18  H   UNL     1       6.532 -11.660  42.192  1.00  0.00     0.293 HD
ENDBRANCH  14  17
ENDBRANCH   1  11
BRANCH  10  19
ATOM     19  O   UNL     1       6.192  -5.052  43.418  1.00  0.00    -0.500 OA
ATOM     20  H   UNL     1       5.958  -5.964  43.791  1.00  0.00     0.294 HD
ENDBRANCH  10  19
BRANCH   5  21
ATOM     21  O   UNL     1      13.146  -2.217  41.454  1.00  0.00    -0.507 OA
ATOM     22  H   UNL     1      13.612  -2.799  40.767  1.00  0.00     0.293 HD
ENDBRANCH   5  21
BRANCH   7  23
ATOM     23  O   UNL     1       8.876  -0.581  42.968  1.00  0.00    -0.507 OA
ATOM     24  H   UNL     1       8.557   0.118  42.312  1.00  0.00     0.293 HD
ENDBRANCH   7  23
TORSDOF 5
ENDMDL
MODEL 4
REMARK VINA RESULT:    -5.971      1.965      7.381
REMARK INTER + INTRA:          -7.323
REMARK INTER:                  -7.131
REMARK INTRA:                  -0.192
REMARK UNBOUND:                -0.305
REMARK SMILES Oc1ccc(-c2[o+]c3cc(O)cc(O)c3cc2O)cc1
REMARK SMILES IDX 6 1 7 2 8 3 9 4 10 5 12 6 13 7 15 8 16 9 17 10 5 11 4 12
REMARK SMILES IDX 3 13 2 14 19 15 20 16 1 17 18 19 11 21 14 23
REMARK H PARENT 1 18 18 20 11 22 14 24
REMARK Flexibility Score: inf
ROOT
ATOM      1  C   UNL     1       9.001  -6.530  41.924  1.00  0.00     0.401 A 
ATOM      2  O   UNL     1       8.616  -5.387  42.484  1.00  0.00    -0.202 OA
ATOM      3  C   UNL     1       9.114  -4.203  42.143  1.00  0.00     0.368 A 
ATOM      4  C   UNL     1       8.644  -3.056  42.788  1.00  0.00     0.162 A 
ATOM      5  C   UNL     1       9.146  -1.799  42.447  1.00  0.00     0.128 A 
ATOM      6  C   UNL     1      10.127  -1.686  41.456  1.00  0.00     0.093 A 
ATOM      7  C   UNL     1      10.615  -2.821  40.795  1.00  0.00     0.136 A 
ATOM      8  C   UNL     1      10.108  -4.101  41.141  1.00  0.00     0.125 A 
ATOM      9  C   UNL     1      10.547  -5.293  40.540  1.00  0.00     0.078 A 
ATOM     10  C   UNL     1      10.003  -6.518  40.937  1.00  0.00     0.223 A 
ENDROOT
BRANCH   1  11
ATOM     11  C   UNL     1       8.363  -7.786  42.384  1.00  0.00     0.084 A 
ATOM     12  C   UNL     1       7.581  -8.571  41.517  1.00  0.00     0.022 A 
ATOM     13  C   UNL     1       6.968  -9.739  41.981  1.00  0.00     0.047 A 
ATOM     14  C   UNL     1       7.118 -10.130  43.318  1.00  0.00     0.115 A 
ATOM     15  C   UNL     1       8.490  -8.174  43.728  1.00  0.00     0.022 A 
ATOM     16  C   UNL     1       7.877  -9.343  44.189  1.00  0.00     0.047 A 
BRANCH  14  17
ATOM     17  O   UNL     1       6.515 -11.292  43.790  1.00  0.00    -0.508 OA
ATOM     18  H   UNL     1       5.748 -11.260  44.452  1.00  0.00     0.293 HD
ENDBRANCH  14  17
ENDBRANCH   1  11
BRANCH  10  19
ATOM     19  O   UNL     1      10.476  -7.706  40.378  1.00  0.00    -0.500 OA
ATOM     20  H   UNL     1      11.465  -7.920  40.339  1.00  0.00     0.294 HD
ENDBRANCH  10  19
BRANCH   5  21
ATOM     21  O   UNL     1       8.664  -0.668  43.102  1.00  0.00    -0.507 OA
ATOM     22  H   UNL     1       8.188   0.072  42.599  1.00  0.00     0.293 HD
ENDBRANCH   5  21
BRANCH   7  23
ATOM     23  O   UNL     1      11.592  -2.624  39.815  1.00  0.00    -0.507 OA
ATOM     24  H   UNL     1      12.266  -1.872  39.824  1.00  0.00     0.293 HD
ENDBRANCH   7  23
TORSDOF 5
ENDMDL
MODEL 5
REMARK VINA RESULT:    -5.963      1.985      6.982
REMARK INTER + INTRA:          -7.313
REMARK INTER:                  -7.043
REMARK INTRA:                  -0.270
REMARK UNBOUND:                -0.305
REMARK SMILES Oc1ccc(-c2[o+]c3cc(O)cc(O)c3cc2O)cc1
REMARK SMILES IDX 6 1 7 2 8 3 9 4 10 5 12 6 13 7 15 8 16 9 17 10 5 11 4 12
REMARK SMILES IDX 3 13 2 14 19 15 20 16 1 17 18 19 11 21 14 23
REMARK H PARENT 1 18 18 20 11 22 14 24
REMARK Flexibility Score: inf
ROOT
ATOM      1  C   UNL     1       7.200 -11.071  41.884  1.00  0.00     0.401 A 
ATOM      2  O   UNL     1       7.926 -10.113  41.313  1.00  0.00    -0.202 OA
ATOM      3  C   UNL     1       8.279  -8.995  41.939  1.00  0.00     0.368 A 
ATOM      4  C   UNL     1       9.045  -8.047  41.256  1.00  0.00     0.162 A 
ATOM      5  C   UNL     1       9.435  -6.866  41.889  1.00  0.00     0.128 A 
ATOM      6  C   UNL     1       9.056  -6.628  43.215  1.00  0.00     0.093 A 
ATOM      7  C   UNL     1       8.288  -7.563  43.921  1.00  0.00     0.136 A 
ATOM      8  C   UNL     1       7.888  -8.765  43.279  1.00  0.00     0.125 A 
ATOM      9  C   UNL     1       7.108  -9.751  43.905  1.00  0.00     0.078 A 
ATOM     10  C   UNL     1       6.749 -10.908  43.206  1.00  0.00     0.223 A 
ENDROOT
BRANCH   1  11
ATOM     11  C   UNL     1       6.878 -12.276  41.083  1.00  0.00     0.084 A 
ATOM     12  C   UNL     1       7.839 -13.275  40.844  1.00  0.00     0.022 A 
ATOM     13  C   UNL     1       7.519 -14.392  40.066  1.00  0.00     0.047 A 
ATOM     14  C   UNL     1       6.241 -14.517  39.507  1.00  0.00     0.115 A 
ATOM     15  C   UNL     1       5.606 -12.400  40.502  1.00  0.00     0.022 A 
ATOM     16  C   UNL     1       5.288 -13.518  39.724  1.00  0.00     0.047 A 
BRANCH  14  17
ATOM     17  O   UNL     1       5.910 -15.626  38.732  1.00  0.00    -0.508 OA
ATOM     18  H   UNL     1       5.820 -15.560  37.725  1.00  0.00     0.293 HD
ENDBRANCH  14  17
ENDBRANCH   1  11
BRANCH  10  19
ATOM     19  O   UNL     1       5.932 -11.864  43.810  1.00  0.00    -0.500 OA
ATOM     20  H   UNL     1       6.248 -12.814  43.964  1.00  0.00     0.294 HD
ENDBRANCH  10  19
BRANCH   5  21
ATOM     21  O   UNL     1      10.198  -5.932  41.191  1.00  0.00    -0.507 OA
ATOM     22  H   UNL     1      10.132  -5.839  40.184  1.00  0.00     0.293 HD
ENDBRANCH   5  21
BRANCH   7  23
ATOM     23  O   UNL     1       7.953  -7.254  45.243  1.00  0.00    -0.507 OA
ATOM     24  H   UNL     1       8.149  -7.848  46.035  1.00  0.00     0.293 HD
ENDBRANCH   7  23
TORSDOF 5
ENDMDL
MODEL 6
REMARK VINA RESULT:    -5.902      5.749      8.888
REMARK INTER + INTRA:          -7.241
REMARK INTER:                  -7.220
REMARK INTRA:                  -0.021
REMARK UNBOUND:                -0.305
REMARK SMILES Oc1ccc(-c2[o+]c3cc(O)cc(O)c3cc2O)cc1
REMARK SMILES IDX 6 1 7 2 8 3 9 4 10 5 12 6 13 7 15 8 16 9 17 10 5 11 4 12
REMARK SMILES IDX 3 13 2 14 19 15 20 16 1 17 18 19 11 21 14 23
REMARK H PARENT 1 18 18 20 11 22 14 24
REMARK Flexibility Score: inf
ROOT
ATOM      1  C   UNL     1       7.239  -1.810  38.522  1.00  0.00     0.401 A 
ATOM      2  O   UNL     1       7.684  -0.933  39.419  1.00  0.00    -0.202 OA
ATOM      3  C   UNL     1       8.207  -1.286  40.588  1.00  0.00     0.368 A 
ATOM      4  C   UNL     1       8.650  -0.292  41.464  1.00  0.00     0.162 A 
ATOM      5  C   UNL     1       9.207  -0.634  42.696  1.00  0.00     0.128 A 
ATOM      6  C   UNL     1       9.323  -1.980  43.059  1.00  0.00     0.093 A 
ATOM      7  C   UNL     1       8.887  -2.996  42.198  1.00  0.00     0.136 A 
ATOM      8  C   UNL     1       8.317  -2.651  40.945  1.00  0.00     0.125 A 
ATOM      9  C   UNL     1       7.842  -3.602  40.026  1.00  0.00     0.078 A 
ATOM     10  C   UNL     1       7.289  -3.185  38.811  1.00  0.00     0.223 A 
ENDROOT
BRANCH   1  11
ATOM     11  C   UNL     1       6.685  -1.290  37.250  1.00  0.00     0.084 A 
ATOM     12  C   UNL     1       7.087  -1.814  36.007  1.00  0.00     0.022 A 
ATOM     13  C   UNL     1       6.568  -1.292  34.819  1.00  0.00     0.047 A 
ATOM     14  C   UNL     1       5.653  -0.232  34.856  1.00  0.00     0.115 A 
ATOM     15  C   UNL     1       5.783  -0.214  37.276  1.00  0.00     0.022 A 
ATOM     16  C   UNL     1       5.266   0.307  36.087  1.00  0.00     0.047 A 
BRANCH  14  17
ATOM     17  O   UNL     1       5.128   0.295  33.679  1.00  0.00    -0.508 OA
ATOM     18  H   UNL     1       5.693   0.388  32.842  1.00  0.00     0.293 HD
ENDBRANCH  14  17
ENDBRANCH   1  11
BRANCH  10  19
ATOM     19  O   UNL     1       6.770  -4.126  37.920  1.00  0.00    -0.500 OA
ATOM     20  H   UNL     1       7.177  -4.273  37.005  1.00  0.00     0.294 HD
ENDBRANCH  10  19
BRANCH   5  21
ATOM     21  O   UNL     1       9.643   0.373  43.556  1.00  0.00    -0.507 OA
ATOM     22  H   UNL     1       9.401   1.344  43.400  1.00  0.00     0.293 HD
ENDBRANCH   5  21
BRANCH   7  23
ATOM     23  O   UNL     1       9.041  -4.316  42.632  1.00  0.00    -0.507 OA
ATOM     24  H   UNL     1       9.795  -4.925  42.351  1.00  0.00     0.293 HD
ENDBRANCH   7  23
TORSDOF 5
ENDMDL
MODEL 7
REMARK VINA RESULT:    -5.877      2.299      6.936
REMARK INTER + INTRA:          -7.212
REMARK INTER:                  -6.910
REMARK INTRA:                  -0.302
REMARK UNBOUND:                -0.305
REMARK SMILES Oc1ccc(-c2[o+]c3cc(O)cc(O)c3cc2O)cc1
REMARK SMILES IDX 6 1 7 2 8 3 9 4 10 5 12 6 13 7 15 8 16 9 17 10 5 11 4 12
REMARK SMILES IDX 3 13 2 14 19 15 20 16 1 17 18 19 11 21 14 23
REMARK H PARENT 1 18 18 20 11 22 14 24
REMARK Flexibility Score: inf
ROOT
ATOM      1  C   UNL     1       8.588  -6.550  41.751  1.00  0.00     0.401 A 
ATOM      2  O   UNL     1       9.703  -6.591  41.025  1.00  0.00    -0.202 OA
ATOM      3  C   UNL     1      10.278  -5.509  40.510  1.00  0.00     0.368 A 
ATOM      4  C   UNL     1      11.451  -5.653  39.764  1.00  0.00     0.162 A 
ATOM      5  C   UNL     1      12.079  -4.534  39.214  1.00  0.00     0.128 A 
ATOM      6  C   UNL     1      11.532  -3.261  39.411  1.00  0.00     0.093 A 
ATOM      7  C   UNL     1      10.358  -3.091  40.155  1.00  0.00     0.136 A 
ATOM      8  C   UNL     1       9.715  -4.227  40.713  1.00  0.00     0.125 A 
ATOM      9  C   UNL     1       8.528  -4.152  41.462  1.00  0.00     0.078 A 
ATOM     10  C   UNL     1       7.951  -5.317  41.977  1.00  0.00     0.223 A 
ENDROOT
BRANCH   1  11
ATOM     11  C   UNL     1       8.049  -7.825  42.278  1.00  0.00     0.084 A 
ATOM     12  C   UNL     1       8.249  -8.207  43.618  1.00  0.00     0.022 A 
ATOM     13  C   UNL     1       7.751  -9.426  44.086  1.00  0.00     0.047 A 
ATOM     14  C   UNL     1       7.061 -10.285  43.221  1.00  0.00     0.115 A 
ATOM     15  C   UNL     1       7.374  -8.702  41.413  1.00  0.00     0.022 A 
ATOM     16  C   UNL     1       6.877  -9.920  41.885  1.00  0.00     0.047 A 
BRANCH  14  17
ATOM     17  O   UNL     1       6.559 -11.501  43.678  1.00  0.00    -0.508 OA
ATOM     18  H   UNL     1       5.702 -11.893  43.307  1.00  0.00     0.293 HD
ENDBRANCH  14  17
ENDBRANCH   1  11
BRANCH  10  19
ATOM     19  O   UNL     1       6.745  -5.249  42.677  1.00  0.00    -0.500 OA
ATOM     20  H   UNL     1       5.854  -5.209  42.198  1.00  0.00     0.294 HD
ENDBRANCH  10  19
BRANCH   5  21
ATOM     21  O   UNL     1      13.247  -4.698  38.473  1.00  0.00    -0.507 OA
ATOM     22  H   UNL     1      13.791  -5.551  38.523  1.00  0.00     0.293 HD
ENDBRANCH   5  21
BRANCH   7  23
ATOM     23  O   UNL     1       9.876  -1.787  40.308  1.00  0.00    -0.507 OA
ATOM     24  H   UNL     1      10.317  -1.080  40.878  1.00  0.00     0.293 HD
ENDBRANCH   7  23
TORSDOF 5
ENDMDL
MODEL 8
REMARK VINA RESULT:    -5.766      2.870      5.422
REMARK INTER + INTRA:          -7.082
REMARK INTER:                  -6.794
REMARK INTRA:                  -0.289
REMARK UNBOUND:                -0.305
REMARK SMILES Oc1ccc(-c2[o+]c3cc(O)cc(O)c3cc2O)cc1
REMARK SMILES IDX 6 1 7 2 8 3 9 4 10 5 12 6 13 7 15 8 16 9 17 10 5 11 4 12
REMARK SMILES IDX 3 13 2 14 19 15 20 16 1 17 18 19 11 21 14 23
REMARK H PARENT 1 18 18 20 11 22 14 24
REMARK Flexibility Score: inf
ROOT
ATOM      1  C   UNL     1       6.976 -11.996  41.455  1.00  0.00     0.401 A 
ATOM      2  O   UNL     1       7.821 -13.024  41.488  1.00  0.00    -0.202 OA
ATOM      3  C   UNL     1       7.641 -14.138  40.787  1.00  0.00     0.368 A 
ATOM      4  C   UNL     1       8.586 -15.163  40.885  1.00  0.00     0.162 A 
ATOM      5  C   UNL     1       8.425 -16.343  40.158  1.00  0.00     0.128 A 
ATOM      6  C   UNL     1       7.311 -16.502  39.326  1.00  0.00     0.093 A 
ATOM      7  C   UNL     1       6.350 -15.490  39.210  1.00  0.00     0.136 A 
ATOM      8  C   UNL     1       6.509 -14.289  39.951  1.00  0.00     0.125 A 
ATOM      9  C   UNL     1       5.591 -13.228  39.906  1.00  0.00     0.078 A 
ATOM     10  C   UNL     1       5.813 -12.077  40.669  1.00  0.00     0.223 A 
ENDROOT
BRANCH   1  11
ATOM     11  C   UNL     1       7.292 -10.804  42.276  1.00  0.00     0.084 A 
ATOM     12  C   UNL     1       7.812  -9.632  41.696  1.00  0.00     0.022 A 
ATOM     13  C   UNL     1       8.126  -8.528  42.495  1.00  0.00     0.047 A 
ATOM     14  C   UNL     1       7.936  -8.585  43.881  1.00  0.00     0.115 A 
ATOM     15  C   UNL     1       7.125 -10.859  43.670  1.00  0.00     0.022 A 
ATOM     16  C   UNL     1       7.439  -9.753  44.465  1.00  0.00     0.047 A 
BRANCH  14  17
ATOM     17  O   UNL     1       8.243  -7.490  44.686  1.00  0.00    -0.508 OA
ATOM     18  H   UNL     1       8.539  -6.607  44.287  1.00  0.00     0.293 HD
ENDBRANCH  14  17
ENDBRANCH   1  11
BRANCH  10  19
ATOM     19  O   UNL     1       4.875 -11.044  40.665  1.00  0.00    -0.500 OA
ATOM     20  H   UNL     1       3.929 -11.182  40.998  1.00  0.00     0.294 HD
ENDBRANCH  10  19
BRANCH   5  21
ATOM     21  O   UNL     1       9.378 -17.353  40.269  1.00  0.00    -0.507 OA
ATOM     22  H   UNL     1       9.528 -18.024  39.525  1.00  0.00     0.293 HD
ENDBRANCH   5  21
BRANCH   7  23
ATOM     23  O   UNL     1       5.268 -15.724  38.356  1.00  0.00    -0.507 OA
ATOM     24  H   UNL     1       4.472 -15.111  38.262  1.00  0.00     0.293 HD
ENDBRANCH   7  23
TORSDOF 5
ENDMDL
MODEL 9
REMARK VINA RESULT:    -5.740      6.220      7.998
REMARK INTER + INTRA:          -7.051
REMARK INTER:                  -6.915
REMARK INTRA:                  -0.136
REMARK UNBOUND:                -0.305
REMARK SMILES Oc1ccc(-c2[o+]c3cc(O)cc(O)c3cc2O)cc1
REMARK SMILES IDX 6 1 7 2 8 3 9 4 10 5 12 6 13 7 15 8 16 9 17 10 5 11 4 12
REMARK SMILES IDX 3 13 2 14 19 15 20 16 1 17 18 19 11 21 14 23
REMARK H PARENT 1 18 18 20 11 22 14 24
REMARK Flexibility Score: inf
ROOT
ATOM      1  C   UNL     1       8.282  -2.340  39.712  1.00  0.00     0.401 A 
ATOM      2  O   UNL     1       7.459  -1.580  38.993  1.00  0.00    -0.202 OA
ATOM      3  C   UNL     1       7.135  -1.847  37.732  1.00  0.00     0.368 A 
ATOM      4  C   UNL     1       6.259  -0.990  37.060  1.00  0.00     0.162 A 
ATOM      5  C   UNL     1       5.898  -1.247  35.737  1.00  0.00     0.128 A 
ATOM      6  C   UNL     1       6.415  -2.369  35.079  1.00  0.00     0.093 A 
ATOM      7  C   UNL     1       7.293  -3.243  35.731  1.00  0.00     0.136 A 
ATOM      8  C   UNL     1       7.665  -2.983  37.076  1.00  0.00     0.125 A 
ATOM      9  C   UNL     1       8.549  -3.797  37.803  1.00  0.00     0.078 A 
ATOM     10  C   UNL     1       8.872  -3.473  39.125  1.00  0.00     0.223 A 
ENDROOT
BRANCH   1  11
ATOM     11  C   UNL     1       8.558  -1.942  41.112  1.00  0.00     0.084 A 
ATOM     12  C   UNL     1       8.285  -2.807  42.188  1.00  0.00     0.022 A 
ATOM     13  C   UNL     1       8.533  -2.399  43.502  1.00  0.00     0.047 A 
ATOM     14  C   UNL     1       9.042  -1.120  43.759  1.00  0.00     0.115 A 
ATOM     15  C   UNL     1       9.050  -0.654  41.380  1.00  0.00     0.022 A 
ATOM     16  C   UNL     1       9.296  -0.249  42.696  1.00  0.00     0.047 A 
BRANCH  14  17
ATOM     17  O   UNL     1       9.294  -0.705  45.064  1.00  0.00    -0.508 OA
ATOM     18  H   UNL     1      10.104  -0.141  45.293  1.00  0.00     0.293 HD
ENDBRANCH  14  17
ENDBRANCH   1  11
BRANCH  10  19
ATOM     19  O   UNL     1       9.790  -4.252  39.831  1.00  0.00    -0.500 OA
ATOM     20  H   UNL     1      10.742  -4.377  39.508  1.00  0.00     0.294 HD
ENDBRANCH  10  19
BRANCH   5  21
ATOM     21  O   UNL     1       5.024  -0.381  35.083  1.00  0.00    -0.507 OA
ATOM     22  H   UNL     1       4.581  -0.635  34.208  1.00  0.00     0.293 HD
ENDBRANCH   5  21
BRANCH   7  23
ATOM     23  O   UNL     1       7.763  -4.342  35.006  1.00  0.00    -0.507 OA
ATOM     24  H   UNL     1       7.402  -5.281  35.095  1.00  0.00     0.293 HD
ENDBRANCH   7  23
TORSDOF 5
ENDMDL
