MODEL 1
REMARK VINA RESULT:    -3.182      0.000      0.000
REMARK INTER + INTRA:         -11.073
REMARK INTER:                  -6.717
REMARK INTRA:                  -4.356
REMARK UNBOUND:                -4.356
REMARK SMILES CCC(=O)CCCCC[C@H]1NC(=O)[C@H]2CCCCN2C(=O)[C@@H]([C@H](C)CC)NC(=O)[C@H](Cc2cn(OC)c3ccccc23)NC1=O
REMARK SMILES IDX 9 1 10 2 44 3 43 4 45 6 30 7 28 8 27 9 29 11 22 12 23 14
REMARK SMILES IDX 24 15 25 16 26 17 31 18 32 19 33 20 42 21 34 22 37 23 41 24
REMARK SMILES IDX 38 25 40 26 39 27 35 28 36 29 11 30 12 31 13 33 14 34 19 35
REMARK SMILES IDX 15 36 18 37 16 38 17 39 20 40 21 41 8 43 7 44 6 45 5 46 3 47
REMARK SMILES IDX 4 48 2 49 1 50
REMARK H PARENT 43 5 27 10 11 32
REMARK Flexibility Score: 80.00
ROOT
ATOM      1  C   UNL     1      56.525  32.181  57.195  1.00  0.00     0.035 C 
ENDROOT
BRANCH   1   2
ATOM      2  C   UNL     1      57.896  32.418  56.498  1.00  0.00     0.171 C 
BRANCH   2   3
ATOM      3  C   UNL     1      57.867  32.073  55.027  1.00  0.00     0.243 C 
ATOM      4  N   UNL     1      57.771  30.713  54.570  1.00  0.00    -0.342 N 
ATOM      5  H   UNL     1      57.208  30.036  55.127  1.00  0.00     0.164 HD
ATOM      6  O   UNL     1      57.909  33.010  54.187  1.00  0.00    -0.273 OA
BRANCH   4   7
ATOM      7  C   UNL     1      58.628  30.151  53.522  1.00  0.00     0.175 C 
BRANCH   7   8
ATOM      8  C   UNL     1      60.047  30.616  53.743  1.00  0.00     0.243 C 
ATOM      9  N   UNL     1      60.802  30.040  54.821  1.00  0.00    -0.342 N 
ATOM     10  H   UNL     1      60.366  29.239  55.326  1.00  0.00     0.164 HD
ATOM     11  O   UNL     1      60.572  31.477  52.983  1.00  0.00    -0.273 OA
BRANCH   9  12
ATOM     12  C   UNL     1      62.231  30.312  55.027  1.00  0.00     0.174 CG0
ATOM     13  G   UNL     1      62.580  30.352  56.505  1.00  0.00     0.000 G0
BRANCH  12  14
ATOM     14  C   UNL     1      63.075  29.288  54.200  1.00  0.00     0.018 C 
ATOM     15  C   UNL     1      63.820  29.955  53.027  1.00  0.00     0.010 C 
BRANCH  14  16
ATOM     16  C   UNL     1      62.279  28.068  53.678  1.00  0.00     0.002 C 
ATOM     17  C   UNL     1      62.163  28.018  52.153  1.00  0.00     0.004 C 
ENDBRANCH  14  16
ENDBRANCH  12  14
ENDBRANCH   9  12
ENDBRANCH   7   8
BRANCH   7  18
ATOM     18  C   UNL     1      58.069  30.459  52.114  1.00  0.00     0.073 C 
BRANCH  18  19
ATOM     19  C   UNL     1      57.719  29.214  51.340  1.00  0.00    -0.016 A 
ATOM     20  C   UNL     1      58.534  28.107  51.155  1.00  0.00     0.134 A 
ATOM     21  C   UNL     1      56.481  28.859  50.830  1.00  0.00     0.006 A 
ATOM     22  N   UNL     1      57.855  27.110  50.547  1.00  0.00    -0.191 N 
ATOM     23  C   UNL     1      56.592  27.570  50.345  1.00  0.00     0.087 A 
ATOM     24  C   UNL     1      55.281  29.568  50.783  1.00  0.00     0.011 A 
ATOM     25  C   UNL     1      55.485  26.933  49.764  1.00  0.00     0.030 A 
ATOM     26  C   UNL     1      54.165  28.943  50.209  1.00  0.00     0.001 A 
ATOM     27  C   UNL     1      54.268  27.633  49.701  1.00  0.00     0.002 A 
BRANCH  22  28
ATOM     28  O   UNL     1      58.433  25.875  50.287  1.00  0.00    -0.417 OA
ATOM     29  C   UNL     1      59.828  25.634  50.168  1.00  0.00     0.313 C 
ENDBRANCH  22  28
ENDBRANCH  18  19
ENDBRANCH   7  18
ENDBRANCH   4   7
ENDBRANCH   2   3
BRANCH   2  30
ATOM     30  N   UNL     1      59.016  31.750  57.175  1.00  0.00    -0.343 N 
ATOM     31  C   UNL     1      60.132  32.471  57.716  1.00  0.00     0.243 C 
ATOM     32  H   UNL     1      58.965  30.728  57.332  1.00  0.00     0.164 HD
ATOM     33  O   UNL     1      60.068  33.727  57.814  1.00  0.00    -0.273 OA
BRANCH  31  34
ATOM     34  C   UNL     1      61.389  31.779  58.209  1.00  0.00     0.174 C 
ATOM     35  N   UNL     1      61.617  30.453  57.587  1.00  0.00    -0.329 N 
ATOM     36  C   UNL     1      61.434  31.712  59.751  1.00  0.00     0.035 C 
ATOM     37  C   UNL     1      61.123  29.199  58.201  1.00  0.00     0.120 C 
ATOM     38  C   UNL     1      60.667  30.512  60.298  1.00  0.00     0.004 C 
ATOM     39  C   UNL     1      61.248  29.221  59.724  1.00  0.00     0.022 C 
BRANCH  35  40
ATOM     40  C   UNL     1      62.586  30.363  56.526  1.00  0.00     0.246 CG0
ATOM     41  O   UNL     1      63.809  30.418  56.824  1.00  0.00    -0.272 OA
ATOM     42  G   UNL     1      62.189  30.327  55.060  1.00  0.00     0.000 G0
ENDBRANCH  35  40
ENDBRANCH  31  34
ENDBRANCH   2  30
ENDBRANCH   1   2
BRANCH   1  43
ATOM     43  C   UNL     1      55.289  31.928  56.298  1.00  0.00     0.003 C 
BRANCH  43  44
ATOM     44  C   UNL     1      54.444  30.680  56.618  1.00  0.00     0.001 C 
BRANCH  44  45
ATOM     45  C   UNL     1      55.047  29.709  57.648  1.00  0.00     0.008 C 
BRANCH  45  46
ATOM     46  C   UNL     1      55.317  28.309  57.069  1.00  0.00     0.075 C 
BRANCH  46  47
ATOM     47  C   UNL     1      56.692  28.180  56.449  1.00  0.00     0.132 C 
ATOM     48  O   UNL     1      57.644  28.750  56.960  1.00  0.00    -0.300 OA
BRANCH  47  49
ATOM     49  C   UNL     1      56.953  27.356  55.209  1.00  0.00     0.072 C 
ATOM     50  C   UNL     1      55.828  27.405  54.173  1.00  0.00     0.012 C 
ENDBRANCH  47  49
ENDBRANCH  46  47
ENDBRANCH  45  46
ENDBRANCH  44  45
ENDBRANCH  43  44
ENDBRANCH   1  43
TORSDOF 12
ENDMDL
MODEL 2
REMARK VINA RESULT:    -3.179      6.062     10.466
REMARK INTER + INTRA:         -11.067
REMARK INTER:                  -8.787
REMARK INTRA:                  -2.280
REMARK UNBOUND:                -4.356
REMARK SMILES CCC(=O)CCCCC[C@H]1NC(=O)[C@H]2CCCCN2C(=O)[C@@H]([C@H](C)CC)NC(=O)[C@H](Cc2cn(OC)c3ccccc23)NC1=O
REMARK SMILES IDX 9 1 10 2 44 3 43 4 45 6 30 7 28 8 27 9 29 11 22 12 23 14
REMARK SMILES IDX 24 15 25 16 26 17 31 18 32 19 33 20 42 21 34 22 37 23 41 24
REMARK SMILES IDX 38 25 40 26 39 27 35 28 36 29 11 30 12 31 13 33 14 34 19 35
REMARK SMILES IDX 15 36 18 37 16 38 17 39 20 40 21 41 8 43 7 44 6 45 5 46 3 47
REMARK SMILES IDX 4 48 2 49 1 50
REMARK H PARENT 43 5 27 10 11 32
REMARK Flexibility Score: 80.00
ROOT
ATOM      1  C   UNL     1      64.285  26.135  59.479  1.00  0.00     0.035 C 
ENDROOT
BRANCH   1   2
ATOM      2  C   UNL     1      64.064  27.305  58.477  1.00  0.00     0.171 C 
BRANCH   2   3
ATOM      3  C   UNL     1      65.361  27.947  58.040  1.00  0.00     0.243 C 
ATOM      4  N   UNL     1      66.091  28.840  58.898  1.00  0.00    -0.342 N 
ATOM      5  H   UNL     1      66.086  28.663  59.924  1.00  0.00     0.164 HD
ATOM      6  O   UNL     1      65.814  27.671  56.897  1.00  0.00    -0.273 OA
BRANCH   4   7
ATOM      7  C   UNL     1      66.621  30.132  58.454  1.00  0.00     0.175 C 
BRANCH   7   8
ATOM      8  C   UNL     1      65.485  30.978  57.932  1.00  0.00     0.243 C 
ATOM      9  N   UNL     1      64.810  31.864  58.839  1.00  0.00    -0.342 N 
ATOM     10  H   UNL     1      65.221  31.964  59.792  1.00  0.00     0.164 HD
ATOM     11  O   UNL     1      65.147  30.928  56.716  1.00  0.00    -0.273 OA
BRANCH   9  12
ATOM     12  C   UNL     1      63.798  32.834  58.400  1.00  0.00     0.174 CG0
ATOM     13  G   UNL     1      62.402  32.238  58.449  1.00  0.00     0.000 G0
BRANCH  12  14
ATOM     14  C   UNL     1      63.958  34.154  59.222  1.00  0.00     0.018 C 
ATOM     15  C   UNL     1      64.817  35.202  58.488  1.00  0.00     0.010 C 
BRANCH  14  16
ATOM     16  C   UNL     1      64.500  33.958  60.658  1.00  0.00     0.002 C 
ATOM     17  C   UNL     1      64.848  35.269  61.366  1.00  0.00     0.004 C 
ENDBRANCH  14  16
ENDBRANCH  12  14
ENDBRANCH   9  12
ENDBRANCH   7   8
BRANCH   7  18
ATOM     18  C   UNL     1      67.789  29.950  57.459  1.00  0.00     0.073 C 
BRANCH  18  19
ATOM     19  C   UNL     1      69.066  30.595  57.932  1.00  0.00    -0.016 A 
ATOM     20  C   UNL     1      69.524  31.859  57.587  1.00  0.00     0.134 A 
ATOM     21  C   UNL     1      69.922  30.142  58.923  1.00  0.00     0.006 A 
ATOM     22  N   UNL     1      70.618  32.184  58.309  1.00  0.00    -0.191 N 
ATOM     23  C   UNL     1      70.866  31.130  59.130  1.00  0.00     0.087 A 
ATOM     24  C   UNL     1      69.916  28.955  59.656  1.00  0.00     0.011 A 
ATOM     25  C   UNL     1      71.876  30.955  60.089  1.00  0.00     0.030 A 
ATOM     26  C   UNL     1      70.917  28.769  60.620  1.00  0.00     0.001 A 
ATOM     27  C   UNL     1      71.891  29.763  60.834  1.00  0.00     0.002 A 
BRANCH  22  28
ATOM     28  O   UNL     1      71.244  33.416  58.185  1.00  0.00    -0.417 OA
ATOM     29  C   UNL     1      70.575  34.659  58.014  1.00  0.00     0.313 C 
ENDBRANCH  22  28
ENDBRANCH  18  19
ENDBRANCH   7  18
ENDBRANCH   4   7
ENDBRANCH   2   3
BRANCH   2  30
ATOM     30  N   UNL     1      63.112  28.314  58.962  1.00  0.00    -0.343 N 
ATOM     31  C   UNL     1      62.059  28.839  58.142  1.00  0.00     0.243 C 
ATOM     32  H   UNL     1      63.158  28.605  59.954  1.00  0.00     0.164 HD
ATOM     33  O   UNL     1      61.792  28.278  57.043  1.00  0.00    -0.273 OA
BRANCH  31  34
ATOM     34  C   UNL     1      61.223  30.036  58.555  1.00  0.00     0.174 C 
ATOM     35  N   UNL     1      62.005  31.101  59.226  1.00  0.00    -0.329 N 
ATOM     36  C   UNL     1      59.992  29.610  59.384  1.00  0.00     0.035 C 
ATOM     37  C   UNL     1      62.157  31.159  60.698  1.00  0.00     0.120 C 
ATOM     38  C   UNL     1      60.323  29.444  60.864  1.00  0.00     0.004 C 
ATOM     39  C   UNL     1      60.872  30.756  61.421  1.00  0.00     0.022 C 
BRANCH  35  40
ATOM     40  C   UNL     1      62.372  32.258  58.452  1.00  0.00     0.246 CG0
ATOM     41  O   UNL     1      61.507  32.772  57.693  1.00  0.00    -0.272 OA
ATOM     42  G   UNL     1      63.789  32.805  58.424  1.00  0.00     0.000 G0
ENDBRANCH  35  40
ENDBRANCH  31  34
ENDBRANCH   2  30
ENDBRANCH   1   2
BRANCH   1  43
ATOM     43  C   UNL     1      63.922  24.704  59.015  1.00  0.00     0.003 C 
BRANCH  43  44
ATOM     44  C   UNL     1      62.807  23.982  59.797  1.00  0.00     0.001 C 
BRANCH  44  45
ATOM     45  C   UNL     1      61.371  24.249  59.312  1.00  0.00     0.008 C 
BRANCH  45  46
ATOM     46  C   UNL     1      60.752  25.512  59.935  1.00  0.00     0.075 C 
BRANCH  46  47
ATOM     47  C   UNL     1      60.944  25.588  61.434  1.00  0.00     0.132 C 
ATOM     48  O   UNL     1      61.990  26.024  61.891  1.00  0.00    -0.300 OA
BRANCH  47  49
ATOM     49  C   UNL     1      59.881  25.150  62.416  1.00  0.00     0.072 C 
ATOM     50  C   UNL     1      60.371  24.159  63.473  1.00  0.00     0.012 C 
ENDBRANCH  47  49
ENDBRANCH  46  47
ENDBRANCH  45  46
ENDBRANCH  44  45
ENDBRANCH  43  44
ENDBRANCH   1  43
TORSDOF 12
ENDMDL
MODEL 3
REMARK VINA RESULT:    -3.110      5.826      9.642
REMARK INTER + INTRA:         -10.920
REMARK INTER:                  -8.024
REMARK INTRA:                  -2.896
REMARK UNBOUND:                -4.356
REMARK SMILES CCC(=O)CCCCC[C@H]1NC(=O)[C@H]2CCCCN2C(=O)[C@@H]([C@H](C)CC)NC(=O)[C@H](Cc2cn(OC)c3ccccc23)NC1=O
REMARK SMILES IDX 9 1 10 2 44 3 43 4 45 6 30 7 28 8 27 9 29 11 22 12 23 14
REMARK SMILES IDX 24 15 25 16 26 17 31 18 32 19 33 20 42 21 34 22 37 23 41 24
REMARK SMILES IDX 38 25 40 26 39 27 35 28 36 29 11 30 12 31 13 33 14 34 19 35
REMARK SMILES IDX 15 36 18 37 16 38 17 39 20 40 21 41 8 43 7 44 6 45 5 46 3 47
REMARK SMILES IDX 4 48 2 49 1 50
REMARK H PARENT 43 5 27 10 11 32
REMARK Flexibility Score: 80.00
ROOT
ATOM      1  C   UNL     1      58.791  28.907  58.749  1.00  0.00     0.035 C 
ENDROOT
BRANCH   1   2
ATOM      2  C   UNL     1      58.972  28.260  60.151  1.00  0.00     0.171 C 
BRANCH   2   3
ATOM      3  C   UNL     1      60.424  28.018  60.496  1.00  0.00     0.243 C 
ATOM      4  N   UNL     1      61.187  26.975  59.868  1.00  0.00    -0.342 N 
ATOM      5  H   UNL     1      60.994  26.745  58.870  1.00  0.00     0.164 HD
ATOM      6  O   UNL     1      60.975  28.768  61.346  1.00  0.00    -0.273 OA
BRANCH   4   7
ATOM      7  C   UNL     1      62.033  26.035  60.608  1.00  0.00     0.175 C 
BRANCH   7   8
ATOM      8  C   UNL     1      61.278  25.538  61.817  1.00  0.00     0.243 C 
ATOM      9  N   UNL     1      60.201  24.607  61.622  1.00  0.00    -0.342 N 
ATOM     10  H   UNL     1      60.074  24.229  60.659  1.00  0.00     0.164 HD
ATOM     11  O   UNL     1      61.597  25.913  62.979  1.00  0.00    -0.273 OA
BRANCH   9  12
ATOM     12  C   UNL     1      59.505  23.950  62.736  1.00  0.00     0.174 CG0
ATOM     13  G   UNL     1      58.018  23.810  62.456  1.00  0.00     0.000 G0
BRANCH  12  14
ATOM     14  C   UNL     1      60.221  22.602  63.070  1.00  0.00     0.018 C 
ATOM     15  C   UNL     1      61.058  22.686  64.361  1.00  0.00     0.010 C 
BRANCH  14  16
ATOM     16  C   UNL     1      61.095  22.036  61.925  1.00  0.00     0.002 C 
ATOM     17  C   UNL     1      62.596  22.079  62.221  1.00  0.00     0.004 C 
ENDBRANCH  14  16
ENDBRANCH  12  14
ENDBRANCH   9  12
ENDBRANCH   7   8
BRANCH   7  18
ATOM     18  C   UNL     1      63.413  26.654  60.931  1.00  0.00     0.073 C 
BRANCH  18  19
ATOM     19  C   UNL     1      63.947  27.507  59.809  1.00  0.00    -0.016 A 
ATOM     20  C   UNL     1      64.236  27.082  58.521  1.00  0.00     0.134 A 
ATOM     21  C   UNL     1      64.076  28.886  59.788  1.00  0.00     0.006 A 
ATOM     22  N   UNL     1      64.547  28.131  57.730  1.00  0.00    -0.191 N 
ATOM     23  C   UNL     1      64.450  29.242  58.506  1.00  0.00     0.087 A 
ATOM     24  C   UNL     1      63.871  29.834  60.791  1.00  0.00     0.011 A 
ATOM     25  C   UNL     1      64.656  30.591  58.177  1.00  0.00     0.030 A 
ATOM     26  C   UNL     1      64.069  31.185  60.475  1.00  0.00     0.001 A 
ATOM     27  C   UNL     1      64.461  31.560  59.175  1.00  0.00     0.002 A 
BRANCH  22  28
ATOM     28  O   UNL     1      64.833  27.978  56.380  1.00  0.00    -0.417 OA
ATOM     29  C   UNL     1      64.402  28.856  55.349  1.00  0.00     0.313 C 
ENDBRANCH  22  28
ENDBRANCH  18  19
ENDBRANCH   7  18
ENDBRANCH   4   7
ENDBRANCH   2   3
BRANCH   2  30
ATOM     30  N   UNL     1      58.175  27.040  60.336  1.00  0.00    -0.343 N 
ATOM     31  C   UNL     1      57.140  26.936  61.324  1.00  0.00     0.243 C 
ATOM     32  H   UNL     1      58.315  26.250  59.683  1.00  0.00     0.164 HD
ATOM     33  O   UNL     1      56.743  27.977  61.916  1.00  0.00    -0.273 OA
BRANCH  31  34
ATOM     34  C   UNL     1      56.474  25.618  61.672  1.00  0.00     0.174 C 
ATOM     35  N   UNL     1      57.316  24.433  61.378  1.00  0.00    -0.329 N 
ATOM     36  C   UNL     1      55.071  25.505  61.037  1.00  0.00     0.035 C 
ATOM     37  C   UNL     1      57.240  23.714  60.087  1.00  0.00     0.120 C 
ATOM     38  C   UNL     1      55.129  24.993  59.601  1.00  0.00     0.004 C 
ATOM     39  C   UNL     1      55.805  23.624  59.566  1.00  0.00     0.022 C 
BRANCH  35  40
ATOM     40  C   UNL     1      58.000  23.803  62.477  1.00  0.00     0.246 CG0
ATOM     41  O   UNL     1      57.315  23.183  63.335  1.00  0.00    -0.272 OA
ATOM     42  G   UNL     1      59.494  23.959  62.704  1.00  0.00     0.000 G0
ENDBRANCH  35  40
ENDBRANCH  31  34
ENDBRANCH   2  30
ENDBRANCH   1   2
BRANCH   1  43
ATOM     43  C   UNL     1      59.951  29.766  58.190  1.00  0.00     0.003 C 
BRANCH  43  44
ATOM     44  C   UNL     1      60.205  31.122  58.876  1.00  0.00     0.001 C 
BRANCH  44  45
ATOM     45  C   UNL     1      59.962  32.367  58.004  1.00  0.00     0.008 C 
BRANCH  45  46
ATOM     46  C   UNL     1      61.086  33.412  58.122  1.00  0.00     0.075 C 
BRANCH  46  47
ATOM     47  C   UNL     1      60.642  34.684  58.811  1.00  0.00     0.132 C 
ATOM     48  O   UNL     1      59.750  35.360  58.322  1.00  0.00    -0.300 OA
BRANCH  47  49
ATOM     49  C   UNL     1      61.254  35.165  60.107  1.00  0.00     0.072 C 
ATOM     50  C   UNL     1      62.536  34.433  60.507  1.00  0.00     0.012 C 
ENDBRANCH  47  49
ENDBRANCH  46  47
ENDBRANCH  45  46
ENDBRANCH  44  45
ENDBRANCH  43  44
ENDBRANCH   1  43
TORSDOF 12
ENDMDL
MODEL 4
REMARK VINA RESULT:    -3.084      4.586      9.464
REMARK INTER + INTRA:         -10.866
REMARK INTER:                  -7.366
REMARK INTRA:                  -3.500
REMARK UNBOUND:                -4.356
REMARK SMILES CCC(=O)CCCCC[C@H]1NC(=O)[C@H]2CCCCN2C(=O)[C@@H]([C@H](C)CC)NC(=O)[C@H](Cc2cn(OC)c3ccccc23)NC1=O
REMARK SMILES IDX 9 1 10 2 44 3 43 4 45 6 30 7 28 8 27 9 29 11 22 12 23 14
REMARK SMILES IDX 24 15 25 16 26 17 31 18 32 19 33 20 42 21 34 22 37 23 41 24
REMARK SMILES IDX 38 25 40 26 39 27 35 28 36 29 11 30 12 31 13 33 14 34 19 35
REMARK SMILES IDX 15 36 18 37 16 38 17 39 20 40 21 41 8 43 7 44 6 45 5 46 3 47
REMARK SMILES IDX 4 48 2 49 1 50
REMARK H PARENT 43 5 27 10 11 32
REMARK Flexibility Score: 80.00
ROOT
ATOM      1  C   UNL     1      59.783  29.952  57.103  1.00  0.00     0.035 C 
ENDROOT
BRANCH   1   2
ATOM      2  C   UNL     1      58.866  29.417  58.240  1.00  0.00     0.171 C 
BRANCH   2   3
ATOM      3  C   UNL     1      59.648  28.765  59.358  1.00  0.00     0.243 C 
ATOM      4  N   UNL     1      60.295  27.493  59.188  1.00  0.00    -0.342 N 
ATOM      5  H   UNL     1      60.702  27.258  58.259  1.00  0.00     0.164 HD
ATOM      6  O   UNL     1      59.744  29.370  60.458  1.00  0.00    -0.273 OA
BRANCH   4   7
ATOM      7  C   UNL     1      60.187  26.397  60.155  1.00  0.00     0.175 C 
BRANCH   7   8
ATOM      8  C   UNL     1      58.753  26.278  60.610  1.00  0.00     0.243 C 
ATOM      9  N   UNL     1      57.800  25.655  59.733  1.00  0.00    -0.342 N 
ATOM     10  H   UNL     1      58.177  25.207  58.870  1.00  0.00     0.164 HD
ATOM     11  O   UNL     1      58.398  26.697  61.747  1.00  0.00    -0.273 OA
BRANCH   9  12
ATOM     12  C   UNL     1      56.421  25.357  60.139  1.00  0.00     0.174 CG0
ATOM     13  G   UNL     1      55.436  25.665  59.024  1.00  0.00     0.000 G0
BRANCH  12  14
ATOM     14  C   UNL     1      56.344  23.889  60.669  1.00  0.00     0.018 C 
ATOM     15  C   UNL     1      56.187  23.826  62.201  1.00  0.00     0.010 C 
BRANCH  14  16
ATOM     16  C   UNL     1      57.523  22.984  60.235  1.00  0.00     0.002 C 
ATOM     17  C   UNL     1      57.131  21.918  59.210  1.00  0.00     0.004 C 
ENDBRANCH  14  16
ENDBRANCH  12  14
ENDBRANCH   9  12
ENDBRANCH   7   8
BRANCH   7  18
ATOM     18  C   UNL     1      61.208  26.559  61.305  1.00  0.00     0.073 C 
BRANCH  18  19
ATOM     19  C   UNL     1      62.630  26.656  60.815  1.00  0.00    -0.016 A 
ATOM     20  C   UNL     1      63.375  25.631  60.250  1.00  0.00     0.134 A 
ATOM     21  C   UNL     1      63.393  27.803  60.664  1.00  0.00     0.006 A 
ATOM     22  N   UNL     1      64.552  26.098  59.781  1.00  0.00    -0.191 N 
ATOM     23  C   UNL     1      64.566  27.434  60.034  1.00  0.00     0.087 A 
ATOM     24  C   UNL     1      63.123  29.126  61.014  1.00  0.00     0.011 A 
ATOM     25  C   UNL     1      65.546  28.395  59.741  1.00  0.00     0.030 A 
ATOM     26  C   UNL     1      64.092  30.097  60.724  1.00  0.00     0.001 A 
ATOM     27  C   UNL     1      65.296  29.732  60.093  1.00  0.00     0.002 A 
BRANCH  22  28
ATOM     28  O   UNL     1      65.463  25.280  59.128  1.00  0.00    -0.417 OA
ATOM     29  C   UNL     1      65.362  23.867  59.020  1.00  0.00     0.313 C 
ENDBRANCH  22  28
ENDBRANCH  18  19
ENDBRANCH   7  18
ENDBRANCH   4   7
ENDBRANCH   2   3
BRANCH   2  30
ATOM     30  N   UNL     1      57.798  28.531  57.757  1.00  0.00    -0.343 N 
ATOM     31  C   UNL     1      56.408  28.807  57.978  1.00  0.00     0.243 C 
ATOM     32  H   UNL     1      58.053  27.715  57.174  1.00  0.00     0.164 HD
ATOM     33  O   UNL     1      56.063  29.942  58.408  1.00  0.00    -0.273 OA
BRANCH  31  34
ATOM     34  C   UNL     1      55.318  27.793  57.686  1.00  0.00     0.174 C 
ATOM     35  N   UNL     1      55.771  26.386  57.807  1.00  0.00    -0.329 N 
ATOM     36  C   UNL     1      54.634  28.068  56.329  1.00  0.00     0.035 C 
ATOM     37  C   UNL     1      56.288  25.623  56.649  1.00  0.00     0.120 C 
ATOM     38  C   UNL     1      55.399  27.448  55.163  1.00  0.00     0.004 C 
ATOM     39  C   UNL     1      55.518  25.939  55.366  1.00  0.00     0.022 C 
BRANCH  35  40
ATOM     40  C   UNL     1      55.424  25.667  59.005  1.00  0.00     0.246 CG0
ATOM     41  O   UNL     1      54.216  25.361  59.193  1.00  0.00    -0.272 OA
ATOM     42  G   UNL     1      56.435  25.372  60.100  1.00  0.00     0.000 G0
ENDBRANCH  35  40
ENDBRANCH  31  34
ENDBRANCH   2  30
ENDBRANCH   1   2
BRANCH   1  43
ATOM     43  C   UNL     1      59.772  31.472  56.816  1.00  0.00     0.003 C 
BRANCH  43  44
ATOM     44  C   UNL     1      60.104  32.405  57.997  1.00  0.00     0.001 C 
BRANCH  44  45
ATOM     45  C   UNL     1      61.430  32.118  58.723  1.00  0.00     0.008 C 
BRANCH  45  46
ATOM     46  C   UNL     1      61.410  32.545  60.202  1.00  0.00     0.075 C 
BRANCH  46  47
ATOM     47  C   UNL     1      62.202  33.807  60.464  1.00  0.00     0.132 C 
ATOM     48  O   UNL     1      61.622  34.878  60.564  1.00  0.00    -0.300 OA
BRANCH  47  49
ATOM     49  C   UNL     1      63.705  33.809  60.623  1.00  0.00     0.072 C 
ATOM     50  C   UNL     1      64.470  34.214  59.362  1.00  0.00     0.012 C 
ENDBRANCH  47  49
ENDBRANCH  46  47
ENDBRANCH  45  46
ENDBRANCH  44  45
ENDBRANCH  43  44
ENDBRANCH   1  43
TORSDOF 12
ENDMDL
MODEL 5
REMARK VINA RESULT:    -3.017      6.633      9.517
REMARK INTER + INTRA:         -10.725
REMARK INTER:                  -8.251
REMARK INTRA:                  -2.473
REMARK UNBOUND:                -4.356
REMARK SMILES CCC(=O)CCCCC[C@H]1NC(=O)[C@H]2CCCCN2C(=O)[C@@H]([C@H](C)CC)NC(=O)[C@H](Cc2cn(OC)c3ccccc23)NC1=O
REMARK SMILES IDX 9 1 10 2 44 3 43 4 45 6 30 7 28 8 27 9 29 11 22 12 23 14
REMARK SMILES IDX 24 15 25 16 26 17 31 18 32 19 33 20 42 21 34 22 37 23 41 24
REMARK SMILES IDX 38 25 40 26 39 27 35 28 36 29 11 30 12 31 13 33 14 34 19 35
REMARK SMILES IDX 15 36 18 37 16 38 17 39 20 40 21 41 8 43 7 44 6 45 5 46 3 47
REMARK SMILES IDX 4 48 2 49 1 50
REMARK H PARENT 43 5 27 10 11 32
REMARK Flexibility Score: 80.00
ROOT
ATOM      1  C   UNL     1      61.741  31.346  60.520  1.00  0.00     0.035 C 
ENDROOT
BRANCH   1   2
ATOM      2  C   UNL     1      61.627  30.140  59.544  1.00  0.00     0.171 C 
BRANCH   2   3
ATOM      3  C   UNL     1      60.540  29.169  59.947  1.00  0.00     0.243 C 
ATOM      4  N   UNL     1      60.698  28.275  61.061  1.00  0.00    -0.342 N 
ATOM      5  H   UNL     1      61.238  28.599  61.890  1.00  0.00     0.164 HD
ATOM      6  O   UNL     1      59.464  29.164  59.292  1.00  0.00    -0.273 OA
BRANCH   4   7
ATOM      7  C   UNL     1      60.378  26.846  61.002  1.00  0.00     0.175 C 
BRANCH   7   8
ATOM      8  C   UNL     1      60.927  26.270  59.719  1.00  0.00     0.243 C 
ATOM      9  N   UNL     1      62.337  26.008  59.629  1.00  0.00    -0.342 N 
ATOM     10  H   UNL     1      62.894  26.119  60.504  1.00  0.00     0.164 HD
ATOM     11  O   UNL     1      60.163  26.001  58.751  1.00  0.00    -0.273 OA
BRANCH   9  12
ATOM     12  C   UNL     1      62.946  25.312  58.488  1.00  0.00     0.174 CG0
ATOM     13  G   UNL     1      64.289  25.920  58.121  1.00  0.00     0.000 G0
BRANCH  12  14
ATOM     14  C   UNL     1      63.001  23.779  58.786  1.00  0.00     0.018 C 
ATOM     15  C   UNL     1      61.878  23.003  58.071  1.00  0.00     0.010 C 
BRANCH  14  16
ATOM     16  C   UNL     1      63.002  23.415  60.291  1.00  0.00     0.002 C 
ATOM     17  C   UNL     1      62.799  21.923  60.560  1.00  0.00     0.004 C 
ENDBRANCH  14  16
ENDBRANCH  12  14
ENDBRANCH   9  12
ENDBRANCH   7   8
BRANCH   7  18
ATOM     18  C   UNL     1      58.866  26.599  61.214  1.00  0.00     0.073 C 
BRANCH  18  19
ATOM     19  C   UNL     1      58.579  25.285  61.895  1.00  0.00    -0.016 A 
ATOM     20  C   UNL     1      57.470  24.478  61.686  1.00  0.00     0.134 A 
ATOM     21  C   UNL     1      59.431  24.552  62.705  1.00  0.00     0.006 A 
ATOM     22  N   UNL     1      57.604  23.304  62.339  1.00  0.00    -0.191 N 
ATOM     23  C   UNL     1      58.809  23.347  62.968  1.00  0.00     0.087 A 
ATOM     24  C   UNL     1      60.700  24.856  63.199  1.00  0.00     0.011 A 
ATOM     25  C   UNL     1      59.440  22.384  63.770  1.00  0.00     0.030 A 
ATOM     26  C   UNL     1      61.344  23.901  63.999  1.00  0.00     0.001 A 
ATOM     27  C   UNL     1      60.715  22.673  64.283  1.00  0.00     0.002 A 
BRANCH  22  28
ATOM     28  O   UNL     1      56.649  22.300  62.256  1.00  0.00    -0.417 OA
ATOM     29  C   UNL     1      56.790  21.098  61.511  1.00  0.00     0.313 C 
ENDBRANCH  22  28
ENDBRANCH  18  19
ENDBRANCH   7  18
ENDBRANCH   4   7
ENDBRANCH   2   3
BRANCH   2  30
ATOM     30  N   UNL     1      62.903  29.444  59.328  1.00  0.00    -0.343 N 
ATOM     31  C   UNL     1      63.499  29.311  58.031  1.00  0.00     0.243 C 
ATOM     32  H   UNL     1      63.427  29.100  60.151  1.00  0.00     0.164 HD
ATOM     33  O   UNL     1      63.041  29.985  57.067  1.00  0.00    -0.273 OA
BRANCH  31  34
ATOM     34  C   UNL     1      64.688  28.405  57.768  1.00  0.00     0.174 C 
ATOM     35  N   UNL     1      64.735  27.219  58.655  1.00  0.00    -0.329 N 
ATOM     36  C   UNL     1      66.016  29.193  57.782  1.00  0.00     0.035 C 
ATOM     37  C   UNL     1      65.480  27.219  59.934  1.00  0.00     0.120 C 
ATOM     38  C   UNL     1      66.570  29.362  59.193  1.00  0.00     0.004 C 
ATOM     39  C   UNL     1      66.795  27.992  59.828  1.00  0.00     0.022 C 
BRANCH  35  40
ATOM     40  C   UNL     1      64.294  25.957  58.118  1.00  0.00     0.246 CG0
ATOM     41  O   UNL     1      65.002  25.400  57.237  1.00  0.00    -0.272 OA
ATOM     42  G   UNL     1      62.955  25.339  58.483  1.00  0.00     0.000 G0
ENDBRANCH  35  40
ENDBRANCH  31  34
ENDBRANCH   2  30
ENDBRANCH   1   2
BRANCH   1  43
ATOM     43  C   UNL     1      62.901  32.348  60.304  1.00  0.00     0.003 C 
BRANCH  43  44
ATOM     44  C   UNL     1      62.539  33.706  59.672  1.00  0.00     0.001 C 
BRANCH  44  45
ATOM     45  C   UNL     1      61.788  34.689  60.587  1.00  0.00     0.008 C 
BRANCH  45  46
ATOM     46  C   UNL     1      62.480  36.060  60.691  1.00  0.00     0.075 C 
BRANCH  46  47
ATOM     47  C   UNL     1      63.990  35.965  60.669  1.00  0.00     0.132 C 
ATOM     48  O   UNL     1      64.577  35.415  61.588  1.00  0.00    -0.300 OA
BRANCH  47  49
ATOM     49  C   UNL     1      64.826  36.519  59.537  1.00  0.00     0.072 C 
ATOM     50  C   UNL     1      66.004  35.631  59.132  1.00  0.00     0.012 C 
ENDBRANCH  47  49
ENDBRANCH  46  47
ENDBRANCH  45  46
ENDBRANCH  44  45
ENDBRANCH  43  44
ENDBRANCH   1  43
TORSDOF 12
ENDMDL
MODEL 6
REMARK VINA RESULT:    -2.918      4.673      9.082
REMARK INTER + INTRA:         -10.516
REMARK INTER:                  -7.439
REMARK INTRA:                  -3.077
REMARK UNBOUND:                -4.356
REMARK SMILES CCC(=O)CCCCC[C@H]1NC(=O)[C@H]2CCCCN2C(=O)[C@@H]([C@H](C)CC)NC(=O)[C@H](Cc2cn(OC)c3ccccc23)NC1=O
REMARK SMILES IDX 9 1 10 2 44 3 43 4 45 6 30 7 28 8 27 9 29 11 22 12 23 14
REMARK SMILES IDX 24 15 25 16 26 17 31 18 32 19 33 20 42 21 34 22 37 23 41 24
REMARK SMILES IDX 38 25 40 26 39 27 35 28 36 29 11 30 12 31 13 33 14 34 19 35
REMARK SMILES IDX 15 36 18 37 16 38 17 39 20 40 21 41 8 43 7 44 6 45 5 46 3 47
REMARK SMILES IDX 4 48 2 49 1 50
REMARK H PARENT 43 5 27 10 11 32
REMARK Flexibility Score: 80.00
ROOT
ATOM      1  C   UNL     1      62.660  24.807  50.660  1.00  0.00     0.035 C 
ENDROOT
BRANCH   1   2
ATOM      2  C   UNL     1      61.782  25.251  51.864  1.00  0.00     0.171 C 
BRANCH   2   3
ATOM      3  C   UNL     1      60.987  24.109  52.456  1.00  0.00     0.243 C 
ATOM      4  N   UNL     1      59.740  23.679  51.885  1.00  0.00    -0.342 N 
ATOM      5  H   UNL     1      59.620  23.724  50.851  1.00  0.00     0.164 HD
ATOM      6  O   UNL     1      61.448  23.514  53.466  1.00  0.00    -0.273 OA
BRANCH   4   7
ATOM      7  C   UNL     1      58.532  23.431  52.677  1.00  0.00     0.175 C 
BRANCH   7   8
ATOM      8  C   UNL     1      58.218  24.659  53.496  1.00  0.00     0.243 C 
ATOM      9  N   UNL     1      57.697  25.820  52.827  1.00  0.00    -0.342 N 
ATOM     10  H   UNL     1      57.450  25.711  51.820  1.00  0.00     0.164 HD
ATOM     11  O   UNL     1      58.387  24.664  54.747  1.00  0.00    -0.273 OA
BRANCH   9  12
ATOM     12  C   UNL     1      57.221  27.007  53.548  1.00  0.00     0.174 CG0
ATOM     13  G   UNL     1      57.774  28.284  52.940  1.00  0.00     0.000 G0
BRANCH  12  14
ATOM     14  C   UNL     1      55.661  26.966  53.636  1.00  0.00     0.018 C 
ATOM     15  C   UNL     1      55.163  26.486  55.013  1.00  0.00     0.010 C 
BRANCH  14  16
ATOM     16  C   UNL     1      54.974  26.139  52.522  1.00  0.00     0.002 C 
ATOM     17  C   UNL     1      54.526  24.750  52.979  1.00  0.00     0.004 C 
ENDBRANCH  14  16
ENDBRANCH  12  14
ENDBRANCH   9  12
ENDBRANCH   7   8
BRANCH   7  18
ATOM     18  C   UNL     1      58.658  22.130  53.504  1.00  0.00     0.073 C 
BRANCH  18  19
ATOM     19  C   UNL     1      57.734  21.041  53.024  1.00  0.00    -0.016 A 
ATOM     20  C   UNL     1      56.400  20.884  53.375  1.00  0.00     0.134 A 
ATOM     21  C   UNL     1      57.970  20.115  52.022  1.00  0.00     0.006 A 
ATOM     22  N   UNL     1      55.827  19.902  52.647  1.00  0.00    -0.191 N 
ATOM     23  C   UNL     1      56.790  19.426  51.814  1.00  0.00     0.087 A 
ATOM     24  C   UNL     1      59.122  19.855  51.279  1.00  0.00     0.011 A 
ATOM     25  C   UNL     1      56.722  18.414  50.844  1.00  0.00     0.030 A 
ATOM     26  C   UNL     1      59.067  18.849  50.304  1.00  0.00     0.001 A 
ATOM     27  C   UNL     1      57.874  18.132  50.090  1.00  0.00     0.002 A 
BRANCH  22  28
ATOM     28  O   UNL     1      54.485  19.576  52.775  1.00  0.00    -0.417 OA
ATOM     29  C   UNL     1      53.803  19.387  54.007  1.00  0.00     0.313 C 
ENDBRANCH  22  28
ENDBRANCH  18  19
ENDBRANCH   7  18
ENDBRANCH   4   7
ENDBRANCH   2   3
BRANCH   2  30
ATOM     30  N   UNL     1      60.913  26.396  51.559  1.00  0.00    -0.343 N 
ATOM     31  C   UNL     1      61.082  27.680  52.175  1.00  0.00     0.243 C 
ATOM     32  H   UNL     1      60.196  26.294  50.819  1.00  0.00     0.164 HD
ATOM     33  O   UNL     1      62.130  27.915  52.838  1.00  0.00    -0.273 OA
BRANCH  31  34
ATOM     34  C   UNL     1      60.060  28.793  52.039  1.00  0.00     0.174 C 
ATOM     35  N   UNL     1      58.680  28.303  51.804  1.00  0.00    -0.329 N 
ATOM     36  C   UNL     1      60.492  29.836  50.986  1.00  0.00     0.035 C 
ATOM     37  C   UNL     1      58.129  28.122  50.442  1.00  0.00     0.120 C 
ATOM     38  C   UNL     1      60.098  29.423  49.571  1.00  0.00     0.004 C 
ATOM     39  C   UNL     1      58.585  29.228  49.490  1.00  0.00     0.022 C 
BRANCH  35  40
ATOM     40  C   UNL     1      57.772  28.285  52.921  1.00  0.00     0.246 CG0
ATOM     41  O   UNL     1      57.490  29.378  53.483  1.00  0.00    -0.272 OA
ATOM     42  G   UNL     1      57.240  26.994  53.519  1.00  0.00     0.000 G0
ENDBRANCH  35  40
ENDBRANCH  31  34
ENDBRANCH   2  30
ENDBRANCH   1   2
BRANCH   1  43
ATOM     43  C   UNL     1      63.799  25.751  50.205  1.00  0.00     0.003 C 
BRANCH  43  44
ATOM     44  C   UNL     1      63.409  26.907  49.263  1.00  0.00     0.001 C 
BRANCH  44  45
ATOM     45  C   UNL     1      63.804  28.317  49.736  1.00  0.00     0.008 C 
BRANCH  45  46
ATOM     46  C   UNL     1      65.091  28.835  49.071  1.00  0.00     0.075 C 
BRANCH  46  47
ATOM     47  C   UNL     1      66.338  28.523  49.870  1.00  0.00     0.132 C 
ATOM     48  O   UNL     1      67.392  28.310  49.292  1.00  0.00    -0.300 OA
BRANCH  47  49
ATOM     49  C   UNL     1      66.345  28.469  51.381  1.00  0.00     0.072 C 
ATOM     50  C   UNL     1      66.799  27.128  51.960  1.00  0.00     0.012 C 
ENDBRANCH  47  49
ENDBRANCH  46  47
ENDBRANCH  45  46
ENDBRANCH  44  45
ENDBRANCH  43  44
ENDBRANCH   1  43
TORSDOF 12
ENDMDL
MODEL 7
REMARK VINA RESULT:    -2.910      6.165     10.381
REMARK INTER + INTRA:         -10.499
REMARK INTER:                  -8.252
REMARK INTRA:                  -2.248
REMARK UNBOUND:                -4.356
REMARK SMILES CCC(=O)CCCCC[C@H]1NC(=O)[C@H]2CCCCN2C(=O)[C@@H]([C@H](C)CC)NC(=O)[C@H](Cc2cn(OC)c3ccccc23)NC1=O
REMARK SMILES IDX 9 1 10 2 44 3 43 4 45 6 30 7 28 8 27 9 29 11 22 12 23 14
REMARK SMILES IDX 24 15 25 16 26 17 31 18 32 19 33 20 42 21 34 22 37 23 41 24
REMARK SMILES IDX 38 25 40 26 39 27 35 28 36 29 11 30 12 31 13 33 14 34 19 35
REMARK SMILES IDX 15 36 18 37 16 38 17 39 20 40 21 41 8 43 7 44 6 45 5 46 3 47
REMARK SMILES IDX 4 48 2 49 1 50
REMARK H PARENT 43 5 27 10 11 32
REMARK Flexibility Score: 80.00
ROOT
ATOM      1  C   UNL     1      64.278  26.157  59.824  1.00  0.00     0.035 C 
ENDROOT
BRANCH   1   2
ATOM      2  C   UNL     1      64.155  27.278  58.753  1.00  0.00     0.171 C 
BRANCH   2   3
ATOM      3  C   UNL     1      65.499  27.833  58.337  1.00  0.00     0.243 C 
ATOM      4  N   UNL     1      66.229  28.750  59.168  1.00  0.00    -0.342 N 
ATOM      5  H   UNL     1      66.170  28.644  60.203  1.00  0.00     0.164 HD
ATOM      6  O   UNL     1      65.990  27.461  57.238  1.00  0.00    -0.273 OA
BRANCH   4   7
ATOM      7  C   UNL     1      66.837  29.986  58.667  1.00  0.00     0.175 C 
BRANCH   7   8
ATOM      8  C   UNL     1      65.786  30.799  57.951  1.00  0.00     0.243 C 
ATOM      9  N   UNL     1      64.986  31.716  58.714  1.00  0.00    -0.342 N 
ATOM     10  H   UNL     1      65.255  31.860  59.710  1.00  0.00     0.164 HD
ATOM     11  O   UNL     1      65.626  30.694  56.703  1.00  0.00    -0.273 OA
BRANCH   9  12
ATOM     12  C   UNL     1      64.044  32.657  58.093  1.00  0.00     0.174 CG0
ATOM     13  G   UNL     1      62.604  32.221  58.304  1.00  0.00     0.000 G0
BRANCH  12  14
ATOM     14  C   UNL     1      64.353  34.104  58.597  1.00  0.00     0.018 C 
ATOM     15  C   UNL     1      65.510  34.761  57.821  1.00  0.00     0.010 C 
BRANCH  14  16
ATOM     16  C   UNL     1      64.624  34.213  60.117  1.00  0.00     0.002 C 
ATOM     17  C   UNL     1      63.450  34.791  60.910  1.00  0.00     0.004 C 
ENDBRANCH  14  16
ENDBRANCH  12  14
ENDBRANCH   9  12
ENDBRANCH   7   8
BRANCH   7  18
ATOM     18  C   UNL     1      68.098  29.690  57.822  1.00  0.00     0.073 C 
BRANCH  18  19
ATOM     19  C   UNL     1      69.303  30.471  58.277  1.00  0.00    -0.016 A 
ATOM     20  C   UNL     1      70.285  30.030  59.152  1.00  0.00     0.134 A 
ATOM     21  C   UNL     1      69.758  31.683  57.783  1.00  0.00     0.006 A 
ATOM     22  N   UNL     1      71.299  30.919  59.222  1.00  0.00    -0.191 N 
ATOM     23  C   UNL     1      70.977  31.938  58.381  1.00  0.00     0.087 A 
ATOM     24  C   UNL     1      69.195  32.550  56.845  1.00  0.00     0.011 A 
ATOM     25  C   UNL     1      71.688  33.107  58.070  1.00  0.00     0.030 A 
ATOM     26  C   UNL     1      69.897  33.720  56.522  1.00  0.00     0.001 A 
ATOM     27  C   UNL     1      71.136  33.997  57.133  1.00  0.00     0.002 A 
BRANCH  22  28
ATOM     28  O   UNL     1      72.428  30.692  59.995  1.00  0.00    -0.417 OA
ATOM     29  C   UNL     1      72.487  29.828  61.122  1.00  0.00     0.313 C 
ENDBRANCH  22  28
ENDBRANCH  18  19
ENDBRANCH   7  18
ENDBRANCH   4   7
ENDBRANCH   2   3
BRANCH   2  30
ATOM     30  N   UNL     1      63.236  28.357  59.142  1.00  0.00    -0.343 N 
ATOM     31  C   UNL     1      62.175  28.811  58.291  1.00  0.00     0.243 C 
ATOM     32  H   UNL     1      63.311  28.756  60.094  1.00  0.00     0.164 HD
ATOM     33  O   UNL     1      61.870  28.137  57.268  1.00  0.00    -0.273 OA
BRANCH  31  34
ATOM     34  C   UNL     1      61.372  30.065  58.585  1.00  0.00     0.174 C 
ATOM     35  N   UNL     1      62.182  31.162  59.166  1.00  0.00    -0.329 N 
ATOM     36  C   UNL     1      60.122  29.753  59.436  1.00  0.00     0.035 C 
ATOM     37  C   UNL     1      62.325  31.349  60.627  1.00  0.00     0.120 C 
ATOM     38  C   UNL     1      60.437  29.713  60.928  1.00  0.00     0.004 C 
ATOM     39  C   UNL     1      61.022  31.053  61.370  1.00  0.00     0.022 C 
BRANCH  35  40
ATOM     40  C   UNL     1      62.591  32.233  58.294  1.00  0.00     0.246 CG0
ATOM     41  O   UNL     1      61.717  32.789  57.575  1.00  0.00    -0.272 OA
ATOM     42  G   UNL     1      64.047  32.632  58.120  1.00  0.00     0.000 G0
ENDBRANCH  35  40
ENDBRANCH  31  34
ENDBRANCH   2  30
ENDBRANCH   1   2
BRANCH   1  43
ATOM     43  C   UNL     1      63.289  26.180  61.015  1.00  0.00     0.003 C 
BRANCH  43  44
ATOM     44  C   UNL     1      61.894  25.573  60.772  1.00  0.00     0.001 C 
BRANCH  44  45
ATOM     45  C   UNL     1      61.019  25.387  62.024  1.00  0.00     0.008 C 
BRANCH  45  46
ATOM     46  C   UNL     1      59.750  24.559  61.753  1.00  0.00     0.075 C 
BRANCH  46  47
ATOM     47  C   UNL     1      59.586  23.398  62.709  1.00  0.00     0.132 C 
ATOM     48  O   UNL     1      60.533  22.661  62.938  1.00  0.00    -0.300 OA
BRANCH  47  49
ATOM     49  C   UNL     1      58.283  23.104  63.418  1.00  0.00     0.072 C 
ATOM     50  C   UNL     1      57.043  23.229  62.532  1.00  0.00     0.012 C 
ENDBRANCH  47  49
ENDBRANCH  46  47
ENDBRANCH  45  46
ENDBRANCH  44  45
ENDBRANCH  43  44
ENDBRANCH   1  43
TORSDOF 12
ENDMDL
MODEL 8
REMARK VINA RESULT:    -2.832      3.106      6.458
REMARK INTER + INTRA:         -10.334
REMARK INTER:                  -6.816
REMARK INTRA:                  -3.518
REMARK UNBOUND:                -4.356
REMARK SMILES CCC(=O)CCCCC[C@H]1NC(=O)[C@H]2CCCCN2C(=O)[C@@H]([C@H](C)CC)NC(=O)[C@H](Cc2cn(OC)c3ccccc23)NC1=O
REMARK SMILES IDX 9 1 10 2 44 3 43 4 45 6 30 7 28 8 27 9 29 11 22 12 23 14
REMARK SMILES IDX 24 15 25 16 26 17 31 18 32 19 33 20 42 21 34 22 37 23 41 24
REMARK SMILES IDX 38 25 40 26 39 27 35 28 36 29 11 30 12 31 13 33 14 34 19 35
REMARK SMILES IDX 15 36 18 37 16 38 17 39 20 40 21 41 8 43 7 44 6 45 5 46 3 47
REMARK SMILES IDX 4 48 2 49 1 50
REMARK H PARENT 43 5 27 10 11 32
REMARK Flexibility Score: 80.00
ROOT
ATOM      1  C   UNL     1      64.408  33.249  54.901  1.00  0.00     0.035 C 
ENDROOT
BRANCH   1   2
ATOM      2  C   UNL     1      64.497  31.969  55.781  1.00  0.00     0.171 C 
BRANCH   2   3
ATOM      3  C   UNL     1      63.893  30.758  55.106  1.00  0.00     0.243 C 
ATOM      4  N   UNL     1      62.473  30.613  54.940  1.00  0.00    -0.342 N 
ATOM      5  H   UNL     1      61.900  31.465  54.766  1.00  0.00     0.164 HD
ATOM      6  O   UNL     1      64.666  29.866  54.666  1.00  0.00    -0.273 OA
BRANCH   4   7
ATOM      7  C   UNL     1      61.743  29.384  55.263  1.00  0.00     0.175 C 
BRANCH   7   8
ATOM      8  C   UNL     1      62.245  28.843  56.579  1.00  0.00     0.243 C 
ATOM      9  N   UNL     1      61.720  29.396  57.797  1.00  0.00    -0.342 N 
ATOM     10  H   UNL     1      60.925  30.065  57.707  1.00  0.00     0.164 HD
ATOM     11  O   UNL     1      63.093  27.908  56.614  1.00  0.00    -0.273 OA
BRANCH   9  12
ATOM     12  C   UNL     1      62.028  28.840  59.121  1.00  0.00     0.174 CG0
ATOM     13  G   UNL     1      62.405  29.933  60.107  1.00  0.00     0.000 G0
BRANCH  12  14
ATOM     14  C   UNL     1      60.841  27.939  59.593  1.00  0.00     0.018 C 
ATOM     15  C   UNL     1      61.003  26.474  59.143  1.00  0.00     0.010 C 
BRANCH  14  16
ATOM     16  C   UNL     1      59.440  28.452  59.183  1.00  0.00     0.002 C 
ATOM     17  C   UNL     1      58.501  27.347  58.694  1.00  0.00     0.004 C 
ENDBRANCH  14  16
ENDBRANCH  12  14
ENDBRANCH   9  12
ENDBRANCH   7   8
BRANCH   7  18
ATOM     18  C   UNL     1      61.802  28.372  54.095  1.00  0.00     0.073 C 
BRANCH  18  19
ATOM     19  C   UNL     1      60.695  28.572  53.092  1.00  0.00    -0.016 A 
ATOM     20  C   UNL     1      59.468  29.175  53.334  1.00  0.00     0.134 A 
ATOM     21  C   UNL     1      60.750  28.368  51.723  1.00  0.00     0.006 A 
ATOM     22  N   UNL     1      58.778  29.330  52.184  1.00  0.00    -0.191 N 
ATOM     23  C   UNL     1      59.563  28.835  51.191  1.00  0.00     0.087 A 
ATOM     24  C   UNL     1      61.762  27.832  50.925  1.00  0.00     0.011 A 
ATOM     25  C   UNL     1      59.330  28.763  49.809  1.00  0.00     0.030 A 
ATOM     26  C   UNL     1      61.543  27.758  49.542  1.00  0.00     0.001 A 
ATOM     27  C   UNL     1      60.333  28.220  48.989  1.00  0.00     0.002 A 
BRANCH  22  28
ATOM     28  O   UNL     1      57.537  29.950  52.146  1.00  0.00    -0.417 OA
ATOM     29  C   UNL     1      56.948  30.667  53.223  1.00  0.00     0.313 C 
ENDBRANCH  22  28
ENDBRANCH  18  19
ENDBRANCH   7  18
ENDBRANCH   4   7
ENDBRANCH   2   3
BRANCH   2  30
ATOM     30  N   UNL     1      63.944  32.151  57.130  1.00  0.00    -0.343 N 
ATOM     31  C   UNL     1      64.683  31.828  58.317  1.00  0.00     0.243 C 
ATOM     32  H   UNL     1      63.016  32.596  57.233  1.00  0.00     0.164 HD
ATOM     33  O   UNL     1      65.918  31.581  58.229  1.00  0.00    -0.273 OA
BRANCH  31  34
ATOM     34  C   UNL     1      64.045  31.797  59.693  1.00  0.00     0.174 C 
ATOM     35  N   UNL     1      62.648  31.301  59.686  1.00  0.00    -0.329 N 
ATOM     36  C   UNL     1      64.173  33.159  60.409  1.00  0.00     0.035 C 
ATOM     37  C   UNL     1      61.488  32.213  59.567  1.00  0.00     0.120 C 
ATOM     38  C   UNL     1      63.060  34.125  60.013  1.00  0.00     0.004 C 
ATOM     39  C   UNL     1      61.701  33.513  60.343  1.00  0.00     0.022 C 
BRANCH  35  40
ATOM     40  C   UNL     1      62.413  29.941  60.097  1.00  0.00     0.246 CG0
ATOM     41  O   UNL     1      62.637  29.631  61.298  1.00  0.00    -0.272 OA
ATOM     42  G   UNL     1      62.024  28.848  59.117  1.00  0.00     0.000 G0
ENDBRANCH  35  40
ENDBRANCH  31  34
ENDBRANCH   2  30
ENDBRANCH   1   2
BRANCH   1  43
ATOM     43  C   UNL     1      65.342  33.351  53.671  1.00  0.00     0.003 C 
BRANCH  43  44
ATOM     44  C   UNL     1      64.702  33.818  52.350  1.00  0.00     0.001 C 
BRANCH  44  45
ATOM     45  C   UNL     1      65.443  33.405  51.066  1.00  0.00     0.008 C 
BRANCH  45  46
ATOM     46  C   UNL     1      64.946  32.067  50.489  1.00  0.00     0.075 C 
BRANCH  46  47
ATOM     47  C   UNL     1      63.652  32.201  49.715  1.00  0.00     0.132 C 
ATOM     48  O   UNL     1      63.605  32.923  48.731  1.00  0.00    -0.300 OA
BRANCH  47  49
ATOM     49  C   UNL     1      62.391  31.463  50.103  1.00  0.00     0.072 C 
ATOM     50  C   UNL     1      61.878  31.787  51.507  1.00  0.00     0.012 C 
ENDBRANCH  47  49
ENDBRANCH  46  47
ENDBRANCH  45  46
ENDBRANCH  44  45
ENDBRANCH  43  44
ENDBRANCH   1  43
TORSDOF 12
ENDMDL
MODEL 9
REMARK VINA RESULT:    -2.753      2.840      8.157
REMARK INTER + INTRA:         -10.166
REMARK INTER:                  -6.996
REMARK INTRA:                  -3.170
REMARK UNBOUND:                -4.356
REMARK SMILES CCC(=O)CCCCC[C@H]1NC(=O)[C@H]2CCCCN2C(=O)[C@@H]([C@H](C)CC)NC(=O)[C@H](Cc2cn(OC)c3ccccc23)NC1=O
REMARK SMILES IDX 9 1 10 2 44 3 43 4 45 6 30 7 28 8 27 9 29 11 22 12 23 14
REMARK SMILES IDX 24 15 25 16 26 17 31 18 32 19 33 20 42 21 34 22 37 23 41 24
REMARK SMILES IDX 38 25 40 26 39 27 35 28 36 29 11 30 12 31 13 33 14 34 19 35
REMARK SMILES IDX 15 36 18 37 16 38 17 39 20 40 21 41 8 43 7 44 6 45 5 46 3 47
REMARK SMILES IDX 4 48 2 49 1 50
REMARK H PARENT 43 5 27 10 11 32
REMARK Flexibility Score: 80.00
ROOT
ATOM      1  C   UNL     1      64.025  33.180  54.102  1.00  0.00     0.035 C 
ENDROOT
BRANCH   1   2
ATOM      2  C   UNL     1      62.648  32.959  53.413  1.00  0.00     0.171 C 
BRANCH   2   3
ATOM      3  C   UNL     1      61.530  32.738  54.408  1.00  0.00     0.243 C 
ATOM      4  N   UNL     1      61.252  31.439  54.957  1.00  0.00    -0.342 N 
ATOM      5  H   UNL     1      62.047  30.789  55.133  1.00  0.00     0.164 HD
ATOM      6  O   UNL     1      60.843  33.728  54.772  1.00  0.00    -0.273 OA
BRANCH   4   7
ATOM      7  C   UNL     1      59.905  30.868  55.037  1.00  0.00     0.175 C 
BRANCH   7   8
ATOM      8  C   UNL     1      59.299  30.836  53.655  1.00  0.00     0.243 C 
ATOM      9  N   UNL     1      59.782  29.867  52.711  1.00  0.00    -0.342 N 
ATOM     10  H   UNL     1      60.450  29.151  53.071  1.00  0.00     0.164 HD
ATOM     11  O   UNL     1      58.370  31.630  53.338  1.00  0.00    -0.273 OA
BRANCH   9  12
ATOM     12  C   UNL     1      59.160  29.655  51.398  1.00  0.00     0.174 CG0
ATOM     13  G   UNL     1      60.193  29.683  50.284  1.00  0.00     0.000 G0
BRANCH  12  14
ATOM     14  C   UNL     1      58.301  28.350  51.438  1.00  0.00     0.018 C 
ATOM     15  C   UNL     1      56.809  28.621  51.166  1.00  0.00     0.010 C 
BRANCH  14  16
ATOM     16  C   UNL     1      58.446  27.522  52.738  1.00  0.00     0.002 C 
ATOM     17  C   UNL     1      59.406  26.338  52.607  1.00  0.00     0.004 C 
ENDBRANCH  14  16
ENDBRANCH  12  14
ENDBRANCH   9  12
ENDBRANCH   7   8
BRANCH   7  18
ATOM     18  C   UNL     1      59.045  31.601  56.093  1.00  0.00     0.073 C 
BRANCH  18  19
ATOM     19  C   UNL     1      59.495  31.327  57.505  1.00  0.00    -0.016 A 
ATOM     20  C   UNL     1      59.350  30.133  58.195  1.00  0.00     0.134 A 
ATOM     21  C   UNL     1      60.287  32.132  58.308  1.00  0.00     0.006 A 
ATOM     22  N   UNL     1      60.001  30.182  59.377  1.00  0.00    -0.191 N 
ATOM     23  C   UNL     1      60.578  31.410  59.450  1.00  0.00     0.087 A 
ATOM     24  C   UNL     1      60.780  33.420  58.098  1.00  0.00     0.011 A 
ATOM     25  C   UNL     1      61.375  31.972  60.459  1.00  0.00     0.030 A 
ATOM     26  C   UNL     1      61.581  33.992  59.097  1.00  0.00     0.001 A 
ATOM     27  C   UNL     1      61.875  33.272  60.270  1.00  0.00     0.002 A 
BRANCH  22  28
ATOM     28  O   UNL     1      60.048  29.096  60.240  1.00  0.00    -0.417 OA
ATOM     29  C   UNL     1      59.116  28.023  60.254  1.00  0.00     0.313 C 
ENDBRANCH  22  28
ENDBRANCH  18  19
ENDBRANCH   7  18
ENDBRANCH   4   7
ENDBRANCH   2   3
BRANCH   2  30
ATOM     30  N   UNL     1      62.669  31.897  52.398  1.00  0.00    -0.343 N 
ATOM     31  C   UNL     1      62.474  32.161  51.002  1.00  0.00     0.243 C 
ATOM     32  H   UNL     1      62.904  30.933  52.690  1.00  0.00     0.164 HD
ATOM     33  O   UNL     1      62.497  33.353  50.588  1.00  0.00    -0.273 OA
BRANCH  31  34
ATOM     34  C   UNL     1      62.268  31.055  49.983  1.00  0.00     0.174 C 
ATOM     35  N   UNL     1      61.611  29.850  50.543  1.00  0.00    -0.329 N 
ATOM     36  C   UNL     1      63.579  30.712  49.245  1.00  0.00     0.035 C 
ATOM     37  C   UNL     1      62.386  28.710  51.085  1.00  0.00     0.120 C 
ATOM     38  C   UNL     1      64.433  29.714  50.022  1.00  0.00     0.004 C 
ATOM     39  C   UNL     1      63.642  28.430  50.259  1.00  0.00     0.022 C 
BRANCH  35  40
ATOM     40  C   UNL     1      60.207  29.665  50.284  1.00  0.00     0.246 CG0
ATOM     41  O   UNL     1      59.821  29.605  49.086  1.00  0.00    -0.272 OA
ATOM     42  G   UNL     1      59.167  29.661  51.392  1.00  0.00     0.000 G0
ENDBRANCH  35  40
ENDBRANCH  31  34
ENDBRANCH   2  30
ENDBRANCH   1   2
BRANCH   1  43
ATOM     43  C   UNL     1      64.744  31.947  54.699  1.00  0.00     0.003 C 
BRANCH  43  44
ATOM     44  C   UNL     1      65.073  31.995  56.204  1.00  0.00     0.001 C 
BRANCH  44  45
ATOM     45  C   UNL     1      64.522  30.830  57.045  1.00  0.00     0.008 C 
BRANCH  45  46
ATOM     46  C   UNL     1      64.710  31.041  58.558  1.00  0.00     0.075 C 
BRANCH  46  47
ATOM     47  C   UNL     1      65.164  29.789  59.278  1.00  0.00     0.132 C 
ATOM     48  O   UNL     1      66.356  29.589  59.454  1.00  0.00    -0.300 OA
BRANCH  47  49
ATOM     49  C   UNL     1      64.195  28.758  59.810  1.00  0.00     0.072 C 
ATOM     50  C   UNL     1      63.361  29.234  61.001  1.00  0.00     0.012 C 
ENDBRANCH  47  49
ENDBRANCH  46  47
ENDBRANCH  45  46
ENDBRANCH  44  45
ENDBRANCH  43  44
ENDBRANCH   1  43
TORSDOF 12
ENDMDL
