MODEL 1
REMARK VINA RESULT:    -4.840      0.000      0.000
REMARK INTER + INTRA:          -8.601
REMARK INTER:                  -6.679
REMARK INTRA:                  -1.922
REMARK UNBOUND:                -1.922
REMARK SMILES CC[C@@H](CC[C@H](C)[C@H]1CC[C@H]2[C@@H]3CC=C4C[C@H](O)CC[C@]4(C)[C@@H]3CC[C@]12C)C(C)C
REMARK SMILES IDX 5 1 4 2 3 3 2 4 1 5 28 6 29 7 30 8 6 9 7 10 8 11 9 12 26 13
REMARK SMILES IDX 10 14 11 15 25 16 27 17 12 18 24 19 23 20 13 21 21 22 14 23
REMARK SMILES IDX 15 24 20 25 22 26 16 27 19 28 17 29 18 30
REMARK H PARENT 18 31
REMARK Flexibility Score: inf
ROOT
ATOM      1  C   UNL     1       4.524   0.302  -0.505  1.00  0.00     0.004 C 
ENDROOT
BRANCH   1   2
ATOM      2  C   UNL     1       5.152   1.247  -1.554  1.00  0.00     0.004 C 
BRANCH   2   3
ATOM      3  C   UNL     1       4.662   0.999  -3.013  1.00  0.00    -0.009 C 
BRANCH   3   4
ATOM      4  C   UNL     1       3.341   0.180  -3.058  1.00  0.00     0.000 C 
ATOM      5  C   UNL     1       2.114   1.005  -3.458  1.00  0.00     0.004 C 
ENDBRANCH   3   4
BRANCH   3   6
ATOM      6  C   UNL     1       5.762   0.356  -3.934  1.00  0.00    -0.014 C 
ATOM      7  C   UNL     1       5.566  -1.163  -4.116  1.00  0.00     0.007 C 
ATOM      8  C   UNL     1       7.183   0.603  -3.392  1.00  0.00     0.007 C 
ENDBRANCH   3   6
ENDBRANCH   2   3
ENDBRANCH   1   2
BRANCH   1   9
ATOM      9  C   UNL     1       5.561  -0.598   0.219  1.00  0.00    -0.011 C 
ATOM     10  C   UNL     1       6.934   0.112   0.278  1.00  0.00     0.008 C 
BRANCH   9  11
ATOM     11  C   UNL     1       5.591  -2.022  -0.448  1.00  0.00    -0.002 C 
ATOM     12  C   UNL     1       6.904  -2.434  -1.152  1.00  0.00     0.005 C 
ATOM     13  C   UNL     1       5.218  -3.241   0.443  1.00  0.00    -0.026 C 
ATOM     14  C   UNL     1       6.960  -3.969  -1.092  1.00  0.00     0.005 C 
ATOM     15  C   UNL     1       5.619  -4.395  -0.487  1.00  0.00    -0.001 C 
ATOM     16  C   UNL     1       3.701  -3.361   0.760  1.00  0.00     0.007 C 
ATOM     17  C   UNL     1       6.035  -3.237   1.771  1.00  0.00     0.012 C 
ATOM     18  C   UNL     1       5.536  -5.783   0.199  1.00  0.00     0.000 C 
ATOM     19  C   UNL     1       3.157  -4.816   0.693  1.00  0.00     0.005 C 
ATOM     20  C   UNL     1       4.193  -5.930   1.044  1.00  0.00     0.003 C 
ATOM     21  C   UNL     1       5.775  -6.912  -0.847  1.00  0.00     0.031 C 
ATOM     22  C   UNL     1       3.594  -7.395   0.998  1.00  0.00    -0.008 C 
ATOM     23  C   UNL     1       4.518  -7.582  -1.306  1.00  0.00    -0.027 C 
ATOM     24  C   UNL     1       3.532  -7.879  -0.444  1.00  0.00    -0.065 C 
ATOM     25  C   UNL     1       2.173  -7.515   1.664  1.00  0.00     0.014 C 
ATOM     26  C   UNL     1       4.527  -8.339   1.806  1.00  0.00     0.016 C 
ATOM     27  C   UNL     1       2.316  -8.638  -0.909  1.00  0.00     0.063 C 
ATOM     28  C   UNL     1       0.951  -7.238   0.747  1.00  0.00     0.033 C 
ATOM     29  C   UNL     1       1.069  -7.780  -0.703  1.00  0.00     0.118 C 
BRANCH  29  30
ATOM     30  O   UNL     1       1.086  -6.717  -1.622  1.00  0.00    -0.393 OA
ATOM     31  H   UNL     1       1.274  -5.894  -1.101  1.00  0.00     0.210 HD
ENDBRANCH  29  30
ENDBRANCH   9  11
ENDBRANCH   1   9
TORSDOF 7
ENDMDL
MODEL 2
REMARK VINA RESULT:    -4.605      3.875      9.343
REMARK INTER + INTRA:          -8.276
REMARK INTER:                  -6.567
REMARK INTRA:                  -1.709
REMARK UNBOUND:                -1.922
REMARK SMILES CC[C@@H](CC[C@H](C)[C@H]1CC[C@H]2[C@@H]3CC=C4C[C@H](O)CC[C@]4(C)[C@@H]3CC[C@]12C)C(C)C
REMARK SMILES IDX 5 1 4 2 3 3 2 4 1 5 28 6 29 7 30 8 6 9 7 10 8 11 9 12 26 13
REMARK SMILES IDX 10 14 11 15 25 16 27 17 12 18 24 19 23 20 13 21 21 22 14 23
REMARK SMILES IDX 15 24 20 25 22 26 16 27 19 28 17 29 18 30
REMARK H PARENT 18 31
REMARK Flexibility Score: inf
ROOT
ATOM      1  C   UNL     1       5.273   0.161  -0.794  1.00  0.00     0.004 C 
ENDROOT
BRANCH   1   2
ATOM      2  C   UNL     1       5.062  -1.196  -1.502  1.00  0.00     0.004 C 
BRANCH   2   3
ATOM      3  C   UNL     1       6.224  -1.606  -2.457  1.00  0.00    -0.009 C 
BRANCH   3   4
ATOM      4  C   UNL     1       5.820  -1.497  -3.955  1.00  0.00     0.000 C 
ATOM      5  C   UNL     1       6.971  -1.771  -4.928  1.00  0.00     0.004 C 
ENDBRANCH   3   4
BRANCH   3   6
ATOM      6  C   UNL     1       6.822  -3.023  -2.130  1.00  0.00    -0.014 C 
ATOM      7  C   UNL     1       6.031  -3.758  -1.029  1.00  0.00     0.007 C 
ATOM      8  C   UNL     1       8.298  -2.938  -1.697  1.00  0.00     0.007 C 
ENDBRANCH   3   6
ENDBRANCH   2   3
ENDBRANCH   1   2
BRANCH   1   9
ATOM      9  C   UNL     1       6.183   1.138  -1.585  1.00  0.00    -0.011 C 
ATOM     10  C   UNL     1       7.462   1.450  -0.773  1.00  0.00     0.008 C 
BRANCH   9  11
ATOM     11  C   UNL     1       5.359   2.406  -2.016  1.00  0.00    -0.002 C 
ATOM     12  C   UNL     1       6.087   3.769  -1.944  1.00  0.00     0.005 C 
ATOM     13  C   UNL     1       4.690   2.386  -3.420  1.00  0.00    -0.026 C 
ATOM     14  C   UNL     1       5.416   4.669  -2.994  1.00  0.00     0.005 C 
ATOM     15  C   UNL     1       4.239   3.850  -3.532  1.00  0.00    -0.001 C 
ATOM     16  C   UNL     1       3.437   1.470  -3.519  1.00  0.00     0.007 C 
ATOM     17  C   UNL     1       5.718   1.995  -4.526  1.00  0.00     0.012 C 
ATOM     18  C   UNL     1       3.682   4.206  -4.935  1.00  0.00     0.000 C 
ATOM     19  C   UNL     1       2.268   2.089  -4.337  1.00  0.00     0.005 C 
ATOM     20  C   UNL     1       2.697   3.074  -5.470  1.00  0.00     0.003 C 
ATOM     21  C   UNL     1       3.077   5.642  -4.920  1.00  0.00     0.031 C 
ATOM     22  C   UNL     1       1.483   3.656  -6.302  1.00  0.00    -0.008 C 
ATOM     23  C   UNL     1       1.583   5.664  -4.834  1.00  0.00    -0.027 C 
ATOM     24  C   UNL     1       0.832   4.796  -5.530  1.00  0.00    -0.065 C 
ATOM     25  C   UNL     1       0.400   2.576  -6.675  1.00  0.00     0.014 C 
ATOM     26  C   UNL     1       2.023   4.206  -7.651  1.00  0.00     0.016 C 
ATOM     27  C   UNL     1      -0.671   4.896  -5.503  1.00  0.00     0.063 C 
ATOM     28  C   UNL     1      -0.728   2.337  -5.636  1.00  0.00     0.033 C 
ATOM     29  C   UNL     1      -1.258   3.610  -4.923  1.00  0.00     0.118 C 
BRANCH  29  30
ATOM     30  O   UNL     1      -0.971   3.554  -3.547  1.00  0.00    -0.393 OA
ATOM     31  H   UNL     1      -1.161   4.457  -3.181  1.00  0.00     0.210 HD
ENDBRANCH  29  30
ENDBRANCH   9  11
ENDBRANCH   1   9
TORSDOF 7
ENDMDL
MODEL 3
REMARK VINA RESULT:    -4.585      5.087      9.528
REMARK INTER + INTRA:          -8.250
REMARK INTER:                  -6.797
REMARK INTRA:                  -1.452
REMARK UNBOUND:                -1.922
REMARK SMILES CC[C@@H](CC[C@H](C)[C@H]1CC[C@H]2[C@@H]3CC=C4C[C@H](O)CC[C@]4(C)[C@@H]3CC[C@]12C)C(C)C
REMARK SMILES IDX 5 1 4 2 3 3 2 4 1 5 28 6 29 7 30 8 6 9 7 10 8 11 9 12 26 13
REMARK SMILES IDX 10 14 11 15 25 16 27 17 12 18 24 19 23 20 13 21 21 22 14 23
REMARK SMILES IDX 15 24 20 25 22 26 16 27 19 28 17 29 18 30
REMARK H PARENT 18 31
REMARK Flexibility Score: inf
ROOT
ATOM      1  C   UNL     1      -0.543   2.682  -6.519  1.00  0.00     0.004 C 
ENDROOT
BRANCH   1   2
ATOM      2  C   UNL     1      -1.353   2.833  -5.212  1.00  0.00     0.004 C 
BRANCH   2   3
ATOM      3  C   UNL     1      -2.771   3.450  -5.405  1.00  0.00    -0.009 C 
BRANCH   3   4
ATOM      4  C   UNL     1      -3.338   3.186  -6.830  1.00  0.00     0.000 C 
ATOM      5  C   UNL     1      -3.898   4.436  -7.514  1.00  0.00     0.004 C 
ENDBRANCH   3   4
BRANCH   3   6
ATOM      6  C   UNL     1      -2.836   4.977  -5.040  1.00  0.00    -0.014 C 
ATOM      7  C   UNL     1      -1.522   5.493  -4.421  1.00  0.00     0.007 C 
ATOM      8  C   UNL     1      -3.990   5.287  -4.067  1.00  0.00     0.007 C 
ENDBRANCH   3   6
ENDBRANCH   2   3
ENDBRANCH   1   2
BRANCH   1   9
ATOM      9  C   UNL     1       0.373   3.897  -6.824  1.00  0.00    -0.011 C 
ATOM     10  C   UNL     1      -0.054   4.567  -8.151  1.00  0.00     0.008 C 
BRANCH   9  11
ATOM     11  C   UNL     1       1.881   3.456  -6.771  1.00  0.00    -0.002 C 
ATOM     12  C   UNL     1       2.868   4.235  -7.672  1.00  0.00     0.005 C 
ATOM     13  C   UNL     1       2.569   3.409  -5.376  1.00  0.00    -0.026 C 
ATOM     14  C   UNL     1       4.240   4.142  -6.986  1.00  0.00     0.005 C 
ATOM     15  C   UNL     1       4.031   3.200  -5.797  1.00  0.00    -0.001 C 
ATOM     16  C   UNL     1       2.130   2.212  -4.487  1.00  0.00     0.007 C 
ATOM     17  C   UNL     1       2.359   4.746  -4.602  1.00  0.00     0.012 C 
ATOM     18  C   UNL     1       5.022   3.294  -4.608  1.00  0.00     0.000 C 
ATOM     19  C   UNL     1       3.300   1.543  -3.711  1.00  0.00     0.005 C 
ATOM     20  C   UNL     1       4.483   2.493  -3.341  1.00  0.00     0.003 C 
ATOM     21  C   UNL     1       6.453   2.891  -5.072  1.00  0.00     0.031 C 
ATOM     22  C   UNL     1       5.637   1.784  -2.522  1.00  0.00    -0.008 C 
ATOM     23  C   UNL     1       6.843   1.500  -4.681  1.00  0.00    -0.027 C 
ATOM     24  C   UNL     1       6.535   1.004  -3.472  1.00  0.00    -0.065 C 
ATOM     25  C   UNL     1       5.110   0.834  -1.383  1.00  0.00     0.014 C 
ATOM     26  C   UNL     1       6.485   2.876  -1.812  1.00  0.00     0.016 C 
ATOM     27  C   UNL     1       7.019  -0.364  -3.064  1.00  0.00     0.063 C 
ATOM     28  C   UNL     1       4.813  -0.635  -1.788  1.00  0.00     0.033 C 
ATOM     29  C   UNL     1       5.819  -1.268  -2.787  1.00  0.00     0.118 C 
BRANCH  29  30
ATOM     30  O   UNL     1       5.177  -1.565  -4.003  1.00  0.00    -0.393 OA
ATOM     31  H   UNL     1       5.275  -2.543  -4.144  1.00  0.00     0.210 HD
ENDBRANCH  29  30
ENDBRANCH   9  11
ENDBRANCH   1   9
TORSDOF 7
ENDMDL
MODEL 4
REMARK VINA RESULT:    -4.585      9.493     13.782
REMARK INTER + INTRA:          -8.249
REMARK INTER:                  -5.754
REMARK INTRA:                  -2.494
REMARK UNBOUND:                -1.922
REMARK SMILES CC[C@@H](CC[C@H](C)[C@H]1CC[C@H]2[C@@H]3CC=C4C[C@H](O)CC[C@]4(C)[C@@H]3CC[C@]12C)C(C)C
REMARK SMILES IDX 5 1 4 2 3 3 2 4 1 5 28 6 29 7 30 8 6 9 7 10 8 11 9 12 26 13
REMARK SMILES IDX 10 14 11 15 25 16 27 17 12 18 24 19 23 20 13 21 21 22 14 23
REMARK SMILES IDX 15 24 20 25 22 26 16 27 19 28 17 29 18 30
REMARK H PARENT 18 31
REMARK Flexibility Score: inf
ROOT
ATOM      1  C   UNL     1       0.440   2.453  -5.456  1.00  0.00     0.004 C 
ENDROOT
BRANCH   1   2
ATOM      2  C   UNL     1       0.702   3.662  -4.530  1.00  0.00     0.004 C 
BRANCH   2   3
ATOM      3  C   UNL     1       2.077   4.359  -4.761  1.00  0.00    -0.009 C 
BRANCH   3   4
ATOM      4  C   UNL     1       1.943   5.905  -4.866  1.00  0.00     0.000 C 
ATOM      5  C   UNL     1       0.654   6.458  -4.251  1.00  0.00     0.004 C 
ENDBRANCH   3   4
BRANCH   3   6
ATOM      6  C   UNL     1       2.870   3.772  -5.984  1.00  0.00    -0.014 C 
ATOM      7  C   UNL     1       4.321   3.396  -5.622  1.00  0.00     0.007 C 
ATOM      8  C   UNL     1       2.902   4.752  -7.172  1.00  0.00     0.007 C 
ENDBRANCH   3   6
ENDBRANCH   2   3
ENDBRANCH   1   2
BRANCH   1   9
ATOM      9  C   UNL     1      -0.567   2.753  -6.597  1.00  0.00    -0.011 C 
ATOM     10  C   UNL     1       0.036   2.344  -7.962  1.00  0.00     0.008 C 
BRANCH   9  11
ATOM     11  C   UNL     1      -1.037   4.251  -6.515  1.00  0.00    -0.002 C 
ATOM     12  C   UNL     1      -0.799   5.127  -7.767  1.00  0.00     0.005 C 
ATOM     13  C   UNL     1      -2.517   4.520  -6.119  1.00  0.00    -0.026 C 
ATOM     14  C   UNL     1      -1.881   6.219  -7.740  1.00  0.00     0.005 C 
ATOM     15  C   UNL     1      -2.612   6.025  -6.408  1.00  0.00    -0.001 C 
ATOM     16  C   UNL     1      -2.830   4.282  -4.614  1.00  0.00     0.007 C 
ATOM     17  C   UNL     1      -3.495   3.683  -6.999  1.00  0.00     0.012 C 
ATOM     18  C   UNL     1      -4.056   6.576  -6.281  1.00  0.00     0.000 C 
ATOM     19  C   UNL     1      -3.762   5.356  -3.987  1.00  0.00     0.005 C 
ATOM     20  C   UNL     1      -4.776   6.016  -4.975  1.00  0.00     0.003 C 
ATOM     21  C   UNL     1      -4.047   8.129  -6.405  1.00  0.00     0.031 C 
ATOM     22  C   UNL     1      -5.730   7.079  -4.294  1.00  0.00    -0.008 C 
ATOM     23  C   UNL     1      -4.160   8.838  -5.091  1.00  0.00    -0.027 C 
ATOM     24  C   UNL     1      -4.994   8.402  -4.135  1.00  0.00    -0.065 C 
ATOM     25  C   UNL     1      -6.300   6.613  -2.902  1.00  0.00     0.014 C 
ATOM     26  C   UNL     1      -6.965   7.298  -5.211  1.00  0.00     0.016 C 
ATOM     27  C   UNL     1      -5.162   9.183  -2.857  1.00  0.00     0.063 C 
ATOM     28  C   UNL     1      -5.434   6.936  -1.655  1.00  0.00     0.033 C 
ATOM     29  C   UNL     1      -4.732   8.321  -1.671  1.00  0.00     0.118 C 
BRANCH  29  30
ATOM     30  O   UNL     1      -3.336   8.160  -1.702  1.00  0.00    -0.393 OA
ATOM     31  H   UNL     1      -3.158   7.319  -2.199  1.00  0.00     0.210 HD
ENDBRANCH  29  30
ENDBRANCH   9  11
ENDBRANCH   1   9
TORSDOF 7
ENDMDL
MODEL 5
REMARK VINA RESULT:    -4.458      9.787     14.617
REMARK INTER + INTRA:          -8.074
REMARK INTER:                  -6.227
REMARK INTRA:                  -1.847
REMARK UNBOUND:                -1.922
REMARK SMILES CC[C@@H](CC[C@H](C)[C@H]1CC[C@H]2[C@@H]3CC=C4C[C@H](O)CC[C@]4(C)[C@@H]3CC[C@]12C)C(C)C
REMARK SMILES IDX 5 1 4 2 3 3 2 4 1 5 28 6 29 7 30 8 6 9 7 10 8 11 9 12 26 13
REMARK SMILES IDX 10 14 11 15 25 16 27 17 12 18 24 19 23 20 13 21 21 22 14 23
REMARK SMILES IDX 15 24 20 25 22 26 16 27 19 28 17 29 18 30
REMARK H PARENT 18 31
REMARK Flexibility Score: inf
ROOT
ATOM      1  C   UNL     1      -7.770   5.989  -2.409  1.00  0.00     0.004 C 
ENDROOT
BRANCH   1   2
ATOM      2  C   UNL     1      -7.626   6.713  -1.052  1.00  0.00     0.004 C 
BRANCH   2   3
ATOM      3  C   UNL     1      -6.178   6.712  -0.477  1.00  0.00    -0.009 C 
BRANCH   3   4
ATOM      4  C   UNL     1      -6.090   5.983   0.895  1.00  0.00     0.000 C 
ATOM      5  C   UNL     1      -5.945   6.930   2.090  1.00  0.00     0.004 C 
ENDBRANCH   3   4
BRANCH   3   6
ATOM      6  C   UNL     1      -5.541   8.147  -0.401  1.00  0.00    -0.014 C 
ATOM      7  C   UNL     1      -6.479   9.239  -0.954  1.00  0.00     0.007 C 
ATOM      8  C   UNL     1      -4.202   8.223  -1.160  1.00  0.00     0.007 C 
ENDBRANCH   3   6
ENDBRANCH   2   3
ENDBRANCH   1   2
BRANCH   1   9
ATOM      9  C   UNL     1      -7.567   6.921  -3.633  1.00  0.00    -0.011 C 
ATOM     10  C   UNL     1      -8.925   7.500  -4.094  1.00  0.00     0.008 C 
BRANCH   9  11
ATOM     11  C   UNL     1      -6.766   6.163  -4.755  1.00  0.00    -0.002 C 
ATOM     12  C   UNL     1      -7.280   6.319  -6.205  1.00  0.00     0.005 C 
ATOM     13  C   UNL     1      -5.236   6.423  -4.846  1.00  0.00    -0.026 C 
ATOM     14  C   UNL     1      -6.058   6.126  -7.117  1.00  0.00     0.005 C 
ATOM     15  C   UNL     1      -4.916   5.727  -6.177  1.00  0.00    -0.001 C 
ATOM     16  C   UNL     1      -4.404   5.748  -3.719  1.00  0.00     0.007 C 
ATOM     17  C   UNL     1      -4.927   7.951  -4.885  1.00  0.00     0.012 C 
ATOM     18  C   UNL     1      -3.460   5.969  -6.653  1.00  0.00     0.000 C 
ATOM     19  C   UNL     1      -3.073   5.113  -4.213  1.00  0.00     0.005 C 
ATOM     20  C   UNL     1      -2.425   5.807  -5.453  1.00  0.00     0.003 C 
ATOM     21  C   UNL     1      -3.154   5.090  -7.902  1.00  0.00     0.031 C 
ATOM     22  C   UNL     1      -1.056   5.154  -5.905  1.00  0.00    -0.008 C 
ATOM     23  C   UNL     1      -2.353   3.864  -7.592  1.00  0.00    -0.027 C 
ATOM     24  C   UNL     1      -1.330   3.901  -6.724  1.00  0.00    -0.065 C 
ATOM     25  C   UNL     1      -0.096   4.810  -4.706  1.00  0.00     0.014 C 
ATOM     26  C   UNL     1      -0.287   6.175  -6.789  1.00  0.00     0.016 C 
ATOM     27  C   UNL     1      -0.479   2.678  -6.498  1.00  0.00     0.063 C 
ATOM     28  C   UNL     1      -0.277   3.414  -4.051  1.00  0.00     0.033 C 
ATOM     29  C   UNL     1      -0.578   2.250  -5.035  1.00  0.00     0.118 C 
BRANCH  29  30
ATOM     30  O   UNL     1      -1.861   1.728  -4.795  1.00  0.00    -0.393 OA
ATOM     31  H   UNL     1      -2.462   2.506  -4.652  1.00  0.00     0.210 HD
ENDBRANCH  29  30
ENDBRANCH   9  11
ENDBRANCH   1   9
TORSDOF 7
ENDMDL
MODEL 6
REMARK VINA RESULT:    -4.399      2.185      7.361
REMARK INTER + INTRA:          -7.992
REMARK INTER:                  -6.309
REMARK INTRA:                  -1.683
REMARK UNBOUND:                -1.922
REMARK SMILES CC[C@@H](CC[C@H](C)[C@H]1CC[C@H]2[C@@H]3CC=C4C[C@H](O)CC[C@]4(C)[C@@H]3CC[C@]12C)C(C)C
REMARK SMILES IDX 5 1 4 2 3 3 2 4 1 5 28 6 29 7 30 8 6 9 7 10 8 11 9 12 26 13
REMARK SMILES IDX 10 14 11 15 25 16 27 17 12 18 24 19 23 20 13 21 21 22 14 23
REMARK SMILES IDX 15 24 20 25 22 26 16 27 19 28 17 29 18 30
REMARK H PARENT 18 31
REMARK Flexibility Score: inf
ROOT
ATOM      1  C   UNL     1       2.859  -5.608   2.406  1.00  0.00     0.004 C 
ENDROOT
BRANCH   1   2
ATOM      2  C   UNL     1       3.019  -6.227   0.999  1.00  0.00     0.004 C 
BRANCH   2   3
ATOM      3  C   UNL     1       2.062  -5.629  -0.075  1.00  0.00    -0.009 C 
BRANCH   3   4
ATOM      4  C   UNL     1       1.219  -4.445   0.480  1.00  0.00     0.000 C 
ATOM      5  C   UNL     1      -0.026  -4.126  -0.352  1.00  0.00     0.004 C 
ENDBRANCH   3   4
BRANCH   3   6
ATOM      6  C   UNL     1       1.145  -6.709  -0.756  1.00  0.00    -0.014 C 
ATOM      7  C   UNL     1       0.623  -7.758   0.246  1.00  0.00     0.007 C 
ATOM      8  C   UNL     1       1.872  -7.444  -1.898  1.00  0.00     0.007 C 
ENDBRANCH   3   6
ENDBRANCH   2   3
ENDBRANCH   1   2
BRANCH   1   9
ATOM      9  C   UNL     1       4.165  -4.975   2.957  1.00  0.00    -0.011 C 
ATOM     10  C   UNL     1       4.372  -5.381   4.435  1.00  0.00     0.008 C 
BRANCH   9  11
ATOM     11  C   UNL     1       4.156  -3.423   2.702  1.00  0.00    -0.002 C 
ATOM     12  C   UNL     1       4.315  -2.512   3.941  1.00  0.00     0.005 C 
ATOM     13  C   UNL     1       5.165  -2.859   1.662  1.00  0.00    -0.026 C 
ATOM     14  C   UNL     1       4.952  -1.207   3.436  1.00  0.00     0.005 C 
ATOM     15  C   UNL     1       5.007  -1.352   1.913  1.00  0.00    -0.001 C 
ATOM     16  C   UNL     1       4.795  -3.160   0.182  1.00  0.00     0.007 C 
ATOM     17  C   UNL     1       6.613  -3.361   1.955  1.00  0.00     0.012 C 
ATOM     18  C   UNL     1       6.040  -0.497   1.135  1.00  0.00     0.000 C 
ATOM     19  C   UNL     1       5.032  -1.963  -0.782  1.00  0.00     0.005 C 
ATOM     20  C   UNL     1       6.188  -0.997  -0.371  1.00  0.00     0.003 C 
ATOM     21  C   UNL     1       5.705   1.016   1.289  1.00  0.00     0.031 C 
ATOM     22  C   UNL     1       6.422   0.189  -1.393  1.00  0.00    -0.008 C 
ATOM     23  C   UNL     1       5.018   1.604   0.096  1.00  0.00    -0.027 C 
ATOM     24  C   UNL     1       5.394   1.285  -1.152  1.00  0.00    -0.065 C 
ATOM     25  C   UNL     1       6.379  -0.263  -2.901  1.00  0.00     0.014 C 
ATOM     26  C   UNL     1       7.843   0.772  -1.161  1.00  0.00     0.016 C 
ATOM     27  C   UNL     1       4.752   1.959  -2.337  1.00  0.00     0.063 C 
ATOM     28  C   UNL     1       4.985  -0.267  -3.584  1.00  0.00     0.033 C 
ATOM     29  C   UNL     1       4.052   0.913  -3.203  1.00  0.00     0.118 C 
BRANCH  29  30
ATOM     30  O   UNL     1       2.917   0.438  -2.522  1.00  0.00    -0.393 OA
ATOM     31  H   UNL     1       2.150   0.988  -2.829  1.00  0.00     0.210 HD
ENDBRANCH  29  30
ENDBRANCH   9  11
ENDBRANCH   1   9
TORSDOF 7
ENDMDL
MODEL 7
REMARK VINA RESULT:    -4.324      1.950      7.072
REMARK INTER + INTRA:          -7.888
REMARK INTER:                  -5.503
REMARK INTRA:                  -2.386
REMARK UNBOUND:                -1.922
REMARK SMILES CC[C@@H](CC[C@H](C)[C@H]1CC[C@H]2[C@@H]3CC=C4C[C@H](O)CC[C@]4(C)[C@@H]3CC[C@]12C)C(C)C
REMARK SMILES IDX 5 1 4 2 3 3 2 4 1 5 28 6 29 7 30 8 6 9 7 10 8 11 9 12 26 13
REMARK SMILES IDX 10 14 11 15 25 16 27 17 12 18 24 19 23 20 13 21 21 22 14 23
REMARK SMILES IDX 15 24 20 25 22 26 16 27 19 28 17 29 18 30
REMARK H PARENT 18 31
REMARK Flexibility Score: inf
ROOT
ATOM      1  C   UNL     1       4.823  -7.479   1.239  1.00  0.00     0.004 C 
ENDROOT
BRANCH   1   2
ATOM      2  C   UNL     1       3.817  -6.358   1.584  1.00  0.00     0.004 C 
BRANCH   2   3
ATOM      3  C   UNL     1       2.720  -6.127   0.500  1.00  0.00    -0.009 C 
BRANCH   3   4
ATOM      4  C   UNL     1       3.090  -6.783  -0.861  1.00  0.00     0.000 C 
ATOM      5  C   UNL     1       1.879  -7.122  -1.735  1.00  0.00     0.004 C 
ENDBRANCH   3   4
BRANCH   3   6
ATOM      6  C   UNL     1       2.341  -4.613   0.317  1.00  0.00    -0.014 C 
ATOM      7  C   UNL     1       3.234  -3.674   1.154  1.00  0.00     0.007 C 
ATOM      8  C   UNL     1       0.869  -4.340   0.682  1.00  0.00     0.007 C 
ENDBRANCH   3   6
ENDBRANCH   2   3
ENDBRANCH   1   2
BRANCH   1   9
ATOM      9  C   UNL     1       6.306  -7.039   1.359  1.00  0.00    -0.011 C 
ATOM     10  C   UNL     1       6.982  -7.764   2.547  1.00  0.00     0.008 C 
BRANCH   9  11
ATOM     11  C   UNL     1       6.396  -5.470   1.416  1.00  0.00    -0.002 C 
ATOM     12  C   UNL     1       7.095  -4.856   2.651  1.00  0.00     0.005 C 
ATOM     13  C   UNL     1       7.030  -4.742   0.197  1.00  0.00    -0.026 C 
ATOM     14  C   UNL     1       7.665  -3.503   2.193  1.00  0.00     0.005 C 
ATOM     15  C   UNL     1       7.155  -3.318   0.760  1.00  0.00    -0.001 C 
ATOM     16  C   UNL     1       6.123  -4.699  -1.065  1.00  0.00     0.007 C 
ATOM     17  C   UNL     1       8.414  -5.360  -0.169  1.00  0.00     0.012 C 
ATOM     18  C   UNL     1       7.940  -2.363  -0.176  1.00  0.00     0.000 C 
ATOM     19  C   UNL     1       6.145  -3.335  -1.811  1.00  0.00     0.005 C 
ATOM     20  C   UNL     1       7.480  -2.533  -1.692  1.00  0.00     0.003 C 
ATOM     21  C   UNL     1       7.868  -0.905   0.367  1.00  0.00     0.031 C 
ATOM     22  C   UNL     1       7.477  -1.167  -2.492  1.00  0.00    -0.008 C 
ATOM     23  C   UNL     1       6.879  -0.043  -0.353  1.00  0.00    -0.027 C 
ATOM     24  C   UNL     1       6.744  -0.103  -1.687  1.00  0.00    -0.065 C 
ATOM     25  C   UNL     1       6.846  -1.281  -3.929  1.00  0.00     0.014 C 
ATOM     26  C   UNL     1       8.947  -0.712  -2.704  1.00  0.00     0.016 C 
ATOM     27  C   UNL     1       5.809   0.839  -2.401  1.00  0.00     0.063 C 
ATOM     28  C   UNL     1       5.310  -1.075  -4.031  1.00  0.00     0.033 C 
ATOM     29  C   UNL     1       4.724   0.037  -3.119  1.00  0.00     0.118 C 
BRANCH  29  30
ATOM     30  O   UNL     1       3.858  -0.522  -2.163  1.00  0.00    -0.393 OA
ATOM     31  H   UNL     1       4.384  -1.203  -1.667  1.00  0.00     0.210 HD
ENDBRANCH  29  30
ENDBRANCH   9  11
ENDBRANCH   1   9
TORSDOF 7
ENDMDL
MODEL 8
REMARK VINA RESULT:    -4.310      9.565     14.023
REMARK INTER + INTRA:          -7.870
REMARK INTER:                  -6.418
REMARK INTRA:                  -1.452
REMARK UNBOUND:                -1.922
REMARK SMILES CC[C@@H](CC[C@H](C)[C@H]1CC[C@H]2[C@@H]3CC=C4C[C@H](O)CC[C@]4(C)[C@@H]3CC[C@]12C)C(C)C
REMARK SMILES IDX 5 1 4 2 3 3 2 4 1 5 28 6 29 7 30 8 6 9 7 10 8 11 9 12 26 13
REMARK SMILES IDX 10 14 11 15 25 16 27 17 12 18 24 19 23 20 13 21 21 22 14 23
REMARK SMILES IDX 15 24 20 25 22 26 16 27 19 28 17 29 18 30
REMARK H PARENT 18 31
REMARK Flexibility Score: inf
ROOT
ATOM      1  C   UNL     1      -3.404   8.984  -0.600  1.00  0.00     0.004 C 
ENDROOT
BRANCH   1   2
ATOM      2  C   UNL     1      -4.414   9.269   0.534  1.00  0.00     0.004 C 
BRANCH   2   3
ATOM      3  C   UNL     1      -4.743   8.033   1.423  1.00  0.00    -0.009 C 
BRANCH   3   4
ATOM      4  C   UNL     1      -6.169   7.473   1.149  1.00  0.00     0.000 C 
ATOM      5  C   UNL     1      -6.185   6.008   0.705  1.00  0.00     0.004 C 
ENDBRANCH   3   4
BRANCH   3   6
ATOM      6  C   UNL     1      -4.521   8.297   2.957  1.00  0.00    -0.014 C 
ATOM      7  C   UNL     1      -4.811   9.759   3.352  1.00  0.00     0.007 C 
ATOM      8  C   UNL     1      -3.087   7.947   3.399  1.00  0.00     0.007 C 
ENDBRANCH   3   6
ENDBRANCH   2   3
ENDBRANCH   1   2
BRANCH   1   9
ATOM      9  C   UNL     1      -4.046   8.960  -2.012  1.00  0.00    -0.011 C 
ATOM     10  C   UNL     1      -5.465   9.573  -1.963  1.00  0.00     0.008 C 
BRANCH   9  11
ATOM     11  C   UNL     1      -3.985   7.504  -2.603  1.00  0.00    -0.002 C 
ATOM     12  C   UNL     1      -5.337   6.802  -2.870  1.00  0.00     0.005 C 
ATOM     13  C   UNL     1      -3.162   7.290  -3.906  1.00  0.00    -0.026 C 
ATOM     14  C   UNL     1      -5.083   5.799  -4.007  1.00  0.00     0.005 C 
ATOM     15  C   UNL     1      -3.573   5.853  -4.259  1.00  0.00    -0.001 C 
ATOM     16  C   UNL     1      -1.621   7.332  -3.703  1.00  0.00     0.007 C 
ATOM     17  C   UNL     1      -3.578   8.314  -5.006  1.00  0.00     0.012 C 
ATOM     18  C   UNL     1      -3.047   5.396  -5.644  1.00  0.00     0.000 C 
ATOM     19  C   UNL     1      -0.851   6.250  -4.511  1.00  0.00     0.005 C 
ATOM     20  C   UNL     1      -1.524   5.815  -5.851  1.00  0.00     0.003 C 
ATOM     21  C   UNL     1      -3.341   3.881  -5.853  1.00  0.00     0.031 C 
ATOM     22  C   UNL     1      -0.694   4.737  -6.661  1.00  0.00    -0.008 C 
ATOM     23  C   UNL     1      -2.150   3.001  -5.632  1.00  0.00    -0.027 C 
ATOM     24  C   UNL     1      -0.932   3.355  -6.070  1.00  0.00    -0.065 C 
ATOM     25  C   UNL     1       0.850   5.040  -6.710  1.00  0.00     0.014 C 
ATOM     26  C   UNL     1      -1.179   4.743  -8.137  1.00  0.00     0.016 C 
ATOM     27  C   UNL     1       0.235   2.413  -5.919  1.00  0.00     0.063 C 
ATOM     28  C   UNL     1       1.705   4.478  -5.542  1.00  0.00     0.033 C 
ATOM     29  C   UNL     1       1.306   3.063  -5.044  1.00  0.00     0.118 C 
BRANCH  29  30
ATOM     30  O   UNL     1       0.842   3.124  -3.719  1.00  0.00    -0.393 OA
ATOM     31  H   UNL     1       1.646   3.115  -3.136  1.00  0.00     0.210 HD
ENDBRANCH  29  30
ENDBRANCH   9  11
ENDBRANCH   1   9
TORSDOF 7
ENDMDL
MODEL 9
REMARK VINA RESULT:    -4.310      7.808     11.455
REMARK INTER + INTRA:          -7.869
REMARK INTER:                  -5.711
REMARK INTRA:                  -2.158
REMARK UNBOUND:                -1.922
REMARK SMILES CC[C@@H](CC[C@H](C)[C@H]1CC[C@H]2[C@@H]3CC=C4C[C@H](O)CC[C@]4(C)[C@@H]3CC[C@]12C)C(C)C
REMARK SMILES IDX 5 1 4 2 3 3 2 4 1 5 28 6 29 7 30 8 6 9 7 10 8 11 9 12 26 13
REMARK SMILES IDX 10 14 11 15 25 16 27 17 12 18 24 19 23 20 13 21 21 22 14 23
REMARK SMILES IDX 15 24 20 25 22 26 16 27 19 28 17 29 18 30
REMARK H PARENT 18 31
REMARK Flexibility Score: inf
ROOT
ATOM      1  C   UNL     1      -2.724   4.532  -4.146  1.00  0.00     0.004 C 
ENDROOT
BRANCH   1   2
ATOM      2  C   UNL     1      -3.115   5.950  -4.621  1.00  0.00     0.004 C 
BRANCH   2   3
ATOM      3  C   UNL     1      -1.951   6.745  -5.284  1.00  0.00    -0.009 C 
BRANCH   3   4
ATOM      4  C   UNL     1      -1.634   8.067  -4.526  1.00  0.00     0.000 C 
ATOM      5  C   UNL     1      -0.722   7.880  -3.310  1.00  0.00     0.004 C 
ENDBRANCH   3   4
BRANCH   3   6
ATOM      6  C   UNL     1      -2.176   7.009  -6.817  1.00  0.00    -0.014 C 
ATOM      7  C   UNL     1      -3.523   6.450  -7.321  1.00  0.00     0.007 C 
ATOM      8  C   UNL     1      -1.047   6.409  -7.676  1.00  0.00     0.007 C 
ENDBRANCH   3   6
ENDBRANCH   2   3
ENDBRANCH   1   2
BRANCH   1   9
ATOM      9  C   UNL     1      -1.835   3.762  -5.159  1.00  0.00    -0.011 C 
ATOM     10  C   UNL     1      -2.651   2.637  -5.837  1.00  0.00     0.008 C 
BRANCH   9  11
ATOM     11  C   UNL     1      -0.517   3.278  -4.452  1.00  0.00    -0.002 C 
ATOM     12  C   UNL     1      -0.400   1.765  -4.156  1.00  0.00     0.005 C 
ATOM     13  C   UNL     1       0.837   3.659  -5.117  1.00  0.00    -0.026 C 
ATOM     14  C   UNL     1       1.104   1.445  -4.142  1.00  0.00     0.005 C 
ATOM     15  C   UNL     1       1.803   2.800  -4.287  1.00  0.00    -0.001 C 
ATOM     16  C   UNL     1       1.233   5.153  -4.952  1.00  0.00     0.007 C 
ATOM     17  C   UNL     1       0.849   3.274  -6.628  1.00  0.00     0.012 C 
ATOM     18  C   UNL     1       3.253   2.818  -4.835  1.00  0.00     0.000 C 
ATOM     19  C   UNL     1       2.740   5.375  -4.640  1.00  0.00     0.005 C 
ATOM     20  C   UNL     1       3.706   4.296  -5.224  1.00  0.00     0.003 C 
ATOM     21  C   UNL     1       4.207   2.083  -3.847  1.00  0.00     0.031 C 
ATOM     22  C   UNL     1       5.233   4.573  -4.914  1.00  0.00    -0.008 C 
ATOM     23  C   UNL     1       5.015   3.008  -2.992  1.00  0.00    -0.027 C 
ATOM     24  C   UNL     1       5.559   4.126  -3.496  1.00  0.00    -0.065 C 
ATOM     25  C   UNL     1       5.652   6.078  -5.111  1.00  0.00     0.014 C 
ATOM     26  C   UNL     1       6.099   3.754  -5.911  1.00  0.00     0.016 C 
ATOM     27  C   UNL     1       6.447   4.994  -2.642  1.00  0.00     0.063 C 
ATOM     28  C   UNL     1       5.474   7.013  -3.884  1.00  0.00     0.033 C 
ATOM     29  C   UNL     1       5.828   6.385  -2.509  1.00  0.00     0.118 C 
BRANCH  29  30
ATOM     30  O   UNL     1       4.681   6.302  -1.701  1.00  0.00    -0.393 OA
ATOM     31  H   UNL     1       4.888   6.793  -0.863  1.00  0.00     0.210 HD
ENDBRANCH  29  30
ENDBRANCH   9  11
ENDBRANCH   1   9
TORSDOF 7
ENDMDL
