MODEL 1
REMARK VINA RESULT:    -6.186      0.000      0.000
REMARK INTER + INTRA:         -10.659
REMARK INTER:                  -8.536
REMARK INTRA:                  -2.122
REMARK UNBOUND:                -2.122
REMARK SMILES CC[C@H](CC[C@H](C)[C@H]1CC[C@H]2[C@H]3CC=C4C[C@@H](O)CC[C@@]4(C)[C@H]3CC[C@]12C)C(C)C
REMARK SMILES IDX 5 1 4 2 3 3 2 4 1 5 28 6 29 7 30 8 6 9 7 10 8 11 9 12 26 13
REMARK SMILES IDX 10 14 11 15 25 16 27 17 12 18 24 19 23 20 13 21 21 22 14 23
REMARK SMILES IDX 15 24 20 25 22 26 16 27 19 28 17 29 18 30
REMARK H PARENT 18 31
REMARK Flexibility Score: inf
ROOT
ATOM      1  C   UNL     1       4.857 -24.117   3.159  1.00  0.00     0.004 C 
ENDROOT
BRANCH   1   2
ATOM      2  C   UNL     1       4.237 -23.762   4.526  1.00  0.00     0.004 C 
BRANCH   2   3
ATOM      3  C   UNL     1       5.294 -23.601   5.656  1.00  0.00    -0.009 C 
BRANCH   3   4
ATOM      4  C   UNL     1       5.730 -22.122   5.889  1.00  0.00     0.000 C 
ATOM      5  C   UNL     1       7.069 -21.704   5.275  1.00  0.00     0.004 C 
ENDBRANCH   3   4
BRANCH   3   6
ATOM      6  C   UNL     1       4.908 -24.407   6.943  1.00  0.00    -0.014 C 
ATOM      7  C   UNL     1       3.682 -25.307   6.731  1.00  0.00     0.007 C 
ATOM      8  C   UNL     1       6.056 -25.204   7.588  1.00  0.00     0.007 C 
ENDBRANCH   3   6
ENDBRANCH   2   3
ENDBRANCH   1   2
BRANCH   1   9
ATOM      9  C   UNL     1       6.141 -24.983   3.272  1.00  0.00    -0.011 C 
ATOM     10  C   UNL     1       7.366 -24.204   2.742  1.00  0.00     0.008 C 
BRANCH   9  11
ATOM     11  C   UNL     1       5.914 -26.385   2.594  1.00  0.00    -0.002 C 
ATOM     12  C   UNL     1       7.133 -27.035   1.885  1.00  0.00     0.005 C 
ATOM     13  C   UNL     1       5.323 -27.521   3.474  1.00  0.00    -0.026 C 
ATOM     14  C   UNL     1       6.893 -28.558   1.916  1.00  0.00     0.005 C 
ATOM     15  C   UNL     1       5.497 -28.708   2.515  1.00  0.00    -0.001 C 
ATOM     16  C   UNL     1       3.815 -27.386   3.761  1.00  0.00     0.007 C 
ATOM     17  C   UNL     1       6.107 -27.656   4.810  1.00  0.00     0.012 C 
ATOM     18  C   UNL     1       5.018 -30.080   3.040  1.00  0.00     0.000 C 
ATOM     19  C   UNL     1       3.222 -28.693   4.340  1.00  0.00     0.005 C 
ATOM     20  C   UNL     1       3.521 -29.988   3.502  1.00  0.00     0.003 C 
ATOM     21  C   UNL     1       5.975 -30.786   4.043  1.00  0.00     0.031 C 
ATOM     22  C   UNL     1       3.066 -31.326   4.209  1.00  0.00    -0.008 C 
ATOM     23  C   UNL     1       5.322 -31.342   5.283  1.00  0.00    -0.027 C 
ATOM     24  C   UNL     1       4.007 -31.628   5.376  1.00  0.00    -0.065 C 
ATOM     25  C   UNL     1       1.581 -31.228   4.699  1.00  0.00     0.014 C 
ATOM     26  C   UNL     1       3.155 -32.504   3.200  1.00  0.00     0.016 C 
ATOM     27  C   UNL     1       3.557 -32.529   6.512  1.00  0.00     0.063 C 
ATOM     28  C   UNL     1       1.183 -32.325   5.694  1.00  0.00     0.033 C 
ATOM     29  C   UNL     1       2.102 -32.297   6.922  1.00  0.00     0.118 C 
BRANCH  29  30
ATOM     30  O   UNL     1       1.994 -31.070   7.598  1.00  0.00    -0.393 OA
ATOM     31  H   UNL     1       1.954 -30.362   6.903  1.00  0.00     0.210 HD
ENDBRANCH  29  30
ENDBRANCH   9  11
ENDBRANCH   1   9
TORSDOF 7
ENDMDL
MODEL 2
REMARK VINA RESULT:    -6.005     12.324     14.954
REMARK INTER + INTRA:         -10.409
REMARK INTER:                  -9.182
REMARK INTRA:                  -1.227
REMARK UNBOUND:                -2.122
REMARK SMILES CC[C@H](CC[C@H](C)[C@H]1CC[C@H]2[C@H]3CC=C4C[C@@H](O)CC[C@@]4(C)[C@H]3CC[C@]12C)C(C)C
REMARK SMILES IDX 5 1 4 2 3 3 2 4 1 5 28 6 29 7 30 8 6 9 7 10 8 11 9 12 26 13
REMARK SMILES IDX 10 14 11 15 25 16 27 17 12 18 24 19 23 20 13 21 21 22 14 23
REMARK SMILES IDX 15 24 20 25 22 26 16 27 19 28 17 29 18 30
REMARK H PARENT 18 31
REMARK Flexibility Score: inf
ROOT
ATOM      1  C   UNL     1       3.424 -20.804  -7.573  1.00  0.00     0.004 C 
ENDROOT
BRANCH   1   2
ATOM      2  C   UNL     1       4.769 -21.424  -7.140  1.00  0.00     0.004 C 
BRANCH   2   3
ATOM      3  C   UNL     1       5.979 -20.467  -7.342  1.00  0.00    -0.009 C 
BRANCH   3   4
ATOM      4  C   UNL     1       5.652 -19.235  -8.239  1.00  0.00     0.000 C 
ATOM      5  C   UNL     1       6.626 -18.952  -9.386  1.00  0.00     0.004 C 
ENDBRANCH   3   4
BRANCH   3   6
ATOM      6  C   UNL     1       6.709 -20.151  -5.992  1.00  0.00    -0.014 C 
ATOM      7  C   UNL     1       7.911 -21.073  -5.740  1.00  0.00     0.007 C 
ATOM      8  C   UNL     1       7.109 -18.677  -5.791  1.00  0.00     0.007 C 
ENDBRANCH   3   6
ENDBRANCH   2   3
ENDBRANCH   1   2
BRANCH   1   9
ATOM      9  C   UNL     1       2.200 -21.414  -6.837  1.00  0.00    -0.011 C 
ATOM     10  C   UNL     1       1.245 -22.090  -7.846  1.00  0.00     0.008 C 
BRANCH   9  11
ATOM     11  C   UNL     1       1.522 -20.332  -5.918  1.00  0.00    -0.002 C 
ATOM     12  C   UNL     1       0.456 -20.829  -4.905  1.00  0.00     0.005 C 
ATOM     13  C   UNL     1       2.456 -19.413  -5.082  1.00  0.00    -0.026 C 
ATOM     14  C   UNL     1       0.452 -19.814  -3.744  1.00  0.00     0.005 C 
ATOM     15  C   UNL     1       1.411 -18.717  -4.199  1.00  0.00    -0.001 C 
ATOM     16  C   UNL     1       3.167 -18.315  -5.896  1.00  0.00     0.007 C 
ATOM     17  C   UNL     1       3.504 -20.252  -4.295  1.00  0.00     0.012 C 
ATOM     18  C   UNL     1       1.957 -17.690  -3.182  1.00  0.00     0.000 C 
ATOM     19  C   UNL     1       3.802 -17.241  -4.981  1.00  0.00     0.005 C 
ATOM     20  C   UNL     1       2.829 -16.613  -3.919  1.00  0.00     0.003 C 
ATOM     21  C   UNL     1       2.599 -18.292  -1.899  1.00  0.00     0.031 C 
ATOM     22  C   UNL     1       3.545 -15.661  -2.881  1.00  0.00    -0.008 C 
ATOM     23  C   UNL     1       3.933 -17.711  -1.506  1.00  0.00    -0.027 C 
ATOM     24  C   UNL     1       4.375 -16.502  -1.910  1.00  0.00    -0.065 C 
ATOM     25  C   UNL     1       4.441 -14.603  -3.611  1.00  0.00     0.014 C 
ATOM     26  C   UNL     1       2.477 -14.889  -2.058  1.00  0.00     0.016 C 
ATOM     27  C   UNL     1       5.530 -15.879  -1.146  1.00  0.00     0.063 C 
ATOM     28  C   UNL     1       5.433 -13.887  -2.685  1.00  0.00     0.033 C 
ATOM     29  C   UNL     1       6.349 -14.901  -1.990  1.00  0.00     0.118 C 
BRANCH  29  30
ATOM     30  O   UNL     1       7.108 -15.615  -2.932  1.00  0.00    -0.393 OA
ATOM     31  H   UNL     1       7.324 -14.983  -3.667  1.00  0.00     0.210 HD
ENDBRANCH  29  30
ENDBRANCH   9  11
ENDBRANCH   1   9
TORSDOF 7
ENDMDL
MODEL 3
REMARK VINA RESULT:    -5.924      2.628      5.046
REMARK INTER + INTRA:         -10.298
REMARK INTER:                  -8.622
REMARK INTRA:                  -1.676
REMARK UNBOUND:                -2.122
REMARK SMILES CC[C@H](CC[C@H](C)[C@H]1CC[C@H]2[C@H]3CC=C4C[C@@H](O)CC[C@@]4(C)[C@H]3CC[C@]12C)C(C)C
REMARK SMILES IDX 5 1 4 2 3 3 2 4 1 5 28 6 29 7 30 8 6 9 7 10 8 11 9 12 26 13
REMARK SMILES IDX 10 14 11 15 25 16 27 17 12 18 24 19 23 20 13 21 21 22 14 23
REMARK SMILES IDX 15 24 20 25 22 26 16 27 19 28 17 29 18 30
REMARK H PARENT 18 31
REMARK Flexibility Score: inf
ROOT
ATOM      1  C   UNL     1       2.352 -26.067   6.516  1.00  0.00     0.004 C 
ENDROOT
BRANCH   1   2
ATOM      2  C   UNL     1       3.661 -26.279   7.304  1.00  0.00     0.004 C 
BRANCH   2   3
ATOM      3  C   UNL     1       4.867 -25.496   6.712  1.00  0.00    -0.009 C 
BRANCH   3   4
ATOM      4  C   UNL     1       4.489 -24.609   5.487  1.00  0.00     0.000 C 
ATOM      5  C   UNL     1       5.238 -24.896   4.183  1.00  0.00     0.004 C 
ENDBRANCH   3   4
BRANCH   3   6
ATOM      6  C   UNL     1       5.714 -24.791   7.826  1.00  0.00    -0.014 C 
ATOM      7  C   UNL     1       5.752 -23.265   7.664  1.00  0.00     0.007 C 
ATOM      8  C   UNL     1       5.344 -25.170   9.272  1.00  0.00     0.007 C 
ENDBRANCH   3   6
ENDBRANCH   2   3
ENDBRANCH   1   2
BRANCH   1   9
ATOM      9  C   UNL     1       1.562 -27.382   6.270  1.00  0.00    -0.011 C 
ATOM     10  C   UNL     1       0.377 -27.492   7.256  1.00  0.00     0.008 C 
BRANCH   9  11
ATOM     11  C   UNL     1       2.539 -28.614   6.282  1.00  0.00    -0.002 C 
ATOM     12  C   UNL     1       2.106 -29.855   7.109  1.00  0.00     0.005 C 
ATOM     13  C   UNL     1       2.979 -29.196   4.909  1.00  0.00    -0.026 C 
ATOM     14  C   UNL     1       2.796 -31.073   6.462  1.00  0.00     0.005 C 
ATOM     15  C   UNL     1       3.693 -30.469   5.383  1.00  0.00    -0.001 C 
ATOM     16  C   UNL     1       4.020 -28.343   4.159  1.00  0.00     0.007 C 
ATOM     17  C   UNL     1       1.748 -29.454   3.994  1.00  0.00     0.012 C 
ATOM     18  C   UNL     1       4.290 -31.366   4.276  1.00  0.00     0.000 C 
ATOM     19  C   UNL     1       4.663 -29.121   2.986  1.00  0.00     0.005 C 
ATOM     20  C   UNL     1       5.254 -30.527   3.364  1.00  0.00     0.003 C 
ATOM     21  C   UNL     1       3.269 -32.257   3.511  1.00  0.00     0.031 C 
ATOM     22  C   UNL     1       5.732 -31.375   2.120  1.00  0.00    -0.008 C 
ATOM     23  C   UNL     1       3.392 -32.243   2.009  1.00  0.00    -0.027 C 
ATOM     24  C   UNL     1       4.511 -31.879   1.350  1.00  0.00    -0.065 C 
ATOM     25  C   UNL     1       6.671 -30.532   1.191  1.00  0.00     0.014 C 
ATOM     26  C   UNL     1       6.537 -32.610   2.610  1.00  0.00     0.016 C 
ATOM     27  C   UNL     1       4.634 -32.277  -0.110  1.00  0.00     0.063 C 
ATOM     28  C   UNL     1       6.885 -31.149  -0.197  1.00  0.00     0.033 C 
ATOM     29  C   UNL     1       5.543 -31.343  -0.913  1.00  0.00     0.118 C 
BRANCH  29  30
ATOM     30  O   UNL     1       4.897 -30.111  -1.106  1.00  0.00    -0.393 OA
ATOM     31  H   UNL     1       4.876 -29.948  -2.085  1.00  0.00     0.210 HD
ENDBRANCH  29  30
ENDBRANCH   9  11
ENDBRANCH   1   9
TORSDOF 7
ENDMDL
MODEL 4
REMARK VINA RESULT:    -5.826      1.736      2.463
REMARK INTER + INTRA:         -10.162
REMARK INTER:                  -8.316
REMARK INTRA:                  -1.846
REMARK UNBOUND:                -2.122
REMARK SMILES CC[C@H](CC[C@H](C)[C@H]1CC[C@H]2[C@H]3CC=C4C[C@@H](O)CC[C@@]4(C)[C@H]3CC[C@]12C)C(C)C
REMARK SMILES IDX 5 1 4 2 3 3 2 4 1 5 28 6 29 7 30 8 6 9 7 10 8 11 9 12 26 13
REMARK SMILES IDX 10 14 11 15 25 16 27 17 12 18 24 19 23 20 13 21 21 22 14 23
REMARK SMILES IDX 15 24 20 25 22 26 16 27 19 28 17 29 18 30
REMARK H PARENT 18 31
REMARK Flexibility Score: inf
ROOT
ATOM      1  C   UNL     1       4.602 -24.585   3.945  1.00  0.00     0.004 C 
ENDROOT
BRANCH   1   2
ATOM      2  C   UNL     1       4.333 -23.723   5.196  1.00  0.00     0.004 C 
BRANCH   2   3
ATOM      3  C   UNL     1       4.009 -24.564   6.463  1.00  0.00    -0.009 C 
BRANCH   3   4
ATOM      4  C   UNL     1       3.442 -25.980   6.139  1.00  0.00     0.000 C 
ATOM      5  C   UNL     1       2.033 -26.283   6.656  1.00  0.00     0.004 C 
ENDBRANCH   3   4
BRANCH   3   6
ATOM      6  C   UNL     1       5.173 -24.521   7.512  1.00  0.00    -0.014 C 
ATOM      7  C   UNL     1       6.021 -25.801   7.505  1.00  0.00     0.007 C 
ATOM      8  C   UNL     1       6.075 -23.276   7.442  1.00  0.00     0.007 C 
ENDBRANCH   3   6
ENDBRANCH   2   3
ENDBRANCH   1   2
BRANCH   1   9
ATOM      9  C   UNL     1       6.034 -25.186   3.909  1.00  0.00    -0.011 C 
ATOM     10  C   UNL     1       7.089 -24.062   3.815  1.00  0.00     0.008 C 
BRANCH   9  11
ATOM     11  C   UNL     1       6.138 -26.277   2.780  1.00  0.00    -0.002 C 
ATOM     12  C   UNL     1       7.457 -26.328   1.962  1.00  0.00     0.005 C 
ATOM     13  C   UNL     1       5.872 -27.755   3.182  1.00  0.00    -0.026 C 
ATOM     14  C   UNL     1       7.600 -27.777   1.456  1.00  0.00     0.005 C 
ATOM     15  C   UNL     1       6.303 -28.457   1.887  1.00  0.00    -0.001 C 
ATOM     16  C   UNL     1       4.387 -28.096   3.412  1.00  0.00     0.007 C 
ATOM     17  C   UNL     1       6.706 -28.150   4.434  1.00  0.00     0.012 C 
ATOM     18  C   UNL     1       6.193 -29.998   1.881  1.00  0.00     0.000 C 
ATOM     19  C   UNL     1       4.151 -29.624   3.473  1.00  0.00     0.005 C 
ATOM     20  C   UNL     1       4.734 -30.436   2.261  1.00  0.00     0.003 C 
ATOM     21  C   UNL     1       7.325 -30.754   2.636  1.00  0.00     0.031 C 
ATOM     22  C   UNL     1       4.645 -32.003   2.439  1.00  0.00    -0.008 C 
ATOM     23  C   UNL     1       6.867 -31.845   3.570  1.00  0.00    -0.027 C 
ATOM     24  C   UNL     1       5.666 -32.454   3.484  1.00  0.00    -0.065 C 
ATOM     25  C   UNL     1       3.197 -32.443   2.847  1.00  0.00     0.014 C 
ATOM     26  C   UNL     1       4.989 -32.702   1.095  1.00  0.00     0.016 C 
ATOM     27  C   UNL     1       5.487 -33.773   4.215  1.00  0.00     0.063 C 
ATOM     28  C   UNL     1       3.112 -33.878   3.382  1.00  0.00     0.033 C 
ATOM     29  C   UNL     1       4.033 -34.055   4.595  1.00  0.00     0.118 C 
BRANCH  29  30
ATOM     30  O   UNL     1       3.647 -33.203   5.643  1.00  0.00    -0.393 OA
ATOM     31  H   UNL     1       4.007 -33.596   6.481  1.00  0.00     0.210 HD
ENDBRANCH  29  30
ENDBRANCH   9  11
ENDBRANCH   1   9
TORSDOF 7
ENDMDL
MODEL 5
REMARK VINA RESULT:    -5.793      1.251      2.202
REMARK INTER + INTRA:         -10.117
REMARK INTER:                  -8.273
REMARK INTRA:                  -1.844
REMARK UNBOUND:                -2.122
REMARK SMILES CC[C@H](CC[C@H](C)[C@H]1CC[C@H]2[C@H]3CC=C4C[C@@H](O)CC[C@@]4(C)[C@H]3CC[C@]12C)C(C)C
REMARK SMILES IDX 5 1 4 2 3 3 2 4 1 5 28 6 29 7 30 8 6 9 7 10 8 11 9 12 26 13
REMARK SMILES IDX 10 14 11 15 25 16 27 17 12 18 24 19 23 20 13 21 21 22 14 23
REMARK SMILES IDX 15 24 20 25 22 26 16 27 19 28 17 29 18 30
REMARK H PARENT 18 31
REMARK Flexibility Score: inf
ROOT
ATOM      1  C   UNL     1       6.474 -24.907   2.547  1.00  0.00     0.004 C 
ENDROOT
BRANCH   1   2
ATOM      2  C   UNL     1       6.814 -24.006   3.753  1.00  0.00     0.004 C 
BRANCH   2   3
ATOM      3  C   UNL     1       5.918 -24.279   4.994  1.00  0.00    -0.009 C 
BRANCH   3   4
ATOM      4  C   UNL     1       6.717 -24.771   6.239  1.00  0.00     0.000 C 
ATOM      5  C   UNL     1       6.067 -25.883   7.067  1.00  0.00     0.004 C 
ENDBRANCH   3   4
BRANCH   3   6
ATOM      6  C   UNL     1       4.902 -23.114   5.254  1.00  0.00    -0.014 C 
ATOM      7  C   UNL     1       5.598 -21.797   5.629  1.00  0.00     0.007 C 
ATOM      8  C   UNL     1       3.870 -22.879   4.136  1.00  0.00     0.007 C 
ENDBRANCH   3   6
ENDBRANCH   2   3
ENDBRANCH   1   2
BRANCH   1   9
ATOM      9  C   UNL     1       7.162 -26.298   2.606  1.00  0.00    -0.011 C 
ATOM     10  C   UNL     1       8.448 -26.302   1.749  1.00  0.00     0.008 C 
BRANCH   9  11
ATOM     11  C   UNL     1       6.131 -27.430   2.244  1.00  0.00    -0.002 C 
ATOM     12  C   UNL     1       6.632 -28.578   1.325  1.00  0.00     0.005 C 
ATOM     13  C   UNL     1       5.419 -28.156   3.420  1.00  0.00    -0.026 C 
ATOM     14  C   UNL     1       5.766 -29.810   1.656  1.00  0.00     0.005 C 
ATOM     15  C   UNL     1       4.727 -29.287   2.645  1.00  0.00    -0.001 C 
ATOM     16  C   UNL     1       4.311 -27.329   4.102  1.00  0.00     0.007 C 
ATOM     17  C   UNL     1       6.447 -28.641   4.481  1.00  0.00     0.012 C 
ATOM     18  C   UNL     1       3.889 -30.273   3.488  1.00  0.00     0.000 C 
ATOM     19  C   UNL     1       3.423 -28.204   5.018  1.00  0.00     0.005 C 
ATOM     20  C   UNL     1       2.828 -29.489   4.339  1.00  0.00     0.003 C 
ATOM     21  C   UNL     1       4.701 -31.344   4.272  1.00  0.00     0.031 C 
ATOM     22  C   UNL     1       2.084 -30.457   5.342  1.00  0.00    -0.008 C 
ATOM     23  C   UNL     1       4.311 -31.527   5.717  1.00  0.00    -0.027 C 
ATOM     24  C   UNL     1       3.115 -31.163   6.224  1.00  0.00    -0.065 C 
ATOM     25  C   UNL     1       1.045 -29.673   6.215  1.00  0.00     0.014 C 
ATOM     26  C   UNL     1       1.309 -31.540   4.544  1.00  0.00     0.016 C 
ATOM     27  C   UNL     1       2.708 -31.746   7.566  1.00  0.00     0.063 C 
ATOM     28  C   UNL     1       0.549 -30.454   7.438  1.00  0.00     0.033 C 
ATOM     29  C   UNL     1       1.727 -30.858   8.333  1.00  0.00     0.118 C 
BRANCH  29  30
ATOM     30  O   UNL     1       2.399 -29.723   8.816  1.00  0.00    -0.393 OA
ATOM     31  H   UNL     1       3.353 -29.978   8.924  1.00  0.00     0.210 HD
ENDBRANCH  29  30
ENDBRANCH   9  11
ENDBRANCH   1   9
TORSDOF 7
ENDMDL
MODEL 6
REMARK VINA RESULT:    -5.751      2.951      7.927
REMARK INTER + INTRA:         -10.058
REMARK INTER:                  -7.712
REMARK INTRA:                  -2.346
REMARK UNBOUND:                -2.122
REMARK SMILES CC[C@H](CC[C@H](C)[C@H]1CC[C@H]2[C@H]3CC=C4C[C@@H](O)CC[C@@]4(C)[C@H]3CC[C@]12C)C(C)C
REMARK SMILES IDX 5 1 4 2 3 3 2 4 1 5 28 6 29 7 30 8 6 9 7 10 8 11 9 12 26 13
REMARK SMILES IDX 10 14 11 15 25 16 27 17 12 18 24 19 23 20 13 21 21 22 14 23
REMARK SMILES IDX 15 24 20 25 22 26 16 27 19 28 17 29 18 30
REMARK H PARENT 18 31
REMARK Flexibility Score: inf
ROOT
ATOM      1  C   UNL     1      -1.447 -30.295   7.498  1.00  0.00     0.004 C 
ENDROOT
BRANCH   1   2
ATOM      2  C   UNL     1      -0.611 -29.796   8.695  1.00  0.00     0.004 C 
BRANCH   2   3
ATOM      3  C   UNL     1      -0.068 -30.948   9.587  1.00  0.00    -0.009 C 
BRANCH   3   4
ATOM      4  C   UNL     1      -0.394 -32.368   9.031  1.00  0.00     0.000 C 
ATOM      5  C   UNL     1      -0.941 -33.383  10.039  1.00  0.00     0.004 C 
ENDBRANCH   3   4
BRANCH   3   6
ATOM      6  C   UNL     1       1.421 -30.710  10.014  1.00  0.00    -0.014 C 
ATOM      7  C   UNL     1       2.360 -31.822   9.527  1.00  0.00     0.007 C 
ATOM      8  C   UNL     1       1.993 -29.326   9.656  1.00  0.00     0.007 C 
ENDBRANCH   3   6
ENDBRANCH   2   3
ENDBRANCH   1   2
BRANCH   1   9
ATOM      9  C   UNL     1      -0.751 -30.073   6.127  1.00  0.00    -0.011 C 
ATOM     10  C   UNL     1      -1.188 -31.159   5.118  1.00  0.00     0.008 C 
BRANCH   9  11
ATOM     11  C   UNL     1       0.805 -29.947   6.320  1.00  0.00    -0.002 C 
ATOM     12  C   UNL     1       1.683 -31.106   5.775  1.00  0.00     0.005 C 
ATOM     13  C   UNL     1       1.492 -28.656   5.793  1.00  0.00    -0.026 C 
ATOM     14  C   UNL     1       3.065 -30.496   5.465  1.00  0.00     0.005 C 
ATOM     15  C   UNL     1       2.964 -29.058   5.966  1.00  0.00    -0.001 C 
ATOM     16  C   UNL     1       1.257 -27.407   6.664  1.00  0.00     0.007 C 
ATOM     17  C   UNL     1       1.076 -28.363   4.324  1.00  0.00     0.012 C 
ATOM     18  C   UNL     1       4.010 -28.006   5.532  1.00  0.00     0.000 C 
ATOM     19  C   UNL     1       2.221 -26.256   6.291  1.00  0.00     0.005 C 
ATOM     20  C   UNL     1       3.743 -26.645   6.266  1.00  0.00     0.003 C 
ATOM     21  C   UNL     1       4.249 -27.893   3.999  1.00  0.00     0.031 C 
ATOM     22  C   UNL     1       4.684 -25.508   5.703  1.00  0.00    -0.008 C 
ATOM     23  C   UNL     1       4.261 -26.491   3.445  1.00  0.00    -0.027 C 
ATOM     24  C   UNL     1       4.488 -25.390   4.191  1.00  0.00    -0.065 C 
ATOM     25  C   UNL     1       4.401 -24.139   6.412  1.00  0.00     0.014 C 
ATOM     26  C   UNL     1       6.169 -25.880   5.969  1.00  0.00     0.016 C 
ATOM     27  C   UNL     1       4.857 -24.107   3.466  1.00  0.00     0.063 C 
ATOM     28  C   UNL     1       5.005 -22.930   5.688  1.00  0.00     0.033 C 
ATOM     29  C   UNL     1       4.483 -22.847   4.248  1.00  0.00     0.118 C 
BRANCH  29  30
ATOM     30  O   UNL     1       3.088 -22.681   4.232  1.00  0.00    -0.393 OA
ATOM     31  H   UNL     1       2.886 -21.896   4.805  1.00  0.00     0.210 HD
ENDBRANCH  29  30
ENDBRANCH   9  11
ENDBRANCH   1   9
TORSDOF 7
ENDMDL
MODEL 7
REMARK VINA RESULT:    -5.566     12.003     14.694
REMARK INTER + INTRA:          -9.804
REMARK INTER:                  -7.927
REMARK INTRA:                  -1.877
REMARK UNBOUND:                -2.122
REMARK SMILES CC[C@H](CC[C@H](C)[C@H]1CC[C@H]2[C@H]3CC=C4C[C@@H](O)CC[C@@]4(C)[C@H]3CC[C@]12C)C(C)C
REMARK SMILES IDX 5 1 4 2 3 3 2 4 1 5 28 6 29 7 30 8 6 9 7 10 8 11 9 12 26 13
REMARK SMILES IDX 10 14 11 15 25 16 27 17 12 18 24 19 23 20 13 21 21 22 14 23
REMARK SMILES IDX 15 24 20 25 22 26 16 27 19 28 17 29 18 30
REMARK H PARENT 18 31
REMARK Flexibility Score: inf
ROOT
ATOM      1  C   UNL     1       0.981 -20.975  -5.228  1.00  0.00     0.004 C 
ENDROOT
BRANCH   1   2
ATOM      2  C   UNL     1       2.139 -21.874  -5.710  1.00  0.00     0.004 C 
BRANCH   2   3
ATOM      3  C   UNL     1       2.723 -21.438  -7.084  1.00  0.00    -0.009 C 
BRANCH   3   4
ATOM      4  C   UNL     1       1.846 -20.382  -7.823  1.00  0.00     0.000 C 
ATOM      5  C   UNL     1       1.232 -20.822  -9.155  1.00  0.00     0.004 C 
ENDBRANCH   3   4
BRANCH   3   6
ATOM      6  C   UNL     1       4.253 -21.109  -6.994  1.00  0.00    -0.014 C 
ATOM      7  C   UNL     1       4.555 -19.626  -7.254  1.00  0.00     0.007 C 
ATOM      8  C   UNL     1       4.953 -21.585  -5.708  1.00  0.00     0.007 C 
ENDBRANCH   3   6
ENDBRANCH   2   3
ENDBRANCH   1   2
BRANCH   1   9
ATOM      9  C   UNL     1       1.377 -20.040  -4.052  1.00  0.00    -0.011 C 
ATOM     10  C   UNL     1       0.114 -19.504  -3.341  1.00  0.00     0.008 C 
BRANCH   9  11
ATOM     11  C   UNL     1       2.369 -18.926  -4.552  1.00  0.00    -0.002 C 
ATOM     12  C   UNL     1       1.748 -17.686  -5.252  1.00  0.00     0.005 C 
ATOM     13  C   UNL     1       3.363 -18.332  -3.516  1.00  0.00    -0.026 C 
ATOM     14  C   UNL     1       2.737 -16.523  -5.034  1.00  0.00     0.005 C 
ATOM     15  C   UNL     1       3.934 -17.170  -4.341  1.00  0.00    -0.001 C 
ATOM     16  C   UNL     1       4.542 -19.258  -3.159  1.00  0.00     0.007 C 
ATOM     17  C   UNL     1       2.622 -17.894  -2.220  1.00  0.00     0.012 C 
ATOM     18  C   UNL     1       4.993 -16.293  -3.637  1.00  0.00     0.000 C 
ATOM     19  C   UNL     1       5.658 -18.501  -2.402  1.00  0.00     0.005 C 
ATOM     20  C   UNL     1       6.166 -17.189  -3.103  1.00  0.00     0.003 C 
ATOM     21  C   UNL     1       4.437 -15.259  -2.617  1.00  0.00     0.031 C 
ATOM     22  C   UNL     1       7.167 -16.341  -2.223  1.00  0.00    -0.008 C 
ATOM     23  C   UNL     1       5.144 -15.213  -1.287  1.00  0.00    -0.027 C 
ATOM     24  C   UNL     1       6.398 -15.668  -1.085  1.00  0.00    -0.065 C 
ATOM     25  C   UNL     1       8.324 -17.237  -1.662  1.00  0.00     0.014 C 
ATOM     26  C   UNL     1       7.812 -15.228  -3.094  1.00  0.00     0.016 C 
ATOM     27  C   UNL     1       7.122 -15.216   0.170  1.00  0.00     0.063 C 
ATOM     28  C   UNL     1       9.121 -16.582  -0.527  1.00  0.00     0.033 C 
ATOM     29  C   UNL     1       8.193 -16.205   0.634  1.00  0.00     0.118 C 
BRANCH  29  30
ATOM     30  O   UNL     1       7.576 -17.348   1.171  1.00  0.00    -0.393 OA
ATOM     31  H   UNL     1       8.270 -17.831   1.692  1.00  0.00     0.210 HD
ENDBRANCH  29  30
ENDBRANCH   9  11
ENDBRANCH   1   9
TORSDOF 7
ENDMDL
MODEL 8
REMARK VINA RESULT:    -5.555     12.427     14.539
REMARK INTER + INTRA:          -9.788
REMARK INTER:                  -8.393
REMARK INTRA:                  -1.395
REMARK UNBOUND:                -2.122
REMARK SMILES CC[C@H](CC[C@H](C)[C@H]1CC[C@H]2[C@H]3CC=C4C[C@@H](O)CC[C@@]4(C)[C@H]3CC[C@]12C)C(C)C
REMARK SMILES IDX 5 1 4 2 3 3 2 4 1 5 28 6 29 7 30 8 6 9 7 10 8 11 9 12 26 13
REMARK SMILES IDX 10 14 11 15 25 16 27 17 12 18 24 19 23 20 13 21 21 22 14 23
REMARK SMILES IDX 15 24 20 25 22 26 16 27 19 28 17 29 18 30
REMARK H PARENT 18 31
REMARK Flexibility Score: inf
ROOT
ATOM      1  C   UNL     1       5.033 -21.796  -6.706  1.00  0.00     0.004 C 
ENDROOT
BRANCH   1   2
ATOM      2  C   UNL     1       3.890 -20.802  -7.000  1.00  0.00     0.004 C 
BRANCH   2   3
ATOM      3  C   UNL     1       2.544 -21.201  -6.332  1.00  0.00    -0.009 C 
BRANCH   3   4
ATOM      4  C   UNL     1       1.970 -20.100  -5.389  1.00  0.00     0.000 C 
ATOM      5  C   UNL     1       1.996 -18.666  -5.924  1.00  0.00     0.004 C 
ENDBRANCH   3   4
BRANCH   3   6
ATOM      6  C   UNL     1       1.532 -21.808  -7.363  1.00  0.00    -0.014 C 
ATOM      7  C   UNL     1       0.170 -22.133  -6.734  1.00  0.00     0.007 C 
ATOM      8  C   UNL     1       1.346 -20.995  -8.658  1.00  0.00     0.007 C 
ENDBRANCH   3   6
ENDBRANCH   2   3
ENDBRANCH   1   2
BRANCH   1   9
ATOM      9  C   UNL     1       6.446 -21.162  -6.833  1.00  0.00    -0.011 C 
ATOM     10  C   UNL     1       7.314 -21.974  -7.820  1.00  0.00     0.008 C 
BRANCH   9  11
ATOM     11  C   UNL     1       7.085 -20.966  -5.409  1.00  0.00    -0.002 C 
ATOM     12  C   UNL     1       8.593 -21.305  -5.255  1.00  0.00     0.005 C 
ATOM     13  C   UNL     1       6.928 -19.573  -4.737  1.00  0.00    -0.026 C 
ATOM     14  C   UNL     1       9.114 -20.445  -4.085  1.00  0.00     0.005 C 
ATOM     15  C   UNL     1       7.867 -19.757  -3.536  1.00  0.00    -0.001 C 
ATOM     16  C   UNL     1       5.521 -19.291  -4.174  1.00  0.00     0.007 C 
ATOM     17  C   UNL     1       7.347 -18.435  -5.710  1.00  0.00     0.012 C 
ATOM     18  C   UNL     1       8.001 -18.546  -2.587  1.00  0.00     0.000 C 
ATOM     19  C   UNL     1       5.514 -18.061  -3.235  1.00  0.00     0.005 C 
ATOM     20  C   UNL     1       6.583 -18.095  -2.085  1.00  0.00     0.003 C 
ATOM     21  C   UNL     1       8.918 -17.395  -3.093  1.00  0.00     0.031 C 
ATOM     22  C   UNL     1       6.679 -16.751  -1.261  1.00  0.00    -0.008 C 
ATOM     23  C   UNL     1       8.346 -16.006  -2.967  1.00  0.00    -0.027 C 
ATOM     24  C   UNL     1       7.350 -15.677  -2.119  1.00  0.00    -0.065 C 
ATOM     25  C   UNL     1       5.263 -16.280  -0.784  1.00  0.00     0.014 C 
ATOM     26  C   UNL     1       7.554 -16.974   0.003  1.00  0.00     0.016 C 
ATOM     27  C   UNL     1       7.140 -14.205  -1.810  1.00  0.00     0.063 C 
ATOM     28  C   UNL     1       5.224 -14.826  -0.298  1.00  0.00     0.033 C 
ATOM     29  C   UNL     1       5.703 -13.876  -1.402  1.00  0.00     0.118 C 
BRANCH  29  30
ATOM     30  O   UNL     1       4.865 -13.956  -2.527  1.00  0.00    -0.393 OA
ATOM     31  H   UNL     1       4.056 -13.418  -2.322  1.00  0.00     0.210 HD
ENDBRANCH  29  30
ENDBRANCH   9  11
ENDBRANCH   1   9
TORSDOF 7
ENDMDL
MODEL 9
REMARK VINA RESULT:    -5.444      2.395      4.753
REMARK INTER + INTRA:          -9.636
REMARK INTER:                  -7.668
REMARK INTRA:                  -1.967
REMARK UNBOUND:                -2.122
REMARK SMILES CC[C@H](CC[C@H](C)[C@H]1CC[C@H]2[C@H]3CC=C4C[C@@H](O)CC[C@@]4(C)[C@H]3CC[C@]12C)C(C)C
REMARK SMILES IDX 5 1 4 2 3 3 2 4 1 5 28 6 29 7 30 8 6 9 7 10 8 11 9 12 26 13
REMARK SMILES IDX 10 14 11 15 25 16 27 17 12 18 24 19 23 20 13 21 21 22 14 23
REMARK SMILES IDX 15 24 20 25 22 26 16 27 19 28 17 29 18 30
REMARK H PARENT 18 31
REMARK Flexibility Score: inf
ROOT
ATOM      1  C   UNL     1       2.252 -25.483   6.364  1.00  0.00     0.004 C 
ENDROOT
BRANCH   1   2
ATOM      2  C   UNL     1       1.466 -26.746   6.776  1.00  0.00     0.004 C 
BRANCH   2   3
ATOM      3  C   UNL     1       2.323 -27.769   7.574  1.00  0.00    -0.009 C 
BRANCH   3   4
ATOM      4  C   UNL     1       2.278 -27.546   9.116  1.00  0.00     0.000 C 
ATOM      5  C   UNL     1       3.521 -26.916   9.748  1.00  0.00     0.004 C 
ENDBRANCH   3   4
BRANCH   3   6
ATOM      6  C   UNL     1       2.082 -29.240   7.092  1.00  0.00    -0.014 C 
ATOM      7  C   UNL     1       1.945 -30.229   8.258  1.00  0.00     0.007 C 
ATOM      8  C   UNL     1       0.926 -29.423   6.091  1.00  0.00     0.007 C 
ENDBRANCH   3   6
ENDBRANCH   2   3
ENDBRANCH   1   2
BRANCH   1   9
ATOM      9  C   UNL     1       3.787 -25.711   6.291  1.00  0.00    -0.011 C 
ATOM     10  C   UNL     1       4.534 -24.612   7.078  1.00  0.00     0.008 C 
BRANCH   9  11
ATOM     11  C   UNL     1       4.243 -25.868   4.793  1.00  0.00    -0.002 C 
ATOM     12  C   UNL     1       5.182 -24.773   4.219  1.00  0.00     0.005 C 
ATOM     13  C   UNL     1       4.913 -27.209   4.383  1.00  0.00    -0.026 C 
ATOM     14  C   UNL     1       5.989 -25.440   3.087  1.00  0.00     0.005 C 
ATOM     15  C   UNL     1       5.390 -26.840   2.972  1.00  0.00    -0.001 C 
ATOM     16  C   UNL     1       3.936 -28.393   4.237  1.00  0.00     0.007 C 
ATOM     17  C   UNL     1       6.056 -27.585   5.369  1.00  0.00     0.012 C 
ATOM     18  C   UNL     1       6.141 -27.946   2.197  1.00  0.00     0.000 C 
ATOM     19  C   UNL     1       4.591 -29.592   3.512  1.00  0.00     0.005 C 
ATOM     20  C   UNL     1       5.268 -29.249   2.136  1.00  0.00     0.003 C 
ATOM     21  C   UNL     1       7.625 -28.165   2.612  1.00  0.00     0.031 C 
ATOM     22  C   UNL     1       6.087 -30.446   1.510  1.00  0.00    -0.008 C 
ATOM     23  C   UNL     1       8.033 -29.600   2.828  1.00  0.00    -0.027 C 
ATOM     24  C   UNL     1       7.372 -30.656   2.312  1.00  0.00    -0.065 C 
ATOM     25  C   UNL     1       5.230 -31.758   1.475  1.00  0.00     0.014 C 
ATOM     26  C   UNL     1       6.482 -30.100   0.048  1.00  0.00     0.016 C 
ATOM     27  C   UNL     1       8.092 -31.993   2.275  1.00  0.00     0.063 C 
ATOM     28  C   UNL     1       6.051 -33.028   1.222  1.00  0.00     0.033 C 
ATOM     29  C   UNL     1       7.138 -33.189   2.291  1.00  0.00     0.118 C 
BRANCH  29  30
ATOM     30  O   UNL     1       6.566 -33.316   3.569  1.00  0.00    -0.393 OA
ATOM     31  H   UNL     1       7.292 -33.150   4.226  1.00  0.00     0.210 HD
ENDBRANCH  29  30
ENDBRANCH   9  11
ENDBRANCH   1   9
TORSDOF 7
ENDMDL
