MODEL 1
REMARK VINA RESULT:    -4.420      0.000      0.000
REMARK INTER + INTRA:         -11.692
REMARK INTER:                  -9.330
REMARK INTRA:                  -2.362
REMARK UNBOUND:                -2.362
REMARK SMILES CCC(=O)CCCCC[C@@H]1NC(=O)[C@@H]2CCCCN2C(=O)[C@H]([C@@H](C)CC)NC(=O)[C@H](Cc2cn(OC)c3ccccc23)NC1=O
REMARK SMILES IDX 9 1 10 2 44 3 43 4 45 6 30 7 28 8 27 9 29 11 22 12 23 14
REMARK SMILES IDX 24 15 25 16 26 17 31 18 32 19 33 20 42 21 34 22 37 23 41 24
REMARK SMILES IDX 38 25 40 26 39 27 35 28 36 29 11 30 12 31 13 33 14 34 19 35
REMARK SMILES IDX 15 36 18 37 16 38 17 39 20 40 21 41 8 43 7 44 6 45 5 46 3 47
REMARK SMILES IDX 4 48 2 49 1 50
REMARK H PARENT 43 5 27 10 11 32
REMARK Flexibility Score: 80.00
ROOT
ATOM      1  C   UNL     1      61.199  30.775  61.140  1.00  0.00     0.035 C 
ENDROOT
BRANCH   1   2
ATOM      2  C   UNL     1      60.946  29.488  60.322  1.00  0.00     0.171 C 
BRANCH   2   3
ATOM      3  C   UNL     1      62.055  28.483  60.484  1.00  0.00     0.243 C 
ATOM      4  N   UNL     1      63.052  28.335  59.459  1.00  0.00    -0.342 N 
ATOM      5  H   UNL     1      63.191  29.142  58.812  1.00  0.00     0.164 HD
ATOM      6  O   UNL     1      62.103  27.784  61.531  1.00  0.00    -0.273 OA
BRANCH   4   7
ATOM      7  C   UNL     1      63.631  27.046  59.045  1.00  0.00     0.175 C 
BRANCH   7   8
ATOM      8  C   UNL     1      62.558  25.999  58.831  1.00  0.00     0.243 C 
ATOM      9  N   UNL     1      62.023  25.232  59.920  1.00  0.00    -0.342 N 
ATOM     10  H   UNL     1      62.578  25.149  60.798  1.00  0.00     0.164 HD
ATOM     11  O   UNL     1      62.108  25.823  57.666  1.00  0.00    -0.273 OA
BRANCH   9  12
ATOM     12  C   UNL     1      60.690  24.622  59.869  1.00  0.00     0.174 CG0
ATOM     13  G   UNL     1      59.729  25.392  60.742  1.00  0.00     0.000 G0
BRANCH  12  14
ATOM     14  C   UNL     1      60.737  23.109  60.225  1.00  0.00     0.018 C 
ATOM     15  C   UNL     1      60.477  22.261  58.969  1.00  0.00     0.010 C 
BRANCH  14  16
ATOM     16  C   UNL     1      62.062  22.696  60.914  1.00  0.00     0.002 C 
ATOM     17  C   UNL     1      61.929  22.572  62.433  1.00  0.00     0.004 C 
ENDBRANCH  14  16
ENDBRANCH  12  14
ENDBRANCH   9  12
ENDBRANCH   7   8
BRANCH   7  18
ATOM     18  C   UNL     1      64.826  26.576  59.920  1.00  0.00     0.073 C 
BRANCH  18  19
ATOM     19  C   UNL     1      66.192  26.721  59.303  1.00  0.00    -0.016 A 
ATOM     20  C   UNL     1      66.622  26.115  58.132  1.00  0.00     0.134 A 
ATOM     21  C   UNL     1      67.293  27.389  59.806  1.00  0.00     0.006 A 
ATOM     22  N   UNL     1      67.917  26.414  57.890  1.00  0.00    -0.191 N 
ATOM     23  C   UNL     1      68.332  27.199  58.918  1.00  0.00     0.087 A 
ATOM     24  C   UNL     1      67.451  28.114  60.990  1.00  0.00     0.011 A 
ATOM     25  C   UNL     1      69.593  27.766  59.169  1.00  0.00     0.030 A 
ATOM     26  C   UNL     1      68.701  28.689  61.251  1.00  0.00     0.001 A 
ATOM     27  C   UNL     1      69.765  28.518  60.346  1.00  0.00     0.002 A 
BRANCH  22  28
ATOM     28  O   UNL     1      68.583  25.935  56.773  1.00  0.00    -0.417 OA
ATOM     29  C   UNL     1      69.764  25.149  56.804  1.00  0.00     0.313 C 
ENDBRANCH  22  28
ENDBRANCH  18  19
ENDBRANCH   7  18
ENDBRANCH   4   7
ENDBRANCH   2   3
BRANCH   2  30
ATOM     30  N   UNL     1      59.658  28.871  60.664  1.00  0.00    -0.343 N 
ATOM     31  C   UNL     1      58.968  28.019  59.730  1.00  0.00     0.243 C 
ATOM     32  H   UNL     1      59.244  29.055  61.603  1.00  0.00     0.164 HD
ATOM     33  O   UNL     1      59.294  28.044  58.511  1.00  0.00    -0.273 OA
BRANCH  31  34
ATOM     34  C   UNL     1      57.875  27.054  60.155  1.00  0.00     0.174 C 
ATOM     35  N   UNL     1      58.382  25.678  60.319  1.00  0.00    -0.329 N 
ATOM     36  C   UNL     1      57.120  27.462  61.435  1.00  0.00     0.035 C 
ATOM     37  C   UNL     1      57.378  24.646  60.593  1.00  0.00     0.120 C 
ATOM     38  C   UNL     1      56.019  26.437  61.753  1.00  0.00     0.004 C 
ATOM     39  C   UNL     1      56.593  25.015  61.858  1.00  0.00     0.022 C 
BRANCH  35  40
ATOM     40  C   UNL     1      59.731  25.435  60.750  1.00  0.00     0.246 CG0
ATOM     41  O   UNL     1      60.110  25.866  61.874  1.00  0.00    -0.272 OA
ATOM     42  G   UNL     1      60.672  24.657  59.862  1.00  0.00     0.000 G0
ENDBRANCH  35  40
ENDBRANCH  31  34
ENDBRANCH   2  30
ENDBRANCH   1   2
BRANCH   1  43
ATOM     43  C   UNL     1      61.082  32.082  60.329  1.00  0.00     0.003 C 
BRANCH  43  44
ATOM     44  C   UNL     1      62.083  32.145  59.151  1.00  0.00     0.001 C 
BRANCH  44  45
ATOM     45  C   UNL     1      62.679  33.546  58.911  1.00  0.00     0.008 C 
BRANCH  45  46
ATOM     46  C   UNL     1      62.688  34.444  60.158  1.00  0.00     0.075 C 
BRANCH  46  47
ATOM     47  C   UNL     1      64.076  34.608  60.731  1.00  0.00     0.132 C 
ATOM     48  O   UNL     1      64.877  33.689  60.643  1.00  0.00    -0.300 OA
BRANCH  47  49
ATOM     49  C   UNL     1      64.506  35.903  61.369  1.00  0.00     0.072 C 
ATOM     50  C   UNL     1      64.228  37.090  60.451  1.00  0.00     0.012 C 
ENDBRANCH  47  49
ENDBRANCH  46  47
ENDBRANCH  45  46
ENDBRANCH  44  45
ENDBRANCH  43  44
ENDBRANCH   1  43
TORSDOF 12
ENDMDL
MODEL 2
REMARK VINA RESULT:    -4.326      6.238      9.172
REMARK INTER + INTRA:         -11.492
REMARK INTER:                  -7.884
REMARK INTRA:                  -3.608
REMARK UNBOUND:                -2.362
REMARK SMILES CCC(=O)CCCCC[C@@H]1NC(=O)[C@@H]2CCCCN2C(=O)[C@H]([C@@H](C)CC)NC(=O)[C@H](Cc2cn(OC)c3ccccc23)NC1=O
REMARK SMILES IDX 9 1 10 2 44 3 43 4 45 6 30 7 28 8 27 9 29 11 22 12 23 14
REMARK SMILES IDX 24 15 25 16 26 17 31 18 32 19 33 20 42 21 34 22 37 23 41 24
REMARK SMILES IDX 38 25 40 26 39 27 35 28 36 29 11 30 12 31 13 33 14 34 19 35
REMARK SMILES IDX 15 36 18 37 16 38 17 39 20 40 21 41 8 43 7 44 6 45 5 46 3 47
REMARK SMILES IDX 4 48 2 49 1 50
REMARK H PARENT 43 5 27 10 11 32
REMARK Flexibility Score: 80.00
ROOT
ATOM      1  C   UNL     1      58.675  31.755  54.264  1.00  0.00     0.035 C 
ENDROOT
BRANCH   1   2
ATOM      2  C   UNL     1      59.247  30.899  55.417  1.00  0.00     0.171 C 
BRANCH   2   3
ATOM      3  C   UNL     1      60.348  29.983  54.954  1.00  0.00     0.243 C 
ATOM      4  N   UNL     1      60.084  28.586  54.736  1.00  0.00    -0.342 N 
ATOM      5  H   UNL     1      59.092  28.313  54.563  1.00  0.00     0.164 HD
ATOM      6  O   UNL     1      61.497  30.457  54.750  1.00  0.00    -0.273 OA
BRANCH   4   7
ATOM      7  C   UNL     1      61.022  27.503  55.071  1.00  0.00     0.175 C 
BRANCH   7   8
ATOM      8  C   UNL     1      61.561  27.651  56.479  1.00  0.00     0.243 C 
ATOM      9  N   UNL     1      62.739  28.420  56.759  1.00  0.00    -0.342 N 
ATOM     10  H   UNL     1      63.412  28.610  55.986  1.00  0.00     0.164 HD
ATOM     11  O   UNL     1      60.934  27.104  57.427  1.00  0.00    -0.273 OA
BRANCH   9  12
ATOM     12  C   UNL     1      62.995  29.013  58.077  1.00  0.00     0.174 CG0
ATOM     13  G   UNL     1      62.701  30.493  58.050  1.00  0.00     0.000 G0
BRANCH  12  14
ATOM     14  C   UNL     1      64.434  28.700  58.577  1.00  0.00     0.018 C 
ATOM     15  C   UNL     1      64.376  27.821  59.837  1.00  0.00     0.010 C 
BRANCH  14  16
ATOM     16  C   UNL     1      65.322  28.053  57.485  1.00  0.00     0.002 C 
ATOM     17  C   UNL     1      66.812  28.099  57.828  1.00  0.00     0.004 C 
ENDBRANCH  14  16
ENDBRANCH  12  14
ENDBRANCH   9  12
ENDBRANCH   7   8
BRANCH   7  18
ATOM     18  C   UNL     1      62.106  27.243  53.989  1.00  0.00     0.073 C 
BRANCH  18  19
ATOM     19  C   UNL     1      61.606  26.737  52.663  1.00  0.00    -0.016 A 
ATOM     20  C   UNL     1      61.521  25.406  52.281  1.00  0.00     0.134 A 
ATOM     21  C   UNL     1      61.228  27.469  51.553  1.00  0.00     0.006 A 
ATOM     22  N   UNL     1      61.079  25.303  51.009  1.00  0.00    -0.191 N 
ATOM     23  C   UNL     1      60.896  26.571  50.559  1.00  0.00     0.087 A 
ATOM     24  C   UNL     1      61.187  28.851  51.350  1.00  0.00     0.011 A 
ATOM     25  C   UNL     1      60.471  27.031  49.301  1.00  0.00     0.030 A 
ATOM     26  C   UNL     1      60.760  29.323  50.102  1.00  0.00     0.001 A 
ATOM     27  C   UNL     1      60.402  28.419  49.084  1.00  0.00     0.002 A 
BRANCH  22  28
ATOM     28  O   UNL     1      60.901  24.075  50.392  1.00  0.00    -0.417 OA
ATOM     29  C   UNL     1      61.937  23.145  50.114  1.00  0.00     0.313 C 
ENDBRANCH  22  28
ENDBRANCH  18  19
ENDBRANCH   7  18
ENDBRANCH   4   7
ENDBRANCH   2   3
BRANCH   2  30
ATOM     30  N   UNL     1      59.724  31.731  56.528  1.00  0.00    -0.343 N 
ATOM     31  C   UNL     1      59.882  31.188  57.853  1.00  0.00     0.243 C 
ATOM     32  H   UNL     1      59.953  32.732  56.347  1.00  0.00     0.164 HD
ATOM     33  O   UNL     1      59.322  30.095  58.145  1.00  0.00    -0.273 OA
BRANCH  31  34
ATOM     34  C   UNL     1      60.731  31.861  58.918  1.00  0.00     0.174 C 
ATOM     35  N   UNL     1      62.025  31.179  59.109  1.00  0.00    -0.329 N 
ATOM     36  C   UNL     1      60.990  33.361  58.680  1.00  0.00     0.035 C 
ATOM     37  C   UNL     1      62.859  31.668  60.211  1.00  0.00     0.120 C 
ATOM     38  C   UNL     1      61.826  33.946  59.829  1.00  0.00     0.004 C 
ATOM     39  C   UNL     1      63.136  33.165  60.021  1.00  0.00     0.022 C 
BRANCH  35  40
ATOM     40  C   UNL     1      62.678  30.515  58.015  1.00  0.00     0.246 CG0
ATOM     41  O   UNL     1      63.022  31.183  57.001  1.00  0.00    -0.272 OA
ATOM     42  G   UNL     1      62.958  29.034  58.097  1.00  0.00     0.000 G0
ENDBRANCH  35  40
ENDBRANCH  31  34
ENDBRANCH   2  30
ENDBRANCH   1   2
BRANCH   1  43
ATOM     43  C   UNL     1      58.700  31.068  52.883  1.00  0.00     0.003 C 
BRANCH  43  44
ATOM     44  C   UNL     1      57.378  30.335  52.557  1.00  0.00     0.001 C 
BRANCH  44  45
ATOM     45  C   UNL     1      57.572  28.918  51.983  1.00  0.00     0.008 C 
BRANCH  45  46
ATOM     46  C   UNL     1      57.087  28.759  50.533  1.00  0.00     0.075 C 
BRANCH  46  47
ATOM     47  C   UNL     1      56.041  27.677  50.399  1.00  0.00     0.132 C 
ATOM     48  O   UNL     1      56.262  26.566  50.858  1.00  0.00    -0.300 OA
BRANCH  47  49
ATOM     49  C   UNL     1      54.712  27.957  49.749  1.00  0.00     0.072 C 
ATOM     50  C   UNL     1      54.191  29.340  50.129  1.00  0.00     0.012 C 
ENDBRANCH  47  49
ENDBRANCH  46  47
ENDBRANCH  45  46
ENDBRANCH  44  45
ENDBRANCH  43  44
ENDBRANCH   1  43
TORSDOF 12
ENDMDL
MODEL 3
REMARK VINA RESULT:    -4.325      4.143      8.519
REMARK INTER + INTRA:         -11.492
REMARK INTER:                  -7.888
REMARK INTRA:                  -3.604
REMARK UNBOUND:                -2.362
REMARK SMILES CCC(=O)CCCCC[C@@H]1NC(=O)[C@@H]2CCCCN2C(=O)[C@H]([C@@H](C)CC)NC(=O)[C@H](Cc2cn(OC)c3ccccc23)NC1=O
REMARK SMILES IDX 9 1 10 2 44 3 43 4 45 6 30 7 28 8 27 9 29 11 22 12 23 14
REMARK SMILES IDX 24 15 25 16 26 17 31 18 32 19 33 20 42 21 34 22 37 23 41 24
REMARK SMILES IDX 38 25 40 26 39 27 35 28 36 29 11 30 12 31 13 33 14 34 19 35
REMARK SMILES IDX 15 36 18 37 16 38 17 39 20 40 21 41 8 43 7 44 6 45 5 46 3 47
REMARK SMILES IDX 4 48 2 49 1 50
REMARK H PARENT 43 5 27 10 11 32
REMARK Flexibility Score: 80.00
ROOT
ATOM      1  C   UNL     1      60.486  28.374  60.542  1.00  0.00     0.035 C 
ENDROOT
BRANCH   1   2
ATOM      2  C   UNL     1      59.392  27.474  59.922  1.00  0.00     0.171 C 
BRANCH   2   3
ATOM      3  C   UNL     1      58.753  26.570  60.942  1.00  0.00     0.243 C 
ATOM      4  N   UNL     1      59.193  25.207  61.076  1.00  0.00    -0.342 N 
ATOM      5  H   UNL     1      60.151  24.982  60.729  1.00  0.00     0.164 HD
ATOM      6  O   UNL     1      57.840  27.024  61.680  1.00  0.00    -0.273 OA
BRANCH   4   7
ATOM      7  C   UNL     1      58.299  24.069  61.341  1.00  0.00     0.175 C 
BRANCH   7   8
ATOM      8  C   UNL     1      57.079  24.102  60.443  1.00  0.00     0.243 C 
ATOM      9  N   UNL     1      55.927  24.896  60.762  1.00  0.00    -0.342 N 
ATOM     10  H   UNL     1      55.780  25.194  61.750  1.00  0.00     0.164 HD
ATOM     11  O   UNL     1      57.098  23.434  59.373  1.00  0.00    -0.273 OA
BRANCH   9  12
ATOM     12  C   UNL     1      54.989  25.365  59.736  1.00  0.00     0.174 CG0
ATOM     13  G   UNL     1      54.985  26.874  59.683  1.00  0.00     0.000 G0
BRANCH  12  14
ATOM     14  C   UNL     1      53.567  24.773  59.946  1.00  0.00     0.018 C 
ATOM     15  C   UNL     1      53.136  23.977  58.703  1.00  0.00     0.010 C 
BRANCH  14  16
ATOM     16  C   UNL     1      53.459  23.908  61.227  1.00  0.00     0.002 C 
ATOM     17  C   UNL     1      53.456  22.406  60.932  1.00  0.00     0.004 C 
ENDBRANCH  14  16
ENDBRANCH  12  14
ENDBRANCH   9  12
ENDBRANCH   7   8
BRANCH   7  18
ATOM     18  C   UNL     1      57.985  23.842  62.845  1.00  0.00     0.073 C 
BRANCH  18  19
ATOM     19  C   UNL     1      57.138  22.640  63.168  1.00  0.00    -0.016 A 
ATOM     20  C   UNL     1      57.395  21.335  62.772  1.00  0.00     0.134 A 
ATOM     21  C   UNL     1      55.921  22.599  63.822  1.00  0.00     0.006 A 
ATOM     22  N   UNL     1      56.410  20.509  63.185  1.00  0.00    -0.191 N 
ATOM     23  C   UNL     1      55.501  21.284  63.833  1.00  0.00     0.087 A 
ATOM     24  C   UNL     1      55.152  23.628  64.371  1.00  0.00     0.011 A 
ATOM     25  C   UNL     1      54.281  20.933  64.436  1.00  0.00     0.030 A 
ATOM     26  C   UNL     1      53.935  23.292  64.980  1.00  0.00     0.001 A 
ATOM     27  C   UNL     1      53.504  21.953  65.013  1.00  0.00     0.002 A 
BRANCH  22  28
ATOM     28  O   UNL     1      56.434  19.149  62.921  1.00  0.00    -0.417 OA
ATOM     29  C   UNL     1      56.603  18.133  63.897  1.00  0.00     0.313 C 
ENDBRANCH  22  28
ENDBRANCH  18  19
ENDBRANCH   7  18
ENDBRANCH   4   7
ENDBRANCH   2   3
BRANCH   2  30
ATOM     30  N   UNL     1      58.360  28.264  59.240  1.00  0.00    -0.343 N 
ATOM     31  C   UNL     1      57.440  27.651  58.316  1.00  0.00     0.243 C 
ATOM     32  H   UNL     1      58.295  29.287  59.434  1.00  0.00     0.164 HD
ATOM     33  O   UNL     1      57.703  26.510  57.845  1.00  0.00    -0.273 OA
BRANCH  31  34
ATOM     34  C   UNL     1      56.134  28.308  57.903  1.00  0.00     0.174 C 
ATOM     35  N   UNL     1      54.960  27.588  58.433  1.00  0.00    -0.329 N 
ATOM     36  C   UNL     1      56.017  29.797  58.280  1.00  0.00     0.035 C 
ATOM     37  C   UNL     1      53.650  28.062  57.977  1.00  0.00     0.120 C 
ATOM     38  C   UNL     1      54.676  30.366  57.788  1.00  0.00     0.004 C 
ATOM     39  C   UNL     1      53.491  29.548  58.323  1.00  0.00     0.022 C 
BRANCH  35  40
ATOM     40  C   UNL     1      55.024  26.895  59.689  1.00  0.00     0.246 CG0
ATOM     41  O   UNL     1      55.069  27.559  60.762  1.00  0.00    -0.272 OA
ATOM     42  G   UNL     1      55.021  25.386  59.714  1.00  0.00     0.000 G0
ENDBRANCH  35  40
ENDBRANCH  31  34
ENDBRANCH   2  30
ENDBRANCH   1   2
BRANCH   1  43
ATOM     43  C   UNL     1      60.381  29.864  60.158  1.00  0.00     0.003 C 
BRANCH  43  44
ATOM     44  C   UNL     1      61.357  30.756  60.959  1.00  0.00     0.001 C 
BRANCH  44  45
ATOM     45  C   UNL     1      62.672  30.051  61.349  1.00  0.00     0.008 C 
BRANCH  45  46
ATOM     46  C   UNL     1      63.758  30.108  60.263  1.00  0.00     0.075 C 
BRANCH  46  47
ATOM     47  C   UNL     1      64.049  31.523  59.822  1.00  0.00     0.132 C 
ATOM     48  O   UNL     1      64.428  32.344  60.644  1.00  0.00    -0.300 OA
BRANCH  47  49
ATOM     49  C   UNL     1      63.925  31.928  58.377  1.00  0.00     0.072 C 
ATOM     50  C   UNL     1      62.899  31.065  57.647  1.00  0.00     0.012 C 
ENDBRANCH  47  49
ENDBRANCH  46  47
ENDBRANCH  45  46
ENDBRANCH  44  45
ENDBRANCH  43  44
ENDBRANCH   1  43
TORSDOF 12
ENDMDL
MODEL 4
REMARK VINA RESULT:    -4.279      8.939     11.094
REMARK INTER + INTRA:         -11.394
REMARK INTER:                  -8.662
REMARK INTRA:                  -2.732
REMARK UNBOUND:                -2.362
REMARK SMILES CCC(=O)CCCCC[C@@H]1NC(=O)[C@@H]2CCCCN2C(=O)[C@H]([C@@H](C)CC)NC(=O)[C@H](Cc2cn(OC)c3ccccc23)NC1=O
REMARK SMILES IDX 9 1 10 2 44 3 43 4 45 6 30 7 28 8 27 9 29 11 22 12 23 14
REMARK SMILES IDX 24 15 25 16 26 17 31 18 32 19 33 20 42 21 34 22 37 23 41 24
REMARK SMILES IDX 38 25 40 26 39 27 35 28 36 29 11 30 12 31 13 33 14 34 19 35
REMARK SMILES IDX 15 36 18 37 16 38 17 39 20 40 21 41 8 43 7 44 6 45 5 46 3 47
REMARK SMILES IDX 4 48 2 49 1 50
REMARK H PARENT 43 5 27 10 11 32
REMARK Flexibility Score: 80.00
ROOT
ATOM      1  C   UNL     1      56.653  30.131  51.968  1.00  0.00     0.035 C 
ENDROOT
BRANCH   1   2
ATOM      2  C   UNL     1      57.546  29.052  51.314  1.00  0.00     0.171 C 
BRANCH   2   3
ATOM      3  C   UNL     1      59.011  29.383  51.421  1.00  0.00     0.243 C 
ATOM      4  N   UNL     1      59.695  29.998  50.316  1.00  0.00    -0.342 N 
ATOM      5  H   UNL     1      59.110  30.512  49.622  1.00  0.00     0.164 HD
ATOM      6  O   UNL     1      59.622  29.125  52.491  1.00  0.00    -0.273 OA
BRANCH   4   7
ATOM      7  C   UNL     1      61.074  29.678  49.913  1.00  0.00     0.175 C 
BRANCH   7   8
ATOM      8  C   UNL     1      61.301  28.182  49.851  1.00  0.00     0.243 C 
ATOM      9  N   UNL     1      61.643  27.422  51.019  1.00  0.00    -0.342 N 
ATOM     10  H   UNL     1      62.054  27.916  51.840  1.00  0.00     0.164 HD
ATOM     11  O   UNL     1      61.155  27.593  48.746  1.00  0.00    -0.273 OA
BRANCH   9  12
ATOM     12  C   UNL     1      61.367  25.984  51.128  1.00  0.00     0.174 CG0
ATOM     13  G   UNL     1      60.376  25.726  52.238  1.00  0.00     0.000 G0
BRANCH  12  14
ATOM     14  C   UNL     1      62.675  25.160  51.293  1.00  0.00     0.018 C 
ATOM     15  C   UNL     1      62.734  24.045  50.235  1.00  0.00     0.010 C 
BRANCH  14  16
ATOM     16  C   UNL     1      63.949  26.040  51.248  1.00  0.00     0.002 C 
ATOM     17  C   UNL     1      64.787  25.936  52.525  1.00  0.00     0.004 C 
ENDBRANCH  14  16
ENDBRANCH  12  14
ENDBRANCH   9  12
ENDBRANCH   7   8
BRANCH   7  18
ATOM     18  C   UNL     1      62.164  30.464  50.694  1.00  0.00     0.073 C 
BRANCH  18  19
ATOM     19  C   UNL     1      63.314  30.987  49.874  1.00  0.00    -0.016 A 
ATOM     20  C   UNL     1      64.088  30.244  48.995  1.00  0.00     0.134 A 
ATOM     21  C   UNL     1      63.877  32.249  49.895  1.00  0.00     0.006 A 
ATOM     22  N   UNL     1      65.068  31.006  48.463  1.00  0.00    -0.191 N 
ATOM     23  C   UNL     1      64.939  32.242  49.014  1.00  0.00     0.087 A 
ATOM     24  C   UNL     1      63.545  33.378  50.648  1.00  0.00     0.011 A 
ATOM     25  C   UNL     1      65.712  33.400  48.824  1.00  0.00     0.030 A 
ATOM     26  C   UNL     1      64.304  34.541  50.466  1.00  0.00     0.001 A 
ATOM     27  C   UNL     1      65.379  34.553  49.558  1.00  0.00     0.002 A 
BRANCH  22  28
ATOM     28  O   UNL     1      65.976  30.499  47.548  1.00  0.00    -0.417 OA
ATOM     29  C   UNL     1      66.085  29.133  47.180  1.00  0.00     0.313 C 
ENDBRANCH  22  28
ENDBRANCH  18  19
ENDBRANCH   7  18
ENDBRANCH   4   7
ENDBRANCH   2   3
BRANCH   2  30
ATOM     30  N   UNL     1      57.293  27.720  51.878  1.00  0.00    -0.343 N 
ATOM     31  C   UNL     1      57.765  26.529  51.220  1.00  0.00     0.243 C 
ATOM     32  H   UNL     1      56.763  27.643  52.773  1.00  0.00     0.164 HD
ATOM     33  O   UNL     1      58.120  26.589  50.010  1.00  0.00    -0.273 OA
BRANCH  31  34
ATOM     34  C   UNL     1      57.890  25.194  51.934  1.00  0.00     0.174 C 
ATOM     35  N   UNL     1      59.297  24.778  52.090  1.00  0.00    -0.329 N 
ATOM     36  C   UNL     1      57.198  25.133  53.309  1.00  0.00     0.035 C 
ATOM     37  C   UNL     1      59.519  23.439  52.643  1.00  0.00     0.120 C 
ATOM     38  C   UNL     1      57.358  23.734  53.924  1.00  0.00     0.004 C 
ATOM     39  C   UNL     1      58.838  23.328  54.012  1.00  0.00     0.022 C 
BRANCH  35  40
ATOM     40  C   UNL     1      60.341  25.751  52.247  1.00  0.00     0.246 CG0
ATOM     41  O   UNL     1      60.434  26.393  53.330  1.00  0.00    -0.272 OA
ATOM     42  G   UNL     1      61.323  25.985  51.123  1.00  0.00     0.000 G0
ENDBRANCH  35  40
ENDBRANCH  31  34
ENDBRANCH   2  30
ENDBRANCH   1   2
BRANCH   1  43
ATOM     43  C   UNL     1      55.142  29.823  51.925  1.00  0.00     0.003 C 
BRANCH  43  44
ATOM     44  C   UNL     1      54.537  30.003  50.513  1.00  0.00     0.001 C 
BRANCH  44  45
ATOM     45  C   UNL     1      53.554  28.888  50.107  1.00  0.00     0.008 C 
BRANCH  45  46
ATOM     46  C   UNL     1      53.238  27.891  51.233  1.00  0.00     0.075 C 
BRANCH  46  47
ATOM     47  C   UNL     1      53.195  26.465  50.736  1.00  0.00     0.132 C 
ATOM     48  O   UNL     1      52.937  25.562  51.518  1.00  0.00    -0.300 OA
BRANCH  47  49
ATOM     49  C   UNL     1      53.420  26.141  49.282  1.00  0.00     0.072 C 
ATOM     50  C   UNL     1      54.889  25.831  49.007  1.00  0.00     0.012 C 
ENDBRANCH  47  49
ENDBRANCH  46  47
ENDBRANCH  45  46
ENDBRANCH  44  45
ENDBRANCH  43  44
ENDBRANCH   1  43
TORSDOF 12
ENDMDL
MODEL 5
REMARK VINA RESULT:    -4.274      9.373     12.739
REMARK INTER + INTRA:         -11.384
REMARK INTER:                  -9.031
REMARK INTRA:                  -2.352
REMARK UNBOUND:                -2.362
REMARK SMILES CCC(=O)CCCCC[C@@H]1NC(=O)[C@@H]2CCCCN2C(=O)[C@H]([C@@H](C)CC)NC(=O)[C@H](Cc2cn(OC)c3ccccc23)NC1=O
REMARK SMILES IDX 9 1 10 2 44 3 43 4 45 6 30 7 28 8 27 9 29 11 22 12 23 14
REMARK SMILES IDX 24 15 25 16 26 17 31 18 32 19 33 20 42 21 34 22 37 23 41 24
REMARK SMILES IDX 38 25 40 26 39 27 35 28 36 29 11 30 12 31 13 33 14 34 19 35
REMARK SMILES IDX 15 36 18 37 16 38 17 39 20 40 21 41 8 43 7 44 6 45 5 46 3 47
REMARK SMILES IDX 4 48 2 49 1 50
REMARK H PARENT 43 5 27 10 11 32
REMARK Flexibility Score: 80.00
ROOT
ATOM      1  C   UNL     1      59.571  29.178  49.246  1.00  0.00     0.035 C 
ENDROOT
BRANCH   1   2
ATOM      2  C   UNL     1      60.888  29.362  50.035  1.00  0.00     0.171 C 
BRANCH   2   3
ATOM      3  C   UNL     1      61.868  28.250  49.773  1.00  0.00     0.243 C 
ATOM      4  N   UNL     1      62.014  27.177  50.720  1.00  0.00    -0.342 N 
ATOM      5  H   UNL     1      61.215  27.006  51.369  1.00  0.00     0.164 HD
ATOM      6  O   UNL     1      62.548  28.266  48.714  1.00  0.00    -0.273 OA
BRANCH   4   7
ATOM      7  C   UNL     1      63.297  26.545  51.067  1.00  0.00     0.175 C 
BRANCH   7   8
ATOM      8  C   UNL     1      64.365  27.579  51.353  1.00  0.00     0.243 C 
ATOM      9  N   UNL     1      65.101  28.217  50.299  1.00  0.00    -0.342 N 
ATOM     10  H   UNL     1      65.147  27.755  49.366  1.00  0.00     0.164 HD
ATOM     11  O   UNL     1      64.587  27.904  52.552  1.00  0.00    -0.273 OA
BRANCH   9  12
ATOM     12  C   UNL     1      65.731  29.532  50.466  1.00  0.00     0.174 CG0
ATOM     13  G   UNL     1      65.020  30.562  49.621  1.00  0.00     0.000 G0
BRANCH  12  14
ATOM     14  C   UNL     1      67.258  29.477  50.179  1.00  0.00     0.018 C 
ATOM     15  C   UNL     1      68.049  29.697  51.480  1.00  0.00     0.010 C 
BRANCH  14  16
ATOM     16  C   UNL     1      67.691  28.166  49.477  1.00  0.00     0.002 C 
ATOM     17  C   UNL     1      67.919  28.344  47.975  1.00  0.00     0.004 C 
ENDBRANCH  14  16
ENDBRANCH  12  14
ENDBRANCH   9  12
ENDBRANCH   7   8
BRANCH   7  18
ATOM     18  C   UNL     1      63.736  25.419  50.090  1.00  0.00     0.073 C 
BRANCH  18  19
ATOM     19  C   UNL     1      63.722  24.021  50.648  1.00  0.00    -0.016 A 
ATOM     20  C   UNL     1      64.658  23.487  51.522  1.00  0.00     0.134 A 
ATOM     21  C   UNL     1      62.859  22.985  50.345  1.00  0.00     0.006 A 
ATOM     22  N   UNL     1      64.380  22.191  51.784  1.00  0.00    -0.191 N 
ATOM     23  C   UNL     1      63.271  21.880  51.062  1.00  0.00     0.087 A 
ATOM     24  C   UNL     1      61.770  22.938  49.471  1.00  0.00     0.011 A 
ATOM     25  C   UNL     1      62.577  20.663  50.953  1.00  0.00     0.030 A 
ATOM     26  C   UNL     1      61.065  21.733  49.356  1.00  0.00     0.001 A 
ATOM     27  C   UNL     1      61.465  20.603  50.094  1.00  0.00     0.002 A 
BRANCH  22  28
ATOM     28  O   UNL     1      65.164  21.430  52.636  1.00  0.00    -0.417 OA
ATOM     29  C   UNL     1      66.212  21.937  53.448  1.00  0.00     0.313 C 
ENDBRANCH  22  28
ENDBRANCH  18  19
ENDBRANCH   7  18
ENDBRANCH   4   7
ENDBRANCH   2   3
BRANCH   2  30
ATOM     30  N   UNL     1      61.516  30.658  49.749  1.00  0.00    -0.343 N 
ATOM     31  C   UNL     1      62.415  31.275  50.691  1.00  0.00     0.243 C 
ATOM     32  H   UNL     1      61.305  31.134  48.846  1.00  0.00     0.164 HD
ATOM     33  O   UNL     1      62.429  30.874  51.888  1.00  0.00    -0.273 OA
BRANCH  31  34
ATOM     34  C   UNL     1      63.384  32.377  50.298  1.00  0.00     0.174 C 
ATOM     35  N   UNL     1      64.754  31.866  50.103  1.00  0.00    -0.329 N 
ATOM     36  C   UNL     1      62.970  33.181  49.051  1.00  0.00     0.035 C 
ATOM     37  C   UNL     1      65.791  32.873  49.857  1.00  0.00     0.120 C 
ATOM     38  C   UNL     1      64.000  34.286  48.764  1.00  0.00     0.004 C 
ATOM     39  C   UNL     1      65.416  33.707  48.625  1.00  0.00     0.022 C 
BRANCH  35  40
ATOM     40  C   UNL     1      64.984  30.533  49.621  1.00  0.00     0.246 CG0
ATOM     41  O   UNL     1      64.562  30.206  48.477  1.00  0.00    -0.272 OA
ATOM     42  G   UNL     1      65.737  29.545  50.479  1.00  0.00     0.000 G0
ENDBRANCH  35  40
ENDBRANCH  31  34
ENDBRANCH   2  30
ENDBRANCH   1   2
BRANCH   1  43
ATOM     43  C   UNL     1      58.395  28.635  50.083  1.00  0.00     0.003 C 
BRANCH  43  44
ATOM     44  C   UNL     1      58.339  27.090  50.101  1.00  0.00     0.001 C 
BRANCH  44  45
ATOM     45  C   UNL     1      56.975  26.518  50.537  1.00  0.00     0.008 C 
BRANCH  45  46
ATOM     46  C   UNL     1      55.769  27.219  49.893  1.00  0.00     0.075 C 
BRANCH  46  47
ATOM     47  C   UNL     1      54.463  26.550  50.252  1.00  0.00     0.132 C 
ATOM     48  O   UNL     1      53.676  27.122  50.993  1.00  0.00    -0.300 OA
BRANCH  47  49
ATOM     49  C   UNL     1      54.092  25.209  49.677  1.00  0.00     0.072 C 
ATOM     50  C   UNL     1      53.641  24.244  50.770  1.00  0.00     0.012 C 
ENDBRANCH  47  49
ENDBRANCH  46  47
ENDBRANCH  45  46
ENDBRANCH  44  45
ENDBRANCH  43  44
ENDBRANCH   1  43
TORSDOF 12
ENDMDL
MODEL 6
REMARK VINA RESULT:    -4.226      8.670     13.749
REMARK INTER + INTRA:         -11.283
REMARK INTER:                  -8.984
REMARK INTRA:                  -2.299
REMARK UNBOUND:                -2.362
REMARK SMILES CCC(=O)CCCCC[C@@H]1NC(=O)[C@@H]2CCCCN2C(=O)[C@H]([C@@H](C)CC)NC(=O)[C@H](Cc2cn(OC)c3ccccc23)NC1=O
REMARK SMILES IDX 9 1 10 2 44 3 43 4 45 6 30 7 28 8 27 9 29 11 22 12 23 14
REMARK SMILES IDX 24 15 25 16 26 17 31 18 32 19 33 20 42 21 34 22 37 23 41 24
REMARK SMILES IDX 38 25 40 26 39 27 35 28 36 29 11 30 12 31 13 33 14 34 19 35
REMARK SMILES IDX 15 36 18 37 16 38 17 39 20 40 21 41 8 43 7 44 6 45 5 46 3 47
REMARK SMILES IDX 4 48 2 49 1 50
REMARK H PARENT 43 5 27 10 11 32
REMARK Flexibility Score: 80.00
ROOT
ATOM      1  C   UNL     1      62.841  22.466  50.941  1.00  0.00     0.035 C 
ENDROOT
BRANCH   1   2
ATOM      2  C   UNL     1      62.770  23.935  50.468  1.00  0.00     0.171 C 
BRANCH   2   3
ATOM      3  C   UNL     1      61.533  24.634  50.966  1.00  0.00     0.243 C 
ATOM      4  N   UNL     1      60.371  24.734  50.125  1.00  0.00    -0.342 N 
ATOM      5  H   UNL     1      60.282  24.037  49.354  1.00  0.00     0.164 HD
ATOM      6  O   UNL     1      61.527  25.118  52.128  1.00  0.00    -0.273 OA
BRANCH   4   7
ATOM      7  C   UNL     1      59.498  25.917  50.053  1.00  0.00     0.175 C 
BRANCH   7   8
ATOM      8  C   UNL     1      60.303  27.195  49.950  1.00  0.00     0.243 C 
ATOM      9  N   UNL     1      60.879  27.821  51.107  1.00  0.00    -0.342 N 
ATOM     10  H   UNL     1      60.488  27.598  52.047  1.00  0.00     0.164 HD
ATOM     11  O   UNL     1      60.493  27.700  48.810  1.00  0.00    -0.273 OA
BRANCH   9  12
ATOM     12  C   UNL     1      62.046  28.706  51.020  1.00  0.00     0.174 CG0
ATOM     13  G   UNL     1      63.170  28.173  51.876  1.00  0.00     0.000 G0
BRANCH  12  14
ATOM     14  C   UNL     1      61.678  30.176  51.368  1.00  0.00     0.018 C 
ATOM     15  C   UNL     1      61.995  31.096  50.178  1.00  0.00     0.010 C 
BRANCH  14  16
ATOM     16  C   UNL     1      60.205  30.335  51.821  1.00  0.00     0.002 C 
ATOM     17  C   UNL     1      60.077  30.779  53.280  1.00  0.00     0.004 C 
ENDBRANCH  14  16
ENDBRANCH  12  14
ENDBRANCH   9  12
ENDBRANCH   7   8
BRANCH   7  18
ATOM     18  C   UNL     1      58.377  25.947  51.129  1.00  0.00     0.073 C 
BRANCH  18  19
ATOM     19  C   UNL     1      57.292  26.970  50.921  1.00  0.00    -0.016 A 
ATOM     20  C   UNL     1      57.251  28.236  51.488  1.00  0.00     0.134 A 
ATOM     21  C   UNL     1      56.107  26.833  50.223  1.00  0.00     0.006 A 
ATOM     22  N   UNL     1      56.115  28.877  51.137  1.00  0.00    -0.191 N 
ATOM     23  C   UNL     1      55.409  28.017  50.357  1.00  0.00     0.087 A 
ATOM     24  C   UNL     1      55.592  25.744  49.516  1.00  0.00     0.011 A 
ATOM     25  C   UNL     1      54.153  28.173  49.748  1.00  0.00     0.030 A 
ATOM     26  C   UNL     1      54.342  25.887  48.900  1.00  0.00     0.001 A 
ATOM     27  C   UNL     1      53.628  27.094  49.014  1.00  0.00     0.002 A 
BRANCH  22  28
ATOM     28  O   UNL     1      55.836  30.164  51.569  1.00  0.00    -0.417 OA
ATOM     29  C   UNL     1      56.039  30.641  52.890  1.00  0.00     0.313 C 
ENDBRANCH  22  28
ENDBRANCH  18  19
ENDBRANCH   7  18
ENDBRANCH   4   7
ENDBRANCH   2   3
BRANCH   2  30
ATOM     30  N   UNL     1      63.964  24.692  50.862  1.00  0.00    -0.343 N 
ATOM     31  C   UNL     1      64.257  25.979  50.283  1.00  0.00     0.243 C 
ATOM     32  H   UNL     1      64.606  24.287  51.577  1.00  0.00     0.164 HD
ATOM     33  O   UNL     1      63.675  26.326  49.218  1.00  0.00    -0.273 OA
BRANCH  31  34
ATOM     34  C   UNL     1      65.220  26.965  50.923  1.00  0.00     0.174 C 
ATOM     35  N   UNL     1      64.534  28.181  51.398  1.00  0.00    -0.329 N 
ATOM     36  C   UNL     1      66.061  26.385  52.075  1.00  0.00     0.035 C 
ATOM     37  C   UNL     1      65.395  29.254  51.905  1.00  0.00     0.120 C 
ATOM     38  C   UNL     1      67.020  27.454  52.624  1.00  0.00     0.004 C 
ATOM     39  C   UNL     1      66.261  28.719  53.053  1.00  0.00     0.022 C 
BRANCH  35  40
ATOM     40  C   UNL     1      63.178  28.128  51.870  1.00  0.00     0.246 CG0
ATOM     41  O   UNL     1      62.934  27.622  53.000  1.00  0.00    -0.272 OA
ATOM     42  G   UNL     1      62.065  28.688  51.017  1.00  0.00     0.000 G0
ENDBRANCH  35  40
ENDBRANCH  31  34
ENDBRANCH   2  30
ENDBRANCH   1   2
BRANCH   1  43
ATOM     43  C   UNL     1      62.472  22.252  52.423  1.00  0.00     0.003 C 
BRANCH  43  44
ATOM     44  C   UNL     1      61.938  20.828  52.705  1.00  0.00     0.001 C 
BRANCH  44  45
ATOM     45  C   UNL     1      61.641  20.007  51.434  1.00  0.00     0.008 C 
BRANCH  45  46
ATOM     46  C   UNL     1      60.388  19.124  51.540  1.00  0.00     0.075 C 
BRANCH  46  47
ATOM     47  C   UNL     1      60.327  18.089  50.441  1.00  0.00     0.132 C 
ATOM     48  O   UNL     1      61.351  17.521  50.091  1.00  0.00    -0.300 OA
BRANCH  47  49
ATOM     49  C   UNL     1      59.018  17.710  49.801  1.00  0.00     0.072 C 
ATOM     50  C   UNL     1      57.854  18.470  50.432  1.00  0.00     0.012 C 
ENDBRANCH  47  49
ENDBRANCH  46  47
ENDBRANCH  45  46
ENDBRANCH  44  45
ENDBRANCH  43  44
ENDBRANCH   1  43
TORSDOF 12
ENDMDL
MODEL 7
REMARK VINA RESULT:    -4.210      3.884      6.934
REMARK INTER + INTRA:         -11.247
REMARK INTER:                  -7.673
REMARK INTRA:                  -3.574
REMARK UNBOUND:                -2.362
REMARK SMILES CCC(=O)CCCCC[C@@H]1NC(=O)[C@@H]2CCCCN2C(=O)[C@H]([C@@H](C)CC)NC(=O)[C@H](Cc2cn(OC)c3ccccc23)NC1=O
REMARK SMILES IDX 9 1 10 2 44 3 43 4 45 6 30 7 28 8 27 9 29 11 22 12 23 14
REMARK SMILES IDX 24 15 25 16 26 17 31 18 32 19 33 20 42 21 34 22 37 23 41 24
REMARK SMILES IDX 38 25 40 26 39 27 35 28 36 29 11 30 12 31 13 33 14 34 19 35
REMARK SMILES IDX 15 36 18 37 16 38 17 39 20 40 21 41 8 43 7 44 6 45 5 46 3 47
REMARK SMILES IDX 4 48 2 49 1 50
REMARK H PARENT 43 5 27 10 11 32
REMARK Flexibility Score: 80.00
ROOT
ATOM      1  C   UNL     1      67.108  27.900  60.515  1.00  0.00     0.035 C 
ENDROOT
BRANCH   1   2
ATOM      2  C   UNL     1      65.884  28.838  60.414  1.00  0.00     0.171 C 
BRANCH   2   3
ATOM      3  C   UNL     1      65.829  29.563  59.096  1.00  0.00     0.243 C 
ATOM      4  N   UNL     1      66.272  30.929  59.004  1.00  0.00    -0.342 N 
ATOM      5  H   UNL     1      66.931  31.264  59.740  1.00  0.00     0.164 HD
ATOM      6  O   UNL     1      65.403  28.958  58.078  1.00  0.00    -0.273 OA
BRANCH   4   7
ATOM      7  C   UNL     1      65.620  31.958  58.179  1.00  0.00     0.175 C 
BRANCH   7   8
ATOM      8  C   UNL     1      64.115  31.930  58.344  1.00  0.00     0.243 C 
ATOM      9  N   UNL     1      63.286  31.051  57.570  1.00  0.00    -0.342 N 
ATOM     10  H   UNL     1      63.658  30.667  56.675  1.00  0.00     0.164 HD
ATOM     11  O   UNL     1      63.587  32.682  59.208  1.00  0.00    -0.273 OA
BRANCH   9  12
ATOM     12  C   UNL     1      61.962  30.615  58.028  1.00  0.00     0.174 CG0
ATOM     13  G   UNL     1      62.006  29.164  58.445  1.00  0.00     0.000 G0
BRANCH  12  14
ATOM     14  C   UNL     1      60.865  30.896  56.963  1.00  0.00     0.018 C 
ATOM     15  C   UNL     1      59.751  31.767  57.568  1.00  0.00     0.010 C 
BRANCH  14  16
ATOM     16  C   UNL     1      61.432  31.534  55.670  1.00  0.00     0.002 C 
ATOM     17  C   UNL     1      62.006  30.499  54.699  1.00  0.00     0.004 C 
ENDBRANCH  14  16
ENDBRANCH  12  14
ENDBRANCH   9  12
ENDBRANCH   7   8
BRANCH   7  18
ATOM     18  C   UNL     1      66.106  31.992  56.703  1.00  0.00     0.073 C 
BRANCH  18  19
ATOM     19  C   UNL     1      67.579  32.228  56.500  1.00  0.00    -0.016 A 
ATOM     20  C   UNL     1      68.246  33.426  56.708  1.00  0.00     0.134 A 
ATOM     21  C   UNL     1      68.524  31.356  55.993  1.00  0.00     0.006 A 
ATOM     22  N   UNL     1      69.551  33.307  56.381  1.00  0.00    -0.191 N 
ATOM     23  C   UNL     1      69.726  32.033  55.942  1.00  0.00     0.087 A 
ATOM     24  C   UNL     1      68.396  30.038  55.548  1.00  0.00     0.011 A 
ATOM     25  C   UNL     1      70.881  31.393  55.463  1.00  0.00     0.030 A 
ATOM     26  C   UNL     1      69.540  29.386  55.071  1.00  0.00     0.001 A 
ATOM     27  C   UNL     1      70.776  30.059  55.030  1.00  0.00     0.002 A 
BRANCH  22  28
ATOM     28  O   UNL     1      70.437  34.365  56.506  1.00  0.00    -0.417 OA
ATOM     29  C   UNL     1      70.522  35.229  57.628  1.00  0.00     0.313 C 
ENDBRANCH  22  28
ENDBRANCH  18  19
ENDBRANCH   7  18
ENDBRANCH   4   7
ENDBRANCH   2   3
BRANCH   2  30
ATOM     30  N   UNL     1      64.625  28.115  60.638  1.00  0.00    -0.343 N 
ATOM     31  C   UNL     1      63.411  28.817  60.968  1.00  0.00     0.243 C 
ATOM     32  H   UNL     1      64.617  27.076  60.553  1.00  0.00     0.164 HD
ATOM     33  O   UNL     1      63.476  30.010  61.375  1.00  0.00    -0.273 OA
BRANCH  31  34
ATOM     34  C   UNL     1      62.036  28.190  60.814  1.00  0.00     0.174 C 
ATOM     35  N   UNL     1      61.312  28.722  59.644  1.00  0.00    -0.329 N 
ATOM     36  C   UNL     1      62.035  26.651  60.744  1.00  0.00     0.035 C 
ATOM     37  C   UNL     1      59.922  28.282  59.487  1.00  0.00     0.120 C 
ATOM     38  C   UNL     1      60.596  26.125  60.622  1.00  0.00     0.004 C 
ATOM     39  C   UNL     1      59.871  26.751  59.421  1.00  0.00     0.022 C 
BRANCH  35  40
ATOM     40  C   UNL     1      62.019  29.143  58.467  1.00  0.00     0.246 CG0
ATOM     41  O   UNL     1      62.655  28.291  57.787  1.00  0.00    -0.272 OA
ATOM     42  G   UNL     1      61.983  30.594  58.051  1.00  0.00     0.000 G0
ENDBRANCH  35  40
ENDBRANCH  31  34
ENDBRANCH   2  30
ENDBRANCH   1   2
BRANCH   1  43
ATOM     43  C   UNL     1      68.314  28.501  61.265  1.00  0.00     0.003 C 
BRANCH  43  44
ATOM     44  C   UNL     1      69.618  28.449  60.435  1.00  0.00     0.001 C 
BRANCH  44  45
ATOM     45  C   UNL     1      69.659  29.457  59.269  1.00  0.00     0.008 C 
BRANCH  45  46
ATOM     46  C   UNL     1      71.063  29.686  58.689  1.00  0.00     0.075 C 
BRANCH  46  47
ATOM     47  C   UNL     1      71.820  30.758  59.438  1.00  0.00     0.132 C 
ATOM     48  O   UNL     1      71.392  31.903  59.447  1.00  0.00    -0.300 OA
BRANCH  47  49
ATOM     49  C   UNL     1      73.068  30.431  60.215  1.00  0.00     0.072 C 
ATOM     50  C   UNL     1      72.741  30.081  61.664  1.00  0.00     0.012 C 
ENDBRANCH  47  49
ENDBRANCH  46  47
ENDBRANCH  45  46
ENDBRANCH  44  45
ENDBRANCH  43  44
ENDBRANCH   1  43
TORSDOF 12
ENDMDL
MODEL 8
REMARK VINA RESULT:    -4.159      1.781      2.416
REMARK INTER + INTRA:         -11.141
REMARK INTER:                  -7.719
REMARK INTRA:                  -3.422
REMARK UNBOUND:                -2.362
REMARK SMILES CCC(=O)CCCCC[C@@H]1NC(=O)[C@@H]2CCCCN2C(=O)[C@H]([C@@H](C)CC)NC(=O)[C@H](Cc2cn(OC)c3ccccc23)NC1=O
REMARK SMILES IDX 9 1 10 2 44 3 43 4 45 6 30 7 28 8 27 9 29 11 22 12 23 14
REMARK SMILES IDX 24 15 25 16 26 17 31 18 32 19 33 20 42 21 34 22 37 23 41 24
REMARK SMILES IDX 38 25 40 26 39 27 35 28 36 29 11 30 12 31 13 33 14 34 19 35
REMARK SMILES IDX 15 36 18 37 16 38 17 39 20 40 21 41 8 43 7 44 6 45 5 46 3 47
REMARK SMILES IDX 4 48 2 49 1 50
REMARK H PARENT 43 5 27 10 11 32
REMARK Flexibility Score: 80.00
ROOT
ATOM      1  C   UNL     1      61.445  30.221  61.309  1.00  0.00     0.035 C 
ENDROOT
BRANCH   1   2
ATOM      2  C   UNL     1      60.912  29.032  60.478  1.00  0.00     0.171 C 
BRANCH   2   3
ATOM      3  C   UNL     1      61.806  27.824  60.573  1.00  0.00     0.243 C 
ATOM      4  N   UNL     1      62.604  27.425  59.445  1.00  0.00    -0.342 N 
ATOM      5  H   UNL     1      62.815  28.156  58.731  1.00  0.00     0.164 HD
ATOM      6  O   UNL     1      61.854  27.178  61.652  1.00  0.00    -0.273 OA
BRANCH   4   7
ATOM      7  C   UNL     1      62.850  26.027  59.056  1.00  0.00     0.175 C 
BRANCH   7   8
ATOM      8  C   UNL     1      61.565  25.226  59.027  1.00  0.00     0.243 C 
ATOM      9  N   UNL     1      61.125  24.463  60.160  1.00  0.00    -0.342 N 
ATOM     10  H   UNL     1      61.823  24.188  60.883  1.00  0.00     0.164 HD
ATOM     11  O   UNL     1      60.854  25.259  57.985  1.00  0.00    -0.273 OA
BRANCH   9  12
ATOM     12  C   UNL     1      59.714  24.120  60.375  1.00  0.00     0.174 CG0
ATOM     13  G   UNL     1      59.009  25.242  61.098  1.00  0.00     0.000 G0
BRANCH  12  14
ATOM     14  C   UNL     1      59.561  22.754  61.102  1.00  0.00     0.018 C 
ATOM     15  C   UNL     1      59.041  21.689  60.121  1.00  0.00     0.010 C 
BRANCH  14  16
ATOM     16  C   UNL     1      60.869  22.289  61.789  1.00  0.00     0.002 C 
ATOM     17  C   UNL     1      60.803  22.381  63.315  1.00  0.00     0.004 C 
ENDBRANCH  14  16
ENDBRANCH  12  14
ENDBRANCH   9  12
ENDBRANCH   7   8
BRANCH   7  18
ATOM     18  C   UNL     1      64.016  25.348  59.825  1.00  0.00     0.073 C 
BRANCH  18  19
ATOM     19  C   UNL     1      65.398  25.601  59.284  1.00  0.00    -0.016 A 
ATOM     20  C   UNL     1      66.148  24.715  58.525  1.00  0.00     0.134 A 
ATOM     21  C   UNL     1      66.217  26.694  59.501  1.00  0.00     0.006 A 
ATOM     22  N   UNL     1      67.363  25.235  58.248  1.00  0.00    -0.191 N 
ATOM     23  C   UNL     1      67.408  26.454  58.847  1.00  0.00     0.087 A 
ATOM     24  C   UNL     1      66.002  27.853  60.251  1.00  0.00     0.011 A 
ATOM     25  C   UNL     1      68.445  27.401  58.891  1.00  0.00     0.030 A 
ATOM     26  C   UNL     1      67.025  28.808  60.301  1.00  0.00     0.001 A 
ATOM     27  C   UNL     1      68.239  28.584  59.624  1.00  0.00     0.002 A 
BRANCH  22  28
ATOM     28  O   UNL     1      68.301  24.547  57.496  1.00  0.00    -0.417 OA
ATOM     29  C   UNL     1      69.131  23.504  57.984  1.00  0.00     0.313 C 
ENDBRANCH  22  28
ENDBRANCH  18  19
ENDBRANCH   7  18
ENDBRANCH   4   7
ENDBRANCH   2   3
BRANCH   2  30
ATOM     30  N   UNL     1      59.542  28.670  60.863  1.00  0.00    -0.343 N 
ATOM     31  C   UNL     1      58.701  27.895  59.987  1.00  0.00     0.243 C 
ATOM     32  H   UNL     1      59.179  28.980  61.790  1.00  0.00     0.164 HD
ATOM     33  O   UNL     1      59.009  27.788  58.767  1.00  0.00    -0.273 OA
BRANCH  31  34
ATOM     34  C   UNL     1      57.464  27.162  60.476  1.00  0.00     0.174 C 
ATOM     35  N   UNL     1      57.721  25.727  60.698  1.00  0.00    -0.329 N 
ATOM     36  C   UNL     1      56.825  27.756  61.746  1.00  0.00     0.035 C 
ATOM     37  C   UNL     1      56.555  24.905  61.038  1.00  0.00     0.120 C 
ATOM     38  C   UNL     1      55.568  26.962  62.131  1.00  0.00     0.004 C 
ATOM     39  C   UNL     1      55.880  25.466  62.296  1.00  0.00     0.022 C 
BRANCH  35  40
ATOM     40  C   UNL     1      59.014  25.264  61.118  1.00  0.00     0.246 CG0
ATOM     41  O   UNL     1      59.561  25.786  62.129  1.00  0.00    -0.272 OA
ATOM     42  G   UNL     1      59.696  24.153  60.357  1.00  0.00     0.000 G0
ENDBRANCH  35  40
ENDBRANCH  31  34
ENDBRANCH   2  30
ENDBRANCH   1   2
BRANCH   1  43
ATOM     43  C   UNL     1      61.305  31.595  60.623  1.00  0.00     0.003 C 
BRANCH  43  44
ATOM     44  C   UNL     1      62.083  31.678  59.289  1.00  0.00     0.001 C 
BRANCH  44  45
ATOM     45  C   UNL     1      63.551  31.219  59.391  1.00  0.00     0.008 C 
BRANCH  45  46
ATOM     46  C   UNL     1      63.995  30.285  58.254  1.00  0.00     0.075 C 
BRANCH  46  47
ATOM     47  C   UNL     1      65.280  30.745  57.609  1.00  0.00     0.132 C 
ATOM     48  O   UNL     1      66.037  31.480  58.227  1.00  0.00    -0.300 OA
BRANCH  47  49
ATOM     49  C   UNL     1      65.670  30.275  56.231  1.00  0.00     0.072 C 
ATOM     50  C   UNL     1      66.183  28.838  56.262  1.00  0.00     0.012 C 
ENDBRANCH  47  49
ENDBRANCH  46  47
ENDBRANCH  45  46
ENDBRANCH  44  45
ENDBRANCH  43  44
ENDBRANCH   1  43
TORSDOF 12
ENDMDL
MODEL 9
REMARK VINA RESULT:    -4.018      4.111      9.868
REMARK INTER + INTRA:         -10.842
REMARK INTER:                  -7.498
REMARK INTRA:                  -3.343
REMARK UNBOUND:                -2.362
REMARK SMILES CCC(=O)CCCCC[C@@H]1NC(=O)[C@@H]2CCCCN2C(=O)[C@H]([C@@H](C)CC)NC(=O)[C@H](Cc2cn(OC)c3ccccc23)NC1=O
REMARK SMILES IDX 9 1 10 2 44 3 43 4 45 6 30 7 28 8 27 9 29 11 22 12 23 14
REMARK SMILES IDX 24 15 25 16 26 17 31 18 32 19 33 20 42 21 34 22 37 23 41 24
REMARK SMILES IDX 38 25 40 26 39 27 35 28 36 29 11 30 12 31 13 33 14 34 19 35
REMARK SMILES IDX 15 36 18 37 16 38 17 39 20 40 21 41 8 43 7 44 6 45 5 46 3 47
REMARK SMILES IDX 4 48 2 49 1 50
REMARK H PARENT 43 5 27 10 11 32
REMARK Flexibility Score: 80.00
ROOT
ATOM      1  C   UNL     1      63.404  29.491  61.244  1.00  0.00     0.035 C 
ENDROOT
BRANCH   1   2
ATOM      2  C   UNL     1      63.287  30.487  60.068  1.00  0.00     0.171 C 
BRANCH   2   3
ATOM      3  C   UNL     1      61.865  30.661  59.608  1.00  0.00     0.243 C 
ATOM      4  N   UNL     1      61.399  29.982  58.429  1.00  0.00    -0.342 N 
ATOM      5  H   UNL     1      61.928  29.134  58.129  1.00  0.00     0.164 HD
ATOM      6  O   UNL     1      61.089  31.396  60.273  1.00  0.00    -0.273 OA
BRANCH   4   7
ATOM      7  C   UNL     1      60.474  30.568  57.445  1.00  0.00     0.175 C 
BRANCH   7   8
ATOM      8  C   UNL     1      60.890  31.973  57.061  1.00  0.00     0.243 C 
ATOM      9  N   UNL     1      60.514  33.113  57.848  1.00  0.00    -0.342 N 
ATOM     10  H   UNL     1      59.698  33.034  58.491  1.00  0.00     0.164 HD
ATOM     11  O   UNL     1      61.609  32.132  56.038  1.00  0.00    -0.273 OA
BRANCH   9  12
ATOM     12  C   UNL     1      61.283  34.363  57.834  1.00  0.00     0.174 CG0
ATOM     13  G   UNL     1      62.055  34.515  59.123  1.00  0.00     0.000 G0
BRANCH  12  14
ATOM     14  C   UNL     1      60.376  35.590  57.535  1.00  0.00     0.018 C 
ATOM     15  C   UNL     1      60.812  36.263  56.223  1.00  0.00     0.010 C 
BRANCH  14  16
ATOM     16  C   UNL     1      58.869  35.231  57.504  1.00  0.00     0.002 C 
ATOM     17  C   UNL     1      58.233  35.457  56.131  1.00  0.00     0.004 C 
ENDBRANCH  14  16
ENDBRANCH  12  14
ENDBRANCH   9  12
ENDBRANCH   7   8
BRANCH   7  18
ATOM     18  C   UNL     1      58.973  30.419  57.816  1.00  0.00     0.073 C 
BRANCH  18  19
ATOM     19  C   UNL     1      58.420  29.019  57.774  1.00  0.00    -0.016 A 
ATOM     20  C   UNL     1      57.815  28.417  56.680  1.00  0.00     0.134 A 
ATOM     21  C   UNL     1      58.318  28.106  58.807  1.00  0.00     0.006 A 
ATOM     22  N   UNL     1      57.386  27.176  56.997  1.00  0.00    -0.191 N 
ATOM     23  C   UNL     1      57.696  26.981  58.305  1.00  0.00     0.087 A 
ATOM     24  C   UNL     1      58.701  28.207  60.147  1.00  0.00     0.011 A 
ATOM     25  C   UNL     1      57.453  25.874  59.136  1.00  0.00     0.030 A 
ATOM     26  C   UNL     1      58.469  27.109  60.986  1.00  0.00     0.001 A 
ATOM     27  C   UNL     1      57.850  25.949  60.483  1.00  0.00     0.002 A 
BRANCH  22  28
ATOM     28  O   UNL     1      56.752  26.362  56.072  1.00  0.00    -0.417 OA
ATOM     29  C   UNL     1      57.359  25.273  55.394  1.00  0.00     0.313 C 
ENDBRANCH  22  28
ENDBRANCH  18  19
ENDBRANCH   7  18
ENDBRANCH   4   7
ENDBRANCH   2   3
BRANCH   2  30
ATOM     30  N   UNL     1      63.866  31.794  60.404  1.00  0.00    -0.343 N 
ATOM     31  C   UNL     1      64.310  32.700  59.375  1.00  0.00     0.243 C 
ATOM     32  H   UNL     1      63.952  32.067  61.406  1.00  0.00     0.164 HD
ATOM     33  O   UNL     1      64.499  32.264  58.205  1.00  0.00    -0.273 OA
BRANCH  31  34
ATOM     34  C   UNL     1      64.530  34.182  59.627  1.00  0.00     0.174 C 
ATOM     35  N   UNL     1      63.403  35.000  59.142  1.00  0.00    -0.329 N 
ATOM     36  C   UNL     1      64.816  34.548  61.096  1.00  0.00     0.035 C 
ATOM     37  C   UNL     1      63.580  36.454  59.213  1.00  0.00     0.120 C 
ATOM     38  C   UNL     1      65.055  36.060  61.231  1.00  0.00     0.004 C 
ATOM     39  C   UNL     1      63.877  36.865  60.661  1.00  0.00     0.022 C 
BRANCH  35  40
ATOM     40  C   UNL     1      62.062  34.486  59.145  1.00  0.00     0.246 CG0
ATOM     41  O   UNL     1      61.527  34.155  60.240  1.00  0.00    -0.272 OA
ATOM     42  G   UNL     1      61.304  34.361  57.846  1.00  0.00     0.000 G0
ENDBRANCH  35  40
ENDBRANCH  31  34
ENDBRANCH   2  30
ENDBRANCH   1   2
BRANCH   1  43
ATOM     43  C   UNL     1      62.287  28.429  61.297  1.00  0.00     0.003 C 
BRANCH  43  44
ATOM     44  C   UNL     1      62.696  27.098  60.624  1.00  0.00     0.001 C 
BRANCH  44  45
ATOM     45  C   UNL     1      62.578  25.869  61.547  1.00  0.00     0.008 C 
BRANCH  45  46
ATOM     46  C   UNL     1      61.571  24.815  61.060  1.00  0.00     0.075 C 
BRANCH  46  47
ATOM     47  C   UNL     1      60.727  24.270  62.187  1.00  0.00     0.132 C 
ATOM     48  O   UNL     1      60.314  25.029  63.052  1.00  0.00    -0.300 OA
BRANCH  47  49
ATOM     49  C   UNL     1      60.346  22.814  62.240  1.00  0.00     0.072 C 
ATOM     50  C   UNL     1      58.876  22.615  61.878  1.00  0.00     0.012 C 
ENDBRANCH  47  49
ENDBRANCH  46  47
ENDBRANCH  45  46
ENDBRANCH  44  45
ENDBRANCH  43  44
ENDBRANCH   1  43
TORSDOF 12
ENDMDL
