MODEL 1
REMARK VINA RESULT:    -6.387      0.000      0.000
REMARK INTER + INTRA:          -7.792
REMARK INTER:                  -7.507
REMARK INTRA:                  -0.286
REMARK UNBOUND:                -0.286
REMARK SMILES Oc1ccc(-c2[o+]c3cc(O)cc(O)c3cc2O)cc1
REMARK SMILES IDX 6 1 7 2 8 3 9 4 10 5 12 6 13 7 15 8 16 9 17 10 5 11 4 12
REMARK SMILES IDX 3 13 2 14 19 15 20 16 1 17 18 19 11 21 14 23
REMARK H PARENT 1 18 18 20 11 22 14 24
REMARK Flexibility Score: inf
ROOT
ATOM      1  C   UNL     1      21.084  13.183  20.948  1.00  0.00     0.401 A 
ATOM      2  O   UNL     1      20.988  12.990  19.636  1.00  0.00    -0.202 OA
ATOM      3  C   UNL     1      22.025  12.679  18.866  1.00  0.00     0.368 A 
ATOM      4  C   UNL     1      21.824  12.494  17.495  1.00  0.00     0.162 A 
ATOM      5  C   UNL     1      22.897  12.163  16.662  1.00  0.00     0.128 A 
ATOM      6  C   UNL     1      24.177  12.017  17.203  1.00  0.00     0.093 A 
ATOM      7  C   UNL     1      24.405  12.198  18.572  1.00  0.00     0.136 A 
ATOM      8  C   UNL     1      23.319  12.535  19.421  1.00  0.00     0.125 A 
ATOM      9  C   UNL     1      23.457  12.747  20.803  1.00  0.00     0.078 A 
ATOM     10  C   UNL     1      22.340  13.083  21.574  1.00  0.00     0.223 A 
ENDROOT
BRANCH   1  11
ATOM     11  C   UNL     1      19.852  13.514  21.700  1.00  0.00     0.084 A 
ATOM     12  C   UNL     1      19.578  14.854  22.020  1.00  0.00     0.022 A 
ATOM     13  C   UNL     1      18.411  15.193  22.711  1.00  0.00     0.047 A 
ATOM     14  C   UNL     1      17.496  14.198  23.076  1.00  0.00     0.115 A 
ATOM     15  C   UNL     1      18.918  12.523  22.053  1.00  0.00     0.022 A 
ATOM     16  C   UNL     1      17.751  12.865  22.743  1.00  0.00     0.047 A 
BRANCH  14  17
ATOM     17  O   UNL     1      16.328  14.523  23.765  1.00  0.00    -0.508 OA
ATOM     18  H   UNL     1      15.707  13.807  24.122  1.00  0.00     0.293 HD
ENDBRANCH  14  17
ENDBRANCH   1  11
BRANCH  10  19
ATOM     19  O   UNL     1      22.485  13.343  22.938  1.00  0.00    -0.500 OA
ATOM     20  H   UNL     1      22.236  14.241  23.339  1.00  0.00     0.294 HD
ENDBRANCH  10  19
BRANCH   5  21
ATOM     21  O   UNL     1      22.703  11.977  15.295  1.00  0.00    -0.507 OA
ATOM     22  H   UNL     1      23.369  12.321  14.614  1.00  0.00     0.293 HD
ENDBRANCH   5  21
BRANCH   7  23
ATOM     23  O   UNL     1      25.713  12.030  19.034  1.00  0.00    -0.507 OA
ATOM     24  H   UNL     1      26.406  11.448  18.586  1.00  0.00     0.293 HD
ENDBRANCH   7  23
TORSDOF 5
ENDMDL
MODEL 2
REMARK VINA RESULT:    -6.173      1.750      7.020
REMARK INTER + INTRA:          -7.541
REMARK INTER:                  -7.487
REMARK INTRA:                  -0.054
REMARK UNBOUND:                -0.286
REMARK SMILES Oc1ccc(-c2[o+]c3cc(O)cc(O)c3cc2O)cc1
REMARK SMILES IDX 6 1 7 2 8 3 9 4 10 5 12 6 13 7 15 8 16 9 17 10 5 11 4 12
REMARK SMILES IDX 3 13 2 14 19 15 20 16 1 17 18 19 11 21 14 23
REMARK H PARENT 1 18 18 20 11 22 14 24
REMARK Flexibility Score: inf
ROOT
ATOM      1  C   UNL     1      21.176  13.421  20.301  1.00  0.00     0.401 A 
ATOM      2  O   UNL     1      21.202  12.777  21.465  1.00  0.00    -0.202 OA
ATOM      3  C   UNL     1      20.389  13.063  22.476  1.00  0.00     0.368 A 
ATOM      4  C   UNL     1      20.491  12.327  23.660  1.00  0.00     0.162 A 
ATOM      5  C   UNL     1      19.646  12.605  24.739  1.00  0.00     0.128 A 
ATOM      6  C   UNL     1      18.694  13.622  24.632  1.00  0.00     0.093 A 
ATOM      7  C   UNL     1      18.572  14.374  23.457  1.00  0.00     0.136 A 
ATOM      8  C   UNL     1      19.429  14.097  22.360  1.00  0.00     0.125 A 
ATOM      9  C   UNL     1      19.386  14.807  21.150  1.00  0.00     0.078 A 
ATOM     10  C   UNL     1      20.268  14.480  20.115  1.00  0.00     0.223 A 
ENDROOT
BRANCH   1  11
ATOM     11  C   UNL     1      22.127  13.002  19.247  1.00  0.00     0.084 A 
ATOM     12  C   UNL     1      21.639  12.664  17.973  1.00  0.00     0.022 A 
ATOM     13  C   UNL     1      22.520  12.285  16.955  1.00  0.00     0.047 A 
ATOM     14  C   UNL     1      23.900  12.255  17.194  1.00  0.00     0.115 A 
ATOM     15  C   UNL     1      23.515  12.988  19.473  1.00  0.00     0.022 A 
ATOM     16  C   UNL     1      24.394  12.610  18.453  1.00  0.00     0.047 A 
BRANCH  14  17
ATOM     17  O   UNL     1      24.788  11.879  16.188  1.00  0.00    -0.508 OA
ATOM     18  H   UNL     1      25.516  12.505  15.864  1.00  0.00     0.293 HD
ENDBRANCH  14  17
ENDBRANCH   1  11
BRANCH  10  19
ATOM     19  O   UNL     1      20.260  15.218  18.930  1.00  0.00    -0.500 OA
ATOM     20  H   UNL     1      19.448  15.753  18.641  1.00  0.00     0.294 HD
ENDBRANCH  10  19
BRANCH   5  21
ATOM     21  O   UNL     1      19.742  11.875  25.922  1.00  0.00    -0.507 OA
ATOM     22  H   UNL     1      19.352  10.944  26.003  1.00  0.00     0.293 HD
ENDBRANCH   5  21
BRANCH   7  23
ATOM     23  O   UNL     1      17.593  15.371  23.430  1.00  0.00    -0.507 OA
ATOM     24  H   UNL     1      17.626  16.186  22.836  1.00  0.00     0.293 HD
ENDBRANCH   7  23
TORSDOF 5
ENDMDL
MODEL 3
REMARK VINA RESULT:    -6.007      1.602      7.149
REMARK INTER + INTRA:          -7.347
REMARK INTER:                  -7.364
REMARK INTRA:                   0.017
REMARK UNBOUND:                -0.286
REMARK SMILES Oc1ccc(-c2[o+]c3cc(O)cc(O)c3cc2O)cc1
REMARK SMILES IDX 6 1 7 2 8 3 9 4 10 5 12 6 13 7 15 8 16 9 17 10 5 11 4 12
REMARK SMILES IDX 3 13 2 14 19 15 20 16 1 17 18 19 11 21 14 23
REMARK H PARENT 1 18 18 20 11 22 14 24
REMARK Flexibility Score: inf
ROOT
ATOM      1  C   UNL     1      20.683  13.110  20.513  1.00  0.00     0.401 A 
ATOM      2  O   UNL     1      20.892  13.872  21.583  1.00  0.00    -0.202 OA
ATOM      3  C   UNL     1      19.938  14.189  22.452  1.00  0.00     0.368 A 
ATOM      4  C   UNL     1      20.256  14.994  23.549  1.00  0.00     0.162 A 
ATOM      5  C   UNL     1      19.272  15.340  24.480  1.00  0.00     0.128 A 
ATOM      6  C   UNL     1      17.964  14.879  24.313  1.00  0.00     0.093 A 
ATOM      7  C   UNL     1      17.620  14.070  23.222  1.00  0.00     0.136 A 
ATOM      8  C   UNL     1      18.614  13.718  22.274  1.00  0.00     0.125 A 
ATOM      9  C   UNL     1      18.357  12.923  21.145  1.00  0.00     0.078 A 
ATOM     10  C   UNL     1      19.389  12.623  20.250  1.00  0.00     0.223 A 
ENDROOT
BRANCH   1  11
ATOM     11  C   UNL     1      21.831  12.818  19.625  1.00  0.00     0.084 A 
ATOM     12  C   UNL     1      23.015  12.299  20.176  1.00  0.00     0.022 A 
ATOM     13  C   UNL     1      24.106  11.997  19.354  1.00  0.00     0.047 A 
ATOM     14  C   UNL     1      24.019  12.194  17.971  1.00  0.00     0.115 A 
ATOM     15  C   UNL     1      21.746  12.995  18.232  1.00  0.00     0.022 A 
ATOM     16  C   UNL     1      22.837  12.691  17.413  1.00  0.00     0.047 A 
BRANCH  14  17
ATOM     17  O   UNL     1      25.099  11.896  17.141  1.00  0.00    -0.508 OA
ATOM     18  H   UNL     1      25.217  10.974  16.738  1.00  0.00     0.293 HD
ENDBRANCH  14  17
ENDBRANCH   1  11
BRANCH  10  19
ATOM     19  O   UNL     1      19.123  11.875  19.102  1.00  0.00    -0.500 OA
ATOM     20  H   UNL     1      19.789  11.814  18.340  1.00  0.00     0.294 HD
ENDBRANCH  10  19
BRANCH   5  21
ATOM     21  O   UNL     1      19.583  16.143  25.575  1.00  0.00    -0.507 OA
ATOM     22  H   UNL     1      20.060  15.770  26.387  1.00  0.00     0.293 HD
ENDBRANCH   5  21
BRANCH   7  23
ATOM     23  O   UNL     1      16.291  13.647  23.130  1.00  0.00    -0.507 OA
ATOM     24  H   UNL     1      15.996  12.683  23.167  1.00  0.00     0.293 HD
ENDBRANCH   7  23
TORSDOF 5
ENDMDL
MODEL 4
REMARK VINA RESULT:    -5.677      1.544      6.714
REMARK INTER + INTRA:          -6.958
REMARK INTER:                  -7.076
REMARK INTRA:                   0.118
REMARK UNBOUND:                -0.286
REMARK SMILES Oc1ccc(-c2[o+]c3cc(O)cc(O)c3cc2O)cc1
REMARK SMILES IDX 6 1 7 2 8 3 9 4 10 5 12 6 13 7 15 8 16 9 17 10 5 11 4 12
REMARK SMILES IDX 3 13 2 14 19 15 20 16 1 17 18 19 11 21 14 23
REMARK H PARENT 1 18 18 20 11 22 14 24
REMARK Flexibility Score: inf
ROOT
ATOM      1  C   UNL     1      21.163  12.735  21.033  1.00  0.00     0.401 A 
ATOM      2  O   UNL     1      19.853  12.961  21.040  1.00  0.00    -0.202 OA
ATOM      3  C   UNL     1      19.142  13.108  22.154  1.00  0.00     0.368 A 
ATOM      4  C   UNL     1      17.768  13.346  22.058  1.00  0.00     0.162 A 
ATOM      5  C   UNL     1      16.998  13.507  23.214  1.00  0.00     0.128 A 
ATOM      6  C   UNL     1      17.604  13.430  24.470  1.00  0.00     0.093 A 
ATOM      7  C   UNL     1      18.979  13.192  24.592  1.00  0.00     0.136 A 
ATOM      8  C   UNL     1      19.765  13.026  23.423  1.00  0.00     0.125 A 
ATOM      9  C   UNL     1      21.146  12.772  23.450  1.00  0.00     0.078 A 
ATOM     10  C   UNL     1      21.853  12.614  22.254  1.00  0.00     0.223 A 
ENDROOT
BRANCH   1  11
ATOM     11  C   UNL     1      21.845  12.601  19.726  1.00  0.00     0.084 A 
ATOM     12  C   UNL     1      21.168  11.994  18.654  1.00  0.00     0.022 A 
ATOM     13  C   UNL     1      21.784  11.875  17.404  1.00  0.00     0.047 A 
ATOM     14  C   UNL     1      23.077  12.375  17.207  1.00  0.00     0.115 A 
ATOM     15  C   UNL     1      23.136  13.118  19.514  1.00  0.00     0.022 A 
ATOM     16  C   UNL     1      23.749  12.998  18.263  1.00  0.00     0.047 A 
BRANCH  14  17
ATOM     17  O   UNL     1      23.702  12.263  15.966  1.00  0.00    -0.508 OA
ATOM     18  H   UNL     1      23.865  11.361  15.536  1.00  0.00     0.293 HD
ENDBRANCH  14  17
ENDBRANCH   1  11
BRANCH  10  19
ATOM     19  O   UNL     1      23.215  12.312  22.282  1.00  0.00    -0.500 OA
ATOM     20  H   UNL     1      23.579  11.454  21.882  1.00  0.00     0.294 HD
ENDBRANCH  10  19
BRANCH   5  21
ATOM     21  O   UNL     1      15.628  13.744  23.125  1.00  0.00    -0.507 OA
ATOM     22  H   UNL     1      15.208  14.577  23.521  1.00  0.00     0.293 HD
ENDBRANCH   5  21
BRANCH   7  23
ATOM     23  O   UNL     1      19.509  13.132  25.884  1.00  0.00    -0.507 OA
ATOM     24  H   UNL     1      19.397  13.855  26.580  1.00  0.00     0.293 HD
ENDBRANCH   7  23
TORSDOF 5
ENDMDL
MODEL 5
REMARK VINA RESULT:    -5.271     10.378     12.251
REMARK INTER + INTRA:          -6.481
REMARK INTER:                  -6.812
REMARK INTRA:                   0.331
REMARK UNBOUND:                -0.286
REMARK SMILES Oc1ccc(-c2[o+]c3cc(O)cc(O)c3cc2O)cc1
REMARK SMILES IDX 6 1 7 2 8 3 9 4 10 5 12 6 13 7 15 8 16 9 17 10 5 11 4 12
REMARK SMILES IDX 3 13 2 14 19 15 20 16 1 17 18 19 11 21 14 23
REMARK H PARENT 1 18 18 20 11 22 14 24
REMARK Flexibility Score: inf
ROOT
ATOM      1  C   UNL     1      14.631  22.946  18.905  1.00  0.00     0.401 A 
ATOM      2  O   UNL     1      15.028  22.960  17.636  1.00  0.00    -0.202 OA
ATOM      3  C   UNL     1      15.050  21.877  16.866  1.00  0.00     0.368 A 
ATOM      4  C   UNL     1      15.481  21.992  15.542  1.00  0.00     0.162 A 
ATOM      5  C   UNL     1      15.512  20.869  14.709  1.00  0.00     0.128 A 
ATOM      6  C   UNL     1      15.110  19.626  15.204  1.00  0.00     0.093 A 
ATOM      7  C   UNL     1      14.674  19.485  16.527  1.00  0.00     0.136 A 
ATOM      8  C   UNL     1      14.642  20.621  17.376  1.00  0.00     0.125 A 
ATOM      9  C   UNL     1      14.233  20.570  18.718  1.00  0.00     0.078 A 
ATOM     10  C   UNL     1      14.234  21.732  19.496  1.00  0.00     0.223 A 
ENDROOT
BRANCH   1  11
ATOM     11  C   UNL     1      14.640  24.222  19.656  1.00  0.00     0.084 A 
ATOM     12  C   UNL     1      15.384  25.308  19.163  1.00  0.00     0.022 A 
ATOM     13  C   UNL     1      15.391  26.529  19.844  1.00  0.00     0.047 A 
ATOM     14  C   UNL     1      14.643  26.685  21.017  1.00  0.00     0.115 A 
ATOM     15  C   UNL     1      13.875  24.393  20.824  1.00  0.00     0.022 A 
ATOM     16  C   UNL     1      13.883  25.616  21.503  1.00  0.00     0.047 A 
BRANCH  14  17
ATOM     17  O   UNL     1      14.641  27.897  21.705  1.00  0.00    -0.508 OA
ATOM     18  H   UNL     1      15.498  28.412  21.871  1.00  0.00     0.293 HD
ENDBRANCH  14  17
ENDBRANCH   1  11
BRANCH  10  19
ATOM     19  O   UNL     1      13.875  21.673  20.843  1.00  0.00    -0.500 OA
ATOM     20  H   UNL     1      13.304  20.920  21.210  1.00  0.00     0.294 HD
ENDBRANCH  10  19
BRANCH   5  21
ATOM     21  O   UNL     1      15.941  20.977  13.388  1.00  0.00    -0.507 OA
ATOM     22  H   UNL     1      16.914  20.854  13.135  1.00  0.00     0.293 HD
ENDBRANCH   5  21
BRANCH   7  23
ATOM     23  O   UNL     1      14.286  18.208  16.943  1.00  0.00    -0.507 OA
ATOM     24  H   UNL     1      13.330  17.927  17.106  1.00  0.00     0.293 HD
ENDBRANCH   7  23
TORSDOF 5
ENDMDL
MODEL 6
REMARK VINA RESULT:    -5.216      3.490      6.481
REMARK INTER + INTRA:          -6.416
REMARK INTER:                  -6.098
REMARK INTRA:                  -0.317
REMARK UNBOUND:                -0.286
REMARK SMILES Oc1ccc(-c2[o+]c3cc(O)cc(O)c3cc2O)cc1
REMARK SMILES IDX 6 1 7 2 8 3 9 4 10 5 12 6 13 7 15 8 16 9 17 10 5 11 4 12
REMARK SMILES IDX 3 13 2 14 19 15 20 16 1 17 18 19 11 21 14 23
REMARK H PARENT 1 18 18 20 11 22 14 24
REMARK Flexibility Score: inf
ROOT
ATOM      1  C   UNL     1      21.268  14.946  24.157  1.00  0.00     0.401 A 
ATOM      2  O   UNL     1      21.179  14.274  23.013  1.00  0.00    -0.202 OA
ATOM      3  C   UNL     1      20.026  13.871  22.490  1.00  0.00     0.368 A 
ATOM      4  C   UNL     1      20.035  13.173  21.279  1.00  0.00     0.162 A 
ATOM      5  C   UNL     1      18.835  12.739  20.706  1.00  0.00     0.128 A 
ATOM      6  C   UNL     1      17.623  13.005  21.346  1.00  0.00     0.093 A 
ATOM      7  C   UNL     1      17.587  13.702  22.560  1.00  0.00     0.136 A 
ATOM      8  C   UNL     1      18.802  14.143  23.147  1.00  0.00     0.125 A 
ATOM      9  C   UNL     1      18.862  14.836  24.367  1.00  0.00     0.078 A 
ATOM     10  C   UNL     1      20.099  15.233  24.886  1.00  0.00     0.223 A 
ENDROOT
BRANCH   1  11
ATOM     11  C   UNL     1      22.611  15.351  24.630  1.00  0.00     0.084 A 
ATOM     12  C   UNL     1      23.119  16.611  24.270  1.00  0.00     0.022 A 
ATOM     13  C   UNL     1      24.377  17.023  24.721  1.00  0.00     0.047 A 
ATOM     14  C   UNL     1      25.135  16.188  25.551  1.00  0.00     0.115 A 
ATOM     15  C   UNL     1      23.370  14.526  25.480  1.00  0.00     0.022 A 
ATOM     16  C   UNL     1      24.627  14.941  25.931  1.00  0.00     0.047 A 
BRANCH  14  17
ATOM     17  O   UNL     1      26.389  16.587  26.008  1.00  0.00    -0.508 OA
ATOM     18  H   UNL     1      27.166  16.721  25.371  1.00  0.00     0.293 HD
ENDBRANCH  14  17
ENDBRANCH   1  11
BRANCH  10  19
ATOM     19  O   UNL     1      20.163  15.879  26.121  1.00  0.00    -0.500 OA
ATOM     20  H   UNL     1      19.549  15.626  26.887  1.00  0.00     0.294 HD
ENDBRANCH  10  19
BRANCH   5  21
ATOM     21  O   UNL     1      18.837  12.043  19.499  1.00  0.00    -0.507 OA
ATOM     22  H   UNL     1      18.098  12.163  18.817  1.00  0.00     0.293 HD
ENDBRANCH   5  21
BRANCH   7  23
ATOM     23  O   UNL     1      16.333  13.930  23.134  1.00  0.00    -0.507 OA
ATOM     24  H   UNL     1      16.122  14.696  23.757  1.00  0.00     0.293 HD
ENDBRANCH   7  23
TORSDOF 5
ENDMDL
MODEL 7
REMARK VINA RESULT:    -5.014      9.499     11.385
REMARK INTER + INTRA:          -6.179
REMARK INTER:                  -6.249
REMARK INTRA:                   0.070
REMARK UNBOUND:                -0.286
REMARK SMILES Oc1ccc(-c2[o+]c3cc(O)cc(O)c3cc2O)cc1
REMARK SMILES IDX 6 1 7 2 8 3 9 4 10 5 12 6 13 7 15 8 16 9 17 10 5 11 4 12
REMARK SMILES IDX 3 13 2 14 19 15 20 16 1 17 18 19 11 21 14 23
REMARK H PARENT 1 18 18 20 11 22 14 24
REMARK Flexibility Score: inf
ROOT
ATOM      1  C   UNL     1      14.566  21.562  17.284  1.00  0.00     0.401 A 
ATOM      2  O   UNL     1      14.890  20.341  17.700  1.00  0.00    -0.202 OA
ATOM      3  C   UNL     1      15.002  19.298  16.885  1.00  0.00     0.368 A 
ATOM      4  C   UNL     1      15.351  18.053  17.417  1.00  0.00     0.162 A 
ATOM      5  C   UNL     1      15.478  16.939  16.581  1.00  0.00     0.128 A 
ATOM      6  C   UNL     1      15.256  17.071  15.209  1.00  0.00     0.093 A 
ATOM      7  C   UNL     1      14.905  18.307  14.652  1.00  0.00     0.136 A 
ATOM      8  C   UNL     1      14.773  19.440  15.495  1.00  0.00     0.125 A 
ATOM      9  C   UNL     1      14.413  20.713  15.027  1.00  0.00     0.078 A 
ATOM     10  C   UNL     1      14.297  21.782  15.921  1.00  0.00     0.223 A 
ENDROOT
BRANCH   1  11
ATOM     11  C   UNL     1      14.485  22.646  18.289  1.00  0.00     0.084 A 
ATOM     12  C   UNL     1      13.943  22.373  19.557  1.00  0.00     0.022 A 
ATOM     13  C   UNL     1      13.875  23.376  20.529  1.00  0.00     0.047 A 
ATOM     14  C   UNL     1      14.362  24.659  20.251  1.00  0.00     0.115 A 
ATOM     15  C   UNL     1      14.989  23.932  18.025  1.00  0.00     0.022 A 
ATOM     16  C   UNL     1      14.921  24.933  18.999  1.00  0.00     0.047 A 
BRANCH  14  17
ATOM     17  O   UNL     1      14.300  25.667  21.212  1.00  0.00    -0.508 OA
ATOM     18  H   UNL     1      14.703  26.582  21.046  1.00  0.00     0.293 HD
ENDBRANCH  14  17
ENDBRANCH   1  11
BRANCH  10  19
ATOM     19  O   UNL     1      13.891  23.036  15.463  1.00  0.00    -0.500 OA
ATOM     20  H   UNL     1      13.860  23.843  16.076  1.00  0.00     0.294 HD
ENDBRANCH  10  19
BRANCH   5  21
ATOM     21  O   UNL     1      15.825  15.696  17.105  1.00  0.00    -0.507 OA
ATOM     22  H   UNL     1      16.186  15.600  18.047  1.00  0.00     0.293 HD
ENDBRANCH   5  21
BRANCH   7  23
ATOM     23  O   UNL     1      14.703  18.355  13.269  1.00  0.00    -0.507 OA
ATOM     24  H   UNL     1      14.289  19.135  12.780  1.00  0.00     0.293 HD
ENDBRANCH   7  23
TORSDOF 5
ENDMDL
MODEL 8
REMARK VINA RESULT:    -4.968      9.501     12.613
REMARK INTER + INTRA:          -6.125
REMARK INTER:                  -6.119
REMARK INTRA:                  -0.006
REMARK UNBOUND:                -0.286
REMARK SMILES Oc1ccc(-c2[o+]c3cc(O)cc(O)c3cc2O)cc1
REMARK SMILES IDX 6 1 7 2 8 3 9 4 10 5 12 6 13 7 15 8 16 9 17 10 5 11 4 12
REMARK SMILES IDX 3 13 2 14 19 15 20 16 1 17 18 19 11 21 14 23
REMARK H PARENT 1 18 18 20 11 22 14 24
REMARK Flexibility Score: inf
ROOT
ATOM      1  C   UNL     1      14.471  20.774  17.814  1.00  0.00     0.401 A 
ATOM      2  O   UNL     1      14.653  22.064  17.549  1.00  0.00    -0.202 OA
ATOM      3  C   UNL     1      14.560  23.019  18.469  1.00  0.00     0.368 A 
ATOM      4  C   UNL     1      14.771  24.348  18.094  1.00  0.00     0.162 A 
ATOM      5  C   UNL     1      14.682  25.372  19.042  1.00  0.00     0.128 A 
ATOM      6  C   UNL     1      14.383  25.064  20.371  1.00  0.00     0.093 A 
ATOM      7  C   UNL     1      14.167  23.740  20.772  1.00  0.00     0.136 A 
ATOM      8  C   UNL     1      14.254  22.698  19.813  1.00  0.00     0.125 A 
ATOM      9  C   UNL     1      14.041  21.345  20.122  1.00  0.00     0.078 A 
ATOM     10  C   UNL     1      14.138  20.374  19.121  1.00  0.00     0.223 A 
ENDROOT
BRANCH   1  11
ATOM     11  C   UNL     1      14.613  19.804  16.704  1.00  0.00     0.084 A 
ATOM     12  C   UNL     1      14.021  20.086  15.461  1.00  0.00     0.022 A 
ATOM     13  C   UNL     1      14.158  19.194  14.392  1.00  0.00     0.047 A 
ATOM     14  C   UNL     1      14.903  18.019  14.549  1.00  0.00     0.115 A 
ATOM     15  C   UNL     1      15.375  18.630  16.847  1.00  0.00     0.022 A 
ATOM     16  C   UNL     1      15.512  17.741  15.776  1.00  0.00     0.047 A 
BRANCH  14  17
ATOM     17  O   UNL     1      15.048  17.123  13.491  1.00  0.00    -0.508 OA
ATOM     18  H   UNL     1      15.618  16.290  13.578  1.00  0.00     0.293 HD
ENDBRANCH  14  17
ENDBRANCH   1  11
BRANCH  10  19
ATOM     19  O   UNL     1      13.877  19.035  19.417  1.00  0.00    -0.500 OA
ATOM     20  H   UNL     1      13.089  18.760  19.993  1.00  0.00     0.294 HD
ENDBRANCH  10  19
BRANCH   5  21
ATOM     21  O   UNL     1      14.891  26.700  18.675  1.00  0.00    -0.507 OA
ATOM     22  H   UNL     1      15.624  27.257  19.097  1.00  0.00     0.293 HD
ENDBRANCH   5  21
BRANCH   7  23
ATOM     23  O   UNL     1      13.875  23.516  22.121  1.00  0.00    -0.507 OA
ATOM     24  H   UNL     1      13.169  22.875  22.453  1.00  0.00     0.293 HD
ENDBRANCH   7  23
TORSDOF 5
ENDMDL
MODEL 9
REMARK VINA RESULT:    -4.947     11.464     13.736
REMARK INTER + INTRA:          -6.101
REMARK INTER:                  -6.154
REMARK INTRA:                   0.053
REMARK UNBOUND:                -0.286
REMARK SMILES Oc1ccc(-c2[o+]c3cc(O)cc(O)c3cc2O)cc1
REMARK SMILES IDX 6 1 7 2 8 3 9 4 10 5 12 6 13 7 15 8 16 9 17 10 5 11 4 12
REMARK SMILES IDX 3 13 2 14 19 15 20 16 1 17 18 19 11 21 14 23
REMARK H PARENT 1 18 18 20 11 22 14 24
REMARK Flexibility Score: inf
ROOT
ATOM      1  C   UNL     1      14.727  22.320  17.005  1.00  0.00     0.401 A 
ATOM      2  O   UNL     1      14.999  23.593  17.279  1.00  0.00    -0.202 OA
ATOM      3  C   UNL     1      14.871  24.122  18.492  1.00  0.00     0.368 A 
ATOM      4  C   UNL     1      15.186  25.470  18.682  1.00  0.00     0.162 A 
ATOM      5  C   UNL     1      15.063  26.052  19.948  1.00  0.00     0.128 A 
ATOM      6  C   UNL     1      14.624  25.281  21.027  1.00  0.00     0.093 A 
ATOM      7  C   UNL     1      14.303  23.928  20.862  1.00  0.00     0.136 A 
ATOM      8  C   UNL     1      14.424  23.334  19.580  1.00  0.00     0.125 A 
ATOM      9  C   UNL     1      14.113  21.990  19.319  1.00  0.00     0.078 A 
ATOM     10  C   UNL     1      14.252  21.476  18.026  1.00  0.00     0.223 A 
ENDROOT
BRANCH   1  11
ATOM     11  C   UNL     1      14.920  21.846  15.616  1.00  0.00     0.084 A 
ATOM     12  C   UNL     1      13.885  21.143  14.976  1.00  0.00     0.022 A 
ATOM     13  C   UNL     1      14.038  20.703  13.657  1.00  0.00     0.047 A 
ATOM     14  C   UNL     1      15.220  20.974  12.958  1.00  0.00     0.115 A 
ATOM     15  C   UNL     1      16.097  22.131  14.900  1.00  0.00     0.022 A 
ATOM     16  C   UNL     1      16.246  21.691  13.581  1.00  0.00     0.047 A 
BRANCH  14  17
ATOM     17  O   UNL     1      15.384  20.542  11.643  1.00  0.00    -0.508 OA
ATOM     18  H   UNL     1      15.393  19.557  11.407  1.00  0.00     0.293 HD
ENDBRANCH  14  17
ENDBRANCH   1  11
BRANCH  10  19
ATOM     19  O   UNL     1      13.895  20.154  17.757  1.00  0.00    -0.500 OA
ATOM     20  H   UNL     1      14.404  19.591  17.084  1.00  0.00     0.294 HD
ENDBRANCH  10  19
BRANCH   5  21
ATOM     21  O   UNL     1      15.374  27.396  20.144  1.00  0.00    -0.507 OA
ATOM     22  H   UNL     1      15.332  27.820  21.063  1.00  0.00     0.293 HD
ENDBRANCH   5  21
BRANCH   7  23
ATOM     23  O   UNL     1      13.875  23.227  21.993  1.00  0.00    -0.507 OA
ATOM     24  H   UNL     1      13.494  22.292  21.974  1.00  0.00     0.293 HD
ENDBRANCH   7  23
TORSDOF 5
ENDMDL
