MODEL 1
REMARK VINA RESULT:    -6.910      0.000      0.000
REMARK INTER + INTRA:          -8.393
REMARK INTER:                  -8.122
REMARK INTRA:                  -0.270
REMARK UNBOUND:                -0.270
REMARK SMILES Oc1ccc(-c2[o+]c3cc(O)cc(O)c3cc2O)cc1
REMARK SMILES IDX 6 1 7 2 8 3 9 4 10 5 12 6 13 7 15 8 16 9 17 10 5 11 4 12
REMARK SMILES IDX 3 13 2 14 19 15 20 16 1 17 18 19 11 21 14 23
REMARK H PARENT 1 18 18 20 11 22 14 24
REMARK Flexibility Score: inf
ROOT
ATOM      1  C   UNL     1      -6.991 -21.903 -20.028  1.00  0.00     0.401 A 
ATOM      2  O   UNL     1      -7.654 -22.760 -19.257  1.00  0.00    -0.202 OA
ATOM      3  C   UNL     1      -7.405 -22.920 -17.961  1.00  0.00     0.368 A 
ATOM      4  C   UNL     1      -8.154 -23.849 -17.235  1.00  0.00     0.162 A 
ATOM      5  C   UNL     1      -7.913 -24.040 -15.874  1.00  0.00     0.128 A 
ATOM      6  C   UNL     1      -6.914 -23.299 -15.232  1.00  0.00     0.093 A 
ATOM      7  C   UNL     1      -6.149 -22.362 -15.939  1.00  0.00     0.136 A 
ATOM      8  C   UNL     1      -6.394 -22.162 -17.322  1.00  0.00     0.125 A 
ATOM      9  C   UNL     1      -5.686 -21.237 -18.106  1.00  0.00     0.078 A 
ATOM     10  C   UNL     1      -5.988 -21.093 -19.463  1.00  0.00     0.223 A 
ENDROOT
BRANCH   1  11
ATOM     11  C   UNL     1      -7.354 -21.824 -21.461  1.00  0.00     0.084 A 
ATOM     12  C   UNL     1      -8.580 -21.247 -21.832  1.00  0.00     0.022 A 
ATOM     13  C   UNL     1      -8.954 -21.181 -23.178  1.00  0.00     0.047 A 
ATOM     14  C   UNL     1      -8.113 -21.705 -24.169  1.00  0.00     0.115 A 
ATOM     15  C   UNL     1      -6.524 -22.365 -22.459  1.00  0.00     0.022 A 
ATOM     16  C   UNL     1      -6.901 -22.299 -23.804  1.00  0.00     0.047 A 
BRANCH  14  17
ATOM     17  O   UNL     1      -8.474 -21.645 -25.512  1.00  0.00    -0.508 OA
ATOM     18  H   UNL     1      -7.777 -21.628 -26.248  1.00  0.00     0.293 HD
ENDBRANCH  14  17
ENDBRANCH   1  11
BRANCH  10  19
ATOM     19  O   UNL     1      -5.320 -20.139 -20.231  1.00  0.00    -0.500 OA
ATOM     20  H   UNL     1      -4.548 -20.389 -20.838  1.00  0.00     0.294 HD
ENDBRANCH  10  19
BRANCH   5  21
ATOM     21  O   UNL     1      -8.670 -24.971 -15.166  1.00  0.00    -0.507 OA
ATOM     22  H   UNL     1      -9.115 -25.754 -15.629  1.00  0.00     0.293 HD
ENDBRANCH   5  21
BRANCH   7  23
ATOM     23  O   UNL     1      -5.168 -21.664 -15.227  1.00  0.00    -0.507 OA
ATOM     24  H   UNL     1      -4.358 -22.092 -14.803  1.00  0.00     0.293 HD
ENDBRANCH   7  23
TORSDOF 5
ENDMDL
MODEL 2
REMARK VINA RESULT:    -6.867      1.035      2.687
REMARK INTER + INTRA:          -8.342
REMARK INTER:                  -8.029
REMARK INTRA:                  -0.313
REMARK UNBOUND:                -0.270
REMARK SMILES Oc1ccc(-c2[o+]c3cc(O)cc(O)c3cc2O)cc1
REMARK SMILES IDX 6 1 7 2 8 3 9 4 10 5 12 6 13 7 15 8 16 9 17 10 5 11 4 12
REMARK SMILES IDX 3 13 2 14 19 15 20 16 1 17 18 19 11 21 14 23
REMARK H PARENT 1 18 18 20 11 22 14 24
REMARK Flexibility Score: inf
ROOT
ATOM      1  C   UNL     1      -7.917 -22.683 -20.149  1.00  0.00     0.401 A 
ATOM      2  O   UNL     1      -7.061 -22.104 -19.311  1.00  0.00    -0.202 OA
ATOM      3  C   UNL     1      -6.946 -22.445 -18.032  1.00  0.00     0.368 A 
ATOM      4  C   UNL     1      -6.019 -21.775 -17.230  1.00  0.00     0.162 A 
ATOM      5  C   UNL     1      -5.879 -22.110 -15.882  1.00  0.00     0.128 A 
ATOM      6  C   UNL     1      -6.674 -23.121 -15.330  1.00  0.00     0.093 A 
ATOM      7  C   UNL     1      -7.612 -23.806 -16.113  1.00  0.00     0.136 A 
ATOM      8  C   UNL     1      -7.754 -23.471 -17.484  1.00  0.00     0.125 A 
ATOM      9  C   UNL     1      -8.658 -24.113 -18.346  1.00  0.00     0.078 A 
ATOM     10  C   UNL     1      -8.737 -23.730 -19.688  1.00  0.00     0.223 A 
ENDROOT
BRANCH   1  11
ATOM     11  C   UNL     1      -7.957 -22.207 -21.549  1.00  0.00     0.084 A 
ATOM     12  C   UNL     1      -8.921 -21.257 -21.928  1.00  0.00     0.022 A 
ATOM     13  C   UNL     1      -8.992 -20.808 -23.251  1.00  0.00     0.047 A 
ATOM     14  C   UNL     1      -8.109 -21.314 -24.214  1.00  0.00     0.115 A 
ATOM     15  C   UNL     1      -7.088 -22.724 -22.526  1.00  0.00     0.022 A 
ATOM     16  C   UNL     1      -7.161 -22.274 -23.848  1.00  0.00     0.047 A 
BRANCH  14  17
ATOM     17  O   UNL     1      -8.170 -20.874 -25.534  1.00  0.00    -0.508 OA
ATOM     18  H   UNL     1      -8.059 -21.516 -26.312  1.00  0.00     0.293 HD
ENDBRANCH  14  17
ENDBRANCH   1  11
BRANCH  10  19
ATOM     19  O   UNL     1      -9.599 -24.401 -20.557  1.00  0.00    -0.500 OA
ATOM     20  H   UNL     1      -9.277 -25.160 -21.146  1.00  0.00     0.294 HD
ENDBRANCH  10  19
BRANCH   5  21
ATOM     21  O   UNL     1      -4.949 -21.431 -15.099  1.00  0.00    -0.507 OA
ATOM     22  H   UNL     1      -5.162 -20.533 -14.681  1.00  0.00     0.293 HD
ENDBRANCH   5  21
BRANCH   7  23
ATOM     23  O   UNL     1      -8.369 -24.800 -15.486  1.00  0.00    -0.507 OA
ATOM     24  H   UNL     1      -9.073 -25.358 -15.948  1.00  0.00     0.293 HD
ENDBRANCH   7  23
TORSDOF 5
ENDMDL
MODEL 3
REMARK VINA RESULT:    -5.994      1.534      6.894
REMARK INTER + INTRA:          -7.315
REMARK INTER:                  -7.018
REMARK INTRA:                  -0.297
REMARK UNBOUND:                -0.270
REMARK SMILES Oc1ccc(-c2[o+]c3cc(O)cc(O)c3cc2O)cc1
REMARK SMILES IDX 6 1 7 2 8 3 9 4 10 5 12 6 13 7 15 8 16 9 17 10 5 11 4 12
REMARK SMILES IDX 3 13 2 14 19 15 20 16 1 17 18 19 11 21 14 23
REMARK H PARENT 1 18 18 20 11 22 14 24
REMARK Flexibility Score: inf
ROOT
ATOM      1  C   UNL     1      -7.128 -22.574 -20.197  1.00  0.00     0.401 A 
ATOM      2  O   UNL     1      -8.050 -21.851 -20.828  1.00  0.00    -0.202 OA
ATOM      3  C   UNL     1      -8.040 -21.639 -22.139  1.00  0.00     0.368 A 
ATOM      4  C   UNL     1      -9.052 -20.863 -22.710  1.00  0.00     0.162 A 
ATOM      5  C   UNL     1      -9.065 -20.621 -24.084  1.00  0.00     0.128 A 
ATOM      6  C   UNL     1      -8.060 -21.158 -24.896  1.00  0.00     0.093 A 
ATOM      7  C   UNL     1      -7.034 -21.938 -24.348  1.00  0.00     0.136 A 
ATOM      8  C   UNL     1      -7.019 -22.189 -22.951  1.00  0.00     0.125 A 
ATOM      9  C   UNL     1      -6.039 -22.970 -22.318  1.00  0.00     0.078 A 
ATOM     10  C   UNL     1      -6.093 -23.178 -20.936  1.00  0.00     0.223 A 
ENDROOT
BRANCH   1  11
ATOM     11  C   UNL     1      -7.243 -22.729 -18.729  1.00  0.00     0.084 A 
ATOM     12  C   UNL     1      -8.213 -23.596 -18.200  1.00  0.00     0.022 A 
ATOM     13  C   UNL     1      -8.354 -23.742 -16.816  1.00  0.00     0.047 A 
ATOM     14  C   UNL     1      -7.535 -23.012 -15.944  1.00  0.00     0.115 A 
ATOM     15  C   UNL     1      -6.438 -21.985 -17.848  1.00  0.00     0.022 A 
ATOM     16  C   UNL     1      -6.581 -22.132 -16.465  1.00  0.00     0.047 A 
BRANCH  14  17
ATOM     17  O   UNL     1      -7.666 -23.149 -14.565  1.00  0.00    -0.508 OA
ATOM     18  H   UNL     1      -6.865 -23.341 -13.973  1.00  0.00     0.293 HD
ENDBRANCH  14  17
ENDBRANCH   1  11
BRANCH  10  19
ATOM     19  O   UNL     1      -5.149 -23.994 -20.313  1.00  0.00    -0.500 OA
ATOM     20  H   UNL     1      -4.467 -23.620 -19.664  1.00  0.00     0.294 HD
ENDBRANCH  10  19
BRANCH   5  21
ATOM     21  O   UNL     1     -10.082 -19.845 -24.635  1.00  0.00    -0.507 OA
ATOM     22  H   UNL     1      -9.927 -19.276 -25.459  1.00  0.00     0.293 HD
ENDBRANCH   5  21
BRANCH   7  23
ATOM     23  O   UNL     1      -6.064 -22.435 -25.225  1.00  0.00    -0.507 OA
ATOM     24  H   UNL     1      -5.190 -22.848 -24.934  1.00  0.00     0.293 HD
ENDBRANCH   7  23
TORSDOF 5
ENDMDL
MODEL 4
REMARK VINA RESULT:    -4.944      2.827      6.576
REMARK INTER + INTRA:          -6.082
REMARK INTER:                  -6.019
REMARK INTRA:                  -0.063
REMARK UNBOUND:                -0.270
REMARK SMILES Oc1ccc(-c2[o+]c3cc(O)cc(O)c3cc2O)cc1
REMARK SMILES IDX 6 1 7 2 8 3 9 4 10 5 12 6 13 7 15 8 16 9 17 10 5 11 4 12
REMARK SMILES IDX 3 13 2 14 19 15 20 16 1 17 18 19 11 21 14 23
REMARK H PARENT 1 18 18 20 11 22 14 24
REMARK Flexibility Score: inf
ROOT
ATOM      1  C   UNL     1      -6.222 -23.277 -19.464  1.00  0.00     0.401 A 
ATOM      2  O   UNL     1      -6.013 -24.531 -19.859  1.00  0.00    -0.202 OA
ATOM      3  C   UNL     1      -5.650 -24.857 -21.094  1.00  0.00     0.368 A 
ATOM      4  C   UNL     1      -5.458 -26.204 -21.413  1.00  0.00     0.162 A 
ATOM      5  C   UNL     1      -5.079 -26.576 -22.704  1.00  0.00     0.128 A 
ATOM      6  C   UNL     1      -4.891 -25.596 -23.685  1.00  0.00     0.093 A 
ATOM      7  C   UNL     1      -5.079 -24.239 -23.390  1.00  0.00     0.136 A 
ATOM      8  C   UNL     1      -5.461 -23.857 -22.078  1.00  0.00     0.125 A 
ATOM      9  C   UNL     1      -5.658 -22.522 -21.690  1.00  0.00     0.078 A 
ATOM     10  C   UNL     1      -6.029 -22.222 -20.376  1.00  0.00     0.223 A 
ENDROOT
BRANCH   1  11
ATOM     11  C   UNL     1      -6.635 -23.043 -18.063  1.00  0.00     0.084 A 
ATOM     12  C   UNL     1      -7.814 -23.637 -17.582  1.00  0.00     0.022 A 
ATOM     13  C   UNL     1      -8.235 -23.414 -16.267  1.00  0.00     0.047 A 
ATOM     14  C   UNL     1      -7.490 -22.581 -15.421  1.00  0.00     0.115 A 
ATOM     15  C   UNL     1      -5.903 -22.194 -17.214  1.00  0.00     0.022 A 
ATOM     16  C   UNL     1      -6.327 -21.970 -15.900  1.00  0.00     0.047 A 
BRANCH  14  17
ATOM     17  O   UNL     1      -7.899 -22.351 -14.111  1.00  0.00    -0.508 OA
ATOM     18  H   UNL     1      -7.346 -22.662 -13.320  1.00  0.00     0.293 HD
ENDBRANCH  14  17
ENDBRANCH   1  11
BRANCH  10  19
ATOM     19  O   UNL     1      -6.177 -20.894 -19.976  1.00  0.00    -0.500 OA
ATOM     20  H   UNL     1      -7.061 -20.535 -19.636  1.00  0.00     0.294 HD
ENDBRANCH  10  19
BRANCH   5  21
ATOM     21  O   UNL     1      -4.892 -27.923 -23.003  1.00  0.00    -0.507 OA
ATOM     22  H   UNL     1      -4.623 -28.592 -22.291  1.00  0.00     0.293 HD
ENDBRANCH   5  21
BRANCH   7  23
ATOM     23  O   UNL     1      -4.875 -23.322 -24.426  1.00  0.00    -0.507 OA
ATOM     24  H   UNL     1      -5.538 -23.140 -25.166  1.00  0.00     0.293 HD
ENDBRANCH   7  23
TORSDOF 5
ENDMDL
