MODEL 1
REMARK VINA RESULT:    -8.081      0.000      0.000
REMARK INTER + INTRA:         -11.973
REMARK INTER:                 -11.152
REMARK INTRA:                  -0.821
REMARK UNBOUND:                -0.821
REMARK SMILES CC[C@H](CC[C@H](C)[C@@H]1CC[C@@H]2[C@H]3CC=C4C[C@H](O)CC[C@]4(C)[C@H]3CC[C@@]21C)C(C)C
REMARK SMILES IDX 5 1 4 2 3 3 2 4 1 5 28 6 29 7 30 8 6 9 7 10 8 11 9 12 26 13
REMARK SMILES IDX 10 14 11 15 25 16 27 17 12 18 24 19 23 20 13 21 21 22 14 23
REMARK SMILES IDX 15 24 20 25 22 26 16 27 19 28 17 29 18 30
REMARK H PARENT 18 31
REMARK Flexibility Score: inf
ROOT
ATOM      1  C   UNL     1       1.362  27.816  44.080  1.00  0.00     0.004 C 
ENDROOT
BRANCH   1   2
ATOM      2  C   UNL     1       0.510  29.021  43.594  1.00  0.00     0.004 C 
BRANCH   2   3
ATOM      3  C   UNL     1      -0.970  28.747  43.188  1.00  0.00    -0.009 C 
BRANCH   3   4
ATOM      4  C   UNL     1      -1.874  28.859  44.461  1.00  0.00     0.000 C 
ATOM      5  C   UNL     1      -1.348  29.882  45.470  1.00  0.00     0.004 C 
ENDBRANCH   3   4
BRANCH   3   6
ATOM      6  C   UNL     1      -1.486  29.618  41.991  1.00  0.00    -0.014 C 
ATOM      7  C   UNL     1      -1.557  28.859  40.655  1.00  0.00     0.007 C 
ATOM      8  C   UNL     1      -0.677  30.915  41.822  1.00  0.00     0.007 C 
ENDBRANCH   3   6
ENDBRANCH   2   3
ENDBRANCH   1   2
BRANCH   1   9
ATOM      9  C   UNL     1       2.254  27.112  43.014  1.00  0.00    -0.011 C 
ATOM     10  C   UNL     1       1.832  27.481  41.584  1.00  0.00     0.008 C 
BRANCH   9  11
ATOM     11  C   UNL     1       2.475  25.551  43.161  1.00  0.00    -0.002 C 
ATOM     12  C   UNL     1       2.211  24.927  44.535  1.00  0.00     0.005 C 
ATOM     13  C   UNL     1       3.859  24.991  42.711  1.00  0.00    -0.026 C 
ATOM     14  C   UNL     1       2.973  23.604  44.557  1.00  0.00     0.005 C 
ATOM     15  C   UNL     1       3.806  23.537  43.266  1.00  0.00    -0.001 C 
ATOM     16  C   UNL     1       5.036  25.792  43.341  1.00  0.00     0.007 C 
ATOM     17  C   UNL     1       3.954  25.022  41.161  1.00  0.00     0.012 C 
ATOM     18  C   UNL     1       5.169  22.809  43.485  1.00  0.00     0.000 C 
ATOM     19  C   UNL     1       6.370  25.032  43.348  1.00  0.00     0.005 C 
ATOM     20  C   UNL     1       6.247  23.707  44.142  1.00  0.00     0.003 C 
ATOM     21  C   UNL     1       5.697  22.193  42.182  1.00  0.00     0.031 C 
ATOM     22  C   UNL     1       7.602  22.911  44.398  1.00  0.00    -0.008 C 
ATOM     23  C   UNL     1       6.985  21.467  42.406  1.00  0.00    -0.027 C 
ATOM     24  C   UNL     1       7.881  21.823  43.348  1.00  0.00    -0.065 C 
ATOM     25  C   UNL     1       7.490  22.179  45.777  1.00  0.00     0.014 C 
ATOM     26  C   UNL     1       8.809  23.887  44.455  1.00  0.00     0.016 C 
ATOM     27  C   UNL     1       9.063  20.905  43.593  1.00  0.00     0.063 C 
ATOM     28  C   UNL     1       8.654  21.207  46.077  1.00  0.00     0.033 C 
ATOM     29  C   UNL     1       8.888  20.192  44.943  1.00  0.00     0.118 C 
BRANCH  29  30
ATOM     30  O   UNL     1       7.804  19.298  44.885  1.00  0.00    -0.393 OA
ATOM     31  H   UNL     1       6.985  19.836  45.041  1.00  0.00     0.210 HD
ENDBRANCH  29  30
ENDBRANCH   9  11
ENDBRANCH   1   9
TORSDOF 7
ENDMDL
MODEL 2
REMARK VINA RESULT:    -8.068      1.430      3.092
REMARK INTER + INTRA:         -11.955
REMARK INTER:                 -11.202
REMARK INTRA:                  -0.753
REMARK UNBOUND:                -0.821
REMARK SMILES CC[C@H](CC[C@H](C)[C@@H]1CC[C@@H]2[C@H]3CC=C4C[C@H](O)CC[C@]4(C)[C@H]3CC[C@@]21C)C(C)C
REMARK SMILES IDX 5 1 4 2 3 3 2 4 1 5 28 6 29 7 30 8 6 9 7 10 8 11 9 12 26 13
REMARK SMILES IDX 10 14 11 15 25 16 27 17 12 18 24 19 23 20 13 21 21 22 14 23
REMARK SMILES IDX 15 24 20 25 22 26 16 27 19 28 17 29 18 30
REMARK H PARENT 18 31
REMARK Flexibility Score: inf
ROOT
ATOM      1  C   UNL     1       0.988  27.222  42.224  1.00  0.00     0.004 C 
ENDROOT
BRANCH   1   2
ATOM      2  C   UNL     1      -0.330  28.045  42.268  1.00  0.00     0.004 C 
BRANCH   2   3
ATOM      3  C   UNL     1      -0.223  29.572  42.558  1.00  0.00    -0.009 C 
BRANCH   3   4
ATOM      4  C   UNL     1      -0.091  30.338  41.199  1.00  0.00     0.000 C 
ATOM      5  C   UNL     1      -1.138  31.442  41.040  1.00  0.00     0.004 C 
ENDBRANCH   3   4
BRANCH   3   6
ATOM      6  C   UNL     1      -1.362  30.140  43.474  1.00  0.00    -0.014 C 
ATOM      7  C   UNL     1      -0.886  30.543  44.880  1.00  0.00     0.007 C 
ATOM      8  C   UNL     1      -2.561  29.184  43.573  1.00  0.00     0.007 C 
ENDBRANCH   3   6
ENDBRANCH   2   3
ENDBRANCH   1   2
BRANCH   1   9
ATOM      9  C   UNL     1       1.459  26.579  43.563  1.00  0.00    -0.011 C 
ATOM     10  C   UNL     1       0.776  27.227  44.777  1.00  0.00     0.008 C 
BRANCH   9  11
ATOM     11  C   UNL     1       3.018  26.432  43.795  1.00  0.00    -0.002 C 
ATOM     12  C   UNL     1       3.921  26.452  42.556  1.00  0.00     0.005 C 
ATOM     13  C   UNL     1       3.492  25.204  44.631  1.00  0.00    -0.026 C 
ATOM     14  C   UNL     1       5.230  25.786  42.971  1.00  0.00     0.005 C 
ATOM     15  C   UNL     1       5.031  25.235  44.394  1.00  0.00    -0.001 C 
ATOM     16  C   UNL     1       2.867  23.877  44.109  1.00  0.00     0.007 C 
ATOM     17  C   UNL     1       3.127  25.421  46.126  1.00  0.00     0.012 C 
ATOM     18  C   UNL     1       5.812  23.904  44.622  1.00  0.00     0.000 C 
ATOM     19  C   UNL     1       3.634  22.619  44.542  1.00  0.00     0.005 C 
ATOM     20  C   UNL     1       5.097  22.661  44.034  1.00  0.00     0.003 C 
ATOM     21  C   UNL     1       6.141  23.689  46.106  1.00  0.00     0.031 C 
ATOM     22  C   UNL     1       5.955  21.335  44.240  1.00  0.00    -0.008 C 
ATOM     23  C   UNL     1       6.921  22.430  46.314  1.00  0.00    -0.027 C 
ATOM     24  C   UNL     1       6.793  21.342  45.528  1.00  0.00    -0.065 C 
ATOM     25  C   UNL     1       6.966  21.213  43.052  1.00  0.00     0.014 C 
ATOM     26  C   UNL     1       5.036  20.083  44.235  1.00  0.00     0.016 C 
ATOM     27  C   UNL     1       7.764  20.194  45.734  1.00  0.00     0.063 C 
ATOM     28  C   UNL     1       8.001  20.076  43.213  1.00  0.00     0.033 C 
ATOM     29  C   UNL     1       8.750  20.138  44.557  1.00  0.00     0.118 C 
BRANCH  29  30
ATOM     30  O   UNL     1       9.590  21.266  44.571  1.00  0.00    -0.393 OA
ATOM     31  H   UNL     1       9.710  21.517  45.523  1.00  0.00     0.210 HD
ENDBRANCH  29  30
ENDBRANCH   9  11
ENDBRANCH   1   9
TORSDOF 7
ENDMDL
MODEL 3
REMARK VINA RESULT:    -7.650      4.393     12.335
REMARK INTER + INTRA:         -11.378
REMARK INTER:                 -10.666
REMARK INTRA:                  -0.712
REMARK UNBOUND:                -0.821
REMARK SMILES CC[C@H](CC[C@H](C)[C@@H]1CC[C@@H]2[C@H]3CC=C4C[C@H](O)CC[C@]4(C)[C@H]3CC[C@@]21C)C(C)C
REMARK SMILES IDX 5 1 4 2 3 3 2 4 1 5 28 6 29 7 30 8 6 9 7 10 8 11 9 12 26 13
REMARK SMILES IDX 10 14 11 15 25 16 27 17 12 18 24 19 23 20 13 21 21 22 14 23
REMARK SMILES IDX 15 24 20 25 22 26 16 27 19 28 17 29 18 30
REMARK H PARENT 18 31
REMARK Flexibility Score: inf
ROOT
ATOM      1  C   UNL     1      11.557  16.555  46.096  1.00  0.00     0.004 C 
ENDROOT
BRANCH   1   2
ATOM      2  C   UNL     1      12.689  15.493  46.027  1.00  0.00     0.004 C 
BRANCH   2   3
ATOM      3  C   UNL     1      14.163  15.997  46.101  1.00  0.00    -0.009 C 
BRANCH   3   4
ATOM      4  C   UNL     1      14.530  16.270  47.598  1.00  0.00     0.000 C 
ATOM      5  C   UNL     1      13.818  15.319  48.563  1.00  0.00     0.004 C 
ENDBRANCH   3   4
BRANCH   3   6
ATOM      6  C   UNL     1      15.201  15.075  45.374  1.00  0.00    -0.014 C 
ATOM      7  C   UNL     1      15.612  15.580  43.980  1.00  0.00     0.007 C 
ATOM      8  C   UNL     1      14.726  13.615  45.290  1.00  0.00     0.007 C 
ENDBRANCH   3   6
ENDBRANCH   2   3
ENDBRANCH   1   2
BRANCH   1   9
ATOM      9  C   UNL     1      11.194  17.282  44.767  1.00  0.00    -0.011 C 
ATOM     10  C   UNL     1      12.166  16.918  43.634  1.00  0.00     0.008 C 
BRANCH   9  11
ATOM     11  C   UNL     1      10.950  18.845  44.831  1.00  0.00    -0.002 C 
ATOM     12  C   UNL     1      10.692  19.464  46.209  1.00  0.00     0.005 C 
ATOM     13  C   UNL     1       9.835  19.421  43.905  1.00  0.00    -0.026 C 
ATOM     14  C   UNL     1       9.989  20.794  45.956  1.00  0.00     0.005 C 
ATOM     15  C   UNL     1       9.692  20.874  44.448  1.00  0.00    -0.001 C 
ATOM     16  C   UNL     1       8.501  18.631  44.050  1.00  0.00     0.007 C 
ATOM     17  C   UNL     1      10.319  19.394  42.429  1.00  0.00     0.012 C 
ATOM     18  C   UNL     1       8.352  21.615  44.152  1.00  0.00     0.000 C 
ATOM     19  C   UNL     1       7.266  19.406  43.567  1.00  0.00     0.005 C 
ATOM     20  C   UNL     1       7.099  20.728  44.358  1.00  0.00     0.003 C 
ATOM     21  C   UNL     1       8.350  22.240  42.750  1.00  0.00     0.031 C 
ATOM     22  C   UNL     1       5.753  21.539  44.100  1.00  0.00    -0.008 C 
ATOM     23  C   UNL     1       7.076  22.980  42.486  1.00  0.00    -0.027 C 
ATOM     24  C   UNL     1       5.893  22.631  43.027  1.00  0.00    -0.065 C 
ATOM     25  C   UNL     1       5.354  22.267  45.426  1.00  0.00     0.014 C 
ATOM     26  C   UNL     1       4.601  20.576  43.701  1.00  0.00     0.016 C 
ATOM     27  C   UNL     1       4.712  23.562  42.823  1.00  0.00     0.063 C 
ATOM     28  C   UNL     1       4.171  23.251  45.280  1.00  0.00     0.033 C 
ATOM     29  C   UNL     1       4.382  24.271  44.146  1.00  0.00     0.118 C 
BRANCH  29  30
ATOM     30  O   UNL     1       5.419  25.153  44.498  1.00  0.00    -0.393 OA
ATOM     31  H   UNL     1       6.132  25.038  43.817  1.00  0.00     0.210 HD
ENDBRANCH  29  30
ENDBRANCH   9  11
ENDBRANCH   1   9
TORSDOF 7
ENDMDL
MODEL 4
REMARK VINA RESULT:    -7.597      4.261     12.340
REMARK INTER + INTRA:         -11.305
REMARK INTER:                 -10.578
REMARK INTRA:                  -0.726
REMARK UNBOUND:                -0.821
REMARK SMILES CC[C@H](CC[C@H](C)[C@@H]1CC[C@@H]2[C@H]3CC=C4C[C@H](O)CC[C@]4(C)[C@H]3CC[C@@]21C)C(C)C
REMARK SMILES IDX 5 1 4 2 3 3 2 4 1 5 28 6 29 7 30 8 6 9 7 10 8 11 9 12 26 13
REMARK SMILES IDX 10 14 11 15 25 16 27 17 12 18 24 19 23 20 13 21 21 22 14 23
REMARK SMILES IDX 15 24 20 25 22 26 16 27 19 28 17 29 18 30
REMARK H PARENT 18 31
REMARK Flexibility Score: inf
ROOT
ATOM      1  C   UNL     1      12.442  17.502  44.516  1.00  0.00     0.004 C 
ENDROOT
BRANCH   1   2
ATOM      2  C   UNL     1      13.613  16.641  45.065  1.00  0.00     0.004 C 
BRANCH   2   3
ATOM      3  C   UNL     1      13.398  15.100  45.164  1.00  0.00    -0.009 C 
BRANCH   3   4
ATOM      4  C   UNL     1      13.313  14.507  43.718  1.00  0.00     0.000 C 
ATOM      5  C   UNL     1      14.512  14.894  42.851  1.00  0.00     0.004 C 
ENDBRANCH   3   4
BRANCH   3   6
ATOM      6  C   UNL     1      14.438  14.357  46.072  1.00  0.00    -0.014 C 
ATOM      7  C   UNL     1      13.830  13.759  47.352  1.00  0.00     0.007 C 
ATOM      8  C   UNL     1      15.645  15.242  46.422  1.00  0.00     0.007 C 
ENDBRANCH   3   6
ENDBRANCH   2   3
ENDBRANCH   1   2
BRANCH   1   9
ATOM      9  C   UNL     1      11.502  18.160  45.570  1.00  0.00    -0.011 C 
ATOM     10  C   UNL     1      11.687  17.543  46.965  1.00  0.00     0.008 C 
BRANCH   9  11
ATOM     11  C   UNL     1       9.968  18.291  45.201  1.00  0.00    -0.002 C 
ATOM     12  C   UNL     1       9.590  18.225  43.716  1.00  0.00     0.005 C 
ATOM     13  C   UNL     1       9.212  19.534  45.764  1.00  0.00    -0.026 C 
ATOM     14  C   UNL     1       8.218  18.882  43.594  1.00  0.00     0.005 C 
ATOM     15  C   UNL     1       7.872  19.474  44.972  1.00  0.00    -0.001 C 
ATOM     16  C   UNL     1       9.981  20.856  45.471  1.00  0.00     0.007 C 
ATOM     17  C   UNL     1       8.995  19.362  47.292  1.00  0.00     0.012 C 
ATOM     18  C   UNL     1       7.057  20.799  44.853  1.00  0.00     0.000 C 
ATOM     19  C   UNL     1       9.103  22.113  45.549  1.00  0.00     0.005 C 
ATOM     20  C   UNL     1       7.934  22.035  44.535  1.00  0.00     0.003 C 
ATOM     21  C   UNL     1       6.199  21.048  46.101  1.00  0.00     0.031 C 
ATOM     22  C   UNL     1       7.057  23.354  44.367  1.00  0.00    -0.008 C 
ATOM     23  C   UNL     1       5.392  22.301  45.965  1.00  0.00    -0.027 C 
ATOM     24  C   UNL     1       5.799  23.369  45.251  1.00  0.00    -0.065 C 
ATOM     25  C   UNL     1       6.559  23.429  42.886  1.00  0.00     0.014 C 
ATOM     26  C   UNL     1       7.907  24.619  44.667  1.00  0.00     0.016 C 
ATOM     27  C   UNL     1       4.818  24.507  45.046  1.00  0.00     0.063 C 
ATOM     28  C   UNL     1       5.535  24.555  42.615  1.00  0.00     0.033 C 
ATOM     29  C   UNL     1       4.340  24.517  43.586  1.00  0.00     0.118 C 
BRANCH  29  30
ATOM     30  O   UNL     1       3.559  23.378  43.320  1.00  0.00    -0.393 OA
ATOM     31  H   UNL     1       2.962  23.615  42.564  1.00  0.00     0.210 HD
ENDBRANCH  29  30
ENDBRANCH   9  11
ENDBRANCH   1   9
TORSDOF 7
ENDMDL
MODEL 5
REMARK VINA RESULT:    -6.694      3.702     11.613
REMARK INTER + INTRA:         -10.059
REMARK INTER:                 -10.529
REMARK INTRA:                   0.470
REMARK UNBOUND:                -0.821
REMARK SMILES CC[C@H](CC[C@H](C)[C@@H]1CC[C@@H]2[C@H]3CC=C4C[C@H](O)CC[C@]4(C)[C@H]3CC[C@@]21C)C(C)C
REMARK SMILES IDX 5 1 4 2 3 3 2 4 1 5 28 6 29 7 30 8 6 9 7 10 8 11 9 12 26 13
REMARK SMILES IDX 10 14 11 15 25 16 27 17 12 18 24 19 23 20 13 21 21 22 14 23
REMARK SMILES IDX 15 24 20 25 22 26 16 27 19 28 17 29 18 30
REMARK H PARENT 18 31
REMARK Flexibility Score: inf
ROOT
ATOM      1  C   UNL     1      10.866  17.394  44.624  1.00  0.00     0.004 C 
ENDROOT
BRANCH   1   2
ATOM      2  C   UNL     1      12.351  16.938  44.660  1.00  0.00     0.004 C 
BRANCH   2   3
ATOM      3  C   UNL     1      12.660  15.511  45.205  1.00  0.00    -0.009 C 
BRANCH   3   4
ATOM      4  C   UNL     1      13.168  14.617  44.025  1.00  0.00     0.000 C 
ATOM      5  C   UNL     1      13.637  15.438  42.822  1.00  0.00     0.004 C 
ENDBRANCH   3   4
BRANCH   3   6
ATOM      6  C   UNL     1      13.614  15.484  46.449  1.00  0.00    -0.014 C 
ATOM      7  C   UNL     1      13.110  14.596  47.600  1.00  0.00     0.007 C 
ATOM      8  C   UNL     1      13.935  16.895  46.969  1.00  0.00     0.007 C 
ENDBRANCH   3   6
ENDBRANCH   2   3
ENDBRANCH   1   2
BRANCH   1   9
ATOM      9  C   UNL     1      10.602  18.929  44.662  1.00  0.00    -0.011 C 
ATOM     10  C   UNL     1      10.262  19.414  46.080  1.00  0.00     0.008 C 
BRANCH   9  11
ATOM     11  C   UNL     1       9.595  19.524  43.596  1.00  0.00    -0.002 C 
ATOM     12  C   UNL     1      10.107  20.650  42.691  1.00  0.00     0.005 C 
ATOM     13  C   UNL     1       8.216  20.019  44.131  1.00  0.00    -0.026 C 
ATOM     14  C   UNL     1       8.870  21.375  42.168  1.00  0.00     0.005 C 
ATOM     15  C   UNL     1       7.651  20.778  42.893  1.00  0.00    -0.001 C 
ATOM     16  C   UNL     1       8.381  20.973  45.350  1.00  0.00     0.007 C 
ATOM     17  C   UNL     1       7.338  18.797  44.517  1.00  0.00     0.012 C 
ATOM     18  C   UNL     1       6.545  21.845  43.158  1.00  0.00     0.000 C 
ATOM     19  C   UNL     1       7.155  21.860  45.613  1.00  0.00     0.005 C 
ATOM     20  C   UNL     1       6.840  22.748  44.382  1.00  0.00     0.003 C 
ATOM     21  C   UNL     1       5.156  21.203  43.279  1.00  0.00     0.031 C 
ATOM     22  C   UNL     1       5.716  23.857  44.582  1.00  0.00    -0.008 C 
ATOM     23  C   UNL     1       4.096  22.235  43.497  1.00  0.00    -0.027 C 
ATOM     24  C   UNL     1       4.316  23.397  44.143  1.00  0.00    -0.065 C 
ATOM     25  C   UNL     1       6.077  25.091  43.691  1.00  0.00     0.014 C 
ATOM     26  C   UNL     1       5.659  24.320  46.064  1.00  0.00     0.016 C 
ATOM     27  C   UNL     1       3.209  24.434  44.145  1.00  0.00     0.063 C 
ATOM     28  C   UNL     1       4.978  26.176  43.630  1.00  0.00     0.033 C 
ATOM     29  C   UNL     1       3.603  25.607  43.234  1.00  0.00     0.118 C 
BRANCH  29  30
ATOM     30  O   UNL     1       3.639  25.190  41.891  1.00  0.00    -0.393 OA
ATOM     31  H   UNL     1       4.481  25.548  41.506  1.00  0.00     0.210 HD
ENDBRANCH  29  30
ENDBRANCH   9  11
ENDBRANCH   1   9
TORSDOF 7
ENDMDL
MODEL 6
REMARK VINA RESULT:    -6.627      1.467      3.032
REMARK INTER + INTRA:          -9.966
REMARK INTER:                 -10.625
REMARK INTRA:                   0.659
REMARK UNBOUND:                -0.821
REMARK SMILES CC[C@H](CC[C@H](C)[C@@H]1CC[C@@H]2[C@H]3CC=C4C[C@H](O)CC[C@]4(C)[C@H]3CC[C@@]21C)C(C)C
REMARK SMILES IDX 5 1 4 2 3 3 2 4 1 5 28 6 29 7 30 8 6 9 7 10 8 11 9 12 26 13
REMARK SMILES IDX 10 14 11 15 25 16 27 17 12 18 24 19 23 20 13 21 21 22 14 23
REMARK SMILES IDX 15 24 20 25 22 26 16 27 19 28 17 29 18 30
REMARK H PARENT 18 31
REMARK Flexibility Score: inf
ROOT
ATOM      1  C   UNL     1       2.440  26.895  42.881  1.00  0.00     0.004 C 
ENDROOT
BRANCH   1   2
ATOM      2  C   UNL     1       1.004  27.349  43.262  1.00  0.00     0.004 C 
BRANCH   2   3
ATOM      3  C   UNL     1       0.655  28.860  43.110  1.00  0.00    -0.009 C 
BRANCH   3   4
ATOM      4  C   UNL     1      -0.037  29.083  41.723  1.00  0.00     0.000 C 
ATOM      5  C   UNL     1       0.969  29.300  40.591  1.00  0.00     0.004 C 
ENDBRANCH   3   4
BRANCH   3   6
ATOM      6  C   UNL     1      -0.160  29.462  44.306  1.00  0.00    -0.014 C 
ATOM      7  C   UNL     1      -1.077  28.446  45.007  1.00  0.00     0.007 C 
ATOM      8  C   UNL     1      -0.964  30.707  43.896  1.00  0.00     0.007 C 
ENDBRANCH   3   6
ENDBRANCH   2   3
ENDBRANCH   1   2
BRANCH   1   9
ATOM      9  C   UNL     1       2.842  25.440  43.269  1.00  0.00    -0.011 C 
ATOM     10  C   UNL     1       2.820  25.229  44.791  1.00  0.00     0.008 C 
BRANCH   9  11
ATOM     11  C   UNL     1       4.166  24.853  42.629  1.00  0.00    -0.002 C 
ATOM     12  C   UNL     1       4.015  23.708  41.621  1.00  0.00     0.005 C 
ATOM     13  C   UNL     1       5.279  24.389  43.617  1.00  0.00    -0.026 C 
ATOM     14  C   UNL     1       5.366  23.000  41.572  1.00  0.00     0.005 C 
ATOM     15  C   UNL     1       6.249  23.627  42.665  1.00  0.00    -0.001 C 
ATOM     16  C   UNL     1       4.714  23.444  44.719  1.00  0.00     0.007 C 
ATOM     17  C   UNL     1       5.951  25.631  44.264  1.00  0.00     0.012 C 
ATOM     18  C   UNL     1       7.209  22.583  43.315  1.00  0.00     0.000 C 
ATOM     19  C   UNL     1       5.784  22.584  45.406  1.00  0.00     0.005 C 
ATOM     20  C   UNL     1       6.518  21.689  44.375  1.00  0.00     0.003 C 
ATOM     21  C   UNL     1       8.460  23.252  43.900  1.00  0.00     0.031 C 
ATOM     22  C   UNL     1       7.519  20.602  44.971  1.00  0.00    -0.008 C 
ATOM     23  C   UNL     1       9.392  22.242  44.489  1.00  0.00    -0.027 C 
ATOM     24  C   UNL     1       8.977  21.083  45.038  1.00  0.00    -0.065 C 
ATOM     25  C   UNL     1       7.506  19.352  44.030  1.00  0.00     0.014 C 
ATOM     26  C   UNL     1       7.063  20.157  46.388  1.00  0.00     0.016 C 
ATOM     27  C   UNL     1      10.028  20.066  45.441  1.00  0.00     0.063 C 
ATOM     28  C   UNL     1       8.572  18.287  44.373  1.00  0.00     0.033 C 
ATOM     29  C   UNL     1       9.991  18.877  44.469  1.00  0.00     0.118 C 
BRANCH  29  30
ATOM     30  O   UNL     1      10.418  19.278  43.191  1.00  0.00    -0.393 OA
ATOM     31  H   UNL     1       9.648  19.142  42.580  1.00  0.00     0.210 HD
ENDBRANCH  29  30
ENDBRANCH   9  11
ENDBRANCH   1   9
TORSDOF 7
ENDMDL
MODEL 7
REMARK VINA RESULT:    -6.460      1.551      2.732
REMARK INTER + INTRA:          -9.736
REMARK INTER:                 -10.380
REMARK INTRA:                   0.644
REMARK UNBOUND:                -0.821
REMARK SMILES CC[C@H](CC[C@H](C)[C@@H]1CC[C@@H]2[C@H]3CC=C4C[C@H](O)CC[C@]4(C)[C@H]3CC[C@@]21C)C(C)C
REMARK SMILES IDX 5 1 4 2 3 3 2 4 1 5 28 6 29 7 30 8 6 9 7 10 8 11 9 12 26 13
REMARK SMILES IDX 10 14 11 15 25 16 27 17 12 18 24 19 23 20 13 21 21 22 14 23
REMARK SMILES IDX 15 24 20 25 22 26 16 27 19 28 17 29 18 30
REMARK H PARENT 18 31
REMARK Flexibility Score: inf
ROOT
ATOM      1  C   UNL     1       1.990  26.295  43.636  1.00  0.00     0.004 C 
ENDROOT
BRANCH   1   2
ATOM      2  C   UNL     1       1.604  27.487  42.718  1.00  0.00     0.004 C 
BRANCH   2   3
ATOM      3  C   UNL     1       0.526  28.486  43.240  1.00  0.00    -0.009 C 
BRANCH   3   4
ATOM      4  C   UNL     1      -0.226  29.105  42.015  1.00  0.00     0.000 C 
ATOM      5  C   UNL     1       0.561  30.235  41.349  1.00  0.00     0.004 C 
ENDBRANCH   3   4
BRANCH   3   6
ATOM      6  C   UNL     1      -0.444  27.889  44.318  1.00  0.00    -0.014 C 
ATOM      7  C   UNL     1      -1.930  28.177  44.045  1.00  0.00     0.007 C 
ATOM      8  C   UNL     1      -0.071  28.327  45.744  1.00  0.00     0.007 C 
ENDBRANCH   3   6
ENDBRANCH   2   3
ENDBRANCH   1   2
BRANCH   1   9
ATOM      9  C   UNL     1       3.463  25.794  43.553  1.00  0.00    -0.011 C 
ATOM     10  C   UNL     1       3.850  25.396  42.120  1.00  0.00     0.008 C 
BRANCH   9  11
ATOM     11  C   UNL     1       3.922  24.695  44.596  1.00  0.00    -0.002 C 
ATOM     12  C   UNL     1       4.795  25.156  45.769  1.00  0.00     0.005 C 
ATOM     13  C   UNL     1       4.636  23.434  44.021  1.00  0.00    -0.026 C 
ATOM     14  C   UNL     1       5.509  23.910  46.286  1.00  0.00     0.005 C 
ATOM     15  C   UNL     1       5.180  22.761  45.316  1.00  0.00    -0.001 C 
ATOM     16  C   UNL     1       5.795  23.818  43.056  1.00  0.00     0.007 C 
ATOM     17  C   UNL     1       3.599  22.538  43.289  1.00  0.00     0.012 C 
ATOM     18  C   UNL     1       6.374  21.770  45.155  1.00  0.00     0.000 C 
ATOM     19  C   UNL     1       6.822  22.697  42.843  1.00  0.00     0.005 C 
ATOM     20  C   UNL     1       7.472  22.281  44.188  1.00  0.00     0.003 C 
ATOM     21  C   UNL     1       5.896  20.371  44.742  1.00  0.00     0.031 C 
ATOM     22  C   UNL     1       8.695  21.266  44.095  1.00  0.00    -0.008 C 
ATOM     23  C   UNL     1       7.042  19.417  44.624  1.00  0.00    -0.027 C 
ATOM     24  C   UNL     1       8.284  19.794  44.264  1.00  0.00    -0.065 C 
ATOM     25  C   UNL     1       9.690  21.586  45.261  1.00  0.00     0.014 C 
ATOM     26  C   UNL     1       9.447  21.435  42.746  1.00  0.00     0.016 C 
ATOM     27  C   UNL     1       9.397  18.766  44.351  1.00  0.00     0.063 C 
ATOM     28  C   UNL     1      10.835  20.560  45.419  1.00  0.00     0.033 C 
ATOM     29  C   UNL     1      10.324  19.111  45.526  1.00  0.00     0.118 C 
BRANCH  29  30
ATOM     30  O   UNL     1       9.647  18.943  46.747  1.00  0.00    -0.393 OA
ATOM     31  H   UNL     1       9.325  18.005  46.766  1.00  0.00     0.210 HD
ENDBRANCH  29  30
ENDBRANCH   9  11
ENDBRANCH   1   9
TORSDOF 7
ENDMDL
MODEL 8
REMARK VINA RESULT:    -6.375      3.693     11.635
REMARK INTER + INTRA:          -9.618
REMARK INTER:                  -9.988
REMARK INTRA:                   0.370
REMARK UNBOUND:                -0.821
REMARK SMILES CC[C@H](CC[C@H](C)[C@@H]1CC[C@@H]2[C@H]3CC=C4C[C@H](O)CC[C@]4(C)[C@H]3CC[C@@]21C)C(C)C
REMARK SMILES IDX 5 1 4 2 3 3 2 4 1 5 28 6 29 7 30 8 6 9 7 10 8 11 9 12 26 13
REMARK SMILES IDX 10 14 11 15 25 16 27 17 12 18 24 19 23 20 13 21 21 22 14 23
REMARK SMILES IDX 15 24 20 25 22 26 16 27 19 28 17 29 18 30
REMARK H PARENT 18 31
REMARK Flexibility Score: inf
ROOT
ATOM      1  C   UNL     1      11.634  18.421  45.662  1.00  0.00     0.004 C 
ENDROOT
BRANCH   1   2
ATOM      2  C   UNL     1      12.066  17.312  46.660  1.00  0.00     0.004 C 
BRANCH   2   3
ATOM      3  C   UNL     1      12.635  15.986  46.071  1.00  0.00    -0.009 C 
BRANCH   3   4
ATOM      4  C   UNL     1      13.061  16.234  44.585  1.00  0.00     0.000 C 
ATOM      5  C   UNL     1      13.056  14.953  43.748  1.00  0.00     0.004 C 
ENDBRANCH   3   4
BRANCH   3   6
ATOM      6  C   UNL     1      13.767  15.327  46.931  1.00  0.00    -0.014 C 
ATOM      7  C   UNL     1      13.597  15.534  48.446  1.00  0.00     0.007 C 
ATOM      8  C   UNL     1      15.171  15.772  46.489  1.00  0.00     0.007 C 
ENDBRANCH   3   6
ENDBRANCH   2   3
ENDBRANCH   1   2
BRANCH   1   9
ATOM      9  C   UNL     1      10.111  18.525  45.344  1.00  0.00    -0.011 C 
ATOM     10  C   UNL     1       9.839  18.476  43.833  1.00  0.00     0.008 C 
BRANCH   9  11
ATOM     11  C   UNL     1       9.299  19.696  46.034  1.00  0.00    -0.002 C 
ATOM     12  C   UNL     1       8.032  19.316  46.808  1.00  0.00     0.005 C 
ATOM     13  C   UNL     1       8.885  20.894  45.126  1.00  0.00    -0.026 C 
ATOM     14  C   UNL     1       7.192  20.587  46.903  1.00  0.00     0.005 C 
ATOM     15  C   UNL     1       7.889  21.660  46.048  1.00  0.00    -0.001 C 
ATOM     16  C   UNL     1       8.187  20.413  43.821  1.00  0.00     0.007 C 
ATOM     17  C   UNL     1      10.138  21.747  44.786  1.00  0.00     0.012 C 
ATOM     18  C   UNL     1       6.867  22.613  45.355  1.00  0.00     0.000 C 
ATOM     19  C   UNL     1       7.340  21.495  43.135  1.00  0.00     0.005 C 
ATOM     20  C   UNL     1       6.225  22.006  44.082  1.00  0.00     0.003 C 
ATOM     21  C   UNL     1       7.489  23.982  45.049  1.00  0.00     0.031 C 
ATOM     22  C   UNL     1       5.149  22.988  43.439  1.00  0.00    -0.008 C 
ATOM     23  C   UNL     1       6.494  24.903  44.417  1.00  0.00    -0.027 C 
ATOM     24  C   UNL     1       5.484  24.476  43.634  1.00  0.00    -0.065 C 
ATOM     25  C   UNL     1       3.775  22.745  44.147  1.00  0.00     0.014 C 
ATOM     26  C   UNL     1       4.979  22.698  41.922  1.00  0.00     0.016 C 
ATOM     27  C   UNL     1       4.441  25.487  43.198  1.00  0.00     0.063 C 
ATOM     28  C   UNL     1       2.674  23.760  43.763  1.00  0.00     0.033 C 
ATOM     29  C   UNL     1       3.124  25.222  43.943  1.00  0.00     0.118 C 
BRANCH  29  30
ATOM     30  O   UNL     1       3.275  25.499  45.313  1.00  0.00    -0.393 OA
ATOM     31  H   UNL     1       3.980  26.193  45.386  1.00  0.00     0.210 HD
ENDBRANCH  29  30
ENDBRANCH   9  11
ENDBRANCH   1   9
TORSDOF 7
ENDMDL
MODEL 9
REMARK VINA RESULT:    -5.560      2.781      9.365
REMARK INTER + INTRA:          -8.494
REMARK INTER:                  -7.873
REMARK INTRA:                  -0.620
REMARK UNBOUND:                -0.821
REMARK SMILES CC[C@H](CC[C@H](C)[C@@H]1CC[C@@H]2[C@H]3CC=C4C[C@H](O)CC[C@]4(C)[C@H]3CC[C@@]21C)C(C)C
REMARK SMILES IDX 5 1 4 2 3 3 2 4 1 5 28 6 29 7 30 8 6 9 7 10 8 11 9 12 26 13
REMARK SMILES IDX 10 14 11 15 25 16 27 17 12 18 24 19 23 20 13 21 21 22 14 23
REMARK SMILES IDX 15 24 20 25 22 26 16 27 19 28 17 29 18 30
REMARK H PARENT 18 31
REMARK Flexibility Score: inf
ROOT
ATOM      1  C   UNL     1       5.377  21.035  43.451  1.00  0.00     0.004 C 
ENDROOT
BRANCH   1   2
ATOM      2  C   UNL     1       6.659  20.255  43.047  1.00  0.00     0.004 C 
BRANCH   2   3
ATOM      3  C   UNL     1       7.824  20.189  44.081  1.00  0.00    -0.009 C 
BRANCH   3   4
ATOM      4  C   UNL     1       8.371  18.723  44.136  1.00  0.00     0.000 C 
ATOM      5  C   UNL     1       9.899  18.664  44.145  1.00  0.00     0.004 C 
ENDBRANCH   3   4
BRANCH   3   6
ATOM      6  C   UNL     1       8.951  21.256  43.856  1.00  0.00    -0.014 C 
ATOM      7  C   UNL     1       9.167  22.194  45.056  1.00  0.00     0.007 C 
ATOM      8  C   UNL     1       8.732  22.075  42.574  1.00  0.00     0.007 C 
ENDBRANCH   3   6
ENDBRANCH   2   3
ENDBRANCH   1   2
BRANCH   1   9
ATOM      9  C   UNL     1       5.569  22.257  44.399  1.00  0.00    -0.011 C 
ATOM     10  C   UNL     1       4.666  22.163  45.639  1.00  0.00     0.008 C 
BRANCH   9  11
ATOM     11  C   UNL     1       5.506  23.701  43.753  1.00  0.00    -0.002 C 
ATOM     12  C   UNL     1       5.903  24.888  44.637  1.00  0.00     0.005 C 
ATOM     13  C   UNL     1       4.159  24.115  43.087  1.00  0.00    -0.026 C 
ATOM     14  C   UNL     1       5.274  26.124  44.001  1.00  0.00     0.005 C 
ATOM     15  C   UNL     1       4.380  25.638  42.847  1.00  0.00    -0.001 C 
ATOM     16  C   UNL     1       2.947  23.864  44.032  1.00  0.00     0.007 C 
ATOM     17  C   UNL     1       3.975  23.335  41.756  1.00  0.00     0.012 C 
ATOM     18  C   UNL     1       3.107  26.524  42.678  1.00  0.00     0.000 C 
ATOM     19  C   UNL     1       1.694  24.670  43.662  1.00  0.00     0.005 C 
ATOM     20  C   UNL     1       1.986  26.191  43.695  1.00  0.00     0.003 C 
ATOM     21  C   UNL     1       2.569  26.473  41.241  1.00  0.00     0.031 C 
ATOM     22  C   UNL     1       0.729  27.154  43.523  1.00  0.00    -0.008 C 
ATOM     23  C   UNL     1       1.370  27.352  41.077  1.00  0.00    -0.027 C 
ATOM     24  C   UNL     1       0.498  27.606  42.073  1.00  0.00    -0.065 C 
ATOM     25  C   UNL     1       0.987  28.453  44.358  1.00  0.00     0.014 C 
ATOM     26  C   UNL     1      -0.560  26.473  44.058  1.00  0.00     0.016 C 
ATOM     27  C   UNL     1      -0.576  28.650  41.831  1.00  0.00     0.063 C 
ATOM     28  C   UNL     1      -0.061  29.568  44.137  1.00  0.00     0.033 C 
ATOM     29  C   UNL     1      -0.260  29.911  42.650  1.00  0.00     0.118 C 
BRANCH  29  30
ATOM     30  O   UNL     1       0.899  30.535  42.155  1.00  0.00    -0.393 OA
ATOM     31  H   UNL     1       0.971  31.409  42.620  1.00  0.00     0.210 HD
ENDBRANCH  29  30
ENDBRANCH   9  11
ENDBRANCH   1   9
TORSDOF 7
ENDMDL
