MODEL 1
REMARK VINA RESULT:    40.070      0.000      0.000
REMARK INTER + INTRA:          54.195
REMARK INTER:                  55.296
REMARK INTRA:                  -1.101
REMARK UNBOUND:                -1.101
REMARK SMILES CC[C@H](CC[C@H](C)[C@H]1CC[C@@H]2[C@@H]3CC=C4C[C@H](O)CC[C@]4(C)[C@@H]3CC[C@@]21C)C(C)C
REMARK SMILES IDX 5 1 4 2 3 3 2 4 1 5 28 6 29 7 30 8 6 9 7 10 8 11 9 12 26 13
REMARK SMILES IDX 10 14 11 15 25 16 27 17 12 18 24 19 23 20 13 21 21 22 14 23
REMARK SMILES IDX 15 24 20 25 22 26 16 27 19 28 17 29 18 30
REMARK H PARENT 18 31
REMARK Flexibility Score: inf
ROOT
ATOM      1  C   UNL     1       6.213  39.938  49.910  1.00  0.00     0.004 C 
ENDROOT
BRANCH   1   2
ATOM      2  C   UNL     1       6.342  39.174  51.255  1.00  0.00     0.004 C 
BRANCH   2   3
ATOM      3  C   UNL     1       6.589  37.641  51.179  1.00  0.00    -0.009 C 
BRANCH   3   4
ATOM      4  C   UNL     1       5.457  36.912  50.399  1.00  0.00     0.000 C 
ATOM      5  C   UNL     1       4.452  36.210  51.316  1.00  0.00     0.004 C 
ENDBRANCH   3   4
BRANCH   3   6
ATOM      6  C   UNL     1       8.066  37.289  50.767  1.00  0.00    -0.014 C 
ATOM      7  C   UNL     1       8.208  36.051  49.867  1.00  0.00     0.007 C 
ATOM      8  C   UNL     1       8.983  37.150  51.994  1.00  0.00     0.007 C 
ENDBRANCH   3   6
ENDBRANCH   2   3
ENDBRANCH   1   2
BRANCH   1   9
ATOM      9  C   UNL     1       4.759  40.255  49.446  1.00  0.00    -0.011 C 
ATOM     10  C   UNL     1       4.405  39.630  48.080  1.00  0.00     0.008 C 
BRANCH   9  11
ATOM     11  C   UNL     1       4.336  41.775  49.541  1.00  0.00    -0.002 C 
ATOM     12  C   UNL     1       3.569  42.211  48.285  1.00  0.00     0.005 C 
ATOM     13  C   UNL     1       3.447  42.295  50.734  1.00  0.00    -0.026 C 
ATOM     14  C   UNL     1       2.091  42.287  48.661  1.00  0.00     0.005 C 
ATOM     15  C   UNL     1       2.001  42.154  50.194  1.00  0.00    -0.001 C 
ATOM     16  C   UNL     1       3.795  43.801  51.054  1.00  0.00     0.007 C 
ATOM     17  C   UNL     1       3.616  41.505  52.056  1.00  0.00     0.012 C 
ATOM     18  C   UNL     1       0.957  43.094  50.881  1.00  0.00     0.000 C 
ATOM     19  C   UNL     1       2.827  44.829  50.456  1.00  0.00     0.005 C 
ATOM     20  C   UNL     1       1.384  44.614  50.978  1.00  0.00     0.003 C 
ATOM     21  C   UNL     1      -0.461  42.862  50.302  1.00  0.00     0.031 C 
ATOM     22  C   UNL     1       0.310  45.637  50.406  1.00  0.00    -0.008 C 
ATOM     23  C   UNL     1      -0.740  43.762  49.140  1.00  0.00    -0.027 C 
ATOM     24  C   UNL     1      -0.377  45.055  49.170  1.00  0.00    -0.065 C 
ATOM     25  C   UNL     1       0.941  47.013  50.016  1.00  0.00     0.014 C 
ATOM     26  C   UNL     1      -0.758  45.909  51.504  1.00  0.00     0.016 C 
ATOM     27  C   UNL     1      -0.575  45.915  47.940  1.00  0.00     0.063 C 
ATOM     28  C   UNL     1      -0.064  47.991  49.372  1.00  0.00     0.033 C 
ATOM     29  C   UNL     1      -1.020  47.326  48.347  1.00  0.00     0.118 C 
BRANCH  29  30
ATOM     30  O   UNL     1      -1.124  48.125  47.195  1.00  0.00    -0.393 OA
ATOM     31  H   UNL     1      -0.202  48.282  46.869  1.00  0.00     0.210 HD
ENDBRANCH  29  30
ENDBRANCH   9  11
ENDBRANCH   1   9
TORSDOF 7
ENDMDL
MODEL 2
REMARK VINA RESULT:    42.718      0.501      1.493
REMARK INTER + INTRA:          57.850
REMARK INTER:                  57.487
REMARK INTRA:                   0.363
REMARK UNBOUND:                -1.101
REMARK SMILES CC[C@H](CC[C@H](C)[C@H]1CC[C@@H]2[C@@H]3CC=C4C[C@H](O)CC[C@]4(C)[C@@H]3CC[C@@]21C)C(C)C
REMARK SMILES IDX 5 1 4 2 3 3 2 4 1 5 28 6 29 7 30 8 6 9 7 10 8 11 9 12 26 13
REMARK SMILES IDX 10 14 11 15 25 16 27 17 12 18 24 19 23 20 13 21 21 22 14 23
REMARK SMILES IDX 15 24 20 25 22 26 16 27 19 28 17 29 18 30
REMARK H PARENT 18 31
REMARK Flexibility Score: inf
ROOT
ATOM      1  C   UNL     1       5.949  39.707  49.876  1.00  0.00     0.004 C 
ENDROOT
BRANCH   1   2
ATOM      2  C   UNL     1       6.560  38.445  49.212  1.00  0.00     0.004 C 
BRANCH   2   3
ATOM      3  C   UNL     1       6.975  37.278  50.151  1.00  0.00    -0.009 C 
BRANCH   3   4
ATOM      4  C   UNL     1       8.521  37.154  50.268  1.00  0.00     0.000 C 
ATOM      5  C   UNL     1       8.986  36.729  51.665  1.00  0.00     0.004 C 
ENDBRANCH   3   4
BRANCH   3   6
ATOM      6  C   UNL     1       6.165  37.274  51.500  1.00  0.00    -0.014 C 
ATOM      7  C   UNL     1       4.755  36.671  51.405  1.00  0.00     0.007 C 
ATOM      8  C   UNL     1       6.091  38.678  52.125  1.00  0.00     0.007 C 
ENDBRANCH   3   6
ENDBRANCH   2   3
ENDBRANCH   1   2
BRANCH   1   9
ATOM      9  C   UNL     1       4.503  40.079  49.428  1.00  0.00    -0.011 C 
ATOM     10  C   UNL     1       4.092  39.425  48.091  1.00  0.00     0.008 C 
BRANCH   9  11
ATOM     11  C   UNL     1       4.155  41.619  49.477  1.00  0.00    -0.002 C 
ATOM     12  C   UNL     1       3.351  42.040  48.240  1.00  0.00     0.005 C 
ATOM     13  C   UNL     1       3.348  42.229  50.686  1.00  0.00    -0.026 C 
ATOM     14  C   UNL     1       1.897  42.203  48.679  1.00  0.00     0.005 C 
ATOM     15  C   UNL     1       1.873  42.136  50.219  1.00  0.00    -0.001 C 
ATOM     16  C   UNL     1       3.780  43.728  50.926  1.00  0.00     0.007 C 
ATOM     17  C   UNL     1       3.543  41.486  52.032  1.00  0.00     0.012 C 
ATOM     18  C   UNL     1       0.907  43.152  50.911  1.00  0.00     0.000 C 
ATOM     19  C   UNL     1       2.833  44.776  50.329  1.00  0.00     0.005 C 
ATOM     20  C   UNL     1       1.408  44.652  50.924  1.00  0.00     0.003 C 
ATOM     21  C   UNL     1      -0.546  42.965  50.407  1.00  0.00     0.031 C 
ATOM     22  C   UNL     1       0.357  45.701  50.358  1.00  0.00    -0.008 C 
ATOM     23  C   UNL     1      -0.837  43.829  49.221  1.00  0.00    -0.027 C 
ATOM     24  C   UNL     1      -0.414  45.103  49.180  1.00  0.00    -0.065 C 
ATOM     25  C   UNL     1       1.031  47.029  49.882  1.00  0.00     0.014 C 
ATOM     26  C   UNL     1      -0.645  46.068  51.491  1.00  0.00     0.016 C 
ATOM     27  C   UNL     1      -0.630  45.922  47.925  1.00  0.00     0.063 C 
ATOM     28  C   UNL     1       0.043  48.027  49.243  1.00  0.00     0.033 C 
ATOM     29  C   UNL     1      -0.990  47.368  48.291  1.00  0.00     0.118 C 
BRANCH  29  30
ATOM     30  O   UNL     1      -1.111  48.124  47.113  1.00  0.00    -0.393 OA
ATOM     31  H   UNL     1      -1.868  48.750  47.248  1.00  0.00     0.210 HD
ENDBRANCH  29  30
ENDBRANCH   9  11
ENDBRANCH   1   9
TORSDOF 7
ENDMDL
