MODEL 1
REMARK VINA RESULT:    -6.422      0.000      0.000
REMARK INTER + INTRA:         -10.218
REMARK INTER:                  -8.862
REMARK INTRA:                  -1.356
REMARK UNBOUND:                -1.356
REMARK SMILES CC[C@@H](CC[C@H](C)[C@@H]1CC[C@@H]2[C@H]3CC=C4C[C@@H](O)CC[C@]4(C)[C@H]3CC[C@@]21C)C(C)C
REMARK SMILES IDX 5 1 4 2 3 3 2 4 1 5 28 6 29 7 30 8 6 9 7 10 8 11 9 12 26 13
REMARK SMILES IDX 10 14 11 15 25 16 27 17 12 18 24 19 23 20 13 21 21 22 14 23
REMARK SMILES IDX 15 24 20 25 22 26 16 27 19 28 17 29 18 30
REMARK H PARENT 18 31
REMARK Flexibility Score: inf
ROOT
ATOM      1  C   UNL     1       6.408 -18.691 -35.968  1.00  0.00     0.004 C 
ENDROOT
BRANCH   1   2
ATOM      2  C   UNL     1       6.426 -17.240 -36.498  1.00  0.00     0.004 C 
BRANCH   2   3
ATOM      3  C   UNL     1       5.301 -16.350 -35.895  1.00  0.00    -0.009 C 
BRANCH   3   4
ATOM      4  C   UNL     1       4.945 -16.833 -34.461  1.00  0.00     0.000 C 
ATOM      5  C   UNL     1       5.216 -15.795 -33.369  1.00  0.00     0.004 C 
ENDBRANCH   3   4
BRANCH   3   6
ATOM      6  C   UNL     1       4.049 -16.256 -36.833  1.00  0.00    -0.014 C 
ATOM      7  C   UNL     1       2.871 -17.132 -36.380  1.00  0.00     0.007 C 
ATOM      8  C   UNL     1       4.398 -16.552 -38.303  1.00  0.00     0.007 C 
ENDBRANCH   3   6
ENDBRANCH   2   3
ENDBRANCH   1   2
BRANCH   1   9
ATOM      9  C   UNL     1       6.500 -19.766 -37.093  1.00  0.00    -0.011 C 
ATOM     10  C   UNL     1       5.078 -20.204 -37.500  1.00  0.00     0.008 C 
BRANCH   9  11
ATOM     11  C   UNL     1       7.392 -20.981 -36.632  1.00  0.00    -0.002 C 
ATOM     12  C   UNL     1       8.475 -20.548 -35.623  1.00  0.00     0.005 C 
ATOM     13  C   UNL     1       8.171 -21.788 -37.729  1.00  0.00    -0.026 C 
ATOM     14  C   UNL     1       9.667 -21.483 -35.792  1.00  0.00     0.005 C 
ATOM     15  C   UNL     1       9.296 -22.471 -36.900  1.00  0.00    -0.001 C 
ATOM     16  C   UNL     1       8.793 -20.829 -38.792  1.00  0.00     0.007 C 
ATOM     17  C   UNL     1       7.251 -22.860 -38.397  1.00  0.00     0.012 C 
ATOM     18  C   UNL     1      10.541 -22.974 -37.695  1.00  0.00     0.000 C 
ATOM     19  C   UNL     1       9.912 -21.464 -39.630  1.00  0.00     0.005 C 
ATOM     20  C   UNL     1      11.076 -21.949 -38.728  1.00  0.00     0.003 C 
ATOM     21  C   UNL     1      10.264 -24.316 -38.389  1.00  0.00     0.031 C 
ATOM     22  C   UNL     1      12.373 -22.491 -39.485  1.00  0.00    -0.008 C 
ATOM     23  C   UNL     1      11.494 -24.835 -39.057  1.00  0.00    -0.027 C 
ATOM     24  C   UNL     1      12.428 -24.026 -39.597  1.00  0.00    -0.065 C 
ATOM     25  C   UNL     1      13.630 -22.056 -38.660  1.00  0.00     0.014 C 
ATOM     26  C   UNL     1      12.481 -21.882 -40.911  1.00  0.00     0.016 C 
ATOM     27  C   UNL     1      13.712 -24.652 -40.108  1.00  0.00     0.063 C 
ATOM     28  C   UNL     1      14.956 -22.672 -39.149  1.00  0.00     0.033 C 
ATOM     29  C   UNL     1      14.883 -24.204 -39.224  1.00  0.00     0.118 C 
BRANCH  29  30
ATOM     30  O   UNL     1      16.090 -24.696 -39.744  1.00  0.00    -0.393 OA
ATOM     31  H   UNL     1      16.593 -25.085 -38.981  1.00  0.00     0.210 HD
ENDBRANCH  29  30
ENDBRANCH   9  11
ENDBRANCH   1   9
TORSDOF 7
ENDMDL
MODEL 2
REMARK VINA RESULT:    -6.409      3.638      9.156
REMARK INTER + INTRA:         -10.201
REMARK INTER:                  -8.822
REMARK INTRA:                  -1.379
REMARK UNBOUND:                -1.356
REMARK SMILES CC[C@@H](CC[C@H](C)[C@@H]1CC[C@@H]2[C@H]3CC=C4C[C@@H](O)CC[C@]4(C)[C@H]3CC[C@@]21C)C(C)C
REMARK SMILES IDX 5 1 4 2 3 3 2 4 1 5 28 6 29 7 30 8 6 9 7 10 8 11 9 12 26 13
REMARK SMILES IDX 10 14 11 15 25 16 27 17 12 18 24 19 23 20 13 21 21 22 14 23
REMARK SMILES IDX 15 24 20 25 22 26 16 27 19 28 17 29 18 30
REMARK H PARENT 18 31
REMARK Flexibility Score: inf
ROOT
ATOM      1  C   UNL     1      10.628 -22.143 -38.431  1.00  0.00     0.004 C 
ENDROOT
BRANCH   1   2
ATOM      2  C   UNL     1      11.824 -21.966 -37.469  1.00  0.00     0.004 C 
BRANCH   2   3
ATOM      3  C   UNL     1      12.921 -21.010 -38.020  1.00  0.00    -0.009 C 
BRANCH   3   4
ATOM      4  C   UNL     1      14.328 -21.485 -37.560  1.00  0.00     0.000 C 
ATOM      5  C   UNL     1      14.702 -22.887 -38.048  1.00  0.00     0.004 C 
ENDBRANCH   3   4
BRANCH   3   6
ATOM      6  C   UNL     1      12.638 -19.511 -37.662  1.00  0.00    -0.014 C 
ATOM      7  C   UNL     1      11.501 -19.323 -36.645  1.00  0.00     0.007 C 
ATOM      8  C   UNL     1      12.380 -18.651 -38.913  1.00  0.00     0.007 C 
ENDBRANCH   3   6
ENDBRANCH   2   3
ENDBRANCH   1   2
BRANCH   1   9
ATOM      9  C   UNL     1       9.246 -22.143 -37.712  1.00  0.00    -0.011 C 
ATOM     10  C   UNL     1       8.743 -23.594 -37.569  1.00  0.00     0.008 C 
BRANCH   9  11
ATOM     11  C   UNL     1       8.219 -21.226 -38.479  1.00  0.00    -0.002 C 
ATOM     12  C   UNL     1       8.905 -19.998 -39.111  1.00  0.00     0.005 C 
ATOM     13  C   UNL     1       7.009 -20.634 -37.674  1.00  0.00    -0.026 C 
ATOM     14  C   UNL     1       7.884 -18.868 -39.156  1.00  0.00     0.005 C 
ATOM     15  C   UNL     1       6.591 -19.420 -38.552  1.00  0.00    -0.001 C 
ATOM     16  C   UNL     1       7.461 -20.147 -36.262  1.00  0.00     0.007 C 
ATOM     17  C   UNL     1       5.841 -21.668 -37.575  1.00  0.00     0.012 C 
ATOM     18  C   UNL     1       5.738 -18.315 -37.854  1.00  0.00     0.000 C 
ATOM     19  C   UNL     1       6.479 -19.177 -35.590  1.00  0.00     0.005 C 
ATOM     20  C   UNL     1       6.269 -17.908 -36.456  1.00  0.00     0.003 C 
ATOM     21  C   UNL     1       4.260 -18.724 -37.752  1.00  0.00     0.031 C 
ATOM     22  C   UNL     1       5.389 -16.748 -35.801  1.00  0.00    -0.008 C 
ATOM     23  C   UNL     1       3.439 -17.617 -37.178  1.00  0.00    -0.027 C 
ATOM     24  C   UNL     1       3.919 -16.749 -36.264  1.00  0.00    -0.065 C 
ATOM     25  C   UNL     1       5.997 -15.374 -36.242  1.00  0.00     0.014 C 
ATOM     26  C   UNL     1       5.423 -16.830 -34.250  1.00  0.00     0.016 C 
ATOM     27  C   UNL     1       3.053 -15.569 -35.869  1.00  0.00     0.063 C 
ATOM     28  C   UNL     1       5.144 -14.149 -35.858  1.00  0.00     0.033 C 
ATOM     29  C   UNL     1       3.701 -14.272 -36.369  1.00  0.00     0.118 C 
BRANCH  29  30
ATOM     30  O   UNL     1       2.961 -13.165 -35.925  1.00  0.00    -0.393 OA
ATOM     31  H   UNL     1       2.176 -13.084 -36.528  1.00  0.00     0.210 HD
ENDBRANCH  29  30
ENDBRANCH   9  11
ENDBRANCH   1   9
TORSDOF 7
ENDMDL
MODEL 3
REMARK VINA RESULT:    -6.370      1.779      2.682
REMARK INTER + INTRA:         -10.147
REMARK INTER:                  -7.967
REMARK INTRA:                  -2.180
REMARK UNBOUND:                -1.356
REMARK SMILES CC[C@@H](CC[C@H](C)[C@@H]1CC[C@@H]2[C@H]3CC=C4C[C@@H](O)CC[C@]4(C)[C@H]3CC[C@@]21C)C(C)C
REMARK SMILES IDX 5 1 4 2 3 3 2 4 1 5 28 6 29 7 30 8 6 9 7 10 8 11 9 12 26 13
REMARK SMILES IDX 10 14 11 15 25 16 27 17 12 18 24 19 23 20 13 21 21 22 14 23
REMARK SMILES IDX 15 24 20 25 22 26 16 27 19 28 17 29 18 30
REMARK H PARENT 18 31
REMARK Flexibility Score: inf
ROOT
ATOM      1  C   UNL     1       6.452 -19.576 -36.836  1.00  0.00     0.004 C 
ENDROOT
BRANCH   1   2
ATOM      2  C   UNL     1       6.431 -18.610 -38.042  1.00  0.00     0.004 C 
BRANCH   2   3
ATOM      3  C   UNL     1       7.434 -17.428 -37.903  1.00  0.00    -0.009 C 
BRANCH   3   4
ATOM      4  C   UNL     1       6.666 -16.085 -37.754  1.00  0.00     0.000 C 
ATOM      5  C   UNL     1       6.399 -15.679 -36.302  1.00  0.00     0.004 C 
ENDBRANCH   3   4
BRANCH   3   6
ATOM      6  C   UNL     1       8.486 -17.402 -39.065  1.00  0.00    -0.014 C 
ATOM      7  C   UNL     1       8.044 -18.180 -40.315  1.00  0.00     0.007 C 
ATOM      8  C   UNL     1       9.876 -17.878 -38.605  1.00  0.00     0.007 C 
ENDBRANCH   3   6
ENDBRANCH   2   3
ENDBRANCH   1   2
BRANCH   1   9
ATOM      9  C   UNL     1       6.776 -21.049 -37.225  1.00  0.00    -0.011 C 
ATOM     10  C   UNL     1       5.621 -21.964 -36.771  1.00  0.00     0.008 C 
BRANCH   9  11
ATOM     11  C   UNL     1       8.164 -21.492 -36.623  1.00  0.00    -0.002 C 
ATOM     12  C   UNL     1       8.922 -20.307 -35.993  1.00  0.00     0.005 C 
ATOM     13  C   UNL     1       9.207 -22.167 -37.581  1.00  0.00    -0.026 C 
ATOM     14  C   UNL     1      10.414 -20.592 -36.118  1.00  0.00     0.005 C 
ATOM     15  C   UNL     1      10.545 -21.944 -36.822  1.00  0.00    -0.001 C 
ATOM     16  C   UNL     1       9.245 -21.445 -38.964  1.00  0.00     0.007 C 
ATOM     17  C   UNL     1       8.915 -23.694 -37.744  1.00  0.00     0.012 C 
ATOM     18  C   UNL     1      11.853 -22.055 -37.666  1.00  0.00     0.000 C 
ATOM     19  C   UNL     1      10.507 -21.736 -39.788  1.00  0.00     0.005 C 
ATOM     20  C   UNL     1      11.784 -21.307 -39.022  1.00  0.00     0.003 C 
ATOM     21  C   UNL     1      12.253 -23.520 -37.899  1.00  0.00     0.031 C 
ATOM     22  C   UNL     1      13.157 -21.413 -39.830  1.00  0.00    -0.008 C 
ATOM     23  C   UNL     1      13.559 -23.609 -38.617  1.00  0.00    -0.027 C 
ATOM     24  C   UNL     1      13.958 -22.694 -39.523  1.00  0.00    -0.065 C 
ATOM     25  C   UNL     1      14.061 -20.207 -39.406  1.00  0.00     0.014 C 
ATOM     26  C   UNL     1      12.911 -21.334 -41.362  1.00  0.00     0.016 C 
ATOM     27  C   UNL     1      15.368 -22.794 -40.073  1.00  0.00     0.063 C 
ATOM     28  C   UNL     1      15.504 -20.273 -39.946  1.00  0.00     0.033 C 
ATOM     29  C   UNL     1      16.192 -21.597 -39.581  1.00  0.00     0.118 C 
BRANCH  29  30
ATOM     30  O   UNL     1      17.469 -21.624 -40.162  1.00  0.00    -0.393 OA
ATOM     31  H   UNL     1      17.698 -20.687 -40.396  1.00  0.00     0.210 HD
ENDBRANCH  29  30
ENDBRANCH   9  11
ENDBRANCH   1   9
TORSDOF 7
ENDMDL
MODEL 4
REMARK VINA RESULT:    -6.328      2.365      4.442
REMARK INTER + INTRA:         -10.089
REMARK INTER:                  -8.137
REMARK INTRA:                  -1.953
REMARK UNBOUND:                -1.356
REMARK SMILES CC[C@@H](CC[C@H](C)[C@@H]1CC[C@@H]2[C@H]3CC=C4C[C@@H](O)CC[C@]4(C)[C@H]3CC[C@@]21C)C(C)C
REMARK SMILES IDX 5 1 4 2 3 3 2 4 1 5 28 6 29 7 30 8 6 9 7 10 8 11 9 12 26 13
REMARK SMILES IDX 10 14 11 15 25 16 27 17 12 18 24 19 23 20 13 21 21 22 14 23
REMARK SMILES IDX 15 24 20 25 22 26 16 27 19 28 17 29 18 30
REMARK H PARENT 18 31
REMARK Flexibility Score: inf
ROOT
ATOM      1  C   UNL     1       2.747 -17.228 -36.975  1.00  0.00     0.004 C 
ENDROOT
BRANCH   1   2
ATOM      2  C   UNL     1       3.136 -16.611 -35.613  1.00  0.00     0.004 C 
BRANCH   2   3
ATOM      3  C   UNL     1       4.236 -15.516 -35.724  1.00  0.00    -0.009 C 
BRANCH   3   4
ATOM      4  C   UNL     1       5.457 -15.889 -34.836  1.00  0.00     0.000 C 
ATOM      5  C   UNL     1       5.252 -17.151 -33.996  1.00  0.00     0.004 C 
ENDBRANCH   3   4
BRANCH   3   6
ATOM      6  C   UNL     1       3.680 -14.082 -35.422  1.00  0.00    -0.014 C 
ATOM      7  C   UNL     1       2.493 -14.073 -34.445  1.00  0.00     0.007 C 
ATOM      8  C   UNL     1       3.317 -13.315 -36.707  1.00  0.00     0.007 C 
ENDBRANCH   3   6
ENDBRANCH   2   3
ENDBRANCH   1   2
BRANCH   1   9
ATOM      9  C   UNL     1       3.785 -16.949 -38.103  1.00  0.00    -0.011 C 
ATOM     10  C   UNL     1       3.174 -15.978 -39.133  1.00  0.00     0.008 C 
BRANCH   9  11
ATOM     11  C   UNL     1       4.266 -18.297 -38.763  1.00  0.00    -0.002 C 
ATOM     12  C   UNL     1       3.560 -19.522 -38.149  1.00  0.00     0.005 C 
ATOM     13  C   UNL     1       5.794 -18.649 -38.703  1.00  0.00    -0.026 C 
ATOM     14  C   UNL     1       4.513 -20.706 -38.248  1.00  0.00     0.005 C 
ATOM     15  C   UNL     1       5.787 -20.189 -38.919  1.00  0.00    -0.001 C 
ATOM     16  C   UNL     1       6.393 -18.305 -37.303  1.00  0.00     0.007 C 
ATOM     17  C   UNL     1       6.581 -17.936 -39.850  1.00  0.00     0.012 C 
ATOM     18  C   UNL     1       7.062 -20.964 -38.461  1.00  0.00     0.000 C 
ATOM     19  C   UNL     1       7.727 -19.001 -37.004  1.00  0.00     0.005 C 
ATOM     20  C   UNL     1       7.577 -20.543 -37.061  1.00  0.00     0.003 C 
ATOM     21  C   UNL     1       8.196 -20.844 -39.491  1.00  0.00     0.031 C 
ATOM     22  C   UNL     1       8.855 -21.391 -36.619  1.00  0.00    -0.008 C 
ATOM     23  C   UNL     1       9.370 -21.674 -39.090  1.00  0.00    -0.027 C 
ATOM     24  C   UNL     1       9.707 -21.890 -37.802  1.00  0.00    -0.065 C 
ATOM     25  C   UNL     1       8.351 -22.664 -35.861  1.00  0.00     0.014 C 
ATOM     26  C   UNL     1       9.764 -20.571 -35.661  1.00  0.00     0.016 C 
ATOM     27  C   UNL     1      10.820 -22.876 -37.505  1.00  0.00     0.063 C 
ATOM     28  C   UNL     1       9.454 -23.693 -35.541  1.00  0.00     0.033 C 
ATOM     29  C   UNL     1      10.235 -24.106 -36.798  1.00  0.00     0.118 C 
BRANCH  29  30
ATOM     30  O   UNL     1      11.267 -24.982 -36.429  1.00  0.00    -0.393 OA
ATOM     31  H   UNL     1      11.349 -25.651 -37.159  1.00  0.00     0.210 HD
ENDBRANCH  29  30
ENDBRANCH   9  11
ENDBRANCH   1   9
TORSDOF 7
ENDMDL
MODEL 5
REMARK VINA RESULT:    -6.287      3.519      9.197
REMARK INTER + INTRA:         -10.032
REMARK INTER:                  -8.447
REMARK INTRA:                  -1.584
REMARK UNBOUND:                -1.356
REMARK SMILES CC[C@@H](CC[C@H](C)[C@@H]1CC[C@@H]2[C@H]3CC=C4C[C@@H](O)CC[C@]4(C)[C@H]3CC[C@@]21C)C(C)C
REMARK SMILES IDX 5 1 4 2 3 3 2 4 1 5 28 6 29 7 30 8 6 9 7 10 8 11 9 12 26 13
REMARK SMILES IDX 10 14 11 15 25 16 27 17 12 18 24 19 23 20 13 21 21 22 14 23
REMARK SMILES IDX 15 24 20 25 22 26 16 27 19 28 17 29 18 30
REMARK H PARENT 18 31
REMARK Flexibility Score: inf
ROOT
ATOM      1  C   UNL     1      11.145 -21.343 -37.107  1.00  0.00     0.004 C 
ENDROOT
BRANCH   1   2
ATOM      2  C   UNL     1      12.459 -22.048 -37.508  1.00  0.00     0.004 C 
BRANCH   2   3
ATOM      3  C   UNL     1      13.609 -21.058 -37.854  1.00  0.00    -0.009 C 
BRANCH   3   4
ATOM      4  C   UNL     1      13.192 -19.604 -37.498  1.00  0.00     0.000 C 
ATOM      5  C   UNL     1      13.133 -18.661 -38.702  1.00  0.00     0.004 C 
ENDBRANCH   3   4
BRANCH   3   6
ATOM      6  C   UNL     1      14.094 -21.206 -39.338  1.00  0.00    -0.014 C 
ATOM      7  C   UNL     1      13.168 -22.073 -40.206  1.00  0.00     0.007 C 
ATOM      8  C   UNL     1      15.543 -21.718 -39.429  1.00  0.00     0.007 C 
ENDBRANCH   3   6
ENDBRANCH   2   3
ENDBRANCH   1   2
BRANCH   1   9
ATOM      9  C   UNL     1       9.867 -22.161 -37.461  1.00  0.00    -0.011 C 
ATOM     10  C   UNL     1      10.275 -23.462 -38.183  1.00  0.00     0.008 C 
BRANCH   9  11
ATOM     11  C   UNL     1       8.867 -21.291 -38.314  1.00  0.00    -0.002 C 
ATOM     12  C   UNL     1       9.540 -20.020 -38.870  1.00  0.00     0.005 C 
ATOM     13  C   UNL     1       7.556 -20.776 -37.623  1.00  0.00    -0.026 C 
ATOM     14  C   UNL     1       8.467 -18.947 -39.004  1.00  0.00     0.005 C 
ATOM     15  C   UNL     1       7.156 -19.576 -38.527  1.00  0.00    -0.001 C 
ATOM     16  C   UNL     1       7.847 -20.283 -36.171  1.00  0.00     0.007 C 
ATOM     17  C   UNL     1       6.443 -21.873 -37.640  1.00  0.00     0.012 C 
ATOM     18  C   UNL     1       6.181 -18.527 -37.904  1.00  0.00     0.000 C 
ATOM     19  C   UNL     1       6.755 -19.375 -35.587  1.00  0.00     0.005 C 
ATOM     20  C   UNL     1       6.556 -18.109 -36.460  1.00  0.00     0.003 C 
ATOM     21  C   UNL     1       4.725 -19.017 -37.944  1.00  0.00     0.031 C 
ATOM     22  C   UNL     1       5.557 -17.007 -35.882  1.00  0.00    -0.008 C 
ATOM     23  C   UNL     1       3.795 -17.963 -37.442  1.00  0.00    -0.027 C 
ATOM     24  C   UNL     1       4.139 -17.082 -36.481  1.00  0.00    -0.065 C 
ATOM     25  C   UNL     1       6.126 -15.597 -36.255  1.00  0.00     0.014 C 
ATOM     26  C   UNL     1       5.451 -17.106 -34.335  1.00  0.00     0.016 C 
ATOM     27  C   UNL     1       3.176 -15.956 -36.160  1.00  0.00     0.063 C 
ATOM     28  C   UNL     1       5.175 -14.424 -35.943  1.00  0.00     0.033 C 
ATOM     29  C   UNL     1       3.795 -14.619 -36.589  1.00  0.00     0.118 C 
BRANCH  29  30
ATOM     30  O   UNL     1       2.957 -13.559 -36.208  1.00  0.00    -0.393 OA
ATOM     31  H   UNL     1       2.291 -13.935 -35.574  1.00  0.00     0.210 HD
ENDBRANCH  29  30
ENDBRANCH   9  11
ENDBRANCH   1   9
TORSDOF 7
ENDMDL
MODEL 6
REMARK VINA RESULT:    -6.234      1.809      2.847
REMARK INTER + INTRA:          -9.959
REMARK INTER:                  -9.108
REMARK INTRA:                  -0.851
REMARK UNBOUND:                -1.356
REMARK SMILES CC[C@@H](CC[C@H](C)[C@@H]1CC[C@@H]2[C@H]3CC=C4C[C@@H](O)CC[C@]4(C)[C@H]3CC[C@@]21C)C(C)C
REMARK SMILES IDX 5 1 4 2 3 3 2 4 1 5 28 6 29 7 30 8 6 9 7 10 8 11 9 12 26 13
REMARK SMILES IDX 10 14 11 15 25 16 27 17 12 18 24 19 23 20 13 21 21 22 14 23
REMARK SMILES IDX 15 24 20 25 22 26 16 27 19 28 17 29 18 30
REMARK H PARENT 18 31
REMARK Flexibility Score: inf
ROOT
ATOM      1  C   UNL     1       6.394 -19.411 -37.098  1.00  0.00     0.004 C 
ENDROOT
BRANCH   1   2
ATOM      2  C   UNL     1       6.392 -18.805 -35.677  1.00  0.00     0.004 C 
BRANCH   2   3
ATOM      3  C   UNL     1       5.855 -17.345 -35.631  1.00  0.00    -0.009 C 
BRANCH   3   4
ATOM      4  C   UNL     1       5.134 -17.079 -34.280  1.00  0.00     0.000 C 
ATOM      5  C   UNL     1       5.328 -15.661 -33.740  1.00  0.00     0.004 C 
ENDBRANCH   3   4
BRANCH   3   6
ATOM      6  C   UNL     1       4.965 -16.999 -36.874  1.00  0.00    -0.014 C 
ATOM      7  C   UNL     1       5.302 -15.643 -37.516  1.00  0.00     0.007 C 
ATOM      8  C   UNL     1       3.461 -17.076 -36.554  1.00  0.00     0.007 C 
ENDBRANCH   3   6
ENDBRANCH   2   3
ENDBRANCH   1   2
BRANCH   1   9
ATOM      9  C   UNL     1       7.475 -20.514 -37.302  1.00  0.00    -0.011 C 
ATOM     10  C   UNL     1       7.156 -21.718 -36.392  1.00  0.00     0.008 C 
BRANCH   9  11
ATOM     11  C   UNL     1       8.918 -19.935 -37.046  1.00  0.00    -0.002 C 
ATOM     12  C   UNL     1       9.177 -18.654 -37.866  1.00  0.00     0.005 C 
ATOM     13  C   UNL     1      10.152 -20.856 -37.349  1.00  0.00    -0.026 C 
ATOM     14  C   UNL     1      10.670 -18.585 -38.159  1.00  0.00     0.005 C 
ATOM     15  C   UNL     1      11.302 -19.822 -37.517  1.00  0.00    -0.001 C 
ATOM     16  C   UNL     1       9.944 -21.651 -38.675  1.00  0.00     0.007 C 
ATOM     17  C   UNL     1      10.444 -21.814 -36.149  1.00  0.00     0.012 C 
ATOM     18  C   UNL     1      12.572 -20.311 -38.280  1.00  0.00     0.000 C 
ATOM     19  C   UNL     1      11.238 -22.222 -39.272  1.00  0.00     0.005 C 
ATOM     20  C   UNL     1      12.255 -21.093 -39.580  1.00  0.00     0.003 C 
ATOM     21  C   UNL     1      13.487 -21.151 -37.375  1.00  0.00     0.031 C 
ATOM     22  C   UNL     1      13.584 -21.535 -40.346  1.00  0.00    -0.008 C 
ATOM     23  C   UNL     1      14.745 -21.523 -38.087  1.00  0.00    -0.027 C 
ATOM     24  C   UNL     1      14.794 -21.745 -39.416  1.00  0.00    -0.065 C 
ATOM     25  C   UNL     1      13.974 -20.387 -41.337  1.00  0.00     0.014 C 
ATOM     26  C   UNL     1      13.351 -22.836 -41.163  1.00  0.00     0.016 C 
ATOM     27  C   UNL     1      16.151 -21.959 -40.059  1.00  0.00     0.063 C 
ATOM     28  C   UNL     1      15.349 -20.568 -42.012  1.00  0.00     0.033 C 
ATOM     29  C   UNL     1      16.470 -20.775 -40.982  1.00  0.00     0.118 C 
BRANCH  29  30
ATOM     30  O   UNL     1      17.676 -21.007 -41.659  1.00  0.00    -0.393 OA
ATOM     31  H   UNL     1      18.382 -20.514 -41.164  1.00  0.00     0.210 HD
ENDBRANCH  29  30
ENDBRANCH   9  11
ENDBRANCH   1   9
TORSDOF 7
ENDMDL
MODEL 7
REMARK VINA RESULT:    -6.224      1.456      2.159
REMARK INTER + INTRA:          -9.945
REMARK INTER:                  -7.743
REMARK INTRA:                  -2.202
REMARK UNBOUND:                -1.356
REMARK SMILES CC[C@@H](CC[C@H](C)[C@@H]1CC[C@@H]2[C@H]3CC=C4C[C@@H](O)CC[C@]4(C)[C@H]3CC[C@@]21C)C(C)C
REMARK SMILES IDX 5 1 4 2 3 3 2 4 1 5 28 6 29 7 30 8 6 9 7 10 8 11 9 12 26 13
REMARK SMILES IDX 10 14 11 15 25 16 27 17 12 18 24 19 23 20 13 21 21 22 14 23
REMARK SMILES IDX 15 24 20 25 22 26 16 27 19 28 17 29 18 30
REMARK H PARENT 18 31
REMARK Flexibility Score: inf
ROOT
ATOM      1  C   UNL     1       6.704 -18.845 -36.398  1.00  0.00     0.004 C 
ENDROOT
BRANCH   1   2
ATOM      2  C   UNL     1       6.878 -17.551 -37.224  1.00  0.00     0.004 C 
BRANCH   2   3
ATOM      3  C   UNL     1       7.273 -17.814 -38.706  1.00  0.00    -0.009 C 
BRANCH   3   4
ATOM      4  C   UNL     1       8.690 -17.245 -38.994  1.00  0.00     0.000 C 
ATOM      5  C   UNL     1       9.806 -17.920 -38.193  1.00  0.00     0.004 C 
ENDBRANCH   3   4
BRANCH   3   6
ATOM      6  C   UNL     1       6.191 -17.290 -39.712  1.00  0.00    -0.014 C 
ATOM      7  C   UNL     1       5.152 -16.357 -39.069  1.00  0.00     0.007 C 
ATOM      8  C   UNL     1       5.487 -18.436 -40.461  1.00  0.00     0.007 C 
ENDBRANCH   3   6
ENDBRANCH   2   3
ENDBRANCH   1   2
BRANCH   1   9
ATOM      9  C   UNL     1       6.665 -20.137 -37.268  1.00  0.00    -0.011 C 
ATOM     10  C   UNL     1       5.218 -20.668 -37.332  1.00  0.00     0.008 C 
BRANCH   9  11
ATOM     11  C   UNL     1       7.674 -21.214 -36.712  1.00  0.00    -0.002 C 
ATOM     12  C   UNL     1       8.795 -20.571 -35.872  1.00  0.00     0.005 C 
ATOM     13  C   UNL     1       8.425 -22.128 -37.743  1.00  0.00    -0.026 C 
ATOM     14  C   UNL     1      10.035 -21.447 -36.003  1.00  0.00     0.005 C 
ATOM     15  C   UNL     1       9.654 -22.611 -36.922  1.00  0.00    -0.001 C 
ATOM     16  C   UNL     1       8.895 -21.304 -38.982  1.00  0.00     0.007 C 
ATOM     17  C   UNL     1       7.537 -23.342 -38.169  1.00  0.00     0.012 C 
ATOM     18  C   UNL     1      10.870 -23.151 -37.738  1.00  0.00     0.000 C 
ATOM     19  C   UNL     1       9.992 -21.989 -39.810  1.00  0.00     0.005 C 
ATOM     20  C   UNL     1      11.251 -22.263 -38.949  1.00  0.00     0.003 C 
ATOM     21  C   UNL     1      10.639 -24.597 -38.204  1.00  0.00     0.031 C 
ATOM     22  C   UNL     1      12.524 -22.833 -39.726  1.00  0.00    -0.008 C 
ATOM     23  C   UNL     1      11.850 -25.135 -38.891  1.00  0.00    -0.027 C 
ATOM     24  C   UNL     1      12.681 -24.362 -39.619  1.00  0.00    -0.065 C 
ATOM     25  C   UNL     1      13.805 -22.205 -39.081  1.00  0.00     0.014 C 
ATOM     26  C   UNL     1      12.482 -22.440 -41.229  1.00  0.00     0.016 C 
ATOM     27  C   UNL     1      13.965 -24.978 -40.141  1.00  0.00     0.063 C 
ATOM     28  C   UNL     1      15.132 -22.806 -39.586  1.00  0.00     0.033 C 
ATOM     29  C   UNL     1      15.163 -24.334 -39.432  1.00  0.00     0.118 C 
BRANCH  29  30
ATOM     30  O   UNL     1      16.361 -24.824 -39.975  1.00  0.00    -0.393 OA
ATOM     31  H   UNL     1      16.142 -25.684 -40.422  1.00  0.00     0.210 HD
ENDBRANCH  29  30
ENDBRANCH   9  11
ENDBRANCH   1   9
TORSDOF 7
ENDMDL
MODEL 8
REMARK VINA RESULT:    -6.097      3.909      8.884
REMARK INTER + INTRA:          -9.770
REMARK INTER:                  -7.468
REMARK INTRA:                  -2.301
REMARK UNBOUND:                -1.356
REMARK SMILES CC[C@@H](CC[C@H](C)[C@@H]1CC[C@@H]2[C@H]3CC=C4C[C@@H](O)CC[C@]4(C)[C@H]3CC[C@@]21C)C(C)C
REMARK SMILES IDX 5 1 4 2 3 3 2 4 1 5 28 6 29 7 30 8 6 9 7 10 8 11 9 12 26 13
REMARK SMILES IDX 10 14 11 15 25 16 27 17 12 18 24 19 23 20 13 21 21 22 14 23
REMARK SMILES IDX 15 24 20 25 22 26 16 27 19 28 17 29 18 30
REMARK H PARENT 18 31
REMARK Flexibility Score: inf
ROOT
ATOM      1  C   UNL     1       9.693 -21.635 -39.518  1.00  0.00     0.004 C 
ENDROOT
BRANCH   1   2
ATOM      2  C   UNL     1      10.816 -21.879 -38.485  1.00  0.00     0.004 C 
BRANCH   2   3
ATOM      3  C   UNL     1      11.196 -20.605 -37.676  1.00  0.00    -0.009 C 
BRANCH   3   4
ATOM      4  C   UNL     1      10.359 -20.529 -36.368  1.00  0.00     0.000 C 
ATOM      5  C   UNL     1      10.051 -21.893 -35.747  1.00  0.00     0.004 C 
ENDBRANCH   3   4
BRANCH   3   6
ATOM      6  C   UNL     1      11.095 -19.300 -38.539  1.00  0.00    -0.014 C 
ATOM      7  C   UNL     1      12.451 -18.623 -38.796  1.00  0.00     0.007 C 
ATOM      8  C   UNL     1      10.098 -18.286 -37.949  1.00  0.00     0.007 C 
ENDBRANCH   3   6
ENDBRANCH   2   3
ENDBRANCH   1   2
BRANCH   1   9
ATOM      9  C   UNL     1       8.295 -22.132 -39.045  1.00  0.00    -0.011 C 
ATOM     10  C   UNL     1       8.070 -23.576 -39.541  1.00  0.00     0.008 C 
BRANCH   9  11
ATOM     11  C   UNL     1       7.161 -21.150 -39.527  1.00  0.00    -0.002 C 
ATOM     12  C   UNL     1       7.739 -19.911 -40.241  1.00  0.00     0.005 C 
ATOM     13  C   UNL     1       6.178 -20.566 -38.453  1.00  0.00    -0.026 C 
ATOM     14  C   UNL     1       6.776 -18.753 -40.013  1.00  0.00     0.005 C 
ATOM     15  C   UNL     1       5.626 -19.299 -39.164  1.00  0.00    -0.001 C 
ATOM     16  C   UNL     1       6.944 -20.164 -37.154  1.00  0.00     0.007 C 
ATOM     17  C   UNL     1       5.022 -21.572 -38.144  1.00  0.00     0.012 C 
ATOM     18  C   UNL     1       4.987 -18.207 -38.249  1.00  0.00     0.000 C 
ATOM     19  C   UNL     1       6.170 -19.202 -36.242  1.00  0.00     0.005 C 
ATOM     20  C   UNL     1       5.824 -17.886 -36.986  1.00  0.00     0.003 C 
ATOM     21  C   UNL     1       3.552 -18.580 -37.844  1.00  0.00     0.031 C 
ATOM     22  C   UNL     1       5.153 -16.737 -36.104  1.00  0.00    -0.008 C 
ATOM     23  C   UNL     1       2.919 -17.481 -37.057  1.00  0.00    -0.027 C 
ATOM     24  C   UNL     1       3.619 -16.675 -36.234  1.00  0.00    -0.065 C 
ATOM     25  C   UNL     1       5.701 -15.360 -36.608  1.00  0.00     0.014 C 
ATOM     26  C   UNL     1       5.520 -16.898 -34.603  1.00  0.00     0.016 C 
ATOM     27  C   UNL     1       2.904 -15.492 -35.607  1.00  0.00     0.063 C 
ATOM     28  C   UNL     1       4.999 -14.132 -35.993  1.00  0.00     0.033 C 
ATOM     29  C   UNL     1       3.476 -14.190 -36.181  1.00  0.00     0.118 C 
BRANCH  29  30
ATOM     30  O   UNL     1       2.893 -13.087 -35.538  1.00  0.00    -0.393 OA
ATOM     31  H   UNL     1       3.338 -13.004 -34.654  1.00  0.00     0.210 HD
ENDBRANCH  29  30
ENDBRANCH   9  11
ENDBRANCH   1   9
TORSDOF 7
ENDMDL
