MODEL 1
REMARK VINA RESULT:    -8.631      0.000      0.000
REMARK INTER + INTRA:          -9.388
REMARK INTER:                  -9.388
REMARK INTRA:                   0.000
REMARK UNBOUND:                 0.000
REMARK SMILES C[C@@H]1CC[C@H]2[N@H+](C1)C[C@@H]1[C@@H]3C[C@@H]4[C@H](C[C@H](O)[C@@H]5C[C@H](O)CC[C@@]45C)[C@H]3CC[C@H]1[C@@]2(C)O
REMARK SMILES IDX 5 1 6 2 8 3 7 4 4 5 29 6 3 7 28 8 30 9 2 10 27 11 9 12 1 13
REMARK SMILES IDX 26 14 10 15 25 16 11 17 13 18 12 19 14 20 23 21 15 22 17 23
REMARK SMILES IDX 22 24 24 25 18 26 21 27 19 28 31 30 16 32 20 34
REMARK H PARENT 6 29 31 31 16 33 20 35
REMARK Flexibility Score: inf
ROOT
ATOM      1  C   UNL     1      19.827  13.958  -6.229  1.00  0.00     0.216 C 
ATOM      2  N   UNL     1      18.710  14.186  -7.196  1.00  0.00    -0.330 N 
ATOM      3  C   UNL     1      18.556  15.619  -7.548  1.00  0.00     0.266 C 
ATOM      4  C   UNL     1      18.909  13.423  -8.453  1.00  0.00     0.265 C 
ATOM      5  C   UNL     1      19.967  12.440  -5.924  1.00  0.00     0.069 C 
ATOM      6  C   UNL     1      19.635  14.801  -4.907  1.00  0.00     0.117 C 
ATOM      7  C   UNL     1      20.125  11.612  -7.200  1.00  0.00     0.015 C 
ATOM      8  C   UNL     1      19.487  16.305  -5.318  1.00  0.00     0.036 C 
ATOM      9  C   UNL     1      20.863  14.612  -3.973  1.00  0.00     0.049 C 
ATOM     10  C   UNL     1      19.018  11.906  -8.217  1.00  0.00     0.041 C 
ATOM     11  C   UNL     1      19.362  17.337  -4.153  1.00  0.00     0.007 C 
ATOM     12  C   UNL     1      18.289  16.468  -6.299  1.00  0.00     0.054 C 
ATOM     13  C   UNL     1      17.676  11.272  -7.819  1.00  0.00     0.013 C 
ATOM     14  C   UNL     1      19.375  18.810  -4.653  1.00  0.00     0.004 C 
ATOM     15  C   UNL     1      17.952  17.975  -6.553  1.00  0.00     0.002 C 
ATOM     16  C   UNL     1      19.105  18.904  -6.165  1.00  0.00    -0.004 C 
ATOM     17  C   UNL     1      17.470  18.475  -7.938  1.00  0.00     0.009 C 
ATOM     18  C   UNL     1      18.614  20.245  -6.688  1.00  0.00    -0.001 C 
ATOM     19  C   UNL     1      18.127  19.862  -8.090  1.00  0.00    -0.001 C 
ATOM     20  C   UNL     1      19.635  21.384  -6.772  1.00  0.00     0.036 C 
ATOM     21  C   UNL     1      17.357  21.027  -8.785  1.00  0.00    -0.024 C 
ATOM     22  C   UNL     1      19.000  22.616  -7.465  1.00  0.00     0.118 C 
ATOM     23  C   UNL     1      18.369  22.231  -8.841  1.00  0.00     0.026 C 
ATOM     24  C   UNL     1      17.017  20.625 -10.249  1.00  0.00     0.010 C 
ATOM     25  C   UNL     1      16.033  21.371  -8.035  1.00  0.00     0.012 C 
ATOM     26  C   UNL     1      17.799  23.436  -9.611  1.00  0.00     0.038 C 
ATOM     27  C   UNL     1      16.481  21.805 -11.085  1.00  0.00     0.032 C 
ATOM     28  C   UNL     1      17.429  23.021 -11.051  1.00  0.00     0.114 C 
ATOM     29  H   UNL     1      17.810  13.872  -6.760  1.00  0.00     0.348 HD
ENDROOT
BRANCH   6  30
ATOM     30  O   UNL     1      18.470  14.354  -4.250  1.00  0.00    -0.384 OA
ATOM     31  H   UNL     1      18.703  14.146  -3.309  1.00  0.00     0.211 HD
ENDBRANCH   6  30
BRANCH  22  32
ATOM     32  O   UNL     1      18.050  23.201  -6.611  1.00  0.00    -0.393 OA
ATOM     33  H   UNL     1      18.396  24.097  -6.360  1.00  0.00     0.210 HD
ENDBRANCH  22  32
BRANCH  28  34
ATOM     34  O   UNL     1      16.868  24.104 -11.750  1.00  0.00    -0.393 OA
ATOM     35  H   UNL     1      15.968  24.274 -11.367  1.00  0.00     0.210 HD
ENDBRANCH  28  34
TORSDOF 3
ENDMDL
MODEL 2
REMARK VINA RESULT:    -8.589      1.038      1.164
REMARK INTER + INTRA:          -9.342
REMARK INTER:                  -9.342
REMARK INTRA:                   0.000
REMARK UNBOUND:                 0.000
REMARK SMILES C[C@@H]1CC[C@H]2[N@H+](C1)C[C@@H]1[C@@H]3C[C@@H]4[C@H](C[C@H](O)[C@@H]5C[C@H](O)CC[C@@]45C)[C@H]3CC[C@H]1[C@@]2(C)O
REMARK SMILES IDX 5 1 6 2 8 3 7 4 4 5 29 6 3 7 28 8 30 9 2 10 27 11 9 12 1 13
REMARK SMILES IDX 26 14 10 15 25 16 11 17 13 18 12 19 14 20 23 21 15 22 17 23
REMARK SMILES IDX 22 24 24 25 18 26 21 27 19 28 31 30 16 32 20 34
REMARK H PARENT 6 29 31 31 16 33 20 35
REMARK Flexibility Score: inf
ROOT
ATOM      1  C   UNL     1      19.258  14.507  -4.791  1.00  0.00     0.216 C 
ATOM      2  N   UNL     1      18.222  14.632  -5.861  1.00  0.00    -0.330 N 
ATOM      3  C   UNL     1      18.177  15.996  -6.442  1.00  0.00     0.266 C 
ATOM      4  C   UNL     1      18.458  13.669  -6.965  1.00  0.00     0.265 C 
ATOM      5  C   UNL     1      19.287  13.052  -4.243  1.00  0.00     0.069 C 
ATOM      6  C   UNL     1      19.030  15.559  -3.634  1.00  0.00     0.117 C 
ATOM      7  C   UNL     1      19.479  12.025  -5.359  1.00  0.00     0.015 C 
ATOM      8  C   UNL     1      18.998  16.983  -4.283  1.00  0.00     0.036 C 
ATOM      9  C   UNL     1      20.180  15.463  -2.593  1.00  0.00     0.049 C 
ATOM     10  C   UNL     1      18.461  12.206  -6.490  1.00  0.00     0.041 C 
ATOM     11  C   UNL     1      18.858  18.192  -3.306  1.00  0.00     0.007 C 
ATOM     12  C   UNL     1      17.879  17.045  -5.364  1.00  0.00     0.054 C 
ATOM     13  C   UNL     1      17.061  11.708  -6.098  1.00  0.00     0.013 C 
ATOM     14  C   UNL     1      18.991  19.565  -4.027  1.00  0.00     0.004 C 
ATOM     15  C   UNL     1      17.649  18.507  -5.874  1.00  0.00     0.002 C 
ATOM     16  C   UNL     1      18.827  19.430  -5.551  1.00  0.00    -0.004 C 
ATOM     17  C   UNL     1      17.289  18.802  -7.352  1.00  0.00     0.009 C 
ATOM     18  C   UNL     1      18.452  20.691  -6.311  1.00  0.00    -0.001 C 
ATOM     19  C   UNL     1      18.036  20.113  -7.669  1.00  0.00    -0.001 C 
ATOM     20  C   UNL     1      19.542  21.753  -6.495  1.00  0.00     0.036 C 
ATOM     21  C   UNL     1      17.384  21.189  -8.592  1.00  0.00    -0.024 C 
ATOM     22  C   UNL     1      19.027  22.887  -7.417  1.00  0.00     0.118 C 
ATOM     23  C   UNL     1      18.467  22.319  -8.759  1.00  0.00     0.026 C 
ATOM     24  C   UNL     1      17.117  20.575  -9.997  1.00  0.00     0.010 C 
ATOM     25  C   UNL     1      16.036  21.711  -8.005  1.00  0.00     0.012 C 
ATOM     26  C   UNL     1      18.021  23.412  -9.748  1.00  0.00     0.038 C 
ATOM     27  C   UNL     1      16.708  21.631 -11.043  1.00  0.00     0.032 C 
ATOM     28  C   UNL     1      17.722  22.790 -11.129  1.00  0.00     0.114 C 
ATOM     29  H   UNL     1      17.279  14.435  -5.450  1.00  0.00     0.348 HD
ENDROOT
BRANCH   6  30
ATOM     30  O   UNL     1      17.800  15.279  -3.003  1.00  0.00    -0.384 OA
ATOM     31  H   UNL     1      17.111  15.884  -3.382  1.00  0.00     0.211 HD
ENDBRANCH   6  30
BRANCH  22  32
ATOM     32  O   UNL     1      18.060  23.646  -6.738  1.00  0.00    -0.393 OA
ATOM     33  H   UNL     1      17.185  23.198  -6.879  1.00  0.00     0.210 HD
ENDBRANCH  22  32
BRANCH  28  34
ATOM     34  O   UNL     1      17.273  23.773 -12.028  1.00  0.00    -0.393 OA
ATOM     35  H   UNL     1      16.283  23.721 -12.059  1.00  0.00     0.210 HD
ENDBRANCH  28  34
TORSDOF 3
ENDMDL
MODEL 3
REMARK VINA RESULT:    -8.324      5.936      9.923
REMARK INTER + INTRA:          -9.054
REMARK INTER:                  -9.054
REMARK INTRA:                   0.000
REMARK UNBOUND:                 0.000
REMARK SMILES C[C@@H]1CC[C@H]2[N@H+](C1)C[C@@H]1[C@@H]3C[C@@H]4[C@H](C[C@H](O)[C@@H]5C[C@H](O)CC[C@@]45C)[C@H]3CC[C@H]1[C@@]2(C)O
REMARK SMILES IDX 5 1 6 2 8 3 7 4 4 5 29 6 3 7 28 8 30 9 2 10 27 11 9 12 1 13
REMARK SMILES IDX 26 14 10 15 25 16 11 17 13 18 12 19 14 20 23 21 15 22 17 23
REMARK SMILES IDX 22 24 24 25 18 26 21 27 19 28 31 30 16 32 20 34
REMARK H PARENT 6 29 31 31 16 33 20 35
REMARK Flexibility Score: inf
ROOT
ATOM      1  C   UNL     1      12.327  25.372  -2.590  1.00  0.00     0.216 C 
ATOM      2  N   UNL     1      13.817  25.346  -2.706  1.00  0.00    -0.330 N 
ATOM      3  C   UNL     1      14.269  24.774  -3.998  1.00  0.00     0.266 C 
ATOM      4  C   UNL     1      14.400  26.704  -2.575  1.00  0.00     0.265 C 
ATOM      5  C   UNL     1      11.908  26.012  -1.236  1.00  0.00     0.069 C 
ATOM      6  C   UNL     1      11.702  23.932  -2.770  1.00  0.00     0.117 C 
ATOM      7  C   UNL     1      12.530  27.395  -1.041  1.00  0.00     0.015 C 
ATOM      8  C   UNL     1      12.193  23.367  -4.145  1.00  0.00     0.036 C 
ATOM      9  C   UNL     1      10.151  24.017  -2.740  1.00  0.00     0.049 C 
ATOM     10  C   UNL     1      14.049  27.376  -1.236  1.00  0.00     0.041 C 
ATOM     11  C   UNL     1      11.632  21.973  -4.567  1.00  0.00     0.007 C 
ATOM     12  C   UNL     1      13.750  23.343  -4.180  1.00  0.00     0.054 C 
ATOM     13  C   UNL     1      14.781  26.737  -0.044  1.00  0.00     0.013 C 
ATOM     14  C   UNL     1      12.053  21.568  -6.009  1.00  0.00     0.004 C 
ATOM     15  C   UNL     1      14.287  22.571  -5.432  1.00  0.00     0.002 C 
ATOM     16  C   UNL     1      13.226  22.421  -6.524  1.00  0.00    -0.004 C 
ATOM     17  C   UNL     1      15.574  23.020  -6.168  1.00  0.00     0.009 C 
ATOM     18  C   UNL     1      14.039  21.841  -7.670  1.00  0.00    -0.001 C 
ATOM     19  C   UNL     1      15.272  22.751  -7.656  1.00  0.00    -0.001 C 
ATOM     20  C   UNL     1      13.394  21.839  -9.060  1.00  0.00     0.036 C 
ATOM     21  C   UNL     1      16.395  22.236  -8.608  1.00  0.00    -0.024 C 
ATOM     22  C   UNL     1      14.418  21.358 -10.119  1.00  0.00     0.118 C 
ATOM     23  C   UNL     1      15.744  22.177 -10.040  1.00  0.00     0.026 C 
ATOM     24  C   UNL     1      17.554  23.274  -8.655  1.00  0.00     0.010 C 
ATOM     25  C   UNL     1      16.967  20.863  -8.136  1.00  0.00     0.012 C 
ATOM     26  C   UNL     1      16.765  21.796 -11.129  1.00  0.00     0.038 C 
ATOM     27  C   UNL     1      18.587  22.968  -9.758  1.00  0.00     0.032 C 
ATOM     28  C   UNL     1      17.930  22.809 -11.145  1.00  0.00     0.114 C 
ATOM     29  H   UNL     1      14.209  24.745  -1.943  1.00  0.00     0.348 HD
ENDROOT
BRANCH   6  30
ATOM     30  O   UNL     1      12.149  23.110  -1.714  1.00  0.00    -0.384 OA
ATOM     31  H   UNL     1      11.523  23.215  -0.952  1.00  0.00     0.211 HD
ENDBRANCH   6  30
BRANCH  22  32
ATOM     32  O   UNL     1      14.654  19.983  -9.958  1.00  0.00    -0.393 OA
ATOM     33  H   UNL     1      15.297  19.883  -9.208  1.00  0.00     0.210 HD
ENDBRANCH  22  32
BRANCH  28  34
ATOM     34  O   UNL     1      18.888  22.447 -12.106  1.00  0.00    -0.393 OA
ATOM     35  H   UNL     1      19.059  23.242 -12.675  1.00  0.00     0.210 HD
ENDBRANCH  28  34
TORSDOF 3
ENDMDL
MODEL 4
REMARK VINA RESULT:    -8.242      2.825      8.685
REMARK INTER + INTRA:          -8.965
REMARK INTER:                  -8.965
REMARK INTRA:                   0.000
REMARK UNBOUND:                 0.000
REMARK SMILES C[C@@H]1CC[C@H]2[N@H+](C1)C[C@@H]1[C@@H]3C[C@@H]4[C@H](C[C@H](O)[C@@H]5C[C@H](O)CC[C@@]45C)[C@H]3CC[C@H]1[C@@]2(C)O
REMARK SMILES IDX 5 1 6 2 8 3 7 4 4 5 29 6 3 7 28 8 30 9 2 10 27 11 9 12 1 13
REMARK SMILES IDX 26 14 10 15 25 16 11 17 13 18 12 19 14 20 23 21 15 22 17 23
REMARK SMILES IDX 22 24 24 25 18 26 21 27 19 28 31 30 16 32 20 34
REMARK H PARENT 6 29 31 31 16 33 20 35
REMARK Flexibility Score: inf
ROOT
ATOM      1  C   UNL     1      15.437  22.689 -10.338  1.00  0.00     0.216 C 
ATOM      2  N   UNL     1      14.674  21.404 -10.350  1.00  0.00    -0.330 N 
ATOM      3  C   UNL     1      15.150  20.459  -9.311  1.00  0.00     0.266 C 
ATOM      4  C   UNL     1      13.223  21.627 -10.138  1.00  0.00     0.265 C 
ATOM      5  C   UNL     1      14.875  23.655 -11.419  1.00  0.00     0.069 C 
ATOM      6  C   UNL     1      16.988  22.449 -10.523  1.00  0.00     0.117 C 
ATOM      7  C   UNL     1      13.369  23.872 -11.264  1.00  0.00     0.015 C 
ATOM      8  C   UNL     1      17.454  21.456  -9.406  1.00  0.00     0.036 C 
ATOM      9  C   UNL     1      17.753  23.796 -10.407  1.00  0.00     0.049 C 
ATOM     10  C   UNL     1      12.600  22.548 -11.202  1.00  0.00     0.041 C 
ATOM     11  C   UNL     1      18.980  21.134  -9.352  1.00  0.00     0.007 C 
ATOM     12  C   UNL     1      16.637  20.134  -9.500  1.00  0.00     0.054 C 
ATOM     13  C   UNL     1      12.491  21.872 -12.578  1.00  0.00     0.013 C 
ATOM     14  C   UNL     1      19.367  20.266  -8.120  1.00  0.00     0.004 C 
ATOM     15  C   UNL     1      17.223  19.025  -8.563  1.00  0.00     0.002 C 
ATOM     16  C   UNL     1      18.136  19.601  -7.478  1.00  0.00    -0.004 C 
ATOM     17  C   UNL     1      16.304  18.014  -7.833  1.00  0.00     0.009 C 
ATOM     18  C   UNL     1      18.395  18.381  -6.609  1.00  0.00    -0.001 C 
ATOM     19  C   UNL     1      16.980  17.810  -6.462  1.00  0.00    -0.001 C 
ATOM     20  C   UNL     1      19.019  18.619  -5.230  1.00  0.00     0.036 C 
ATOM     21  C   UNL     1      16.980  16.405  -5.784  1.00  0.00    -0.024 C 
ATOM     22  C   UNL     1      19.066  17.291  -4.433  1.00  0.00     0.118 C 
ATOM     23  C   UNL     1      17.662  16.610  -4.381  1.00  0.00     0.026 C 
ATOM     24  C   UNL     1      15.513  15.947  -5.537  1.00  0.00     0.010 C 
ATOM     25  C   UNL     1      17.699  15.338  -6.668  1.00  0.00     0.012 C 
ATOM     26  C   UNL     1      17.635  15.329  -3.527  1.00  0.00     0.038 C 
ATOM     27  C   UNL     1      15.420  14.690  -4.649  1.00  0.00     0.032 C 
ATOM     28  C   UNL     1      16.179  14.860  -3.316  1.00  0.00     0.114 C 
ATOM     29  H   UNL     1      14.802  20.938 -11.280  1.00  0.00     0.348 HD
ENDROOT
BRANCH   6  30
ATOM     30  O   UNL     1      17.210  21.890 -11.800  1.00  0.00    -0.384 OA
ATOM     31  H   UNL     1      17.560  22.602 -12.395  1.00  0.00     0.211 HD
ENDBRANCH   6  30
BRANCH  22  32
ATOM     32  O   UNL     1      20.030  16.437  -4.994  1.00  0.00    -0.393 OA
ATOM     33  H   UNL     1      20.793  17.005  -5.280  1.00  0.00     0.210 HD
ENDBRANCH  22  32
BRANCH  28  34
ATOM     34  O   UNL     1      16.145  13.667  -2.574  1.00  0.00    -0.393 OA
ATOM     35  H   UNL     1      15.755  13.878  -1.686  1.00  0.00     0.210 HD
ENDBRANCH  28  34
TORSDOF 3
ENDMDL
MODEL 5
REMARK VINA RESULT:    -8.175      5.599      9.022
REMARK INTER + INTRA:          -8.892
REMARK INTER:                  -8.892
REMARK INTRA:                   0.000
REMARK UNBOUND:                 0.000
REMARK SMILES C[C@@H]1CC[C@H]2[N@H+](C1)C[C@@H]1[C@@H]3C[C@@H]4[C@H](C[C@H](O)[C@@H]5C[C@H](O)CC[C@@]45C)[C@H]3CC[C@H]1[C@@]2(C)O
REMARK SMILES IDX 5 1 6 2 8 3 7 4 4 5 29 6 3 7 28 8 30 9 2 10 27 11 9 12 1 13
REMARK SMILES IDX 26 14 10 15 25 16 11 17 13 18 12 19 14 20 23 21 15 22 17 23
REMARK SMILES IDX 22 24 24 25 18 26 21 27 19 28 31 30 16 32 20 34
REMARK H PARENT 6 29 31 31 16 33 20 35
REMARK Flexibility Score: inf
ROOT
ATOM      1  C   UNL     1       9.973  22.198  -4.210  1.00  0.00     0.216 C 
ATOM      2  N   UNL     1      10.261  22.487  -5.648  1.00  0.00    -0.330 N 
ATOM      3  C   UNL     1      11.673  22.205  -6.005  1.00  0.00     0.266 C 
ATOM      4  C   UNL     1       9.391  21.693  -6.551  1.00  0.00     0.265 C 
ATOM      5  C   UNL     1       8.474  22.476  -3.900  1.00  0.00     0.069 C 
ATOM      6  C   UNL     1      10.926  23.013  -3.249  1.00  0.00     0.117 C 
ATOM      7  C   UNL     1       7.544  21.712  -4.843  1.00  0.00     0.015 C 
ATOM      8  C   UNL     1      12.402  22.683  -3.649  1.00  0.00     0.036 C 
ATOM      9  C   UNL     1      10.661  22.612  -1.771  1.00  0.00     0.049 C 
ATOM     10  C   UNL     1       7.893  21.954  -6.316  1.00  0.00     0.041 C 
ATOM     11  C   UNL     1      13.523  23.326  -2.773  1.00  0.00     0.007 C 
ATOM     12  C   UNL     1      12.635  23.036  -5.148  1.00  0.00     0.054 C 
ATOM     13  C   UNL     1       7.452  23.344  -6.799  1.00  0.00     0.013 C 
ATOM     14  C   UNL     1      14.945  22.818  -3.150  1.00  0.00     0.004 C 
ATOM     15  C   UNL     1      14.150  22.948  -5.534  1.00  0.00     0.002 C 
ATOM     16  C   UNL     1      14.962  22.130  -4.527  1.00  0.00    -0.004 C 
ATOM     17  C   UNL     1      14.602  22.447  -6.929  1.00  0.00     0.009 C 
ATOM     18  C   UNL     1      16.309  22.028  -5.222  1.00  0.00    -0.001 C 
ATOM     19  C   UNL     1      15.886  21.643  -6.644  1.00  0.00    -0.001 C 
ATOM     20  C   UNL     1      17.311  21.009  -4.669  1.00  0.00     0.036 C 
ATOM     21  C   UNL     1      17.082  21.686  -7.646  1.00  0.00    -0.024 C 
ATOM     22  C   UNL     1      18.556  20.937  -5.590  1.00  0.00     0.118 C 
ATOM     23  C   UNL     1      18.151  20.682  -7.075  1.00  0.00     0.026 C 
ATOM     24  C   UNL     1      16.618  21.150  -9.031  1.00  0.00     0.010 C 
ATOM     25  C   UNL     1      17.633  23.135  -7.824  1.00  0.00     0.012 C 
ATOM     26  C   UNL     1      19.356  20.516  -8.019  1.00  0.00     0.038 C 
ATOM     27  C   UNL     1      17.790  20.923 -10.007  1.00  0.00     0.032 C 
ATOM     28  C   UNL     1      18.885  20.020  -9.403  1.00  0.00     0.114 C 
ATOM     29  H   UNL     1      10.087  23.503  -5.835  1.00  0.00     0.348 HD
ENDROOT
BRANCH   6  30
ATOM     30  O   UNL     1      10.668  24.390  -3.417  1.00  0.00    -0.384 OA
ATOM     31  H   UNL     1       9.983  24.494  -4.127  1.00  0.00     0.211 HD
ENDBRANCH   6  30
BRANCH  22  32
ATOM     32  O   UNL     1      19.310  22.116  -5.459  1.00  0.00    -0.393 OA
ATOM     33  H   UNL     1      20.188  21.951  -5.892  1.00  0.00     0.210 HD
ENDBRANCH  22  32
BRANCH  28  34
ATOM     34  O   UNL     1      19.973  19.905 -10.285  1.00  0.00    -0.393 OA
ATOM     35  H   UNL     1      19.831  19.090 -10.833  1.00  0.00     0.210 HD
ENDBRANCH  28  34
TORSDOF 3
ENDMDL
MODEL 6
REMARK VINA RESULT:    -8.033      6.529     10.212
REMARK INTER + INTRA:          -8.737
REMARK INTER:                  -8.737
REMARK INTRA:                   0.000
REMARK UNBOUND:                 0.000
REMARK SMILES C[C@@H]1CC[C@H]2[N@H+](C1)C[C@@H]1[C@@H]3C[C@@H]4[C@H](C[C@H](O)[C@@H]5C[C@H](O)CC[C@@]45C)[C@H]3CC[C@H]1[C@@]2(C)O
REMARK SMILES IDX 5 1 6 2 8 3 7 4 4 5 29 6 3 7 28 8 30 9 2 10 27 11 9 12 1 13
REMARK SMILES IDX 26 14 10 15 25 16 11 17 13 18 12 19 14 20 23 21 15 22 17 23
REMARK SMILES IDX 22 24 24 25 18 26 21 27 19 28 31 30 16 32 20 34
REMARK H PARENT 6 29 31 31 16 33 20 35
REMARK Flexibility Score: inf
ROOT
ATOM      1  C   UNL     1      15.639  21.614 -10.097  1.00  0.00     0.216 C 
ATOM      2  N   UNL     1      15.743  22.524  -8.916  1.00  0.00    -0.330 N 
ATOM      3  C   UNL     1      14.605  22.360  -7.979  1.00  0.00     0.266 C 
ATOM      4  C   UNL     1      16.998  22.297  -8.158  1.00  0.00     0.265 C 
ATOM      5  C   UNL     1      16.873  21.801 -11.025  1.00  0.00     0.069 C 
ATOM      6  C   UNL     1      14.284  21.828 -10.881  1.00  0.00     0.117 C 
ATOM      7  C   UNL     1      18.190  21.624 -10.269  1.00  0.00     0.015 C 
ATOM      8  C   UNL     1      13.110  21.637  -9.864  1.00  0.00     0.036 C 
ATOM      9  C   UNL     1      14.172  20.799 -12.040  1.00  0.00     0.049 C 
ATOM     10  C   UNL     1      18.258  22.504  -9.017  1.00  0.00     0.041 C 
ATOM     11  C   UNL     1      11.663  21.730 -10.444  1.00  0.00     0.007 C 
ATOM     12  C   UNL     1      13.269  22.636  -8.680  1.00  0.00     0.054 C 
ATOM     13  C   UNL     1      18.505  23.983  -9.357  1.00  0.00     0.013 C 
ATOM     14  C   UNL     1      10.571  21.375  -9.393  1.00  0.00     0.004 C 
ATOM     15  C   UNL     1      12.002  22.650  -7.761  1.00  0.00     0.002 C 
ATOM     16  C   UNL     1      11.126  21.411  -7.957  1.00  0.00    -0.004 C 
ATOM     17  C   UNL     1      12.115  22.834  -6.228  1.00  0.00     0.009 C 
ATOM     18  C   UNL     1      10.109  21.567  -6.838  1.00  0.00    -0.001 C 
ATOM     19  C   UNL     1      11.017  21.917  -5.653  1.00  0.00    -0.001 C 
ATOM     20  C   UNL     1       9.239  20.351  -6.502  1.00  0.00     0.036 C 
ATOM     21  C   UNL     1      10.202  22.354  -4.397  1.00  0.00    -0.024 C 
ATOM     22  C   UNL     1       8.380  20.645  -5.246  1.00  0.00     0.118 C 
ATOM     23  C   UNL     1       9.261  21.139  -4.056  1.00  0.00     0.026 C 
ATOM     24  C   UNL     1      11.170  22.556  -3.195  1.00  0.00     0.010 C 
ATOM     25  C   UNL     1       9.424  23.683  -4.647  1.00  0.00     0.012 C 
ATOM     26  C   UNL     1       8.466  21.363  -2.757  1.00  0.00     0.038 C 
ATOM     27  C   UNL     1      10.430  22.743  -1.855  1.00  0.00     0.032 C 
ATOM     28  C   UNL     1       9.432  21.600  -1.576  1.00  0.00     0.114 C 
ATOM     29  H   UNL     1      15.735  23.518  -9.247  1.00  0.00     0.348 HD
ENDROOT
BRANCH   6  30
ATOM     30  O   UNL     1      14.269  23.136 -11.409  1.00  0.00    -0.384 OA
ATOM     31  H   UNL     1      13.539  23.641 -10.968  1.00  0.00     0.211 HD
ENDBRANCH   6  30
BRANCH  22  32
ATOM     32  O   UNL     1       7.380  21.580  -5.566  1.00  0.00    -0.393 OA
ATOM     33  H   UNL     1       7.262  22.164  -4.772  1.00  0.00     0.210 HD
ENDBRANCH  22  32
BRANCH  28  34
ATOM     34  O   UNL     1       8.715  21.848  -0.393  1.00  0.00    -0.393 OA
ATOM     35  H   UNL     1       7.750  21.869  -0.625  1.00  0.00     0.210 HD
ENDBRANCH  28  34
TORSDOF 3
ENDMDL
MODEL 7
REMARK VINA RESULT:    -7.699      2.154      8.433
REMARK INTER + INTRA:          -8.374
REMARK INTER:                  -8.374
REMARK INTRA:                   0.000
REMARK UNBOUND:                 0.000
REMARK SMILES C[C@@H]1CC[C@H]2[N@H+](C1)C[C@@H]1[C@@H]3C[C@@H]4[C@H](C[C@H](O)[C@@H]5C[C@H](O)CC[C@@]45C)[C@H]3CC[C@H]1[C@@]2(C)O
REMARK SMILES IDX 5 1 6 2 8 3 7 4 4 5 29 6 3 7 28 8 30 9 2 10 27 11 9 12 1 13
REMARK SMILES IDX 26 14 10 15 25 16 11 17 13 18 12 19 14 20 23 21 15 22 17 23
REMARK SMILES IDX 22 24 24 25 18 26 21 27 19 28 31 30 16 32 20 34
REMARK H PARENT 6 29 31 31 16 33 20 35
REMARK Flexibility Score: inf
ROOT
ATOM      1  C   UNL     1      17.468  22.661  -8.775  1.00  0.00     0.216 C 
ATOM      2  N   UNL     1      18.384  21.706  -9.470  1.00  0.00    -0.330 N 
ATOM      3  C   UNL     1      18.451  20.393  -8.784  1.00  0.00     0.266 C 
ATOM      4  C   UNL     1      17.966  21.471 -10.874  1.00  0.00     0.265 C 
ATOM      5  C   UNL     1      17.407  24.006  -9.554  1.00  0.00     0.069 C 
ATOM      6  C   UNL     1      17.890  22.882  -7.268  1.00  0.00     0.117 C 
ATOM      7  C   UNL     1      17.027  23.800 -11.020  1.00  0.00     0.015 C 
ATOM      8  C   UNL     1      17.940  21.478  -6.577  1.00  0.00     0.036 C 
ATOM      9  C   UNL     1      16.859  23.801  -6.556  1.00  0.00     0.049 C 
ATOM     10  C   UNL     1      17.922  22.764 -11.707  1.00  0.00     0.041 C 
ATOM     11  C   UNL     1      18.265  21.464  -5.050  1.00  0.00     0.007 C 
ATOM     12  C   UNL     1      18.934  20.551  -7.337  1.00  0.00     0.054 C 
ATOM     13  C   UNL     1      19.323  23.316 -12.015  1.00  0.00     0.013 C 
ATOM     14  C   UNL     1      18.141  20.045  -4.423  1.00  0.00     0.004 C 
ATOM     15  C   UNL     1      19.199  19.222  -6.553  1.00  0.00     0.002 C 
ATOM     16  C   UNL     1      18.126  18.943  -5.498  1.00  0.00    -0.004 C 
ATOM     17  C   UNL     1      19.410  17.876  -7.289  1.00  0.00     0.009 C 
ATOM     18  C   UNL     1      18.493  17.541  -5.042  1.00  0.00    -0.001 C 
ATOM     19  C   UNL     1      18.718  16.836  -6.385  1.00  0.00    -0.001 C 
ATOM     20  C   UNL     1      17.460  16.778  -4.206  1.00  0.00     0.036 C 
ATOM     21  C   UNL     1      19.331  15.413  -6.207  1.00  0.00    -0.024 C 
ATOM     22  C   UNL     1      17.940  15.325  -3.966  1.00  0.00     0.118 C 
ATOM     23  C   UNL     1      18.310  14.619  -5.309  1.00  0.00     0.026 C 
ATOM     24  C   UNL     1      19.400  14.701  -7.589  1.00  0.00     0.010 C 
ATOM     25  C   UNL     1      20.766  15.474  -5.599  1.00  0.00     0.012 C 
ATOM     26  C   UNL     1      18.712  13.143  -5.134  1.00  0.00     0.038 C 
ATOM     27  C   UNL     1      19.756  13.205  -7.475  1.00  0.00     0.032 C 
ATOM     28  C   UNL     1      18.815  12.453  -6.512  1.00  0.00     0.114 C 
ATOM     29  H   UNL     1      19.353  22.105  -9.479  1.00  0.00     0.348 HD
ENDROOT
BRANCH   6  30
ATOM     30  O   UNL     1      19.163  23.490  -7.238  1.00  0.00    -0.384 OA
ATOM     31  H   UNL     1      19.819  22.822  -6.911  1.00  0.00     0.211 HD
ENDBRANCH   6  30
BRANCH  22  32
ATOM     32  O   UNL     1      19.024  15.326  -3.072  1.00  0.00    -0.393 OA
ATOM     33  H   UNL     1      19.357  14.393  -3.015  1.00  0.00     0.210 HD
ENDBRANCH  22  32
BRANCH  28  34
ATOM     34  O   UNL     1      19.222  11.116  -6.366  1.00  0.00    -0.393 OA
ATOM     35  H   UNL     1      18.973  10.634  -7.197  1.00  0.00     0.210 HD
ENDBRANCH  28  34
TORSDOF 3
ENDMDL
MODEL 8
REMARK VINA RESULT:    -7.583      2.384      4.357
REMARK INTER + INTRA:          -8.248
REMARK INTER:                  -8.248
REMARK INTRA:                   0.000
REMARK UNBOUND:                 0.000
REMARK SMILES C[C@@H]1CC[C@H]2[N@H+](C1)C[C@@H]1[C@@H]3C[C@@H]4[C@H](C[C@H](O)[C@@H]5C[C@H](O)CC[C@@]45C)[C@H]3CC[C@H]1[C@@]2(C)O
REMARK SMILES IDX 5 1 6 2 8 3 7 4 4 5 29 6 3 7 28 8 30 9 2 10 27 11 9 12 1 13
REMARK SMILES IDX 26 14 10 15 25 16 11 17 13 18 12 19 14 20 23 21 15 22 17 23
REMARK SMILES IDX 22 24 24 25 18 26 21 27 19 28 31 30 16 32 20 34
REMARK H PARENT 6 29 31 31 16 33 20 35
REMARK Flexibility Score: inf
ROOT
ATOM      1  C   UNL     1      18.233  14.836  -2.500  1.00  0.00     0.216 C 
ATOM      2  N   UNL     1      19.360  15.784  -2.752  1.00  0.00    -0.330 N 
ATOM      3  C   UNL     1      19.016  16.805  -3.772  1.00  0.00     0.266 C 
ATOM      4  C   UNL     1      19.769  16.491  -1.513  1.00  0.00     0.265 C 
ATOM      5  C   UNL     1      18.633  13.812  -1.400  1.00  0.00     0.069 C 
ATOM      6  C   UNL     1      17.771  14.113  -3.826  1.00  0.00     0.117 C 
ATOM      7  C   UNL     1      19.108  14.503  -0.121  1.00  0.00     0.015 C 
ATOM      8  C   UNL     1      17.408  15.220  -4.871  1.00  0.00     0.036 C 
ATOM      9  C   UNL     1      16.537  13.212  -3.539  1.00  0.00     0.049 C 
ATOM     10  C   UNL     1      20.212  15.529  -0.397  1.00  0.00     0.041 C 
ATOM     11  C   UNL     1      16.849  14.728  -6.243  1.00  0.00     0.007 C 
ATOM     12  C   UNL     1      18.636  16.149  -5.104  1.00  0.00     0.054 C 
ATOM     13  C   UNL     1      21.565  14.863  -0.693  1.00  0.00     0.013 C 
ATOM     14  C   UNL     1      16.375  15.898  -7.153  1.00  0.00     0.004 C 
ATOM     15  C   UNL     1      18.405  17.122  -6.308  1.00  0.00     0.002 C 
ATOM     16  C   UNL     1      16.925  17.254  -6.675  1.00  0.00    -0.004 C 
ATOM     17  C   UNL     1      18.956  18.570  -6.296  1.00  0.00     0.009 C 
ATOM     18  C   UNL     1      16.957  18.376  -7.700  1.00  0.00    -0.001 C 
ATOM     19  C   UNL     1      17.862  19.397  -7.001  1.00  0.00    -0.001 C 
ATOM     20  C   UNL     1      15.619  19.021  -8.080  1.00  0.00     0.036 C 
ATOM     21  C   UNL     1      18.250  20.580  -7.941  1.00  0.00    -0.024 C 
ATOM     22  C   UNL     1      15.862  20.236  -9.010  1.00  0.00     0.118 C 
ATOM     23  C   UNL     1      16.889  21.233  -8.387  1.00  0.00     0.026 C 
ATOM     24  C   UNL     1      19.046  21.646  -7.134  1.00  0.00     0.010 C 
ATOM     25  C   UNL     1      19.124  20.100  -9.141  1.00  0.00     0.012 C 
ATOM     26  C   UNL     1      17.102  22.502  -9.234  1.00  0.00     0.038 C 
ATOM     27  C   UNL     1      19.253  22.958  -7.916  1.00  0.00     0.032 C 
ATOM     28  C   UNL     1      17.924  23.540  -8.440  1.00  0.00     0.114 C 
ATOM     29  H   UNL     1      20.185  15.248  -3.112  1.00  0.00     0.348 HD
ENDROOT
BRANCH   6  30
ATOM     30  O   UNL     1      18.834  13.317  -4.302  1.00  0.00    -0.384 OA
ATOM     31  H   UNL     1      19.622  13.903  -4.443  1.00  0.00     0.211 HD
ENDBRANCH   6  30
BRANCH  22  32
ATOM     32  O   UNL     1      16.284  19.787 -10.273  1.00  0.00    -0.393 OA
ATOM     33  H   UNL     1      16.074  20.507 -10.924  1.00  0.00     0.210 HD
ENDBRANCH  22  32
BRANCH  28  34
ATOM     34  O   UNL     1      18.159  24.685  -9.219  1.00  0.00    -0.393 OA
ATOM     35  H   UNL     1      18.355  25.435  -8.599  1.00  0.00     0.210 HD
ENDBRANCH  28  34
TORSDOF 3
ENDMDL
MODEL 9
REMARK VINA RESULT:    -7.569      6.339      9.719
REMARK INTER + INTRA:          -8.233
REMARK INTER:                  -8.233
REMARK INTRA:                   0.000
REMARK UNBOUND:                 0.000
REMARK SMILES C[C@@H]1CC[C@H]2[N@H+](C1)C[C@@H]1[C@@H]3C[C@@H]4[C@H](C[C@H](O)[C@@H]5C[C@H](O)CC[C@@]45C)[C@H]3CC[C@H]1[C@@]2(C)O
REMARK SMILES IDX 5 1 6 2 8 3 7 4 4 5 29 6 3 7 28 8 30 9 2 10 27 11 9 12 1 13
REMARK SMILES IDX 26 14 10 15 25 16 11 17 13 18 12 19 14 20 23 21 15 22 17 23
REMARK SMILES IDX 22 24 24 25 18 26 21 27 19 28 31 30 16 32 20 34
REMARK H PARENT 6 29 31 31 16 33 20 35
REMARK Flexibility Score: inf
ROOT
ATOM      1  C   UNL     1       8.898  21.997  -4.909  1.00  0.00     0.216 C 
ATOM      2  N   UNL     1      10.291  21.963  -4.367  1.00  0.00    -0.330 N 
ATOM      3  C   UNL     1      11.311  22.109  -5.434  1.00  0.00     0.266 C 
ATOM      4  C   UNL     1      10.516  23.035  -3.366  1.00  0.00     0.265 C 
ATOM      5  C   UNL     1       7.871  21.877  -3.747  1.00  0.00     0.069 C 
ATOM      6  C   UNL     1       8.671  20.881  -6.004  1.00  0.00     0.117 C 
ATOM      7  C   UNL     1       8.101  22.935  -2.668  1.00  0.00     0.015 C 
ATOM      8  C   UNL     1       9.757  21.074  -7.114  1.00  0.00     0.036 C 
ATOM      9  C   UNL     1       7.246  21.013  -6.610  1.00  0.00     0.049 C 
ATOM     10  C   UNL     1       9.550  22.946  -2.171  1.00  0.00     0.041 C 
ATOM     11  C   UNL     1       9.673  20.118  -8.345  1.00  0.00     0.007 C 
ATOM     12  C   UNL     1      11.178  20.997  -6.481  1.00  0.00     0.054 C 
ATOM     13  C   UNL     1       9.859  21.755  -1.250  1.00  0.00     0.013 C 
ATOM     14  C   UNL     1      10.694  20.485  -9.461  1.00  0.00     0.004 C 
ATOM     15  C   UNL     1      12.296  20.947  -7.576  1.00  0.00     0.002 C 
ATOM     16  C   UNL     1      11.797  21.425  -8.942  1.00  0.00    -0.004 C 
ATOM     17  C   UNL     1      13.663  21.646  -7.370  1.00  0.00     0.009 C 
ATOM     18  C   UNL     1      13.086  21.473  -9.745  1.00  0.00    -0.001 C 
ATOM     19  C   UNL     1      14.025  22.189  -8.767  1.00  0.00    -0.001 C 
ATOM     20  C   UNL     1      13.052  22.210 -11.088  1.00  0.00     0.036 C 
ATOM     21  C   UNL     1      15.506  22.178  -9.258  1.00  0.00    -0.024 C 
ATOM     22  C   UNL     1      14.479  22.288 -11.687  1.00  0.00     0.118 C 
ATOM     23  C   UNL     1      15.493  22.889 -10.663  1.00  0.00     0.026 C 
ATOM     24  C   UNL     1      16.377  23.039  -8.298  1.00  0.00     0.010 C 
ATOM     25  C   UNL     1      16.087  20.731  -9.306  1.00  0.00     0.012 C 
ATOM     26  C   UNL     1      16.911  23.068 -11.237  1.00  0.00     0.038 C 
ATOM     27  C   UNL     1      17.798  23.290  -8.842  1.00  0.00     0.032 C 
ATOM     28  C   UNL     1      17.780  23.891 -10.263  1.00  0.00     0.114 C 
ATOM     29  H   UNL     1      10.455  21.039  -3.901  1.00  0.00     0.348 HD
ENDROOT
BRANCH   6  30
ATOM     30  O   UNL     1       8.809  19.615  -5.396  1.00  0.00    -0.384 OA
ATOM     31  H   UNL     1       9.769  19.368  -5.407  1.00  0.00     0.211 HD
ENDBRANCH   6  30
BRANCH  22  32
ATOM     32  O   UNL     1      14.881  21.013 -12.119  1.00  0.00    -0.393 OA
ATOM     33  H   UNL     1      15.415  20.611 -11.385  1.00  0.00     0.210 HD
ENDBRANCH  22  32
BRANCH  28  34
ATOM     34  O   UNL     1      19.088  24.024 -10.759  1.00  0.00    -0.393 OA
ATOM     35  H   UNL     1      19.031  24.477 -11.640  1.00  0.00     0.210 HD
ENDBRANCH  28  34
TORSDOF 3
ENDMDL
