MODEL 1
REMARK VINA RESULT:    -8.748      0.000      0.000
REMARK INTER + INTRA:          -9.259
REMARK INTER:                  -9.259
REMARK INTRA:                   0.000
REMARK UNBOUND:                 0.000
REMARK SMILES C[C@H]1CC[C@H]2[N@H+](C1)C[C@@H]1[C@@H]3C[C@H]4[C@H](CC(=O)[C@@H]5C[C@H](O)CC[C@@]54C)[C@H]3CC[C@H]1[C@@]2(C)O
REMARK SMILES IDX 5 1 6 2 8 3 7 4 4 5 29 6 3 7 28 8 30 9 2 10 27 11 9 12 1 13
REMARK SMILES IDX 26 14 10 15 25 16 11 17 13 18 12 19 14 20 23 21 15 22 17 23
REMARK SMILES IDX 22 24 24 25 16 26 18 27 21 28 19 29 31 31 20 33
REMARK H PARENT 6 30 31 32 20 34
REMARK Flexibility Score: inf
ROOT
ATOM      1  C   UNL     1      22.865 -18.697 -12.205  1.00  0.00     0.216 C 
ATOM      2  N   UNL     1      22.441 -19.840 -11.336  1.00  0.00    -0.330 N 
ATOM      3  C   UNL     1      22.858 -21.158 -11.878  1.00  0.00     0.266 C 
ATOM      4  C   UNL     1      23.010 -19.686  -9.976  1.00  0.00     0.265 C 
ATOM      5  C   UNL     1      22.407 -17.329 -11.599  1.00  0.00     0.069 C 
ATOM      6  C   UNL     1      22.395 -18.856 -13.704  1.00  0.00     0.117 C 
ATOM      7  C   UNL     1      21.764 -17.449 -10.213  1.00  0.00     0.015 C 
ATOM      8  C   UNL     1      22.853 -20.259 -14.208  1.00  0.00     0.036 C 
ATOM      9  C   UNL     1      23.042 -17.741 -14.573  1.00  0.00     0.049 C 
ATOM     10  C   UNL     1      22.558 -18.373  -9.276  1.00  0.00     0.041 C 
ATOM     11  C   UNL     1      22.576 -20.610 -15.704  1.00  0.00     0.007 C 
ATOM     12  C   UNL     1      22.269 -21.358 -13.277  1.00  0.00     0.054 C 
ATOM     13  C   UNL     1      23.752 -17.637  -8.651  1.00  0.00     0.013 C 
ATOM     14  C   UNL     1      23.220 -21.972 -16.125  1.00  0.00     0.004 C 
ATOM     15  C   UNL     1      22.435 -22.774 -13.898  1.00  0.00     0.002 C 
ATOM     16  C   UNL     1      23.576 -22.836 -14.898  1.00  0.00    -0.004 C 
ATOM     17  C   UNL     1      22.644 -24.006 -13.029  1.00  0.00     0.009 C 
ATOM     18  C   UNL     1      23.854 -24.349 -15.127  1.00  0.00     0.003 C 
ATOM     19  C   UNL     1      22.934 -25.077 -14.099  1.00  0.00    -0.000 C 
ATOM     20  C   UNL     1      25.361 -24.628 -14.924  1.00  0.00     0.080 C 
ATOM     21  C   UNL     1      23.351 -26.530 -13.623  1.00  0.00    -0.020 C 
ATOM     22  C   UNL     1      25.632 -26.054 -14.606  1.00  0.00     0.136 C 
ATOM     23  C   UNL     1      24.895 -26.679 -13.442  1.00  0.00     0.065 C 
ATOM     24  C   UNL     1      22.871 -27.548 -14.706  1.00  0.00     0.010 C 
ATOM     25  C   UNL     1      22.628 -26.841 -12.281  1.00  0.00     0.012 C 
ATOM     26  O   UNL     1      26.539 -26.634 -15.184  1.00  0.00    -0.299 OA
ATOM     27  C   UNL     1      25.328 -28.149 -13.183  1.00  0.00     0.043 C 
ATOM     28  C   UNL     1      23.266 -29.002 -14.415  1.00  0.00     0.032 C 
ATOM     29  C   UNL     1      24.777 -29.164 -14.207  1.00  0.00     0.115 C 
ATOM     30  H   UNL     1      21.397 -19.854 -11.259  1.00  0.00     0.348 HD
ENDROOT
BRANCH   6  31
ATOM     31  O   UNL     1      20.990 -18.750 -13.752  1.00  0.00    -0.384 OA
ATOM     32  H   UNL     1      20.651 -18.689 -12.820  1.00  0.00     0.211 HD
ENDBRANCH   6  31
BRANCH  29  33
ATOM     33  O   UNL     1      25.453 -29.042 -15.431  1.00  0.00    -0.393 OA
ATOM     34  H   UNL     1      25.335 -29.901 -15.915  1.00  0.00     0.210 HD
ENDBRANCH  29  33
TORSDOF 2
ENDMDL
MODEL 2
REMARK VINA RESULT:    -8.282      2.341      8.769
REMARK INTER + INTRA:          -8.767
REMARK INTER:                  -8.767
REMARK INTRA:                   0.000
REMARK UNBOUND:                 0.000
REMARK SMILES C[C@H]1CC[C@H]2[N@H+](C1)C[C@@H]1[C@@H]3C[C@H]4[C@H](CC(=O)[C@@H]5C[C@H](O)CC[C@@]54C)[C@H]3CC[C@H]1[C@@]2(C)O
REMARK SMILES IDX 5 1 6 2 8 3 7 4 4 5 29 6 3 7 28 8 30 9 2 10 27 11 9 12 1 13
REMARK SMILES IDX 26 14 10 15 25 16 11 17 13 18 12 19 14 20 23 21 15 22 17 23
REMARK SMILES IDX 22 24 24 25 16 26 18 27 21 28 19 29 31 31 20 33
REMARK H PARENT 6 30 31 32 20 34
REMARK Flexibility Score: inf
ROOT
ATOM      1  C   UNL     1      24.384 -26.117 -13.313  1.00  0.00     0.216 C 
ATOM      2  N   UNL     1      24.891 -24.922 -14.059  1.00  0.00    -0.330 N 
ATOM      3  C   UNL     1      24.478 -23.640 -13.438  1.00  0.00     0.266 C 
ATOM      4  C   UNL     1      26.372 -24.957 -14.134  1.00  0.00     0.265 C 
ATOM      5  C   UNL     1      24.843 -27.447 -14.000  1.00  0.00     0.069 C 
ATOM      6  C   UNL     1      22.822 -26.086 -13.090  1.00  0.00     0.117 C 
ATOM      7  C   UNL     1      25.802 -27.238 -15.177  1.00  0.00     0.015 C 
ATOM      8  C   UNL     1      22.453 -24.714 -12.447  1.00  0.00     0.036 C 
ATOM      9  C   UNL     1      22.408 -27.246 -12.142  1.00  0.00     0.049 C 
ATOM     10  C   UNL     1      26.912 -26.224 -14.856  1.00  0.00     0.041 C 
ATOM     11  C   UNL     1      20.961 -24.486 -12.049  1.00  0.00     0.007 C 
ATOM     12  C   UNL     1      22.951 -23.562 -13.365  1.00  0.00     0.054 C 
ATOM     13  C   UNL     1      28.047 -26.879 -14.054  1.00  0.00     0.013 C 
ATOM     14  C   UNL     1      20.749 -23.143 -11.274  1.00  0.00     0.004 C 
ATOM     15  C   UNL     1      22.349 -22.194 -12.934  1.00  0.00     0.002 C 
ATOM     16  C   UNL     1      21.937 -22.179 -11.473  1.00  0.00    -0.004 C 
ATOM     17  C   UNL     1      23.122 -20.894 -13.109  1.00  0.00     0.009 C 
ATOM     18  C   UNL     1      21.728 -20.681 -11.110  1.00  0.00     0.003 C 
ATOM     19  C   UNL     1      22.198 -19.901 -12.376  1.00  0.00    -0.000 C 
ATOM     20  C   UNL     1      22.537 -20.348  -9.834  1.00  0.00     0.080 C 
ATOM     21  C   UNL     1      22.690 -18.406 -12.192  1.00  0.00    -0.020 C 
ATOM     22  C   UNL     1      22.826 -18.895  -9.714  1.00  0.00     0.136 C 
ATOM     23  C   UNL     1      23.504 -18.203 -10.874  1.00  0.00     0.065 C 
ATOM     24  C   UNL     1      21.427 -17.487 -12.149  1.00  0.00     0.010 C 
ATOM     25  C   UNL     1      23.560 -18.012 -13.419  1.00  0.00     0.012 C 
ATOM     26  O   UNL     1      22.648 -18.337  -8.641  1.00  0.00    -0.299 OA
ATOM     27  C   UNL     1      23.805 -16.706 -10.582  1.00  0.00     0.043 C 
ATOM     28  C   UNL     1      21.741 -16.004 -11.905  1.00  0.00     0.032 C 
ATOM     29  C   UNL     1      22.566 -15.787 -10.629  1.00  0.00     0.115 C 
ATOM     30  H   UNL     1      24.511 -24.930 -15.035  1.00  0.00     0.348 HD
ENDROOT
BRANCH   6  31
ATOM     31  O   UNL     1      22.183 -26.232 -14.338  1.00  0.00    -0.384 OA
ATOM     32  H   UNL     1      21.656 -25.409 -14.516  1.00  0.00     0.211 HD
ENDBRANCH   6  31
BRANCH  29  33
ATOM     33  O   UNL     1      21.766 -15.985  -9.493  1.00  0.00    -0.393 OA
ATOM     34  H   UNL     1      22.345 -16.397  -8.798  1.00  0.00     0.210 HD
ENDBRANCH  29  33
TORSDOF 2
ENDMDL
MODEL 3
REMARK VINA RESULT:    -8.138      2.811      8.841
REMARK INTER + INTRA:          -8.614
REMARK INTER:                  -8.614
REMARK INTRA:                   0.000
REMARK UNBOUND:                 0.000
REMARK SMILES C[C@H]1CC[C@H]2[N@H+](C1)C[C@@H]1[C@@H]3C[C@H]4[C@H](CC(=O)[C@@H]5C[C@H](O)CC[C@@]54C)[C@H]3CC[C@H]1[C@@]2(C)O
REMARK SMILES IDX 5 1 6 2 8 3 7 4 4 5 29 6 3 7 28 8 30 9 2 10 27 11 9 12 1 13
REMARK SMILES IDX 26 14 10 15 25 16 11 17 13 18 12 19 14 20 23 21 15 22 17 23
REMARK SMILES IDX 22 24 24 25 16 26 18 27 21 28 19 29 31 31 20 33
REMARK H PARENT 6 30 31 32 20 34
REMARK Flexibility Score: inf
ROOT
ATOM      1  C   UNL     1      22.746 -27.438 -13.380  1.00  0.00     0.216 C 
ATOM      2  N   UNL     1      22.530 -26.486 -14.516  1.00  0.00    -0.330 N 
ATOM      3  C   UNL     1      22.487 -25.069 -14.077  1.00  0.00     0.266 C 
ATOM      4  C   UNL     1      23.609 -26.639 -15.521  1.00  0.00     0.265 C 
ATOM      5  C   UNL     1      22.786 -28.919 -13.885  1.00  0.00     0.069 C 
ATOM      6  C   UNL     1      21.700 -27.249 -12.212  1.00  0.00     0.117 C 
ATOM      7  C   UNL     1      22.736 -29.055 -15.410  1.00  0.00     0.015 C 
ATOM      8  C   UNL     1      21.697 -25.743 -11.806  1.00  0.00     0.036 C 
ATOM      9  C   UNL     1      22.114 -28.126 -10.997  1.00  0.00     0.049 C 
ATOM     10  C   UNL     1      23.682 -28.072 -16.119  1.00  0.00     0.041 C 
ATOM     11  C   UNL     1      20.797 -25.328 -10.600  1.00  0.00     0.007 C 
ATOM     12  C   UNL     1      21.367 -24.873 -13.052  1.00  0.00     0.054 C 
ATOM     13  C   UNL     1      25.125 -28.599 -16.125  1.00  0.00     0.013 C 
ATOM     14  C   UNL     1      20.999 -23.830 -10.193  1.00  0.00     0.004 C 
ATOM     15  C   UNL     1      21.050 -23.405 -12.650  1.00  0.00     0.002 C 
ATOM     16  C   UNL     1      21.675 -23.022 -11.320  1.00  0.00    -0.004 C 
ATOM     17  C   UNL     1      21.392 -22.237 -13.564  1.00  0.00     0.009 C 
ATOM     18  C   UNL     1      21.599 -21.470 -11.250  1.00  0.00     0.003 C 
ATOM     19  C   UNL     1      21.062 -21.040 -12.650  1.00  0.00    -0.000 C 
ATOM     20  C   UNL     1      23.000 -20.906 -10.917  1.00  0.00     0.080 C 
ATOM     21  C   UNL     1      21.403 -19.580 -13.163  1.00  0.00    -0.020 C 
ATOM     22  C   UNL     1      23.150 -19.488 -11.336  1.00  0.00     0.136 C 
ATOM     23  C   UNL     1      22.848 -19.132 -12.774  1.00  0.00     0.065 C 
ATOM     24  C   UNL     1      20.380 -18.592 -12.516  1.00  0.00     0.010 C 
ATOM     25  C   UNL     1      21.235 -19.543 -14.709  1.00  0.00     0.012 C 
ATOM     26  O   UNL     1      23.650 -18.684 -10.562  1.00  0.00    -0.299 OA
ATOM     27  C   UNL     1      23.114 -17.632 -13.086  1.00  0.00     0.043 C 
ATOM     28  C   UNL     1      20.626 -17.118 -12.868  1.00  0.00     0.032 C 
ATOM     29  C   UNL     1      22.051 -16.667 -12.520  1.00  0.00     0.115 C 
ATOM     30  H   UNL     1      21.614 -26.695 -14.979  1.00  0.00     0.348 HD
ENDROOT
BRANCH   6  31
ATOM     31  O   UNL     1      20.427 -27.638 -12.676  1.00  0.00    -0.384 OA
ATOM     32  H   UNL     1      20.233 -28.546 -12.326  1.00  0.00     0.211 HD
ENDBRANCH   6  31
BRANCH  29  33
ATOM     33  O   UNL     1      22.194 -16.541 -11.130  1.00  0.00    -0.393 OA
ATOM     34  H   UNL     1      22.978 -15.950 -10.971  1.00  0.00     0.210 HD
ENDBRANCH  29  33
TORSDOF 2
ENDMDL
MODEL 4
REMARK VINA RESULT:    -7.955      3.254      8.517
REMARK INTER + INTRA:          -8.420
REMARK INTER:                  -8.420
REMARK INTRA:                   0.000
REMARK UNBOUND:                 0.000
REMARK SMILES C[C@H]1CC[C@H]2[N@H+](C1)C[C@@H]1[C@@H]3C[C@H]4[C@H](CC(=O)[C@@H]5C[C@H](O)CC[C@@]54C)[C@H]3CC[C@H]1[C@@]2(C)O
REMARK SMILES IDX 5 1 6 2 8 3 7 4 4 5 29 6 3 7 28 8 30 9 2 10 27 11 9 12 1 13
REMARK SMILES IDX 26 14 10 15 25 16 11 17 13 18 12 19 14 20 23 21 15 22 17 23
REMARK SMILES IDX 22 24 24 25 16 26 18 27 21 28 19 29 31 31 20 33
REMARK H PARENT 6 30 31 32 20 34
REMARK Flexibility Score: inf
ROOT
ATOM      1  C   UNL     1      20.012 -27.929 -11.415  1.00  0.00     0.216 C 
ATOM      2  N   UNL     1      21.281 -27.384 -10.836  1.00  0.00    -0.330 N 
ATOM      3  C   UNL     1      21.429 -25.923 -11.054  1.00  0.00     0.266 C 
ATOM      4  C   UNL     1      21.335 -27.654  -9.379  1.00  0.00     0.265 C 
ATOM      5  C   UNL     1      19.895 -29.469 -11.162  1.00  0.00     0.069 C 
ATOM      6  C   UNL     1      19.830 -27.573 -12.942  1.00  0.00     0.117 C 
ATOM      7  C   UNL     1      21.010 -30.040 -10.280  1.00  0.00     0.015 C 
ATOM      8  C   UNL     1      20.007 -26.032 -13.103  1.00  0.00     0.036 C 
ATOM      9  C   UNL     1      18.409 -27.997 -13.408  1.00  0.00     0.049 C 
ATOM     10  C   UNL     1      21.281 -29.170  -9.042  1.00  0.00     0.041 C 
ATOM     11  C   UNL     1      19.780 -25.429 -14.525  1.00  0.00     0.007 C 
ATOM     12  C   UNL     1      21.398 -25.612 -12.552  1.00  0.00     0.054 C 
ATOM     13  C   UNL     1      20.262 -29.456  -7.929  1.00  0.00     0.013 C 
ATOM     14  C   UNL     1      19.832 -23.865 -14.524  1.00  0.00     0.004 C 
ATOM     15  C   UNL     1      21.753 -24.154 -12.961  1.00  0.00     0.002 C 
ATOM     16  C   UNL     1      20.519 -23.321 -13.256  1.00  0.00    -0.004 C 
ATOM     17  C   UNL     1      22.594 -23.257 -12.064  1.00  0.00     0.009 C 
ATOM     18  C   UNL     1      21.001 -21.842 -13.266  1.00  0.00     0.003 C 
ATOM     19  C   UNL     1      22.492 -21.913 -12.811  1.00  0.00    -0.000 C 
ATOM     20  C   UNL     1      20.101 -21.004 -12.329  1.00  0.00     0.080 C 
ATOM     21  C   UNL     1      23.130 -20.625 -12.142  1.00  0.00    -0.020 C 
ATOM     22  C   UNL     1      20.769 -19.758 -11.871  1.00  0.00     0.136 C 
ATOM     23  C   UNL     1      22.124 -19.876 -11.211  1.00  0.00     0.065 C 
ATOM     24  C   UNL     1      23.571 -19.658 -13.287  1.00  0.00     0.010 C 
ATOM     25  C   UNL     1      24.385 -21.055 -11.331  1.00  0.00     0.012 C 
ATOM     26  O   UNL     1      20.153 -18.703 -11.900  1.00  0.00    -0.299 OA
ATOM     27  C   UNL     1      22.671 -18.505 -10.722  1.00  0.00     0.043 C 
ATOM     28  C   UNL     1      24.150 -18.326 -12.790  1.00  0.00     0.032 C 
ATOM     29  C   UNL     1      23.188 -17.588 -11.850  1.00  0.00     0.115 C 
ATOM     30  H   UNL     1      22.102 -27.849 -11.290  1.00  0.00     0.348 HD
ENDROOT
BRANCH   6  31
ATOM     31  O   UNL     1      20.807 -28.263 -13.688  1.00  0.00    -0.384 OA
ATOM     32  H   UNL     1      21.464 -28.653 -13.054  1.00  0.00     0.211 HD
ENDBRANCH   6  31
BRANCH  29  33
ATOM     33  O   UNL     1      22.115 -17.051 -12.577  1.00  0.00    -0.393 OA
ATOM     34  H   UNL     1      21.845 -16.211 -12.119  1.00  0.00     0.210 HD
ENDBRANCH  29  33
TORSDOF 2
ENDMDL
MODEL 5
REMARK VINA RESULT:    -7.873      1.257      1.476
REMARK INTER + INTRA:          -8.333
REMARK INTER:                  -8.333
REMARK INTRA:                   0.000
REMARK UNBOUND:                 0.000
REMARK SMILES C[C@H]1CC[C@H]2[N@H+](C1)C[C@@H]1[C@@H]3C[C@H]4[C@H](CC(=O)[C@@H]5C[C@H](O)CC[C@@]54C)[C@H]3CC[C@H]1[C@@]2(C)O
REMARK SMILES IDX 5 1 6 2 8 3 7 4 4 5 29 6 3 7 28 8 30 9 2 10 27 11 9 12 1 13
REMARK SMILES IDX 26 14 10 15 25 16 11 17 13 18 12 19 14 20 23 21 15 22 17 23
REMARK SMILES IDX 22 24 24 25 16 26 18 27 21 28 19 29 31 31 20 33
REMARK H PARENT 6 30 31 32 20 34
REMARK Flexibility Score: inf
ROOT
ATOM      1  C   UNL     1      22.519 -17.917 -11.897  1.00  0.00     0.216 C 
ATOM      2  N   UNL     1      22.077 -19.021 -10.987  1.00  0.00    -0.330 N 
ATOM      3  C   UNL     1      22.252 -20.366 -11.589  1.00  0.00     0.266 C 
ATOM      4  C   UNL     1      22.835 -18.969  -9.714  1.00  0.00     0.265 C 
ATOM      5  C   UNL     1      22.319 -16.518 -11.224  1.00  0.00     0.069 C 
ATOM      6  C   UNL     1      21.838 -17.982 -13.320  1.00  0.00     0.117 C 
ATOM      7  C   UNL     1      21.855 -16.592  -9.766  1.00  0.00     0.015 C 
ATOM      8  C   UNL     1      22.049 -19.418 -13.890  1.00  0.00     0.036 C 
ATOM      9  C   UNL     1      22.496 -16.934 -14.260  1.00  0.00     0.049 C 
ATOM     10  C   UNL     1      22.646 -17.628  -8.951  1.00  0.00     0.041 C 
ATOM     11  C   UNL     1      21.534 -19.698 -15.338  1.00  0.00     0.007 C 
ATOM     12  C   UNL     1      21.462 -20.460 -12.897  1.00  0.00     0.054 C 
ATOM     13  C   UNL     1      23.994 -17.057  -8.487  1.00  0.00     0.013 C 
ATOM     14  C   UNL     1      21.943 -21.118 -15.852  1.00  0.00     0.004 C 
ATOM     15  C   UNL     1      21.367 -21.871 -13.545  1.00  0.00     0.002 C 
ATOM     16  C   UNL     1      22.349 -22.047 -14.690  1.00  0.00    -0.004 C 
ATOM     17  C   UNL     1      21.536 -23.139 -12.721  1.00  0.00     0.009 C 
ATOM     18  C   UNL     1      22.405 -23.577 -14.965  1.00  0.00     0.003 C 
ATOM     19  C   UNL     1      21.547 -24.212 -13.828  1.00  0.00    -0.000 C 
ATOM     20  C   UNL     1      23.880 -24.042 -14.969  1.00  0.00     0.080 C 
ATOM     21  C   UNL     1      21.841 -25.715 -13.422  1.00  0.00    -0.020 C 
ATOM     22  C   UNL     1      24.013 -25.497 -14.700  1.00  0.00     0.136 C 
ATOM     23  C   UNL     1      23.366 -26.055 -13.453  1.00  0.00     0.065 C 
ATOM     24  C   UNL     1      21.100 -26.641 -14.439  1.00  0.00     0.010 C 
ATOM     25  C   UNL     1      21.271 -25.968 -11.998  1.00  0.00     0.012 C 
ATOM     26  O   UNL     1      24.756 -26.170 -15.400  1.00  0.00    -0.299 OA
ATOM     27  C   UNL     1      23.644 -27.573 -13.264  1.00  0.00     0.043 C 
ATOM     28  C   UNL     1      21.346 -28.140 -14.214  1.00  0.00     0.032 C 
ATOM     29  C   UNL     1      22.840 -28.489 -14.212  1.00  0.00     0.115 C 
ATOM     30  H   UNL     1      21.058 -18.910 -10.769  1.00  0.00     0.348 HD
ENDROOT
BRANCH   6  31
ATOM     31  O   UNL     1      20.463 -17.705 -13.177  1.00  0.00    -0.384 OA
ATOM     32  H   UNL     1      19.994 -18.035 -13.988  1.00  0.00     0.211 HD
ENDBRANCH   6  31
BRANCH  29  33
ATOM     33  O   UNL     1      23.358 -28.421 -15.515  1.00  0.00    -0.393 OA
ATOM     34  H   UNL     1      22.700 -28.865 -16.112  1.00  0.00     0.210 HD
ENDBRANCH  29  33
TORSDOF 2
ENDMDL
MODEL 6
REMARK VINA RESULT:    -7.807      2.099      8.468
REMARK INTER + INTRA:          -8.264
REMARK INTER:                  -8.264
REMARK INTRA:                   0.000
REMARK UNBOUND:                 0.000
REMARK SMILES C[C@H]1CC[C@H]2[N@H+](C1)C[C@@H]1[C@@H]3C[C@H]4[C@H](CC(=O)[C@@H]5C[C@H](O)CC[C@@]54C)[C@H]3CC[C@H]1[C@@]2(C)O
REMARK SMILES IDX 5 1 6 2 8 3 7 4 4 5 29 6 3 7 28 8 30 9 2 10 27 11 9 12 1 13
REMARK SMILES IDX 26 14 10 15 25 16 11 17 13 18 12 19 14 20 23 21 15 22 17 23
REMARK SMILES IDX 22 24 24 25 16 26 18 27 21 28 19 29 31 31 20 33
REMARK H PARENT 6 30 31 32 20 34
REMARK Flexibility Score: inf
ROOT
ATOM      1  C   UNL     1      22.086 -27.394 -13.500  1.00  0.00     0.216 C 
ATOM      2  N   UNL     1      22.401 -26.780 -12.171  1.00  0.00    -0.330 N 
ATOM      3  C   UNL     1      22.264 -25.302 -12.175  1.00  0.00     0.266 C 
ATOM      4  C   UNL     1      21.507 -27.336 -11.128  1.00  0.00     0.265 C 
ATOM      5  C   UNL     1      22.241 -28.950 -13.453  1.00  0.00     0.069 C 
ATOM      6  C   UNL     1      22.919 -26.761 -14.683  1.00  0.00     0.117 C 
ATOM      7  C   UNL     1      22.539 -29.501 -12.054  1.00  0.00     0.015 C 
ATOM      8  C   UNL     1      22.741 -25.213 -14.625  1.00  0.00     0.036 C 
ATOM      9  C   UNL     1      22.392 -27.307 -16.040  1.00  0.00     0.049 C 
ATOM     10  C   UNL     1      21.640 -28.877 -10.974  1.00  0.00     0.041 C 
ATOM     11  C   UNL     1      23.406 -24.371 -15.759  1.00  0.00     0.007 C 
ATOM     12  C   UNL     1      23.191 -24.694 -13.230  1.00  0.00     0.054 C 
ATOM     13  C   UNL     1      20.261 -29.554 -10.941  1.00  0.00     0.013 C 
ATOM     14  C   UNL     1      23.026 -22.856 -15.677  1.00  0.00     0.004 C 
ATOM     15  C   UNL     1      23.326 -23.144 -13.219  1.00  0.00     0.002 C 
ATOM     16  C   UNL     1      22.473 -22.483 -14.287  1.00  0.00    -0.004 C 
ATOM     17  C   UNL     1      23.039 -22.329 -11.966  1.00  0.00     0.009 C 
ATOM     18  C   UNL     1      22.414 -20.976 -13.906  1.00  0.00     0.003 C 
ATOM     19  C   UNL     1      23.127 -20.893 -12.521  1.00  0.00    -0.000 C 
ATOM     20  C   UNL     1      20.939 -20.513 -13.878  1.00  0.00     0.080 C 
ATOM     21  C   UNL     1      22.757 -19.687 -11.562  1.00  0.00    -0.020 C 
ATOM     22  C   UNL     1      20.745 -19.298 -13.045  1.00  0.00     0.136 C 
ATOM     23  C   UNL     1      21.238 -19.326 -11.616  1.00  0.00     0.065 C 
ATOM     24  C   UNL     1      23.586 -18.442 -12.013  1.00  0.00     0.010 C 
ATOM     25  C   UNL     1      23.161 -20.064 -10.108  1.00  0.00     0.012 C 
ATOM     26  O   UNL     1      20.069 -18.376 -13.479  1.00  0.00    -0.299 OA
ATOM     27  C   UNL     1      20.908 -18.016 -10.845  1.00  0.00     0.043 C 
ATOM     28  C   UNL     1      23.283 -17.167 -11.214  1.00  0.00     0.032 C 
ATOM     29  C   UNL     1      21.790 -16.811 -11.231  1.00  0.00     0.115 C 
ATOM     30  H   UNL     1      23.391 -26.998 -11.910  1.00  0.00     0.348 HD
ENDROOT
BRANCH   6  31
ATOM     31  O   UNL     1      24.275 -27.108 -14.519  1.00  0.00    -0.384 OA
ATOM     32  H   UNL     1      24.569 -26.798 -13.622  1.00  0.00     0.211 HD
ENDBRANCH   6  31
BRANCH  29  33
ATOM     33  O   UNL     1      21.422 -16.318 -12.493  1.00  0.00    -0.393 OA
ATOM     34  H   UNL     1      22.090 -16.661 -13.145  1.00  0.00     0.210 HD
ENDBRANCH  29  33
TORSDOF 2
ENDMDL
MODEL 7
REMARK VINA RESULT:    -7.789      2.568      8.714
REMARK INTER + INTRA:          -8.244
REMARK INTER:                  -8.244
REMARK INTRA:                   0.000
REMARK UNBOUND:                 0.000
REMARK SMILES C[C@H]1CC[C@H]2[N@H+](C1)C[C@@H]1[C@@H]3C[C@H]4[C@H](CC(=O)[C@@H]5C[C@H](O)CC[C@@]54C)[C@H]3CC[C@H]1[C@@]2(C)O
REMARK SMILES IDX 5 1 6 2 8 3 7 4 4 5 29 6 3 7 28 8 30 9 2 10 27 11 9 12 1 13
REMARK SMILES IDX 26 14 10 15 25 16 11 17 13 18 12 19 14 20 23 21 15 22 17 23
REMARK SMILES IDX 22 24 24 25 16 26 18 27 21 28 19 29 31 31 20 33
REMARK H PARENT 6 30 31 32 20 34
REMARK Flexibility Score: inf
ROOT
ATOM      1  C   UNL     1      21.748 -27.587 -14.303  1.00  0.00     0.216 C 
ATOM      2  N   UNL     1      20.632 -26.922 -13.559  1.00  0.00    -0.330 N 
ATOM      3  C   UNL     1      20.817 -25.454 -13.438  1.00  0.00     0.266 C 
ATOM      4  C   UNL     1      19.339 -27.183 -14.236  1.00  0.00     0.265 C 
ATOM      5  C   UNL     1      21.513 -29.131 -14.408  1.00  0.00     0.069 C 
ATOM      6  C   UNL     1      23.170 -27.254 -13.706  1.00  0.00     0.117 C 
ATOM      7  C   UNL     1      20.158 -29.591 -13.860  1.00  0.00     0.015 C 
ATOM      8  C   UNL     1      23.296 -25.703 -13.597  1.00  0.00     0.036 C 
ATOM      9  C   UNL     1      24.273 -27.812 -14.648  1.00  0.00     0.049 C 
ATOM     10  C   UNL     1      19.000 -28.697 -14.333  1.00  0.00     0.041 C 
ATOM     11  C   UNL     1      24.664 -25.127 -13.111  1.00  0.00     0.007 C 
ATOM     12  C   UNL     1      22.135 -25.151 -12.723  1.00  0.00     0.054 C 
ATOM     13  C   UNL     1      18.549 -29.076 -15.751  1.00  0.00     0.013 C 
ATOM     14  C   UNL     1      24.716 -23.566 -13.194  1.00  0.00     0.004 C 
ATOM     15  C   UNL     1      22.380 -23.666 -12.328  1.00  0.00     0.002 C 
ATOM     16  C   UNL     1      23.304 -22.955 -13.300  1.00  0.00    -0.004 C 
ATOM     17  C   UNL     1      21.226 -22.691 -12.141  1.00  0.00     0.009 C 
ATOM     18  C   UNL     1      23.142 -21.437 -13.002  1.00  0.00     0.003 C 
ATOM     19  C   UNL     1      21.988 -21.364 -11.954  1.00  0.00    -0.000 C 
ATOM     20  C   UNL     1      22.838 -20.687 -14.320  1.00  0.00     0.080 C 
ATOM     21  C   UNL     1      21.154 -20.021 -11.856  1.00  0.00    -0.020 C 
ATOM     22  C   UNL     1      22.167 -19.382 -14.084  1.00  0.00     0.136 C 
ATOM     23  C   UNL     1      20.904 -19.368 -13.253  1.00  0.00     0.065 C 
ATOM     24  C   UNL     1      21.961 -19.018 -10.971  1.00  0.00     0.010 C 
ATOM     25  C   UNL     1      19.795 -20.327 -11.163  1.00  0.00     0.012 C 
ATOM     26  O   UNL     1      22.560 -18.391 -14.681  1.00  0.00    -0.299 OA
ATOM     27  C   UNL     1      20.275 -17.950 -13.147  1.00  0.00     0.043 C 
ATOM     28  C   UNL     1      21.306 -17.635 -10.837  1.00  0.00     0.032 C 
ATOM     29  C   UNL     1      21.026 -16.991 -12.201  1.00  0.00     0.115 C 
ATOM     30  H   UNL     1      20.579 -27.308 -12.586  1.00  0.00     0.348 HD
ENDROOT
BRANCH   6  31
ATOM     31  O   UNL     1      23.278 -27.848 -12.432  1.00  0.00    -0.384 OA
ATOM     32  H   UNL     1      22.497 -28.447 -12.302  1.00  0.00     0.211 HD
ENDBRANCH   6  31
BRANCH  29  33
ATOM     33  O   UNL     1      22.225 -16.560 -12.791  1.00  0.00    -0.393 OA
ATOM     34  H   UNL     1      22.943 -16.683 -12.114  1.00  0.00     0.210 HD
ENDBRANCH  29  33
TORSDOF 2
ENDMDL
MODEL 8
REMARK VINA RESULT:    -7.682      1.353      1.668
REMARK INTER + INTRA:          -8.131
REMARK INTER:                  -8.131
REMARK INTRA:                   0.000
REMARK UNBOUND:                 0.000
REMARK SMILES C[C@H]1CC[C@H]2[N@H+](C1)C[C@@H]1[C@@H]3C[C@H]4[C@H](CC(=O)[C@@H]5C[C@H](O)CC[C@@]54C)[C@H]3CC[C@H]1[C@@]2(C)O
REMARK SMILES IDX 5 1 6 2 8 3 7 4 4 5 29 6 3 7 28 8 30 9 2 10 27 11 9 12 1 13
REMARK SMILES IDX 26 14 10 15 25 16 11 17 13 18 12 19 14 20 23 21 15 22 17 23
REMARK SMILES IDX 22 24 24 25 16 26 18 27 21 28 19 29 31 31 20 33
REMARK H PARENT 6 30 31 32 20 34
REMARK Flexibility Score: inf
ROOT
ATOM      1  C   UNL     1      22.644 -18.517 -12.490  1.00  0.00     0.216 C 
ATOM      2  N   UNL     1      21.843 -19.392 -11.577  1.00  0.00    -0.330 N 
ATOM      3  C   UNL     1      21.968 -20.834 -11.908  1.00  0.00     0.266 C 
ATOM      4  C   UNL     1      22.268 -19.189 -10.171  1.00  0.00     0.265 C 
ATOM      5  C   UNL     1      22.485 -17.008 -12.106  1.00  0.00     0.069 C 
ATOM      6  C   UNL     1      22.328 -18.767 -14.016  1.00  0.00     0.117 C 
ATOM      7  C   UNL     1      21.674 -16.775 -10.827  1.00  0.00     0.015 C 
ATOM      8  C   UNL     1      22.467 -20.295 -14.294  1.00  0.00     0.036 C 
ATOM      9  C   UNL     1      23.336 -17.972 -14.893  1.00  0.00     0.049 C 
ATOM     10  C   UNL     1      22.089 -17.722  -9.690  1.00  0.00     0.041 C 
ATOM     11  C   UNL     1      22.287 -20.775 -15.769  1.00  0.00     0.007 C 
ATOM     12  C   UNL     1      21.516 -21.081 -13.348  1.00  0.00     0.054 C 
ATOM     13  C   UNL     1      23.350 -17.213  -8.976  1.00  0.00     0.013 C 
ATOM     14  C   UNL     1      22.604 -22.297 -15.943  1.00  0.00     0.004 C 
ATOM     15  C   UNL     1      21.384 -22.568 -13.785  1.00  0.00     0.002 C 
ATOM     16  C   UNL     1      22.581 -23.040 -14.592  1.00  0.00    -0.004 C 
ATOM     17  C   UNL     1      21.167 -23.680 -12.768  1.00  0.00     0.009 C 
ATOM     18  C   UNL     1      22.486 -24.593 -14.615  1.00  0.00     0.003 C 
ATOM     19  C   UNL     1      21.296 -24.928 -13.664  1.00  0.00    -0.000 C 
ATOM     20  C   UNL     1      23.838 -25.194 -14.162  1.00  0.00     0.080 C 
ATOM     21  C   UNL     1      21.269 -26.357 -12.979  1.00  0.00    -0.020 C 
ATOM     22  C   UNL     1      23.695 -26.584 -13.657  1.00  0.00     0.136 C 
ATOM     23  C   UNL     1      22.691 -26.845 -12.556  1.00  0.00     0.065 C 
ATOM     24  C   UNL     1      20.674 -27.372 -14.007  1.00  0.00     0.010 C 
ATOM     25  C   UNL     1      20.338 -26.295 -11.734  1.00  0.00     0.012 C 
ATOM     26  O   UNL     1      24.484 -27.440 -14.030  1.00  0.00    -0.299 OA
ATOM     27  C   UNL     1      22.699 -28.325 -12.081  1.00  0.00     0.043 C 
ATOM     28  C   UNL     1      20.646 -28.823 -13.508  1.00  0.00     0.032 C 
ATOM     29  C   UNL     1      22.030 -29.311 -13.061  1.00  0.00     0.115 C 
ATOM     30  H   UNL     1      20.828 -19.144 -11.654  1.00  0.00     0.348 HD
ENDROOT
BRANCH   6  31
ATOM     31  O   UNL     1      21.013 -18.335 -14.283  1.00  0.00    -0.384 OA
ATOM     32  H   UNL     1      21.057 -17.596 -14.945  1.00  0.00     0.211 HD
ENDBRANCH   6  31
BRANCH  29  33
ATOM     33  O   UNL     1      22.853 -29.527 -14.177  1.00  0.00    -0.393 OA
ATOM     34  H   UNL     1      23.376 -28.694 -14.318  1.00  0.00     0.210 HD
ENDBRANCH  29  33
TORSDOF 2
ENDMDL
MODEL 9
REMARK VINA RESULT:    -7.476      3.545      8.798
REMARK INTER + INTRA:          -7.913
REMARK INTER:                  -7.913
REMARK INTRA:                   0.000
REMARK UNBOUND:                 0.000
REMARK SMILES C[C@H]1CC[C@H]2[N@H+](C1)C[C@@H]1[C@@H]3C[C@H]4[C@H](CC(=O)[C@@H]5C[C@H](O)CC[C@@]54C)[C@H]3CC[C@H]1[C@@]2(C)O
REMARK SMILES IDX 5 1 6 2 8 3 7 4 4 5 29 6 3 7 28 8 30 9 2 10 27 11 9 12 1 13
REMARK SMILES IDX 26 14 10 15 25 16 11 17 13 18 12 19 14 20 23 21 15 22 17 23
REMARK SMILES IDX 22 24 24 25 16 26 18 27 21 28 19 29 31 31 20 33
REMARK H PARENT 6 30 31 32 20 34
REMARK Flexibility Score: inf
ROOT
ATOM      1  C   UNL     1      21.434 -28.185 -13.001  1.00  0.00     0.216 C 
ATOM      2  N   UNL     1      21.011 -27.331 -14.156  1.00  0.00    -0.330 N 
ATOM      3  C   UNL     1      21.350 -25.899 -13.966  1.00  0.00     0.266 C 
ATOM      4  C   UNL     1      21.651 -27.808 -15.406  1.00  0.00     0.265 C 
ATOM      5  C   UNL     1      21.059 -29.685 -13.243  1.00  0.00     0.069 C 
ATOM      6  C   UNL     1      20.885 -27.663 -11.616  1.00  0.00     0.117 C 
ATOM      7  C   UNL     1      20.481 -29.963 -14.634  1.00  0.00     0.015 C 
ATOM      8  C   UNL     1      21.264 -26.157 -11.484  1.00  0.00     0.036 C 
ATOM      9  C   UNL     1      21.530 -28.479 -10.461  1.00  0.00     0.049 C 
ATOM     10  C   UNL     1      21.284 -29.278 -15.752  1.00  0.00     0.041 C 
ATOM     11  C   UNL     1      20.901 -25.440 -10.144  1.00  0.00     0.007 C 
ATOM     12  C   UNL     1      20.686 -25.369 -12.693  1.00  0.00     0.054 C 
ATOM     13  C   UNL     1      22.535 -30.093 -16.115  1.00  0.00     0.013 C 
ATOM     14  C   UNL     1      21.470 -23.985 -10.073  1.00  0.00     0.004 C 
ATOM     15  C   UNL     1      20.766 -23.833 -12.460  1.00  0.00     0.002 C 
ATOM     16  C   UNL     1      21.854 -23.456 -11.470  1.00  0.00    -0.004 C 
ATOM     17  C   UNL     1      20.971 -22.863 -13.615  1.00  0.00     0.009 C 
ATOM     18  C   UNL     1      22.062 -21.924 -11.637  1.00  0.00     0.003 C 
ATOM     19  C   UNL     1      21.167 -21.536 -12.854  1.00  0.00    -0.000 C 
ATOM     20  C   UNL     1      23.566 -21.633 -11.849  1.00  0.00     0.080 C 
ATOM     21  C   UNL     1      21.552 -20.240 -13.681  1.00  0.00    -0.020 C 
ATOM     22  C   UNL     1      23.799 -20.329 -12.522  1.00  0.00     0.136 C 
ATOM     23  C   UNL     1      23.097 -20.067 -13.836  1.00  0.00     0.065 C 
ATOM     24  C   UNL     1      20.981 -18.999 -12.922  1.00  0.00     0.010 C 
ATOM     25  C   UNL     1      20.885 -20.327 -15.083  1.00  0.00     0.012 C 
ATOM     26  O   UNL     1      24.653 -19.573 -12.083  1.00  0.00    -0.299 OA
ATOM     27  C   UNL     1      23.485 -18.696 -14.457  1.00  0.00     0.043 C 
ATOM     28  C   UNL     1      21.334 -17.654 -13.571  1.00  0.00     0.032 C 
ATOM     29  C   UNL     1      22.846 -17.477 -13.758  1.00  0.00     0.115 C 
ATOM     30  H   UNL     1      19.972 -27.390 -14.274  1.00  0.00     0.348 HD
ENDROOT
BRANCH   6  31
ATOM     31  O   UNL     1      19.484 -27.823 -11.595  1.00  0.00    -0.384 OA
ATOM     32  H   UNL     1      19.176 -27.736 -10.655  1.00  0.00     0.211 HD
ENDBRANCH   6  31
BRANCH  29  33
ATOM     33  O   UNL     1      23.465 -17.242 -12.521  1.00  0.00    -0.393 OA
ATOM     34  H   UNL     1      22.754 -17.282 -11.828  1.00  0.00     0.210 HD
ENDBRANCH  29  33
TORSDOF 2
ENDMDL
