MODEL 1
REMARK VINA RESULT:    -4.710      0.000      0.000
REMARK INTER + INTRA:          -8.688
REMARK INTER:                  -6.499
REMARK INTRA:                  -2.189
REMARK UNBOUND:                -2.189
REMARK SMILES CC[C@@H](CC[C@H](C)[C@H]1CC[C@@H]2[C@H]3CC=C4C[C@H](O)CC[C@]4(C)[C@H]3CC[C@]21C)C(C)C
REMARK SMILES IDX 5 1 4 2 3 3 2 4 1 5 28 6 29 7 30 8 6 9 7 10 8 11 9 12 26 13
REMARK SMILES IDX 10 14 11 15 25 16 27 17 12 18 24 19 23 20 13 21 21 22 14 23
REMARK SMILES IDX 15 24 20 25 22 26 16 27 19 28 17 29 18 30
REMARK H PARENT 18 31
REMARK Flexibility Score: inf
ROOT
ATOM      1  C   UNL     1      34.938  26.924  12.125  1.00  0.00     0.004 C 
ENDROOT
BRANCH   1   2
ATOM      2  C   UNL     1      35.152  27.814  10.885  1.00  0.00     0.004 C 
BRANCH   2   3
ATOM      3  C   UNL     1      34.201  27.436   9.717  1.00  0.00    -0.009 C 
BRANCH   3   4
ATOM      4  C   UNL     1      34.745  26.294   8.805  1.00  0.00     0.000 C 
ATOM      5  C   UNL     1      33.986  24.961   8.863  1.00  0.00     0.004 C 
ENDBRANCH   3   4
BRANCH   3   6
ATOM      6  C   UNL     1      33.681  28.664   8.895  1.00  0.00    -0.014 C 
ATOM      7  C   UNL     1      32.403  28.335   8.101  1.00  0.00     0.007 C 
ATOM      8  C   UNL     1      33.470  29.937   9.729  1.00  0.00     0.007 C 
ENDBRANCH   3   6
ENDBRANCH   2   3
ENDBRANCH   1   2
BRANCH   1   9
ATOM      9  C   UNL     1      33.614  27.264  12.871  1.00  0.00    -0.011 C 
ATOM     10  C   UNL     1      33.952  27.521  14.358  1.00  0.00     0.008 C 
BRANCH   9  11
ATOM     11  C   UNL     1      32.571  26.108  12.705  1.00  0.00    -0.002 C 
ATOM     12  C   UNL     1      32.215  25.401  14.042  1.00  0.00     0.005 C 
ATOM     13  C   UNL     1      31.173  26.451  12.036  1.00  0.00    -0.026 C 
ATOM     14  C   UNL     1      30.724  25.105  14.011  1.00  0.00     0.005 C 
ATOM     15  C   UNL     1      30.180  26.263  13.201  1.00  0.00    -0.001 C 
ATOM     16  C   UNL     1      30.928  27.884  11.441  1.00  0.00     0.007 C 
ATOM     17  C   UNL     1      30.961  25.409  10.892  1.00  0.00     0.012 C 
ATOM     18  C   UNL     1      28.708  26.184  12.734  1.00  0.00     0.000 C 
ATOM     19  C   UNL     1      29.497  28.446  11.679  1.00  0.00     0.005 C 
ATOM     20  C   UNL     1      28.367  27.369  11.745  1.00  0.00     0.003 C 
ATOM     21  C   UNL     1      27.753  26.117  13.930  1.00  0.00     0.031 C 
ATOM     22  C   UNL     1      26.911  28.000  11.905  1.00  0.00    -0.008 C 
ATOM     23  C   UNL     1      26.334  26.126  13.453  1.00  0.00    -0.027 C 
ATOM     24  C   UNL     1      25.929  26.966  12.481  1.00  0.00    -0.065 C 
ATOM     25  C   UNL     1      26.423  28.474  10.495  1.00  0.00     0.014 C 
ATOM     26  C   UNL     1      26.904  29.223  12.863  1.00  0.00     0.016 C 
ATOM     27  C   UNL     1      24.437  27.085  12.230  1.00  0.00     0.063 C 
ATOM     28  C   UNL     1      24.921  28.767  10.422  1.00  0.00     0.033 C 
ATOM     29  C   UNL     1      24.107  27.529  10.800  1.00  0.00     0.118 C 
BRANCH  29  30
ATOM     30  O   UNL     1      24.367  26.488   9.892  1.00  0.00    -0.393 OA
ATOM     31  H   UNL     1      25.118  26.789   9.317  1.00  0.00     0.210 HD
ENDBRANCH  29  30
ENDBRANCH   9  11
ENDBRANCH   1   9
TORSDOF 7
ENDMDL
MODEL 2
REMARK VINA RESULT:    -4.427      2.764      8.019
REMARK INTER + INTRA:          -8.299
REMARK INTER:                  -6.143
REMARK INTRA:                  -2.156
REMARK UNBOUND:                -2.189
REMARK SMILES CC[C@@H](CC[C@H](C)[C@H]1CC[C@@H]2[C@H]3CC=C4C[C@H](O)CC[C@]4(C)[C@H]3CC[C@]21C)C(C)C
REMARK SMILES IDX 5 1 4 2 3 3 2 4 1 5 28 6 29 7 30 8 6 9 7 10 8 11 9 12 26 13
REMARK SMILES IDX 10 14 11 15 25 16 27 17 12 18 24 19 23 20 13 21 21 22 14 23
REMARK SMILES IDX 15 24 20 25 22 26 16 27 19 28 17 29 18 30
REMARK H PARENT 18 31
REMARK Flexibility Score: inf
ROOT
ATOM      1  C   UNL     1      26.229  27.796  12.004  1.00  0.00     0.004 C 
ENDROOT
BRANCH   1   2
ATOM      2  C   UNL     1      25.532  26.907  13.052  1.00  0.00     0.004 C 
BRANCH   2   3
ATOM      3  C   UNL     1      25.803  25.395  12.815  1.00  0.00    -0.009 C 
BRANCH   3   4
ATOM      4  C   UNL     1      26.818  24.772  13.822  1.00  0.00     0.000 C 
ATOM      5  C   UNL     1      27.192  25.640  15.031  1.00  0.00     0.004 C 
ENDBRANCH   3   4
BRANCH   3   6
ATOM      6  C   UNL     1      26.132  25.033  11.327  1.00  0.00    -0.014 C 
ATOM      7  C   UNL     1      27.296  24.031  11.216  1.00  0.00     0.007 C 
ATOM      8  C   UNL     1      24.926  24.532  10.518  1.00  0.00     0.007 C 
ENDBRANCH   3   6
ENDBRANCH   2   3
ENDBRANCH   1   2
BRANCH   1   9
ATOM      9  C   UNL     1      27.661  28.216  12.447  1.00  0.00    -0.011 C 
ATOM     10  C   UNL     1      27.579  29.633  13.061  1.00  0.00     0.008 C 
BRANCH   9  11
ATOM     11  C   UNL     1      28.654  28.164  11.237  1.00  0.00    -0.002 C 
ATOM     12  C   UNL     1      29.257  29.549  10.875  1.00  0.00     0.005 C 
ATOM     13  C   UNL     1      29.899  27.185  11.332  1.00  0.00    -0.026 C 
ATOM     14  C   UNL     1      30.715  29.322  10.509  1.00  0.00     0.005 C 
ATOM     15  C   UNL     1      31.096  28.156  11.397  1.00  0.00    -0.001 C 
ATOM     16  C   UNL     1      30.027  26.206  12.554  1.00  0.00     0.007 C 
ATOM     17  C   UNL     1      29.891  26.329  10.025  1.00  0.00     0.012 C 
ATOM     18  C   UNL     1      32.452  27.463  11.131  1.00  0.00     0.000 C 
ATOM     19  C   UNL     1      31.476  26.024  13.088  1.00  0.00     0.005 C 
ATOM     20  C   UNL     1      32.598  26.157  12.008  1.00  0.00     0.003 C 
ATOM     21  C   UNL     1      33.617  28.439  11.321  1.00  0.00     0.031 C 
ATOM     22  C   UNL     1      34.058  25.879  12.587  1.00  0.00    -0.008 C 
ATOM     23  C   UNL     1      34.919  27.724  11.140  1.00  0.00    -0.027 C 
ATOM     24  C   UNL     1      35.132  26.511  11.687  1.00  0.00    -0.065 C 
ATOM     25  C   UNL     1      34.269  24.329  12.665  1.00  0.00     0.014 C 
ATOM     26  C   UNL     1      34.247  26.471  14.011  1.00  0.00     0.016 C 
ATOM     27  C   UNL     1      36.549  25.968  11.665  1.00  0.00     0.063 C 
ATOM     28  C   UNL     1      35.730  23.908  12.857  1.00  0.00     0.033 C 
ATOM     29  C   UNL     1      36.602  24.437  11.716  1.00  0.00     0.118 C 
BRANCH  29  30
ATOM     30  O   UNL     1      36.174  23.891  10.493  1.00  0.00    -0.393 OA
ATOM     31  H   UNL     1      36.682  24.354   9.778  1.00  0.00     0.210 HD
ENDBRANCH  29  30
ENDBRANCH   9  11
ENDBRANCH   1   9
TORSDOF 7
ENDMDL
MODEL 3
REMARK VINA RESULT:    -4.365      2.656      8.278
REMARK INTER + INTRA:          -8.213
REMARK INTER:                  -6.438
REMARK INTRA:                  -1.775
REMARK UNBOUND:                -2.189
REMARK SMILES CC[C@@H](CC[C@H](C)[C@H]1CC[C@@H]2[C@H]3CC=C4C[C@H](O)CC[C@]4(C)[C@H]3CC[C@]21C)C(C)C
REMARK SMILES IDX 5 1 4 2 3 3 2 4 1 5 28 6 29 7 30 8 6 9 7 10 8 11 9 12 26 13
REMARK SMILES IDX 10 14 11 15 25 16 27 17 12 18 24 19 23 20 13 21 21 22 14 23
REMARK SMILES IDX 15 24 20 25 22 26 16 27 19 28 17 29 18 30
REMARK H PARENT 18 31
REMARK Flexibility Score: inf
ROOT
ATOM      1  C   UNL     1      26.416  27.161  12.854  1.00  0.00     0.004 C 
ENDROOT
BRANCH   1   2
ATOM      2  C   UNL     1      26.180  26.692  11.405  1.00  0.00     0.004 C 
BRANCH   2   3
ATOM      3  C   UNL     1      24.868  27.270  10.806  1.00  0.00    -0.009 C 
BRANCH   3   4
ATOM      4  C   UNL     1      24.921  28.805  10.535  1.00  0.00     0.000 C 
ATOM      5  C   UNL     1      25.636  29.240   9.248  1.00  0.00     0.004 C 
ENDBRANCH   3   4
BRANCH   3   6
ATOM      6  C   UNL     1      23.573  26.840  11.576  1.00  0.00    -0.014 C 
ATOM      7  C   UNL     1      22.399  27.803  11.323  1.00  0.00     0.007 C 
ATOM      8  C   UNL     1      23.133  25.392  11.312  1.00  0.00     0.007 C 
ENDBRANCH   3   6
ENDBRANCH   2   3
ENDBRANCH   1   2
BRANCH   1   9
ATOM      9  C   UNL     1      27.702  28.027  12.990  1.00  0.00    -0.011 C 
ATOM     10  C   UNL     1      27.276  29.469  13.350  1.00  0.00     0.008 C 
BRANCH   9  11
ATOM     11  C   UNL     1      28.543  27.983  11.670  1.00  0.00    -0.002 C 
ATOM     12  C   UNL     1      29.010  29.384  11.189  1.00  0.00     0.005 C 
ATOM     13  C   UNL     1      29.850  27.082  11.643  1.00  0.00    -0.026 C 
ATOM     14  C   UNL     1      30.424  29.228  10.653  1.00  0.00     0.005 C 
ATOM     15  C   UNL     1      30.982  28.123  11.527  1.00  0.00    -0.001 C 
ATOM     16  C   UNL     1      30.185  26.165  12.872  1.00  0.00     0.007 C 
ATOM     17  C   UNL     1      29.737  26.174  10.377  1.00  0.00     0.012 C 
ATOM     18  C   UNL     1      32.337  27.500  11.119  1.00  0.00     0.000 C 
ATOM     19  C   UNL     1      31.697  26.089  13.229  1.00  0.00     0.005 C 
ATOM     20  C   UNL     1      32.670  26.242  12.016  1.00  0.00     0.003 C 
ATOM     21  C   UNL     1      33.453  28.550  11.131  1.00  0.00     0.031 C 
ATOM     22  C   UNL     1      34.204  26.074  12.420  1.00  0.00    -0.008 C 
ATOM     23  C   UNL     1      34.765  27.904  10.815  1.00  0.00    -0.027 C 
ATOM     24  C   UNL     1      35.119  26.730  11.373  1.00  0.00    -0.065 C 
ATOM     25  C   UNL     1      34.519  24.544  12.523  1.00  0.00     0.014 C 
ATOM     26  C   UNL     1      34.526  26.735  13.788  1.00  0.00     0.016 C 
ATOM     27  C   UNL     1      36.554  26.270  11.195  1.00  0.00     0.063 C 
ATOM     28  C   UNL     1      36.016  24.217  12.548  1.00  0.00     0.033 C 
ATOM     29  C   UNL     1      36.709  24.748  11.291  1.00  0.00     0.118 C 
BRANCH  29  30
ATOM     30  O   UNL     1      36.171  24.128  10.150  1.00  0.00    -0.393 OA
ATOM     31  H   UNL     1      36.861  24.185   9.439  1.00  0.00     0.210 HD
ENDBRANCH  29  30
ENDBRANCH   9  11
ENDBRANCH   1   9
TORSDOF 7
ENDMDL
MODEL 4
REMARK VINA RESULT:    -4.356      2.450      8.003
REMARK INTER + INTRA:          -8.200
REMARK INTER:                  -6.248
REMARK INTRA:                  -1.952
REMARK UNBOUND:                -2.189
REMARK SMILES CC[C@@H](CC[C@H](C)[C@H]1CC[C@@H]2[C@H]3CC=C4C[C@H](O)CC[C@]4(C)[C@H]3CC[C@]21C)C(C)C
REMARK SMILES IDX 5 1 4 2 3 3 2 4 1 5 28 6 29 7 30 8 6 9 7 10 8 11 9 12 26 13
REMARK SMILES IDX 10 14 11 15 25 16 27 17 12 18 24 19 23 20 13 21 21 22 14 23
REMARK SMILES IDX 15 24 20 25 22 26 16 27 19 28 17 29 18 30
REMARK H PARENT 18 31
REMARK Flexibility Score: inf
ROOT
ATOM      1  C   UNL     1      24.606  26.236  12.970  1.00  0.00     0.004 C 
ENDROOT
BRANCH   1   2
ATOM      2  C   UNL     1      23.900  25.270  11.999  1.00  0.00     0.004 C 
BRANCH   2   3
ATOM      3  C   UNL     1      23.322  26.003  10.756  1.00  0.00    -0.009 C 
BRANCH   3   4
ATOM      4  C   UNL     1      24.055  25.658   9.424  1.00  0.00     0.000 C 
ATOM      5  C   UNL     1      25.028  24.472   9.474  1.00  0.00     0.004 C 
ENDBRANCH   3   4
BRANCH   3   6
ATOM      6  C   UNL     1      23.133  27.544  10.957  1.00  0.00    -0.014 C 
ATOM      7  C   UNL     1      23.761  28.362   9.813  1.00  0.00     0.007 C 
ATOM      8  C   UNL     1      21.676  27.979  11.177  1.00  0.00     0.007 C 
ENDBRANCH   3   6
ENDBRANCH   2   3
ENDBRANCH   1   2
BRANCH   1   9
ATOM      9  C   UNL     1      26.154  26.068  12.944  1.00  0.00    -0.011 C 
ATOM     10  C   UNL     1      26.713  26.558  14.300  1.00  0.00     0.008 C 
BRANCH   9  11
ATOM     11  C   UNL     1      26.777  26.853  11.741  1.00  0.00    -0.002 C 
ATOM     12  C   UNL     1      26.693  28.396  11.902  1.00  0.00     0.005 C 
ATOM     13  C   UNL     1      28.290  26.562  11.360  1.00  0.00    -0.026 C 
ATOM     14  C   UNL     1      27.996  28.975  11.373  1.00  0.00     0.005 C 
ATOM     15  C   UNL     1      28.994  27.888  11.710  1.00  0.00    -0.001 C 
ATOM     16  C   UNL     1      29.068  25.412  12.095  1.00  0.00     0.007 C 
ATOM     17  C   UNL     1      28.310  26.257   9.828  1.00  0.00     0.012 C 
ATOM     18  C   UNL     1      30.411  27.999  11.100  1.00  0.00     0.000 C 
ATOM     19  C   UNL     1      30.555  25.738  12.411  1.00  0.00     0.005 C 
ATOM     20  C   UNL     1      31.253  26.694  11.390  1.00  0.00     0.003 C 
ATOM     21  C   UNL     1      31.115  29.276  11.571  1.00  0.00     0.031 C 
ATOM     22  C   UNL     1      32.798  26.931  11.711  1.00  0.00    -0.008 C 
ATOM     23  C   UNL     1      32.511  29.318  11.034  1.00  0.00    -0.027 C 
ATOM     24  C   UNL     1      33.299  28.225  11.052  1.00  0.00    -0.065 C 
ATOM     25  C   UNL     1      33.605  25.704  11.166  1.00  0.00     0.014 C 
ATOM     26  C   UNL     1      33.068  27.058  13.235  1.00  0.00     0.016 C 
ATOM     27  C   UNL     1      34.769  28.412  10.720  1.00  0.00     0.063 C 
ATOM     28  C   UNL     1      35.116  25.945  11.075  1.00  0.00     0.033 C 
ATOM     29  C   UNL     1      35.422  27.139  10.169  1.00  0.00     0.118 C 
BRANCH  29  30
ATOM     30  O   UNL     1      34.967  26.880   8.865  1.00  0.00    -0.393 OA
ATOM     31  H   UNL     1      33.984  27.012   8.871  1.00  0.00     0.210 HD
ENDBRANCH  29  30
ENDBRANCH   9  11
ENDBRANCH   1   9
TORSDOF 7
ENDMDL
MODEL 5
REMARK VINA RESULT:    -4.306      1.699      3.871
REMARK INTER + INTRA:          -8.131
REMARK INTER:                  -6.321
REMARK INTRA:                  -1.809
REMARK UNBOUND:                -2.189
REMARK SMILES CC[C@@H](CC[C@H](C)[C@H]1CC[C@@H]2[C@H]3CC=C4C[C@H](O)CC[C@]4(C)[C@H]3CC[C@]21C)C(C)C
REMARK SMILES IDX 5 1 4 2 3 3 2 4 1 5 28 6 29 7 30 8 6 9 7 10 8 11 9 12 26 13
REMARK SMILES IDX 10 14 11 15 25 16 27 17 12 18 24 19 23 20 13 21 21 22 14 23
REMARK SMILES IDX 15 24 20 25 22 26 16 27 19 28 17 29 18 30
REMARK H PARENT 18 31
REMARK Flexibility Score: inf
ROOT
ATOM      1  C   UNL     1      34.104  28.796  10.651  1.00  0.00     0.004 C 
ENDROOT
BRANCH   1   2
ATOM      2  C   UNL     1      35.103  27.630  10.778  1.00  0.00     0.004 C 
BRANCH   2   3
ATOM      3  C   UNL     1      34.988  26.902  12.145  1.00  0.00    -0.009 C 
BRANCH   3   4
ATOM      4  C   UNL     1      36.013  25.741  12.330  1.00  0.00     0.000 C 
ATOM      5  C   UNL     1      36.944  25.465  11.141  1.00  0.00     0.004 C 
ENDBRANCH   3   4
BRANCH   3   6
ATOM      6  C   UNL     1      33.527  26.478  12.520  1.00  0.00    -0.014 C 
ATOM      7  C   UNL     1      33.123  25.142  11.871  1.00  0.00     0.007 C 
ATOM      8  C   UNL     1      33.250  26.435  14.030  1.00  0.00     0.007 C 
ENDBRANCH   3   6
ENDBRANCH   2   3
ENDBRANCH   1   2
BRANCH   1   9
ATOM      9  C   UNL     1      33.978  29.306   9.185  1.00  0.00    -0.011 C 
ATOM     10  C   UNL     1      33.956  30.852   9.213  1.00  0.00     0.008 C 
BRANCH   9  11
ATOM     11  C   UNL     1      32.696  28.720   8.503  1.00  0.00    -0.002 C 
ATOM     12  C   UNL     1      32.918  27.316   7.875  1.00  0.00     0.005 C 
ATOM     13  C   UNL     1      31.381  28.575   9.379  1.00  0.00    -0.026 C 
ATOM     14  C   UNL     1      31.664  26.500   8.144  1.00  0.00     0.005 C 
ATOM     15  C   UNL     1      31.200  27.046   9.478  1.00  0.00    -0.001 C 
ATOM     16  C   UNL     1      31.357  29.142  10.844  1.00  0.00     0.007 C 
ATOM     17  C   UNL     1      30.233  29.264   8.575  1.00  0.00     0.012 C 
ATOM     18  C   UNL     1      29.795  26.634   9.974  1.00  0.00     0.000 C 
ATOM     19  C   UNL     1      30.591  28.257  11.868  1.00  0.00     0.005 C 
ATOM     20  C   UNL     1      29.397  27.443  11.272  1.00  0.00     0.003 C 
ATOM     21  C   UNL     1      29.702  25.117  10.168  1.00  0.00     0.031 C 
ATOM     22  C   UNL     1      28.592  26.617  12.375  1.00  0.00    -0.008 C 
ATOM     23  C   UNL     1      28.362  24.754  10.727  1.00  0.00    -0.027 C 
ATOM     24  C   UNL     1      27.807  25.465  11.728  1.00  0.00    -0.065 C 
ATOM     25  C   UNL     1      27.607  27.597  13.098  1.00  0.00     0.014 C 
ATOM     26  C   UNL     1      29.532  25.991  13.441  1.00  0.00     0.016 C 
ATOM     27  C   UNL     1      26.573  24.890  12.399  1.00  0.00     0.063 C 
ATOM     28  C   UNL     1      26.523  26.893  13.922  1.00  0.00     0.033 C 
ATOM     29  C   UNL     1      25.686  25.965  13.038  1.00  0.00     0.118 C 
BRANCH  29  30
ATOM     30  O   UNL     1      25.029  26.712  12.045  1.00  0.00    -0.393 OA
ATOM     31  H   UNL     1      25.375  27.641  12.108  1.00  0.00     0.210 HD
ENDBRANCH  29  30
ENDBRANCH   9  11
ENDBRANCH   1   9
TORSDOF 7
ENDMDL
MODEL 6
REMARK VINA RESULT:    -4.282      1.741      4.044
REMARK INTER + INTRA:          -8.099
REMARK INTER:                  -6.494
REMARK INTRA:                  -1.604
REMARK UNBOUND:                -2.189
REMARK SMILES CC[C@@H](CC[C@H](C)[C@H]1CC[C@@H]2[C@H]3CC=C4C[C@H](O)CC[C@]4(C)[C@H]3CC[C@]21C)C(C)C
REMARK SMILES IDX 5 1 4 2 3 3 2 4 1 5 28 6 29 7 30 8 6 9 7 10 8 11 9 12 26 13
REMARK SMILES IDX 10 14 11 15 25 16 27 17 12 18 24 19 23 20 13 21 21 22 14 23
REMARK SMILES IDX 15 24 20 25 22 26 16 27 19 28 17 29 18 30
REMARK H PARENT 18 31
REMARK Flexibility Score: inf
ROOT
ATOM      1  C   UNL     1      33.574  28.742  10.789  1.00  0.00     0.004 C 
ENDROOT
BRANCH   1   2
ATOM      2  C   UNL     1      34.970  28.098  10.906  1.00  0.00     0.004 C 
BRANCH   2   3
ATOM      3  C   UNL     1      35.049  27.071  12.070  1.00  0.00    -0.009 C 
BRANCH   3   4
ATOM      4  C   UNL     1      35.584  25.671  11.640  1.00  0.00     0.000 C 
ATOM      5  C   UNL     1      36.332  25.615  10.301  1.00  0.00     0.004 C 
ENDBRANCH   3   4
BRANCH   3   6
ATOM      6  C   UNL     1      33.740  26.977  12.926  1.00  0.00    -0.014 C 
ATOM      7  C   UNL     1      33.110  25.573  12.873  1.00  0.00     0.007 C 
ATOM      8  C   UNL     1      33.907  27.425  14.385  1.00  0.00     0.007 C 
ENDBRANCH   3   6
ENDBRANCH   2   3
ENDBRANCH   1   2
BRANCH   1   9
ATOM      9  C   UNL     1      32.726  28.104   9.651  1.00  0.00    -0.011 C 
ATOM     10  C   UNL     1      33.601  28.035   8.378  1.00  0.00     0.008 C 
BRANCH   9  11
ATOM     11  C   UNL     1      31.414  28.925   9.409  1.00  0.00    -0.002 C 
ATOM     12  C   UNL     1      30.988  28.982   7.917  1.00  0.00     0.005 C 
ATOM     13  C   UNL     1      30.105  28.494  10.195  1.00  0.00    -0.026 C 
ATOM     14  C   UNL     1      29.473  28.868   7.877  1.00  0.00     0.005 C 
ATOM     15  C   UNL     1      29.183  27.981   9.070  1.00  0.00    -0.001 C 
ATOM     16  C   UNL     1      30.188  27.362  11.281  1.00  0.00     0.007 C 
ATOM     17  C   UNL     1      29.553  29.784  10.882  1.00  0.00     0.012 C 
ATOM     18  C   UNL     1      27.709  27.835   9.515  1.00  0.00     0.000 C 
ATOM     19  C   UNL     1      28.967  26.398  11.305  1.00  0.00     0.005 C 
ATOM     20  C   UNL     1      27.609  27.043  10.879  1.00  0.00     0.003 C 
ATOM     21  C   UNL     1      26.856  27.213   8.404  1.00  0.00     0.031 C 
ATOM     22  C   UNL     1      26.375  26.039  11.001  1.00  0.00    -0.008 C 
ATOM     23  C   UNL     1      25.456  27.006   8.889  1.00  0.00    -0.027 C 
ATOM     24  C   UNL     1      25.208  26.499  10.113  1.00  0.00    -0.065 C 
ATOM     25  C   UNL     1      25.924  25.997  12.500  1.00  0.00     0.014 C 
ATOM     26  C   UNL     1      26.747  24.597  10.560  1.00  0.00     0.016 C 
ATOM     27  C   UNL     1      23.781  26.093  10.430  1.00  0.00     0.063 C 
ATOM     28  C   UNL     1      24.544  25.367  12.716  1.00  0.00     0.033 C 
ATOM     29  C   UNL     1      23.471  26.126  11.932  1.00  0.00     0.118 C 
BRANCH  29  30
ATOM     30  O   UNL     1      23.394  27.454  12.387  1.00  0.00    -0.393 OA
ATOM     31  H   UNL     1      22.973  27.983  11.660  1.00  0.00     0.210 HD
ENDBRANCH  29  30
ENDBRANCH   9  11
ENDBRANCH   1   9
TORSDOF 7
ENDMDL
MODEL 7
REMARK VINA RESULT:    -4.273      2.122      4.155
REMARK INTER + INTRA:          -8.086
REMARK INTER:                  -6.414
REMARK INTRA:                  -1.672
REMARK UNBOUND:                -2.189
REMARK SMILES CC[C@@H](CC[C@H](C)[C@H]1CC[C@@H]2[C@H]3CC=C4C[C@H](O)CC[C@]4(C)[C@H]3CC[C@]21C)C(C)C
REMARK SMILES IDX 5 1 4 2 3 3 2 4 1 5 28 6 29 7 30 8 6 9 7 10 8 11 9 12 26 13
REMARK SMILES IDX 10 14 11 15 25 16 27 17 12 18 24 19 23 20 13 21 21 22 14 23
REMARK SMILES IDX 15 24 20 25 22 26 16 27 19 28 17 29 18 30
REMARK H PARENT 18 31
REMARK Flexibility Score: inf
ROOT
ATOM      1  C   UNL     1      35.809  26.746   9.928  1.00  0.00     0.004 C 
ENDROOT
BRANCH   1   2
ATOM      2  C   UNL     1      36.100  25.292  10.350  1.00  0.00     0.004 C 
BRANCH   2   3
ATOM      3  C   UNL     1      36.783  25.210  11.744  1.00  0.00    -0.009 C 
BRANCH   3   4
ATOM      4  C   UNL     1      38.230  24.628  11.703  1.00  0.00     0.000 C 
ATOM      5  C   UNL     1      38.968  24.558  13.047  1.00  0.00     0.004 C 
ENDBRANCH   3   4
BRANCH   3   6
ATOM      6  C   UNL     1      35.897  24.541  12.848  1.00  0.00    -0.014 C 
ATOM      7  C   UNL     1      35.551  25.518  13.987  1.00  0.00     0.007 C 
ATOM      8  C   UNL     1      34.619  23.877  12.316  1.00  0.00     0.007 C 
ENDBRANCH   3   6
ENDBRANCH   2   3
ENDBRANCH   1   2
BRANCH   1   9
ATOM      9  C   UNL     1      34.293  26.991   9.673  1.00  0.00    -0.011 C 
ATOM     10  C   UNL     1      34.150  27.803   8.364  1.00  0.00     0.008 C 
BRANCH   9  11
ATOM     11  C   UNL     1      33.639  27.731  10.888  1.00  0.00    -0.002 C 
ATOM     12  C   UNL     1      33.261  29.207  10.582  1.00  0.00     0.005 C 
ATOM     13  C   UNL     1      32.336  27.099  11.537  1.00  0.00    -0.026 C 
ATOM     14  C   UNL     1      31.930  29.481  11.264  1.00  0.00     0.005 C 
ATOM     15  C   UNL     1      31.244  28.133  11.192  1.00  0.00    -0.001 C 
ATOM     16  C   UNL     1      31.824  25.699  11.044  1.00  0.00     0.007 C 
ATOM     17  C   UNL     1      32.607  27.002  13.072  1.00  0.00     0.012 C 
ATOM     18  C   UNL     1      29.949  27.941  12.014  1.00  0.00     0.000 C 
ATOM     19  C   UNL     1      30.277  25.573  10.948  1.00  0.00     0.005 C 
ATOM     20  C   UNL     1      29.480  26.432  11.982  1.00  0.00     0.003 C 
ATOM     21  C   UNL     1      28.856  28.912  11.556  1.00  0.00     0.031 C 
ATOM     22  C   UNL     1      27.903  26.205  11.900  1.00  0.00    -0.008 C 
ATOM     23  C   UNL     1      27.590  28.649  12.308  1.00  0.00    -0.027 C 
ATOM     24  C   UNL     1      27.148  27.394  12.516  1.00  0.00    -0.065 C 
ATOM     25  C   UNL     1      27.556  24.889  12.674  1.00  0.00     0.014 C 
ATOM     26  C   UNL     1      27.407  26.057  10.435  1.00  0.00     0.016 C 
ATOM     27  C   UNL     1      25.744  27.223  13.067  1.00  0.00     0.063 C 
ATOM     28  C   UNL     1      26.065  24.728  12.991  1.00  0.00     0.033 C 
ATOM     29  C   UNL     1      25.557  25.905  13.826  1.00  0.00     0.118 C 
BRANCH  29  30
ATOM     30  O   UNL     1      26.236  25.948  15.056  1.00  0.00    -0.393 OA
ATOM     31  H   UNL     1      25.546  26.027  15.764  1.00  0.00     0.210 HD
ENDBRANCH  29  30
ENDBRANCH   9  11
ENDBRANCH   1   9
TORSDOF 7
ENDMDL
MODEL 8
REMARK VINA RESULT:    -4.261      1.820      4.453
REMARK INTER + INTRA:          -8.069
REMARK INTER:                  -6.510
REMARK INTRA:                  -1.560
REMARK UNBOUND:                -2.189
REMARK SMILES CC[C@@H](CC[C@H](C)[C@H]1CC[C@@H]2[C@H]3CC=C4C[C@H](O)CC[C@]4(C)[C@H]3CC[C@]21C)C(C)C
REMARK SMILES IDX 5 1 4 2 3 3 2 4 1 5 28 6 29 7 30 8 6 9 7 10 8 11 9 12 26 13
REMARK SMILES IDX 10 14 11 15 25 16 27 17 12 18 24 19 23 20 13 21 21 22 14 23
REMARK SMILES IDX 15 24 20 25 22 26 16 27 19 28 17 29 18 30
REMARK H PARENT 18 31
REMARK Flexibility Score: inf
ROOT
ATOM      1  C   UNL     1      31.520  26.316  12.190  1.00  0.00     0.004 C 
ENDROOT
BRANCH   1   2
ATOM      2  C   UNL     1      32.904  26.118  11.542  1.00  0.00     0.004 C 
BRANCH   2   3
ATOM      3  C   UNL     1      33.957  27.125  12.084  1.00  0.00    -0.009 C 
BRANCH   3   4
ATOM      4  C   UNL     1      33.436  28.010  13.257  1.00  0.00     0.000 C 
ATOM      5  C   UNL     1      33.950  27.647  14.658  1.00  0.00     0.004 C 
ENDBRANCH   3   4
BRANCH   3   6
ATOM      6  C   UNL     1      34.668  27.964  10.968  1.00  0.00    -0.014 C 
ATOM      7  C   UNL     1      35.360  27.072   9.921  1.00  0.00     0.007 C 
ATOM      8  C   UNL     1      33.758  28.986  10.271  1.00  0.00     0.007 C 
ENDBRANCH   3   6
ENDBRANCH   2   3
ENDBRANCH   1   2
BRANCH   1   9
ATOM      9  C   UNL     1      30.399  26.522  11.129  1.00  0.00    -0.011 C 
ATOM     10  C   UNL     1      31.033  26.387   9.726  1.00  0.00     0.008 C 
BRANCH   9  11
ATOM     11  C   UNL     1      29.703  27.912  11.321  1.00  0.00    -0.002 C 
ATOM     12  C   UNL     1      29.983  28.907  10.161  1.00  0.00     0.005 C 
ATOM     13  C   UNL     1      28.128  27.940  11.515  1.00  0.00    -0.026 C 
ATOM     14  C   UNL     1      28.693  29.666   9.898  1.00  0.00     0.005 C 
ATOM     15  C   UNL     1      27.636  28.633  10.228  1.00  0.00    -0.001 C 
ATOM     16  C   UNL     1      27.338  26.590  11.648  1.00  0.00     0.007 C 
ATOM     17  C   UNL     1      27.854  28.790  12.797  1.00  0.00     0.012 C 
ATOM     18  C   UNL     1      26.168  29.112  10.323  1.00  0.00     0.000 C 
ATOM     19  C   UNL     1      25.957  26.575  10.931  1.00  0.00     0.005 C 
ATOM     20  C   UNL     1      25.234  27.958  10.864  1.00  0.00     0.003 C 
ATOM     21  C   UNL     1      25.688  29.686   8.985  1.00  0.00     0.031 C 
ATOM     22  C   UNL     1      23.788  27.876  10.196  1.00  0.00    -0.008 C 
ATOM     23  C   UNL     1      24.243  30.064   9.080  1.00  0.00    -0.027 C 
ATOM     24  C   UNL     1      23.347  29.254   9.677  1.00  0.00    -0.065 C 
ATOM     25  C   UNL     1      22.777  27.361  11.275  1.00  0.00     0.014 C 
ATOM     26  C   UNL     1      23.755  26.899   8.988  1.00  0.00     0.016 C 
ATOM     27  C   UNL     1      21.876  29.591   9.514  1.00  0.00     0.063 C 
ATOM     28  C   UNL     1      21.306  27.569  10.899  1.00  0.00     0.033 C 
ATOM     29  C   UNL     1      21.010  29.050  10.658  1.00  0.00     0.118 C 
BRANCH  29  30
ATOM     30  O   UNL     1      21.242  29.783  11.835  1.00  0.00    -0.393 OA
ATOM     31  H   UNL     1      20.837  29.266  12.580  1.00  0.00     0.210 HD
ENDBRANCH  29  30
ENDBRANCH   9  11
ENDBRANCH   1   9
TORSDOF 7
ENDMDL
MODEL 9
REMARK VINA RESULT:    -4.254      1.729      4.172
REMARK INTER + INTRA:          -8.060
REMARK INTER:                  -6.559
REMARK INTRA:                  -1.501
REMARK UNBOUND:                -2.189
REMARK SMILES CC[C@@H](CC[C@H](C)[C@H]1CC[C@@H]2[C@H]3CC=C4C[C@H](O)CC[C@]4(C)[C@H]3CC[C@]21C)C(C)C
REMARK SMILES IDX 5 1 4 2 3 3 2 4 1 5 28 6 29 7 30 8 6 9 7 10 8 11 9 12 26 13
REMARK SMILES IDX 10 14 11 15 25 16 27 17 12 18 24 19 23 20 13 21 21 22 14 23
REMARK SMILES IDX 15 24 20 25 22 26 16 27 19 28 17 29 18 30
REMARK H PARENT 18 31
REMARK Flexibility Score: inf
ROOT
ATOM      1  C   UNL     1      32.589  27.729  12.468  1.00  0.00     0.004 C 
ENDROOT
BRANCH   1   2
ATOM      2  C   UNL     1      33.601  26.605  12.168  1.00  0.00     0.004 C 
BRANCH   2   3
ATOM      3  C   UNL     1      34.909  27.147  11.528  1.00  0.00    -0.009 C 
BRANCH   3   4
ATOM      4  C   UNL     1      34.706  28.435  10.674  1.00  0.00     0.000 C 
ATOM      5  C   UNL     1      34.123  28.230   9.268  1.00  0.00     0.004 C 
ENDBRANCH   3   4
BRANCH   3   6
ATOM      6  C   UNL     1      35.751  26.057  10.781  1.00  0.00    -0.014 C 
ATOM      7  C   UNL     1      36.978  25.609  11.596  1.00  0.00     0.007 C 
ATOM      8  C   UNL     1      34.940  24.831  10.333  1.00  0.00     0.007 C 
ENDBRANCH   3   6
ENDBRANCH   2   3
ENDBRANCH   1   2
BRANCH   1   9
ATOM      9  C   UNL     1      31.151  27.368  11.992  1.00  0.00    -0.011 C 
ATOM     10  C   UNL     1      31.270  26.400  10.792  1.00  0.00     0.008 C 
BRANCH   9  11
ATOM     11  C   UNL     1      30.350  28.660  11.618  1.00  0.00    -0.002 C 
ATOM     12  C   UNL     1      30.621  29.157  10.172  1.00  0.00     0.005 C 
ATOM     13  C   UNL     1      28.769  28.625  11.752  1.00  0.00    -0.026 C 
ATOM     14  C   UNL     1      29.296  29.644   9.608  1.00  0.00     0.005 C 
ATOM     15  C   UNL     1      28.298  28.730  10.286  1.00  0.00    -0.001 C 
ATOM     16  C   UNL     1      28.070  27.366  12.377  1.00  0.00     0.007 C 
ATOM     17  C   UNL     1      28.368  29.874  12.601  1.00  0.00     0.012 C 
ATOM     18  C   UNL     1      26.798  29.080  10.157  1.00  0.00     0.000 C 
ATOM     19  C   UNL     1      26.734  26.960  11.691  1.00  0.00     0.005 C 
ATOM     20  C   UNL     1      25.919  28.145  11.080  1.00  0.00     0.003 C 
ATOM     21  C   UNL     1      26.351  29.056   8.691  1.00  0.00     0.031 C 
ATOM     22  C   UNL     1      24.521  27.690  10.463  1.00  0.00    -0.008 C 
ATOM     23  C   UNL     1      24.880  29.316   8.601  1.00  0.00    -0.027 C 
ATOM     24  C   UNL     1      24.012  28.722   9.444  1.00  0.00    -0.065 C 
ATOM     25  C   UNL     1      23.492  27.543  11.635  1.00  0.00     0.014 C 
ATOM     26  C   UNL     1      24.621  26.327   9.724  1.00  0.00     0.016 C 
ATOM     27  C   UNL     1      22.532  28.844   9.131  1.00  0.00     0.063 C 
ATOM     28  C   UNL     1      22.033  27.464  11.175  1.00  0.00     0.033 C 
ATOM     29  C   UNL     1      21.647  28.710  10.376  1.00  0.00     0.118 C 
BRANCH  29  30
ATOM     30  O   UNL     1      21.763  29.853  11.185  1.00  0.00    -0.393 OA
ATOM     31  H   UNL     1      20.949  29.888  11.752  1.00  0.00     0.210 HD
ENDBRANCH  29  30
ENDBRANCH   9  11
ENDBRANCH   1   9
TORSDOF 7
ENDMDL
