MODEL 1
REMARK VINA RESULT:    -6.483      0.000      0.000
REMARK INTER + INTRA:         -10.788
REMARK INTER:                  -8.946
REMARK INTRA:                  -1.842
REMARK UNBOUND:                -1.842
REMARK SMILES CC[C@@H](CC[C@@H](C)[C@@H]1CC[C@@H]2[C@@H]3CC=C4C[C@@H](O)CC[C@]4(C)[C@H]3CC[C@@]21C)C(C)C
REMARK SMILES IDX 5 1 4 2 3 3 2 4 1 5 28 6 29 7 30 8 6 9 7 10 8 11 9 12 26 13
REMARK SMILES IDX 10 14 11 15 25 16 27 17 12 18 24 19 23 20 13 21 21 22 14 23
REMARK SMILES IDX 15 24 20 25 22 26 16 27 19 28 17 29 18 30
REMARK H PARENT 18 31
REMARK Flexibility Score: inf
ROOT
ATOM      1  C   UNL     1      33.081  28.308  15.759  1.00  0.00     0.004 C 
ENDROOT
BRANCH   1   2
ATOM      2  C   UNL     1      33.219  29.767  15.274  1.00  0.00     0.004 C 
BRANCH   2   3
ATOM      3  C   UNL     1      31.900  30.451  14.802  1.00  0.00    -0.009 C 
BRANCH   3   4
ATOM      4  C   UNL     1      31.872  30.673  13.258  1.00  0.00     0.000 C 
ATOM      5  C   UNL     1      30.518  31.051  12.643  1.00  0.00     0.004 C 
ENDBRANCH   3   4
BRANCH   3   6
ATOM      6  C   UNL     1      31.467  31.701  15.646  1.00  0.00    -0.014 C 
ATOM      7  C   UNL     1      31.403  31.361  17.150  1.00  0.00     0.007 C 
ATOM      8  C   UNL     1      32.424  32.898  15.469  1.00  0.00     0.007 C 
ENDBRANCH   3   6
ENDBRANCH   2   3
ENDBRANCH   1   2
BRANCH   1   9
ATOM      9  C   UNL     1      32.278  27.380  14.808  1.00  0.00    -0.011 C 
ATOM     10  C   UNL     1      33.154  26.177  14.384  1.00  0.00     0.008 C 
BRANCH   9  11
ATOM     11  C   UNL     1      30.875  26.906  15.350  1.00  0.00    -0.002 C 
ATOM     12  C   UNL     1      30.737  25.371  15.272  1.00  0.00     0.005 C 
ATOM     13  C   UNL     1      29.579  27.440  14.651  1.00  0.00    -0.026 C 
ATOM     14  C   UNL     1      29.259  25.043  15.107  1.00  0.00     0.005 C 
ATOM     15  C   UNL     1      28.519  26.383  15.058  1.00  0.00    -0.001 C 
ATOM     16  C   UNL     1      29.749  27.478  13.102  1.00  0.00     0.007 C 
ATOM     17  C   UNL     1      29.147  28.826  15.195  1.00  0.00     0.012 C 
ATOM     18  C   UNL     1      27.218  26.398  14.197  1.00  0.00     0.000 C 
ATOM     19  C   UNL     1      28.426  27.578  12.334  1.00  0.00     0.005 C 
ATOM     20  C   UNL     1      27.500  26.381  12.667  1.00  0.00     0.003 C 
ATOM     21  C   UNL     1      26.193  25.331  14.669  1.00  0.00     0.031 C 
ATOM     22  C   UNL     1      26.156  26.316  11.842  1.00  0.00    -0.008 C 
ATOM     23  C   UNL     1      25.377  24.688  13.582  1.00  0.00    -0.027 C 
ATOM     24  C   UNL     1      25.410  25.051  12.284  1.00  0.00    -0.065 C 
ATOM     25  C   UNL     1      26.407  26.263  10.295  1.00  0.00     0.014 C 
ATOM     26  C   UNL     1      25.239  27.535  12.129  1.00  0.00     0.016 C 
ATOM     27  C   UNL     1      24.660  24.177  11.282  1.00  0.00     0.063 C 
ATOM     28  C   UNL     1      26.650  24.839   9.791  1.00  0.00     0.033 C 
ATOM     29  C   UNL     1      25.355  24.028   9.903  1.00  0.00     0.118 C 
BRANCH  29  30
ATOM     30  O   UNL     1      24.482  24.413   8.872  1.00  0.00    -0.393 OA
ATOM     31  H   UNL     1      23.563  24.208   9.174  1.00  0.00     0.210 HD
ENDBRANCH  29  30
ENDBRANCH   9  11
ENDBRANCH   1   9
TORSDOF 7
ENDMDL
MODEL 2
REMARK VINA RESULT:    -6.367      3.788      7.114
REMARK INTER + INTRA:         -10.628
REMARK INTER:                  -8.834
REMARK INTRA:                  -1.794
REMARK UNBOUND:                -1.842
REMARK SMILES CC[C@@H](CC[C@@H](C)[C@@H]1CC[C@@H]2[C@@H]3CC=C4C[C@@H](O)CC[C@]4(C)[C@H]3CC[C@@]21C)C(C)C
REMARK SMILES IDX 5 1 4 2 3 3 2 4 1 5 28 6 29 7 30 8 6 9 7 10 8 11 9 12 26 13
REMARK SMILES IDX 10 14 11 15 25 16 27 17 12 18 24 19 23 20 13 21 21 22 14 23
REMARK SMILES IDX 15 24 20 25 22 26 16 27 19 28 17 29 18 30
REMARK H PARENT 18 31
REMARK Flexibility Score: inf
ROOT
ATOM      1  C   UNL     1      29.930  31.354  14.849  1.00  0.00     0.004 C 
ENDROOT
BRANCH   1   2
ATOM      2  C   UNL     1      29.468  31.655  13.407  1.00  0.00     0.004 C 
BRANCH   2   3
ATOM      3  C   UNL     1      29.749  30.536  12.359  1.00  0.00    -0.009 C 
BRANCH   3   4
ATOM      4  C   UNL     1      30.536  31.071  11.123  1.00  0.00     0.000 C 
ATOM      5  C   UNL     1      32.063  30.944  11.174  1.00  0.00     0.004 C 
ENDBRANCH   3   4
BRANCH   3   6
ATOM      6  C   UNL     1      28.510  29.641  12.002  1.00  0.00    -0.014 C 
ATOM      7  C   UNL     1      28.957  28.256  11.485  1.00  0.00     0.007 C 
ATOM      8  C   UNL     1      27.571  29.419  13.205  1.00  0.00     0.007 C 
ENDBRANCH   3   6
ENDBRANCH   2   3
ENDBRANCH   1   2
BRANCH   1   9
ATOM      9  C   UNL     1      31.460  31.147  15.012  1.00  0.00    -0.011 C 
ATOM     10  C   UNL     1      32.081  32.366  15.735  1.00  0.00     0.008 C 
BRANCH   9  11
ATOM     11  C   UNL     1      31.890  29.792  15.694  1.00  0.00    -0.002 C 
ATOM     12  C   UNL     1      33.340  29.869  16.218  1.00  0.00     0.005 C 
ATOM     13  C   UNL     1      31.862  28.479  14.842  1.00  0.00    -0.026 C 
ATOM     14  C   UNL     1      33.920  28.461  16.192  1.00  0.00     0.005 C 
ATOM     15  C   UNL     1      32.826  27.550  15.627  1.00  0.00    -0.001 C 
ATOM     16  C   UNL     1      32.397  28.730  13.400  1.00  0.00     0.007 C 
ATOM     17  C   UNL     1      30.454  27.832  14.806  1.00  0.00     0.012 C 
ATOM     18  C   UNL     1      33.334  26.311  14.828  1.00  0.00     0.000 C 
ATOM     19  C   UNL     1      32.795  27.452  12.653  1.00  0.00     0.005 C 
ATOM     20  C   UNL     1      33.894  26.679  13.424  1.00  0.00     0.003 C 
ATOM     21  C   UNL     1      34.277  25.414  15.676  1.00  0.00     0.031 C 
ATOM     22  C   UNL     1      34.468  25.407  12.688  1.00  0.00    -0.008 C 
ATOM     23  C   UNL     1      35.400  24.756  14.923  1.00  0.00    -0.027 C 
ATOM     24  C   UNL     1      35.562  24.815  13.585  1.00  0.00    -0.065 C 
ATOM     25  C   UNL     1      35.073  25.751  11.283  1.00  0.00     0.014 C 
ATOM     26  C   UNL     1      33.382  24.317  12.479  1.00  0.00     0.016 C 
ATOM     27  C   UNL     1      36.854  24.249  13.000  1.00  0.00     0.063 C 
ATOM     28  C   UNL     1      36.528  26.213  11.370  1.00  0.00     0.033 C 
ATOM     29  C   UNL     1      37.415  25.036  11.787  1.00  0.00     0.118 C 
BRANCH  29  30
ATOM     30  O   UNL     1      37.588  24.180  10.687  1.00  0.00    -0.393 OA
ATOM     31  H   UNL     1      37.397  24.706   9.872  1.00  0.00     0.210 HD
ENDBRANCH  29  30
ENDBRANCH   9  11
ENDBRANCH   1   9
TORSDOF 7
ENDMDL
MODEL 3
REMARK VINA RESULT:    -6.118      1.916      4.619
REMARK INTER + INTRA:         -10.284
REMARK INTER:                  -8.606
REMARK INTRA:                  -1.679
REMARK UNBOUND:                -1.842
REMARK SMILES CC[C@@H](CC[C@@H](C)[C@@H]1CC[C@@H]2[C@@H]3CC=C4C[C@@H](O)CC[C@]4(C)[C@H]3CC[C@@]21C)C(C)C
REMARK SMILES IDX 5 1 4 2 3 3 2 4 1 5 28 6 29 7 30 8 6 9 7 10 8 11 9 12 26 13
REMARK SMILES IDX 10 14 11 15 25 16 27 17 12 18 24 19 23 20 13 21 21 22 14 23
REMARK SMILES IDX 15 24 20 25 22 26 16 27 19 28 17 29 18 30
REMARK H PARENT 18 31
REMARK Flexibility Score: inf
ROOT
ATOM      1  C   UNL     1      33.577  29.920  15.855  1.00  0.00     0.004 C 
ENDROOT
BRANCH   1   2
ATOM      2  C   UNL     1      33.821  28.481  16.357  1.00  0.00     0.004 C 
BRANCH   2   3
ATOM      3  C   UNL     1      33.766  27.366  15.268  1.00  0.00    -0.009 C 
BRANCH   3   4
ATOM      4  C   UNL     1      32.921  26.137  15.727  1.00  0.00     0.000 C 
ATOM      5  C   UNL     1      32.060  25.457  14.655  1.00  0.00     0.004 C 
ENDBRANCH   3   4
BRANCH   3   6
ATOM      6  C   UNL     1      35.151  26.999  14.629  1.00  0.00    -0.014 C 
ATOM      7  C   UNL     1      35.555  25.549  14.973  1.00  0.00     0.007 C 
ATOM      8  C   UNL     1      35.152  27.141  13.092  1.00  0.00     0.007 C 
ENDBRANCH   3   6
ENDBRANCH   2   3
ENDBRANCH   1   2
BRANCH   1   9
ATOM      9  C   UNL     1      32.084  30.342  15.792  1.00  0.00    -0.011 C 
ATOM     10  C   UNL     1      31.800  31.430  16.856  1.00  0.00     0.008 C 
BRANCH   9  11
ATOM     11  C   UNL     1      31.564  30.779  14.370  1.00  0.00    -0.002 C 
ATOM     12  C   UNL     1      30.313  31.677  14.485  1.00  0.00     0.005 C 
ATOM     13  C   UNL     1      31.142  29.669  13.349  1.00  0.00    -0.026 C 
ATOM     14  C   UNL     1      29.480  31.480  13.226  1.00  0.00     0.005 C 
ATOM     15  C   UNL     1      30.219  30.445  12.372  1.00  0.00    -0.001 C 
ATOM     16  C   UNL     1      30.354  28.524  14.055  1.00  0.00     0.007 C 
ATOM     17  C   UNL     1      32.352  29.105  12.561  1.00  0.00     0.012 C 
ATOM     18  C   UNL     1      29.312  29.545  11.477  1.00  0.00     0.000 C 
ATOM     19  C   UNL     1      29.556  27.635  13.094  1.00  0.00     0.005 C 
ATOM     20  C   UNL     1      28.531  28.471  12.287  1.00  0.00     0.003 C 
ATOM     21  C   UNL     1      28.429  30.382  10.512  1.00  0.00     0.031 C 
ATOM     22  C   UNL     1      27.569  27.641  11.351  1.00  0.00    -0.008 C 
ATOM     23  C   UNL     1      27.059  29.828  10.237  1.00  0.00    -0.027 C 
ATOM     24  C   UNL     1      26.613  28.635  10.682  1.00  0.00    -0.065 C 
ATOM     25  C   UNL     1      26.741  26.571  12.145  1.00  0.00     0.014 C 
ATOM     26  C   UNL     1      28.346  26.899  10.231  1.00  0.00     0.016 C 
ATOM     27  C   UNL     1      25.137  28.304  10.471  1.00  0.00     0.063 C 
ATOM     28  C   UNL     1      25.461  27.152  12.748  1.00  0.00     0.033 C 
ATOM     29  C   UNL     1      24.480  27.505  11.627  1.00  0.00     0.118 C 
BRANCH  29  30
ATOM     30  O   UNL     1      23.899  26.325  11.136  1.00  0.00    -0.393 OA
ATOM     31  H   UNL     1      24.023  26.321  10.155  1.00  0.00     0.210 HD
ENDBRANCH  29  30
ENDBRANCH   9  11
ENDBRANCH   1   9
TORSDOF 7
ENDMDL
MODEL 4
REMARK VINA RESULT:    -6.070      4.548      8.058
REMARK INTER + INTRA:         -10.218
REMARK INTER:                  -8.513
REMARK INTRA:                  -1.705
REMARK UNBOUND:                -1.842
REMARK SMILES CC[C@@H](CC[C@@H](C)[C@@H]1CC[C@@H]2[C@@H]3CC=C4C[C@@H](O)CC[C@]4(C)[C@H]3CC[C@@]21C)C(C)C
REMARK SMILES IDX 5 1 4 2 3 3 2 4 1 5 28 6 29 7 30 8 6 9 7 10 8 11 9 12 26 13
REMARK SMILES IDX 10 14 11 15 25 16 27 17 12 18 24 19 23 20 13 21 21 22 14 23
REMARK SMILES IDX 15 24 20 25 22 26 16 27 19 28 17 29 18 30
REMARK H PARENT 18 31
REMARK Flexibility Score: inf
ROOT
ATOM      1  C   UNL     1      34.766  27.793   8.130  1.00  0.00     0.004 C 
ENDROOT
BRANCH   1   2
ATOM      2  C   UNL     1      36.004  27.141   8.782  1.00  0.00     0.004 C 
BRANCH   2   3
ATOM      3  C   UNL     1      35.709  26.125   9.927  1.00  0.00    -0.009 C 
BRANCH   3   4
ATOM      4  C   UNL     1      36.490  26.467  11.233  1.00  0.00     0.000 C 
ATOM      5  C   UNL     1      35.888  25.956  12.548  1.00  0.00     0.004 C 
ENDBRANCH   3   4
BRANCH   3   6
ATOM      6  C   UNL     1      35.782  24.615   9.504  1.00  0.00    -0.014 C 
ATOM      7  C   UNL     1      35.081  24.384   8.148  1.00  0.00     0.007 C 
ATOM      8  C   UNL     1      37.232  24.101   9.385  1.00  0.00     0.007 C 
ENDBRANCH   3   6
ENDBRANCH   2   3
ENDBRANCH   1   2
BRANCH   1   9
ATOM      9  C   UNL     1      34.282  29.100   8.815  1.00  0.00    -0.011 C 
ATOM     10  C   UNL     1      34.553  30.310   7.888  1.00  0.00     0.008 C 
BRANCH   9  11
ATOM     11  C   UNL     1      32.790  29.087   9.322  1.00  0.00    -0.002 C 
ATOM     12  C   UNL     1      32.251  30.522   9.506  1.00  0.00     0.005 C 
ATOM     13  C   UNL     1      32.463  28.380  10.680  1.00  0.00    -0.026 C 
ATOM     14  C   UNL     1      31.189  30.484  10.597  1.00  0.00     0.005 C 
ATOM     15  C   UNL     1      31.114  29.032  11.081  1.00  0.00    -0.001 C 
ATOM     16  C   UNL     1      33.556  28.680  11.749  1.00  0.00     0.007 C 
ATOM     17  C   UNL     1      32.256  26.853  10.512  1.00  0.00     0.012 C 
ATOM     18  C   UNL     1      30.718  28.847  12.579  1.00  0.00     0.000 C 
ATOM     19  C   UNL     1      33.115  28.390  13.189  1.00  0.00     0.005 C 
ATOM     20  C   UNL     1      31.863  29.224  13.563  1.00  0.00     0.003 C 
ATOM     21  C   UNL     1      29.351  29.506  12.908  1.00  0.00     0.031 C 
ATOM     22  C   UNL     1      31.389  29.096  15.062  1.00  0.00    -0.008 C 
ATOM     23  C   UNL     1      29.235  30.111  14.280  1.00  0.00    -0.027 C 
ATOM     24  C   UNL     1      30.179  30.020  15.239  1.00  0.00    -0.065 C 
ATOM     25  C   UNL     1      32.512  29.503  16.080  1.00  0.00     0.014 C 
ATOM     26  C   UNL     1      30.940  27.651  15.409  1.00  0.00     0.016 C 
ATOM     27  C   UNL     1      29.984  30.845  16.509  1.00  0.00     0.063 C 
ATOM     28  C   UNL     1      32.546  31.009  16.341  1.00  0.00     0.033 C 
ATOM     29  C   UNL     1      31.290  31.424  17.113  1.00  0.00     0.118 C 
BRANCH  29  30
ATOM     30  O   UNL     1      31.424  31.030  18.454  1.00  0.00    -0.393 OA
ATOM     31  H   UNL     1      30.665  31.421  18.953  1.00  0.00     0.210 HD
ENDBRANCH  29  30
ENDBRANCH   9  11
ENDBRANCH   1   9
TORSDOF 7
ENDMDL
MODEL 5
REMARK VINA RESULT:    -6.067      3.840      6.792
REMARK INTER + INTRA:         -10.214
REMARK INTER:                  -8.835
REMARK INTRA:                  -1.378
REMARK UNBOUND:                -1.842
REMARK SMILES CC[C@@H](CC[C@@H](C)[C@@H]1CC[C@@H]2[C@@H]3CC=C4C[C@@H](O)CC[C@]4(C)[C@H]3CC[C@@]21C)C(C)C
REMARK SMILES IDX 5 1 4 2 3 3 2 4 1 5 28 6 29 7 30 8 6 9 7 10 8 11 9 12 26 13
REMARK SMILES IDX 10 14 11 15 25 16 27 17 12 18 24 19 23 20 13 21 21 22 14 23
REMARK SMILES IDX 15 24 20 25 22 26 16 27 19 28 17 29 18 30
REMARK H PARENT 18 31
REMARK Flexibility Score: inf
ROOT
ATOM      1  C   UNL     1      28.645  30.191  13.874  1.00  0.00     0.004 C 
ENDROOT
BRANCH   1   2
ATOM      2  C   UNL     1      29.665  31.019  14.685  1.00  0.00     0.004 C 
BRANCH   2   3
ATOM      3  C   UNL     1      30.883  30.227  15.250  1.00  0.00    -0.009 C 
BRANCH   3   4
ATOM      4  C   UNL     1      30.462  28.853  15.858  1.00  0.00     0.000 C 
ATOM      5  C   UNL     1      31.363  27.654  15.538  1.00  0.00     0.004 C 
ENDBRANCH   3   4
BRANCH   3   6
ATOM      6  C   UNL     1      31.855  31.065  16.153  1.00  0.00    -0.014 C 
ATOM      7  C   UNL     1      32.015  32.502  15.611  1.00  0.00     0.007 C 
ATOM      8  C   UNL     1      31.373  31.159  17.616  1.00  0.00     0.007 C 
ENDBRANCH   3   6
ENDBRANCH   2   3
ENDBRANCH   1   2
BRANCH   1   9
ATOM      9  C   UNL     1      28.867  30.210  12.338  1.00  0.00    -0.011 C 
ATOM     10  C   UNL     1      29.896  31.306  11.970  1.00  0.00     0.008 C 
BRANCH   9  11
ATOM     11  C   UNL     1      29.249  28.823  11.692  1.00  0.00    -0.002 C 
ATOM     12  C   UNL     1      28.942  27.657  12.655  1.00  0.00     0.005 C 
ATOM     13  C   UNL     1      30.734  28.579  11.259  1.00  0.00    -0.026 C 
ATOM     14  C   UNL     1      29.914  26.528  12.343  1.00  0.00     0.005 C 
ATOM     15  C   UNL     1      30.819  27.030  11.214  1.00  0.00    -0.001 C 
ATOM     16  C   UNL     1      31.730  29.153  12.311  1.00  0.00     0.007 C 
ATOM     17  C   UNL     1      31.034  29.143   9.847  1.00  0.00     0.012 C 
ATOM     18  C   UNL     1      32.269  26.456  11.212  1.00  0.00     0.000 C 
ATOM     19  C   UNL     1      33.154  28.599  12.186  1.00  0.00     0.005 C 
ATOM     20  C   UNL     1      33.164  27.056  12.335  1.00  0.00     0.003 C 
ATOM     21  C   UNL     1      32.283  24.904  11.147  1.00  0.00     0.031 C 
ATOM     22  C   UNL     1      34.593  26.387  12.342  1.00  0.00    -0.008 C 
ATOM     23  C   UNL     1      33.388  24.231  11.913  1.00  0.00    -0.027 C 
ATOM     24  C   UNL     1      34.390  24.880  12.540  1.00  0.00    -0.065 C 
ATOM     25  C   UNL     1      35.509  26.947  13.486  1.00  0.00     0.014 C 
ATOM     26  C   UNL     1      35.339  26.595  10.997  1.00  0.00     0.016 C 
ATOM     27  C   UNL     1      35.325  24.059  13.425  1.00  0.00     0.063 C 
ATOM     28  C   UNL     1      35.291  26.224  14.815  1.00  0.00     0.033 C 
ATOM     29  C   UNL     1      35.808  24.786  14.708  1.00  0.00     0.118 C 
BRANCH  29  30
ATOM     30  O   UNL     1      37.211  24.797  14.764  1.00  0.00    -0.393 OA
ATOM     31  H   UNL     1      37.469  24.639  15.706  1.00  0.00     0.210 HD
ENDBRANCH  29  30
ENDBRANCH   9  11
ENDBRANCH   1   9
TORSDOF 7
ENDMDL
MODEL 6
REMARK VINA RESULT:    -6.001      1.699      2.751
REMARK INTER + INTRA:         -10.124
REMARK INTER:                  -8.615
REMARK INTRA:                  -1.509
REMARK UNBOUND:                -1.842
REMARK SMILES CC[C@@H](CC[C@@H](C)[C@@H]1CC[C@@H]2[C@@H]3CC=C4C[C@@H](O)CC[C@]4(C)[C@H]3CC[C@@]21C)C(C)C
REMARK SMILES IDX 5 1 4 2 3 3 2 4 1 5 28 6 29 7 30 8 6 9 7 10 8 11 9 12 26 13
REMARK SMILES IDX 10 14 11 15 25 16 27 17 12 18 24 19 23 20 13 21 21 22 14 23
REMARK SMILES IDX 15 24 20 25 22 26 16 27 19 28 17 29 18 30
REMARK H PARENT 18 31
REMARK Flexibility Score: inf
ROOT
ATOM      1  C   UNL     1      32.114  29.972  12.504  1.00  0.00     0.004 C 
ENDROOT
BRANCH   1   2
ATOM      2  C   UNL     1      31.640  30.708  13.777  1.00  0.00     0.004 C 
BRANCH   2   3
ATOM      3  C   UNL     1      32.321  30.263  15.107  1.00  0.00    -0.009 C 
BRANCH   3   4
ATOM      4  C   UNL     1      31.824  28.864  15.585  1.00  0.00     0.000 C 
ATOM      5  C   UNL     1      32.795  27.691  15.402  1.00  0.00     0.004 C 
ENDBRANCH   3   4
BRANCH   3   6
ATOM      6  C   UNL     1      32.352  31.359  16.231  1.00  0.00    -0.014 C 
ATOM      7  C   UNL     1      32.154  32.770  15.635  1.00  0.00     0.007 C 
ATOM      8  C   UNL     1      31.266  31.139  17.305  1.00  0.00     0.007 C 
ENDBRANCH   3   6
ENDBRANCH   2   3
ENDBRANCH   1   2
BRANCH   1   9
ATOM      9  C   UNL     1      30.987  29.260  11.708  1.00  0.00    -0.011 C 
ATOM     10  C   UNL     1      31.602  28.431  10.555  1.00  0.00     0.008 C 
BRANCH   9  11
ATOM     11  C   UNL     1      29.992  28.394  12.571  1.00  0.00    -0.002 C 
ATOM     12  C   UNL     1      30.119  26.894  12.230  1.00  0.00     0.005 C 
ATOM     13  C   UNL     1      28.456  28.681  12.461  1.00  0.00    -0.026 C 
ATOM     14  C   UNL     1      28.770  26.240  12.496  1.00  0.00     0.005 C 
ATOM     15  C   UNL     1      27.831  27.354  12.968  1.00  0.00    -0.001 C 
ATOM     16  C   UNL     1      28.038  28.954  10.985  1.00  0.00     0.007 C 
ATOM     17  C   UNL     1      28.007  29.839  13.388  1.00  0.00     0.012 C 
ATOM     18  C   UNL     1      26.326  27.160  12.605  1.00  0.00     0.000 C 
ATOM     19  C   UNL     1      26.531  28.825  10.731  1.00  0.00     0.005 C 
ATOM     20  C   UNL     1      26.027  27.406  11.098  1.00  0.00     0.003 C 
ATOM     21  C   UNL     1      25.759  25.825  13.158  1.00  0.00     0.031 C 
ATOM     22  C   UNL     1      24.511  27.121  10.765  1.00  0.00    -0.008 C 
ATOM     23  C   UNL     1      24.734  25.145  12.292  1.00  0.00    -0.027 C 
ATOM     24  C   UNL     1      24.224  25.667  11.158  1.00  0.00    -0.065 C 
ATOM     25  C   UNL     1      24.185  27.327   9.245  1.00  0.00     0.014 C 
ATOM     26  C   UNL     1      23.556  28.033  11.580  1.00  0.00     0.016 C 
ATOM     27  C   UNL     1      23.333  24.770  10.301  1.00  0.00     0.063 C 
ATOM     28  C   UNL     1      24.482  26.081   8.409  1.00  0.00     0.033 C 
ATOM     29  C   UNL     1      23.490  24.972   8.771  1.00  0.00     0.118 C 
BRANCH  29  30
ATOM     30  O   UNL     1      22.247  25.259   8.186  1.00  0.00    -0.393 OA
ATOM     31  H   UNL     1      22.423  25.607   7.277  1.00  0.00     0.210 HD
ENDBRANCH  29  30
ENDBRANCH   9  11
ENDBRANCH   1   9
TORSDOF 7
ENDMDL
MODEL 7
REMARK VINA RESULT:    -5.990      1.516      3.243
REMARK INTER + INTRA:         -10.108
REMARK INTER:                  -8.680
REMARK INTRA:                  -1.428
REMARK UNBOUND:                -1.842
REMARK SMILES CC[C@@H](CC[C@@H](C)[C@@H]1CC[C@@H]2[C@@H]3CC=C4C[C@@H](O)CC[C@]4(C)[C@H]3CC[C@@]21C)C(C)C
REMARK SMILES IDX 5 1 4 2 3 3 2 4 1 5 28 6 29 7 30 8 6 9 7 10 8 11 9 12 26 13
REMARK SMILES IDX 10 14 11 15 25 16 27 17 12 18 24 19 23 20 13 21 21 22 14 23
REMARK SMILES IDX 15 24 20 25 22 26 16 27 19 28 17 29 18 30
REMARK H PARENT 18 31
REMARK Flexibility Score: inf
ROOT
ATOM      1  C   UNL     1      29.359  30.195  15.318  1.00  0.00     0.004 C 
ENDROOT
BRANCH   1   2
ATOM      2  C   UNL     1      30.606  29.404  15.768  1.00  0.00     0.004 C 
BRANCH   2   3
ATOM      3  C   UNL     1      31.981  30.054  15.424  1.00  0.00    -0.009 C 
BRANCH   3   4
ATOM      4  C   UNL     1      33.108  28.991  15.250  1.00  0.00     0.000 C 
ATOM      5  C   UNL     1      33.394  28.519  13.819  1.00  0.00     0.004 C 
ENDBRANCH   3   4
BRANCH   3   6
ATOM      6  C   UNL     1      32.376  31.278  16.323  1.00  0.00    -0.014 C 
ATOM      7  C   UNL     1      32.150  32.611  15.577  1.00  0.00     0.007 C 
ATOM      8  C   UNL     1      31.576  31.328  17.642  1.00  0.00     0.007 C 
ENDBRANCH   3   6
ENDBRANCH   2   3
ENDBRANCH   1   2
BRANCH   1   9
ATOM      9  C   UNL     1      28.911  29.926  13.856  1.00  0.00    -0.011 C 
ATOM     10  C   UNL     1      29.499  31.007  12.919  1.00  0.00     0.008 C 
BRANCH   9  11
ATOM     11  C   UNL     1      29.205  28.475  13.315  1.00  0.00    -0.002 C 
ATOM     12  C   UNL     1      29.565  28.502  11.814  1.00  0.00     0.005 C 
ATOM     13  C   UNL     1      28.078  27.392  13.416  1.00  0.00    -0.026 C 
ATOM     14  C   UNL     1      29.146  27.169  11.210  1.00  0.00     0.005 C 
ATOM     15  C   UNL     1      28.510  26.358  12.343  1.00  0.00    -0.001 C 
ATOM     16  C   UNL     1      26.684  27.994  13.066  1.00  0.00     0.007 C 
ATOM     17  C   UNL     1      28.051  26.700  14.803  1.00  0.00     0.012 C 
ATOM     18  C   UNL     1      27.391  25.362  11.907  1.00  0.00     0.000 C 
ATOM     19  C   UNL     1      25.618  26.944  12.732  1.00  0.00     0.005 C 
ATOM     20  C   UNL     1      26.059  26.071  11.530  1.00  0.00     0.003 C 
ATOM     21  C   UNL     1      27.895  24.344  10.848  1.00  0.00     0.031 C 
ATOM     22  C   UNL     1      24.986  25.032  11.020  1.00  0.00    -0.008 C 
ATOM     23  C   UNL     1      26.887  23.934   9.810  1.00  0.00    -0.027 C 
ATOM     24  C   UNL     1      25.591  24.306   9.812  1.00  0.00    -0.065 C 
ATOM     25  C   UNL     1      23.641  25.720  10.598  1.00  0.00     0.014 C 
ATOM     26  C   UNL     1      24.652  23.966  12.098  1.00  0.00     0.016 C 
ATOM     27  C   UNL     1      24.748  23.956   8.588  1.00  0.00     0.063 C 
ATOM     28  C   UNL     1      23.670  26.222   9.154  1.00  0.00     0.033 C 
ATOM     29  C   UNL     1      23.697  25.027   8.196  1.00  0.00     0.118 C 
BRANCH  29  30
ATOM     30  O   UNL     1      22.416  24.456   8.138  1.00  0.00    -0.393 OA
ATOM     31  H   UNL     1      22.455  23.594   8.622  1.00  0.00     0.210 HD
ENDBRANCH  29  30
ENDBRANCH   9  11
ENDBRANCH   1   9
TORSDOF 7
ENDMDL
MODEL 8
REMARK VINA RESULT:    -5.978      1.425      2.622
REMARK INTER + INTRA:         -10.092
REMARK INTER:                  -8.569
REMARK INTRA:                  -1.523
REMARK UNBOUND:                -1.842
REMARK SMILES CC[C@@H](CC[C@@H](C)[C@@H]1CC[C@@H]2[C@@H]3CC=C4C[C@@H](O)CC[C@]4(C)[C@H]3CC[C@@]21C)C(C)C
REMARK SMILES IDX 5 1 4 2 3 3 2 4 1 5 28 6 29 7 30 8 6 9 7 10 8 11 9 12 26 13
REMARK SMILES IDX 10 14 11 15 25 16 27 17 12 18 24 19 23 20 13 21 21 22 14 23
REMARK SMILES IDX 15 24 20 25 22 26 16 27 19 28 17 29 18 30
REMARK H PARENT 18 31
REMARK Flexibility Score: inf
ROOT
ATOM      1  C   UNL     1      32.689  28.890  15.746  1.00  0.00     0.004 C 
ENDROOT
BRANCH   1   2
ATOM      2  C   UNL     1      33.171  30.310  16.111  1.00  0.00     0.004 C 
BRANCH   2   3
ATOM      3  C   UNL     1      32.082  31.267  16.686  1.00  0.00    -0.009 C 
BRANCH   3   4
ATOM      4  C   UNL     1      30.891  30.488  17.325  1.00  0.00     0.000 C 
ATOM      5  C   UNL     1      30.736  30.597  18.847  1.00  0.00     0.004 C 
ENDBRANCH   3   4
BRANCH   3   6
ATOM      6  C   UNL     1      31.654  32.433  15.727  1.00  0.00    -0.014 C 
ATOM      7  C   UNL     1      32.863  32.964  14.926  1.00  0.00     0.007 C 
ATOM      8  C   UNL     1      30.567  32.004  14.719  1.00  0.00     0.007 C 
ENDBRANCH   3   6
ENDBRANCH   2   3
ENDBRANCH   1   2
BRANCH   1   9
ATOM      9  C   UNL     1      31.979  28.777  14.370  1.00  0.00    -0.011 C 
ATOM     10  C   UNL     1      32.847  29.443  13.276  1.00  0.00     0.008 C 
BRANCH   9  11
ATOM     11  C   UNL     1      31.542  27.322  13.951  1.00  0.00    -0.002 C 
ATOM     12  C   UNL     1      31.625  27.134  12.421  1.00  0.00     0.005 C 
ATOM     13  C   UNL     1      30.099  26.834  14.317  1.00  0.00    -0.026 C 
ATOM     14  C   UNL     1      30.591  26.090  12.023  1.00  0.00     0.005 C 
ATOM     15  C   UNL     1      29.872  25.675  13.311  1.00  0.00    -0.001 C 
ATOM     16  C   UNL     1      29.050  27.965  14.096  1.00  0.00     0.007 C 
ATOM     17  C   UNL     1      30.017  26.275  15.760  1.00  0.00     0.012 C 
ATOM     18  C   UNL     1      28.384  25.243  13.138  1.00  0.00     0.000 C 
ATOM     19  C   UNL     1      27.603  27.464  14.022  1.00  0.00     0.005 C 
ATOM     20  C   UNL     1      27.429  26.442  12.870  1.00  0.00     0.003 C 
ATOM     21  C   UNL     1      28.229  24.068  12.134  1.00  0.00     0.031 C 
ATOM     22  C   UNL     1      25.951  25.948  12.623  1.00  0.00    -0.008 C 
ATOM     23  C   UNL     1      26.985  24.093  11.290  1.00  0.00    -0.027 C 
ATOM     24  C   UNL     1      25.984  24.987  11.428  1.00  0.00    -0.065 C 
ATOM     25  C   UNL     1      24.969  27.131  12.316  1.00  0.00     0.014 C 
ATOM     26  C   UNL     1      25.386  25.171  13.843  1.00  0.00     0.016 C 
ATOM     27  C   UNL     1      24.881  24.988  10.373  1.00  0.00     0.063 C 
ATOM     28  C   UNL     1      24.964  27.517  10.836  1.00  0.00     0.033 C 
ATOM     29  C   UNL     1      24.327  26.392  10.015  1.00  0.00     0.118 C 
BRANCH  29  30
ATOM     30  O   UNL     1      22.934  26.426  10.190  1.00  0.00    -0.393 OA
ATOM     31  H   UNL     1      22.648  27.368  10.085  1.00  0.00     0.210 HD
ENDBRANCH  29  30
ENDBRANCH   9  11
ENDBRANCH   1   9
TORSDOF 7
ENDMDL
MODEL 9
REMARK VINA RESULT:    -5.955      3.159      7.972
REMARK INTER + INTRA:         -10.060
REMARK INTER:                  -8.605
REMARK INTRA:                  -1.455
REMARK UNBOUND:                -1.842
REMARK SMILES CC[C@@H](CC[C@@H](C)[C@@H]1CC[C@@H]2[C@@H]3CC=C4C[C@@H](O)CC[C@]4(C)[C@H]3CC[C@@]21C)C(C)C
REMARK SMILES IDX 5 1 4 2 3 3 2 4 1 5 28 6 29 7 30 8 6 9 7 10 8 11 9 12 26 13
REMARK SMILES IDX 10 14 11 15 25 16 27 17 12 18 24 19 23 20 13 21 21 22 14 23
REMARK SMILES IDX 15 24 20 25 22 26 16 27 19 28 17 29 18 30
REMARK H PARENT 18 31
REMARK Flexibility Score: inf
ROOT
ATOM      1  C   UNL     1      24.633  26.068  11.479  1.00  0.00     0.004 C 
ENDROOT
BRANCH   1   2
ATOM      2  C   UNL     1      23.891  27.413  11.635  1.00  0.00     0.004 C 
BRANCH   2   3
ATOM      3  C   UNL     1      23.428  28.087  10.307  1.00  0.00    -0.009 C 
BRANCH   3   4
ATOM      4  C   UNL     1      24.585  28.863   9.605  1.00  0.00     0.000 C 
ATOM      5  C   UNL     1      25.280  29.954  10.429  1.00  0.00     0.004 C 
ENDBRANCH   3   4
BRANCH   3   6
ATOM      6  C   UNL     1      22.080  28.885  10.408  1.00  0.00    -0.014 C 
ATOM      7  C   UNL     1      20.875  27.985  10.057  1.00  0.00     0.007 C 
ATOM      8  C   UNL     1      21.842  29.473  11.814  1.00  0.00     0.007 C 
ENDBRANCH   3   6
ENDBRANCH   2   3
ENDBRANCH   1   2
BRANCH   1   9
ATOM      9  C   UNL     1      25.461  25.635  12.719  1.00  0.00    -0.011 C 
ATOM     10  C   UNL     1      24.926  24.289  13.264  1.00  0.00     0.008 C 
BRANCH   9  11
ATOM     11  C   UNL     1      27.023  25.589  12.507  1.00  0.00    -0.002 C 
ATOM     12  C   UNL     1      27.740  25.044  13.760  1.00  0.00     0.005 C 
ATOM     13  C   UNL     1      27.778  26.924  12.186  1.00  0.00    -0.026 C 
ATOM     14  C   UNL     1      29.133  25.657  13.803  1.00  0.00     0.005 C 
ATOM     15  C   UNL     1      29.237  26.589  12.592  1.00  0.00    -0.001 C 
ATOM     16  C   UNL     1      27.227  28.103  13.044  1.00  0.00     0.007 C 
ATOM     17  C   UNL     1      27.739  27.272  10.676  1.00  0.00     0.012 C 
ATOM     18  C   UNL     1      30.164  27.829  12.779  1.00  0.00     0.000 C 
ATOM     19  C   UNL     1      28.163  29.316  13.107  1.00  0.00     0.005 C 
ATOM     20  C   UNL     1      29.542  28.922  13.694  1.00  0.00     0.003 C 
ATOM     21  C   UNL     1      31.613  27.423  13.164  1.00  0.00     0.031 C 
ATOM     22  C   UNL     1      30.547  30.118  13.917  1.00  0.00    -0.008 C 
ATOM     23  C   UNL     1      32.320  28.355  14.110  1.00  0.00    -0.027 C 
ATOM     24  C   UNL     1      31.821  29.533  14.539  1.00  0.00    -0.065 C 
ATOM     25  C   UNL     1      29.962  31.222  14.865  1.00  0.00     0.014 C 
ATOM     26  C   UNL     1      30.940  30.803  12.581  1.00  0.00     0.016 C 
ATOM     27  C   UNL     1      32.583  30.269  15.638  1.00  0.00     0.063 C 
ATOM     28  C   UNL     1      30.192  30.905  16.343  1.00  0.00     0.033 C 
ATOM     29  C   UNL     1      31.686  31.011  16.663  1.00  0.00     0.118 C 
BRANCH  29  30
ATOM     30  O   UNL     1      32.046  32.367  16.736  1.00  0.00    -0.393 OA
ATOM     31  H   UNL     1      32.733  32.451  17.442  1.00  0.00     0.210 HD
ENDBRANCH  29  30
ENDBRANCH   9  11
ENDBRANCH   1   9
TORSDOF 7
ENDMDL
