MODEL 1
REMARK VINA RESULT:    -3.988      0.000      0.000
REMARK INTER + INTRA:         -11.494
REMARK INTER:                  -8.417
REMARK INTRA:                  -3.077
REMARK UNBOUND:                -3.077
REMARK SMILES CCC(=O)CCCCC[C@@H]1NC(=O)[C@H]2CCCCN2C(=O)[C@H]([C@@H](C)CC)NC(=O)[C@H](Cc2cn(OC)c3ccccc23)NC1=O
REMARK SMILES IDX 9 1 10 2 44 3 43 4 45 6 30 7 28 8 27 9 29 11 22 12 23 14
REMARK SMILES IDX 24 15 25 16 26 17 31 18 32 19 33 20 42 21 34 22 37 23 41 24
REMARK SMILES IDX 38 25 40 26 39 27 35 28 36 29 11 30 12 31 13 33 14 34 19 35
REMARK SMILES IDX 15 36 18 37 16 38 17 39 20 40 21 41 8 43 7 44 6 45 5 46 3 47
REMARK SMILES IDX 4 48 2 49 1 50
REMARK H PARENT 43 5 27 10 11 32
REMARK Flexibility Score: 80.00
ROOT
ATOM      1  C   UNL     1      62.683  33.690  48.417  1.00  0.00     0.035 C 
ENDROOT
BRANCH   1   2
ATOM      2  C   UNL     1      63.007  32.532  49.379  1.00  0.00     0.171 C 
BRANCH   2   3
ATOM      3  C   UNL     1      61.816  32.023  50.146  1.00  0.00     0.243 C 
ATOM      4  N   UNL     1      61.014  30.941  49.654  1.00  0.00    -0.342 N 
ATOM      5  H   UNL     1      61.193  30.607  48.673  1.00  0.00     0.164 HD
ATOM      6  O   UNL     1      61.596  32.474  51.304  1.00  0.00    -0.273 OA
BRANCH   4   7
ATOM      7  C   UNL     1      60.194  30.084  50.527  1.00  0.00     0.175 C 
BRANCH   7   8
ATOM      8  C   UNL     1      61.074  29.279  51.454  1.00  0.00     0.243 C 
ATOM      9  N   UNL     1      61.824  28.157  50.959  1.00  0.00    -0.342 N 
ATOM     10  H   UNL     1      61.469  27.686  50.092  1.00  0.00     0.164 HD
ATOM     11  O   UNL     1      61.139  29.588  52.675  1.00  0.00    -0.273 OA
BRANCH   9  12
ATOM     12  C   UNL     1      63.141  27.791  51.489  1.00  0.00     0.174 CG0
ATOM     13  G   UNL     1      63.962  27.145  50.379  1.00  0.00     0.000 G0
BRANCH  12  14
ATOM     14  C   UNL     1      63.001  26.886  52.762  1.00  0.00     0.018 C 
ATOM     15  C   UNL     1      63.330  27.614  54.085  1.00  0.00     0.010 C 
BRANCH  14  16
ATOM     16  C   UNL     1      61.657  26.096  52.822  1.00  0.00     0.002 C 
ATOM     17  C   UNL     1      60.760  26.388  54.028  1.00  0.00     0.004 C 
ENDBRANCH  14  16
ENDBRANCH  12  14
ENDBRANCH   9  12
ENDBRANCH   7   8
BRANCH   7  18
ATOM     18  C   UNL     1      59.289  29.175  49.670  1.00  0.00     0.073 C 
BRANCH  18  19
ATOM     19  C   UNL     1      58.122  28.632  50.444  1.00  0.00    -0.016 A 
ATOM     20  C   UNL     1      56.961  29.311  50.776  1.00  0.00     0.134 A 
ATOM     21  C   UNL     1      57.978  27.362  50.955  1.00  0.00     0.006 A 
ATOM     22  N   UNL     1      56.142  28.523  51.504  1.00  0.00    -0.191 N 
ATOM     23  C   UNL     1      56.764  27.314  51.607  1.00  0.00     0.087 A 
ATOM     24  C   UNL     1      58.829  26.252  50.866  1.00  0.00     0.011 A 
ATOM     25  C   UNL     1      56.336  26.123  52.214  1.00  0.00     0.030 A 
ATOM     26  C   UNL     1      58.408  25.058  51.473  1.00  0.00     0.001 A 
ATOM     27  C   UNL     1      57.169  24.990  52.138  1.00  0.00     0.002 A 
BRANCH  22  28
ATOM     28  O   UNL     1      54.943  28.982  52.027  1.00  0.00    -0.417 OA
ATOM     29  C   UNL     1      53.998  29.753  51.303  1.00  0.00     0.313 C 
ENDBRANCH  22  28
ENDBRANCH  18  19
ENDBRANCH   7  18
ENDBRANCH   4   7
ENDBRANCH   2   3
BRANCH   2  30
ATOM     30  N   UNL     1      63.569  31.422  48.613  1.00  0.00    -0.343 N 
ATOM     31  C   UNL     1      64.203  30.301  49.232  1.00  0.00     0.243 C 
ATOM     32  H   UNL     1      63.361  31.365  47.590  1.00  0.00     0.164 HD
ATOM     33  O   UNL     1      64.820  30.451  50.323  1.00  0.00    -0.273 OA
BRANCH  31  34
ATOM     34  C   UNL     1      64.055  28.946  48.580  1.00  0.00     0.174 C 
ATOM     35  N   UNL     1      64.738  27.930  49.425  1.00  0.00    -0.329 N 
ATOM     36  C   UNL     1      64.577  28.877  47.136  1.00  0.00     0.035 C 
ATOM     37  C   UNL     1      66.210  27.880  49.415  1.00  0.00     0.120 C 
ATOM     38  C   UNL     1      66.112  28.860  47.050  1.00  0.00     0.004 C 
ATOM     39  C   UNL     1      66.699  27.770  47.955  1.00  0.00     0.022 C 
BRANCH  35  40
ATOM     40  C   UNL     1      63.940  27.167  50.373  1.00  0.00     0.246 CG0
ATOM     41  O   UNL     1      63.820  25.917  50.199  1.00  0.00    -0.272 OA
ATOM     42  G   UNL     1      63.154  27.825  51.500  1.00  0.00     0.000 G0
ENDBRANCH  35  40
ENDBRANCH  31  34
ENDBRANCH   2  30
ENDBRANCH   1   2
BRANCH   1  43
ATOM     43  C   UNL     1      63.352  35.008  48.806  1.00  0.00     0.003 C 
BRANCH  43  44
ATOM     44  C   UNL     1      64.605  34.740  49.640  1.00  0.00     0.001 C 
BRANCH  44  45
ATOM     45  C   UNL     1      65.785  35.593  49.173  1.00  0.00     0.008 C 
BRANCH  45  46
ATOM     46  C   UNL     1      66.931  34.741  48.596  1.00  0.00     0.075 C 
BRANCH  46  47
ATOM     47  C   UNL     1      66.572  34.069  47.294  1.00  0.00     0.132 C 
ATOM     48  O   UNL     1      66.032  34.708  46.400  1.00  0.00    -0.300 OA
BRANCH  47  49
ATOM     49  C   UNL     1      66.772  32.574  47.148  1.00  0.00     0.072 C 
ATOM     50  C   UNL     1      67.416  31.917  48.376  1.00  0.00     0.012 C 
ENDBRANCH  47  49
ENDBRANCH  46  47
ENDBRANCH  45  46
ENDBRANCH  44  45
ENDBRANCH  43  44
ENDBRANCH   1  43
TORSDOF 12
ENDMDL
MODEL 2
REMARK VINA RESULT:    -3.781      2.640      9.270
REMARK INTER + INTRA:         -11.058
REMARK INTER:                  -8.905
REMARK INTRA:                  -2.153
REMARK UNBOUND:                -3.077
REMARK SMILES CCC(=O)CCCCC[C@@H]1NC(=O)[C@H]2CCCCN2C(=O)[C@H]([C@@H](C)CC)NC(=O)[C@H](Cc2cn(OC)c3ccccc23)NC1=O
REMARK SMILES IDX 9 1 10 2 44 3 43 4 45 6 30 7 28 8 27 9 29 11 22 12 23 14
REMARK SMILES IDX 24 15 25 16 26 17 31 18 32 19 33 20 42 21 34 22 37 23 41 24
REMARK SMILES IDX 38 25 40 26 39 27 35 28 36 29 11 30 12 31 13 33 14 34 19 35
REMARK SMILES IDX 15 36 18 37 16 38 17 39 20 40 21 41 8 43 7 44 6 45 5 46 3 47
REMARK SMILES IDX 4 48 2 49 1 50
REMARK H PARENT 43 5 27 10 11 32
REMARK Flexibility Score: 80.00
ROOT
ATOM      1  C   UNL     1      59.317  29.246  49.431  1.00  0.00     0.035 C 
ENDROOT
BRANCH   1   2
ATOM      2  C   UNL     1      60.633  29.625  50.134  1.00  0.00     0.171 C 
BRANCH   2   3
ATOM      3  C   UNL     1      61.786  28.713  49.809  1.00  0.00     0.243 C 
ATOM      4  N   UNL     1      62.592  28.912  48.640  1.00  0.00    -0.342 N 
ATOM      5  H   UNL     1      62.269  29.625  47.939  1.00  0.00     0.164 HD
ATOM      6  O   UNL     1      62.125  27.834  50.648  1.00  0.00    -0.273 OA
BRANCH   4   7
ATOM      7  C   UNL     1      63.975  28.418  48.521  1.00  0.00     0.175 C 
BRANCH   7   8
ATOM      8  C   UNL     1      64.834  28.983  49.627  1.00  0.00     0.243 C 
ATOM      9  N   UNL     1      65.391  30.304  49.517  1.00  0.00    -0.342 N 
ATOM     10  H   UNL     1      65.519  30.694  48.552  1.00  0.00     0.164 HD
ATOM     11  O   UNL     1      65.075  28.284  50.649  1.00  0.00    -0.273 OA
BRANCH   9  12
ATOM     12  C   UNL     1      65.585  31.180  50.677  1.00  0.00     0.174 CG0
ATOM     13  G   UNL     1      65.292  32.618  50.270  1.00  0.00     0.000 G0
BRANCH  12  14
ATOM     14  C   UNL     1      67.017  30.989  51.289  1.00  0.00     0.018 C 
ATOM     15  C   UNL     1      67.022  30.259  52.650  1.00  0.00     0.010 C 
BRANCH  14  16
ATOM     16  C   UNL     1      68.054  30.402  50.282  1.00  0.00     0.002 C 
ATOM     17  C   UNL     1      68.589  29.005  50.606  1.00  0.00     0.004 C 
ENDBRANCH  14  16
ENDBRANCH  12  14
ENDBRANCH   9  12
ENDBRANCH   7   8
BRANCH   7  18
ATOM     18  C   UNL     1      64.538  28.765  47.128  1.00  0.00     0.073 C 
BRANCH  18  19
ATOM     19  C   UNL     1      65.920  28.217  46.915  1.00  0.00    -0.016 A 
ATOM     20  C   UNL     1      66.286  26.881  46.885  1.00  0.00     0.134 A 
ATOM     21  C   UNL     1      67.077  28.931  46.696  1.00  0.00     0.006 A 
ATOM     22  N   UNL     1      67.617  26.757  46.704  1.00  0.00    -0.191 N 
ATOM     23  C   UNL     1      68.107  28.023  46.576  1.00  0.00     0.087 A 
ATOM     24  C   UNL     1      67.274  30.314  46.576  1.00  0.00     0.011 A 
ATOM     25  C   UNL     1      69.413  28.469  46.324  1.00  0.00     0.030 A 
ATOM     26  C   UNL     1      68.579  30.767  46.327  1.00  0.00     0.001 A 
ATOM     27  C   UNL     1      69.642  29.853  46.196  1.00  0.00     0.002 A 
BRANCH  22  28
ATOM     28  O   UNL     1      68.255  25.526  46.708  1.00  0.00    -0.417 OA
ATOM     29  C   UNL     1      68.167  24.584  47.765  1.00  0.00     0.313 C 
ENDBRANCH  22  28
ENDBRANCH  18  19
ENDBRANCH   7  18
ENDBRANCH   4   7
ENDBRANCH   2   3
BRANCH   2  30
ATOM     30  N   UNL     1      61.001  30.986  49.750  1.00  0.00    -0.343 N 
ATOM     31  C   UNL     1      62.092  31.689  50.348  1.00  0.00     0.243 C 
ATOM     32  H   UNL     1      60.557  31.402  48.899  1.00  0.00     0.164 HD
ATOM     33  O   UNL     1      62.399  31.464  51.552  1.00  0.00    -0.273 OA
BRANCH  31  34
ATOM     34  C   UNL     1      62.888  32.641  49.487  1.00  0.00     0.174 C 
ATOM     35  N   UNL     1      63.966  33.248  50.313  1.00  0.00    -0.329 N 
ATOM     36  C   UNL     1      62.049  33.739  48.814  1.00  0.00     0.035 C 
ATOM     37  C   UNL     1      63.603  34.287  51.292  1.00  0.00     0.120 C 
ATOM     38  C   UNL     1      61.602  34.840  49.790  1.00  0.00     0.004 C 
ATOM     39  C   UNL     1      62.797  35.392  50.577  1.00  0.00     0.022 C 
BRANCH  35  40
ATOM     40  C   UNL     1      65.293  32.655  50.264  1.00  0.00     0.246 CG0
ATOM     41  O   UNL     1      66.248  33.339  49.787  1.00  0.00    -0.272 OA
ATOM     42  G   UNL     1      65.560  31.208  50.660  1.00  0.00     0.000 G0
ENDBRANCH  35  40
ENDBRANCH  31  34
ENDBRANCH   2  30
ENDBRANCH   1   2
BRANCH   1  43
ATOM     43  C   UNL     1      58.078  29.476  50.295  1.00  0.00     0.003 C 
BRANCH  43  44
ATOM     44  C   UNL     1      57.185  28.235  50.282  1.00  0.00     0.001 C 
BRANCH  44  45
ATOM     45  C   UNL     1      55.713  28.599  50.476  1.00  0.00     0.008 C 
BRANCH  45  46
ATOM     46  C   UNL     1      54.781  27.386  50.302  1.00  0.00     0.075 C 
BRANCH  46  47
ATOM     47  C   UNL     1      54.624  26.573  51.563  1.00  0.00     0.132 C 
ATOM     48  O   UNL     1      54.179  25.433  51.508  1.00  0.00    -0.300 OA
BRANCH  47  49
ATOM     49  C   UNL     1      54.902  27.219  52.905  1.00  0.00     0.072 C 
ATOM     50  C   UNL     1      53.641  27.457  53.746  1.00  0.00     0.012 C 
ENDBRANCH  47  49
ENDBRANCH  46  47
ENDBRANCH  45  46
ENDBRANCH  44  45
ENDBRANCH  43  44
ENDBRANCH   1  43
TORSDOF 12
ENDMDL
MODEL 3
REMARK VINA RESULT:    -3.777      8.496     11.790
REMARK INTER + INTRA:         -11.050
REMARK INTER:                  -7.734
REMARK INTRA:                  -3.316
REMARK UNBOUND:                -3.077
REMARK SMILES CCC(=O)CCCCC[C@@H]1NC(=O)[C@H]2CCCCN2C(=O)[C@H]([C@@H](C)CC)NC(=O)[C@H](Cc2cn(OC)c3ccccc23)NC1=O
REMARK SMILES IDX 9 1 10 2 44 3 43 4 45 6 30 7 28 8 27 9 29 11 22 12 23 14
REMARK SMILES IDX 24 15 25 16 26 17 31 18 32 19 33 20 42 21 34 22 37 23 41 24
REMARK SMILES IDX 38 25 40 26 39 27 35 28 36 29 11 30 12 31 13 33 14 34 19 35
REMARK SMILES IDX 15 36 18 37 16 38 17 39 20 40 21 41 8 43 7 44 6 45 5 46 3 47
REMARK SMILES IDX 4 48 2 49 1 50
REMARK H PARENT 43 5 27 10 11 32
REMARK Flexibility Score: 80.00
ROOT
ATOM      1  C   UNL     1      65.014  29.262  60.847  1.00  0.00     0.035 C 
ENDROOT
BRANCH   1   2
ATOM      2  C   UNL     1      65.860  29.057  59.577  1.00  0.00     0.171 C 
BRANCH   2   3
ATOM      3  C   UNL     1      65.604  30.079  58.500  1.00  0.00     0.243 C 
ATOM      4  N   UNL     1      65.954  31.458  58.678  1.00  0.00    -0.342 N 
ATOM      5  H   UNL     1      66.261  31.765  59.635  1.00  0.00     0.164 HD
ATOM      6  O   UNL     1      65.191  29.689  57.374  1.00  0.00    -0.273 OA
BRANCH   4   7
ATOM      7  C   UNL     1      66.206  32.376  57.554  1.00  0.00     0.175 C 
BRANCH   7   8
ATOM      8  C   UNL     1      67.650  32.297  57.121  1.00  0.00     0.243 C 
ATOM      9  N   UNL     1      68.711  32.462  58.078  1.00  0.00    -0.342 N 
ATOM     10  H   UNL     1      68.492  33.000  58.950  1.00  0.00     0.164 HD
ATOM     11  O   UNL     1      67.927  32.098  55.906  1.00  0.00    -0.273 OA
BRANCH   9  12
ATOM     12  C   UNL     1      69.987  31.747  57.975  1.00  0.00     0.174 CG0
ATOM     13  G   UNL     1      69.968  30.555  58.924  1.00  0.00     0.000 G0
BRANCH  12  14
ATOM     14  C   UNL     1      71.193  32.718  58.224  1.00  0.00     0.018 C 
ATOM     15  C   UNL     1      72.337  32.569  57.196  1.00  0.00     0.010 C 
BRANCH  14  16
ATOM     16  C   UNL     1      70.766  34.202  58.445  1.00  0.00     0.002 C 
ATOM     17  C   UNL     1      70.778  34.695  59.895  1.00  0.00     0.004 C 
ENDBRANCH  14  16
ENDBRANCH  12  14
ENDBRANCH   9  12
ENDBRANCH   7   8
BRANCH   7  18
ATOM     18  C   UNL     1      65.808  33.812  57.952  1.00  0.00     0.073 C 
BRANCH  18  19
ATOM     19  C   UNL     1      64.320  34.016  57.953  1.00  0.00    -0.016 A 
ATOM     20  C   UNL     1      63.438  33.682  56.938  1.00  0.00     0.134 A 
ATOM     21  C   UNL     1      63.552  34.556  58.959  1.00  0.00     0.006 A 
ATOM     22  N   UNL     1      62.178  34.037  57.267  1.00  0.00    -0.191 N 
ATOM     23  C   UNL     1      62.245  34.568  58.521  1.00  0.00     0.087 A 
ATOM     24  C   UNL     1      63.924  35.013  60.231  1.00  0.00     0.011 A 
ATOM     25  C   UNL     1      61.226  35.050  59.356  1.00  0.00     0.030 A 
ATOM     26  C   UNL     1      62.909  35.498  61.072  1.00  0.00     0.001 A 
ATOM     27  C   UNL     1      61.569  35.513  60.642  1.00  0.00     0.002 A 
BRANCH  22  28
ATOM     28  O   UNL     1      61.112  33.881  56.395  1.00  0.00    -0.417 OA
ATOM     29  C   UNL     1      60.386  32.673  56.230  1.00  0.00     0.313 C 
ENDBRANCH  22  28
ENDBRANCH  18  19
ENDBRANCH   7  18
ENDBRANCH   4   7
ENDBRANCH   2   3
BRANCH   2  30
ATOM     30  N   UNL     1      67.275  29.111  59.935  1.00  0.00    -0.343 N 
ATOM     31  C   UNL     1      68.121  27.960  59.916  1.00  0.00     0.243 C 
ATOM     32  H   UNL     1      67.724  30.049  60.053  1.00  0.00     0.164 HD
ATOM     33  O   UNL     1      67.638  26.822  60.170  1.00  0.00    -0.273 OA
BRANCH  31  34
ATOM     34  C   UNL     1      69.569  28.142  59.527  1.00  0.00     0.174 C 
ATOM     35  N   UNL     1      69.658  29.210  58.495  1.00  0.00    -0.329 N 
ATOM     36  C   UNL     1      70.257  26.861  59.030  1.00  0.00     0.035 C 
ATOM     37  C   UNL     1      69.229  28.899  57.120  1.00  0.00     0.120 C 
ATOM     38  C   UNL     1      69.825  26.455  57.611  1.00  0.00     0.004 C 
ATOM     39  C   UNL     1      69.968  27.631  56.638  1.00  0.00     0.022 C 
BRANCH  35  40
ATOM     40  C   UNL     1      69.973  30.564  58.924  1.00  0.00     0.246 CG0
ATOM     41  O   UNL     1      70.167  30.782  60.158  1.00  0.00    -0.272 OA
ATOM     42  G   UNL     1      69.969  31.749  57.966  1.00  0.00     0.000 G0
ENDBRANCH  35  40
ENDBRANCH  31  34
ENDBRANCH   2  30
ENDBRANCH   1   2
BRANCH   1  43
ATOM     43  C   UNL     1      63.591  29.738  60.559  1.00  0.00     0.003 C 
BRANCH  43  44
ATOM     44  C   UNL     1      63.330  31.075  61.253  1.00  0.00     0.001 C 
BRANCH  44  45
ATOM     45  C   UNL     1      61.997  31.684  60.816  1.00  0.00     0.008 C 
BRANCH  45  46
ATOM     46  C   UNL     1      60.792  30.826  61.243  1.00  0.00     0.075 C 
BRANCH  46  47
ATOM     47  C   UNL     1      60.142  30.102  60.090  1.00  0.00     0.132 C 
ATOM     48  O   UNL     1      59.908  30.695  59.045  1.00  0.00    -0.300 OA
BRANCH  47  49
ATOM     49  C   UNL     1      59.671  28.674  60.279  1.00  0.00     0.072 C 
ATOM     50  C   UNL     1      60.440  27.911  61.365  1.00  0.00     0.012 C 
ENDBRANCH  47  49
ENDBRANCH  46  47
ENDBRANCH  45  46
ENDBRANCH  44  45
ENDBRANCH  43  44
ENDBRANCH   1  43
TORSDOF 12
ENDMDL
MODEL 4
REMARK VINA RESULT:    -3.682      2.743      9.722
REMARK INTER + INTRA:         -10.849
REMARK INTER:                  -8.606
REMARK INTRA:                  -2.244
REMARK UNBOUND:                -3.077
REMARK SMILES CCC(=O)CCCCC[C@@H]1NC(=O)[C@H]2CCCCN2C(=O)[C@H]([C@@H](C)CC)NC(=O)[C@H](Cc2cn(OC)c3ccccc23)NC1=O
REMARK SMILES IDX 9 1 10 2 44 3 43 4 45 6 30 7 28 8 27 9 29 11 22 12 23 14
REMARK SMILES IDX 24 15 25 16 26 17 31 18 32 19 33 20 42 21 34 22 37 23 41 24
REMARK SMILES IDX 38 25 40 26 39 27 35 28 36 29 11 30 12 31 13 33 14 34 19 35
REMARK SMILES IDX 15 36 18 37 16 38 17 39 20 40 21 41 8 43 7 44 6 45 5 46 3 47
REMARK SMILES IDX 4 48 2 49 1 50
REMARK H PARENT 43 5 27 10 11 32
REMARK Flexibility Score: 80.00
ROOT
ATOM      1  C   UNL     1      60.157  29.134  50.147  1.00  0.00     0.035 C 
ENDROOT
BRANCH   1   2
ATOM      2  C   UNL     1      61.301  29.852  50.884  1.00  0.00     0.171 C 
BRANCH   2   3
ATOM      3  C   UNL     1      62.677  29.436  50.433  1.00  0.00     0.243 C 
ATOM      4  N   UNL     1      63.137  29.694  49.099  1.00  0.00    -0.342 N 
ATOM      5  H   UNL     1      62.437  30.051  48.401  1.00  0.00     0.164 HD
ATOM      6  O   UNL     1      63.483  28.966  51.282  1.00  0.00    -0.273 OA
BRANCH   4   7
ATOM      7  C   UNL     1      64.563  29.786  48.743  1.00  0.00     0.175 C 
BRANCH   7   8
ATOM      8  C   UNL     1      65.133  31.113  49.184  1.00  0.00     0.243 C 
ATOM      9  N   UNL     1      64.688  32.338  48.577  1.00  0.00    -0.342 N 
ATOM     10  H   UNL     1      64.285  32.277  47.610  1.00  0.00     0.164 HD
ATOM     11  O   UNL     1      66.015  31.144  50.085  1.00  0.00    -0.273 OA
BRANCH   9  12
ATOM     12  C   UNL     1      64.589  33.599  49.318  1.00  0.00     0.174 CG0
ATOM     13  G   UNL     1      63.178  33.740  49.875  1.00  0.00     0.000 G0
BRANCH  12  14
ATOM     14  C   UNL     1      65.026  34.811  48.423  1.00  0.00     0.018 C 
ATOM     15  C   UNL     1      66.022  35.770  49.112  1.00  0.00     0.010 C 
BRANCH  14  16
ATOM     16  C   UNL     1      65.477  34.397  46.988  1.00  0.00     0.002 C 
ATOM     17  C   UNL     1      66.407  35.377  46.268  1.00  0.00     0.004 C 
ENDBRANCH  14  16
ENDBRANCH  12  14
ENDBRANCH   9  12
ENDBRANCH   7   8
BRANCH   7  18
ATOM     18  C   UNL     1      64.740  29.566  47.227  1.00  0.00     0.073 C 
BRANCH  18  19
ATOM     19  C   UNL     1      66.045  28.903  46.892  1.00  0.00    -0.016 A 
ATOM     20  C   UNL     1      66.288  27.541  46.826  1.00  0.00     0.134 A 
ATOM     21  C   UNL     1      67.237  29.516  46.574  1.00  0.00     0.006 A 
ATOM     22  N   UNL     1      67.583  27.303  46.527  1.00  0.00    -0.191 N 
ATOM     23  C   UNL     1      68.169  28.523  46.361  1.00  0.00     0.087 A 
ATOM     24  C   UNL     1      67.543  30.877  46.442  1.00  0.00     0.011 A 
ATOM     25  C   UNL     1      69.482  28.856  45.997  1.00  0.00     0.030 A 
ATOM     26  C   UNL     1      68.856  31.218  46.080  1.00  0.00     0.001 A 
ATOM     27  C   UNL     1      69.819  30.216  45.854  1.00  0.00     0.002 A 
BRANCH  22  28
ATOM     28  O   UNL     1      68.108  26.021  46.472  1.00  0.00    -0.417 OA
ATOM     29  C   UNL     1      67.414  24.894  45.961  1.00  0.00     0.313 C 
ENDBRANCH  22  28
ENDBRANCH  18  19
ENDBRANCH   7  18
ENDBRANCH   4   7
ENDBRANCH   2   3
BRANCH   2  30
ATOM     30  N   UNL     1      61.168  31.293  50.681  1.00  0.00    -0.343 N 
ATOM     31  C   UNL     1      60.829  32.194  51.737  1.00  0.00     0.243 C 
ATOM     32  H   UNL     1      61.485  31.700  49.772  1.00  0.00     0.164 HD
ATOM     33  O   UNL     1      60.088  31.804  52.682  1.00  0.00    -0.273 OA
BRANCH  31  34
ATOM     34  C   UNL     1      61.430  33.580  51.716  1.00  0.00     0.174 C 
ATOM     35  N   UNL     1      62.849  33.481  51.281  1.00  0.00    -0.329 N 
ATOM     36  C   UNL     1      61.331  34.333  53.051  1.00  0.00     0.035 C 
ATOM     37  C   UNL     1      63.844  32.962  52.236  1.00  0.00     0.120 C 
ATOM     38  C   UNL     1      62.319  33.815  54.110  1.00  0.00     0.004 C 
ATOM     39  C   UNL     1      63.746  33.766  53.550  1.00  0.00     0.022 C 
BRANCH  35  40
ATOM     40  C   UNL     1      63.162  33.710  49.879  1.00  0.00     0.246 CG0
ATOM     41  O   UNL     1      62.208  33.913  49.068  1.00  0.00    -0.272 OA
ATOM     42  G   UNL     1      64.578  33.604  49.327  1.00  0.00     0.000 G0
ENDBRANCH  35  40
ENDBRANCH  31  34
ENDBRANCH   2  30
ENDBRANCH   1   2
BRANCH   1  43
ATOM     43  C   UNL     1      58.900  28.960  50.999  1.00  0.00     0.003 C 
BRANCH  43  44
ATOM     44  C   UNL     1      57.690  29.565  50.288  1.00  0.00     0.001 C 
BRANCH  44  45
ATOM     45  C   UNL     1      56.379  29.155  50.959  1.00  0.00     0.008 C 
BRANCH  45  46
ATOM     46  C   UNL     1      55.753  27.909  50.309  1.00  0.00     0.075 C 
BRANCH  46  47
ATOM     47  C   UNL     1      54.244  27.914  50.349  1.00  0.00     0.132 C 
ATOM     48  O   UNL     1      53.622  28.884  49.932  1.00  0.00    -0.300 OA
BRANCH  47  49
ATOM     49  C   UNL     1      53.513  26.769  51.019  1.00  0.00     0.072 C 
ATOM     50  C   UNL     1      53.514  26.852  52.551  1.00  0.00     0.012 C 
ENDBRANCH  47  49
ENDBRANCH  46  47
ENDBRANCH  45  46
ENDBRANCH  44  45
ENDBRANCH  43  44
ENDBRANCH   1  43
TORSDOF 12
ENDMDL
MODEL 5
REMARK VINA RESULT:    -3.665      2.926      6.490
REMARK INTER + INTRA:         -10.813
REMARK INTER:                  -8.113
REMARK INTRA:                  -2.701
REMARK UNBOUND:                -3.077
REMARK SMILES CCC(=O)CCCCC[C@@H]1NC(=O)[C@H]2CCCCN2C(=O)[C@H]([C@@H](C)CC)NC(=O)[C@H](Cc2cn(OC)c3ccccc23)NC1=O
REMARK SMILES IDX 9 1 10 2 44 3 43 4 45 6 30 7 28 8 27 9 29 11 22 12 23 14
REMARK SMILES IDX 24 15 25 16 26 17 31 18 32 19 33 20 42 21 34 22 37 23 41 24
REMARK SMILES IDX 38 25 40 26 39 27 35 28 36 29 11 30 12 31 13 33 14 34 19 35
REMARK SMILES IDX 15 36 18 37 16 38 17 39 20 40 21 41 8 43 7 44 6 45 5 46 3 47
REMARK SMILES IDX 4 48 2 49 1 50
REMARK H PARENT 43 5 27 10 11 32
REMARK Flexibility Score: 80.00
ROOT
ATOM      1  C   UNL     1      59.633  26.663  49.319  1.00  0.00     0.035 C 
ENDROOT
BRANCH   1   2
ATOM      2  C   UNL     1      60.019  28.151  49.399  1.00  0.00     0.171 C 
BRANCH   2   3
ATOM      3  C   UNL     1      58.919  29.041  49.916  1.00  0.00     0.243 C 
ATOM      4  N   UNL     1      58.460  28.954  51.271  1.00  0.00    -0.342 N 
ATOM      5  H   UNL     1      58.809  28.153  51.856  1.00  0.00     0.164 HD
ATOM      6  O   UNL     1      58.484  29.966  49.176  1.00  0.00    -0.273 OA
BRANCH   4   7
ATOM      7  C   UNL     1      57.793  30.067  51.969  1.00  0.00     0.175 C 
BRANCH   7   8
ATOM      8  C   UNL     1      58.806  30.905  52.714  1.00  0.00     0.243 C 
ATOM      9  N   UNL     1      59.881  30.281  53.436  1.00  0.00    -0.342 N 
ATOM     10  H   UNL     1      59.736  29.292  53.755  1.00  0.00     0.164 HD
ATOM     11  O   UNL     1      58.697  32.161  52.711  1.00  0.00    -0.273 OA
BRANCH   9  12
ATOM     12  C   UNL     1      61.209  30.888  53.558  1.00  0.00     0.174 CG0
ATOM     13  G   UNL     1      62.205  30.077  52.739  1.00  0.00     0.000 G0
BRANCH  12  14
ATOM     14  C   UNL     1      61.621  31.037  55.064  1.00  0.00     0.018 C 
ATOM     15  C   UNL     1      61.878  32.496  55.501  1.00  0.00     0.010 C 
BRANCH  14  16
ATOM     16  C   UNL     1      60.687  30.265  56.047  1.00  0.00     0.002 C 
ATOM     17  C   UNL     1      61.386  29.450  57.138  1.00  0.00     0.004 C 
ENDBRANCH  14  16
ENDBRANCH  12  14
ENDBRANCH   9  12
ENDBRANCH   7   8
BRANCH   7  18
ATOM     18  C   UNL     1      56.704  29.517  52.912  1.00  0.00     0.073 C 
BRANCH  18  19
ATOM     19  C   UNL     1      56.230  28.151  52.506  1.00  0.00    -0.016 A 
ATOM     20  C   UNL     1      56.607  26.943  53.069  1.00  0.00     0.134 A 
ATOM     21  C   UNL     1      55.325  27.842  51.515  1.00  0.00     0.006 A 
ATOM     22  N   UNL     1      56.007  25.915  52.433  1.00  0.00    -0.191 N 
ATOM     23  C   UNL     1      55.206  26.469  51.479  1.00  0.00     0.087 A 
ATOM     24  C   UNL     1      54.593  28.684  50.667  1.00  0.00     0.011 A 
ATOM     25  C   UNL     1      54.326  25.862  50.569  1.00  0.00     0.030 A 
ATOM     26  C   UNL     1      53.713  28.084  49.753  1.00  0.00     0.001 A 
ATOM     27  C   UNL     1      53.575  26.683  49.706  1.00  0.00     0.002 A 
BRANCH  22  28
ATOM     28  O   UNL     1      56.269  24.592  52.751  1.00  0.00    -0.417 OA
ATOM     29  C   UNL     1      55.957  23.993  53.999  1.00  0.00     0.313 C 
ENDBRANCH  22  28
ENDBRANCH  18  19
ENDBRANCH   7  18
ENDBRANCH   4   7
ENDBRANCH   2   3
BRANCH   2  30
ATOM     30  N   UNL     1      61.177  28.295  50.278  1.00  0.00    -0.343 N 
ATOM     31  C   UNL     1      62.492  28.558  49.785  1.00  0.00     0.243 C 
ATOM     32  H   UNL     1      61.015  28.367  51.308  1.00  0.00     0.164 HD
ATOM     33  O   UNL     1      62.839  28.117  48.654  1.00  0.00    -0.273 OA
BRANCH  31  34
ATOM     34  C   UNL     1      63.410  29.421  50.619  1.00  0.00     0.174 C 
ATOM     35  N   UNL     1      62.588  30.399  51.382  1.00  0.00    -0.329 N 
ATOM     36  C   UNL     1      64.498  30.149  49.816  1.00  0.00     0.035 C 
ATOM     37  C   UNL     1      62.010  31.546  50.660  1.00  0.00     0.120 C 
ATOM     38  C   UNL     1      63.956  31.339  49.007  1.00  0.00     0.004 C 
ATOM     39  C   UNL     1      63.135  32.279  49.898  1.00  0.00     0.022 C 
BRANCH  35  40
ATOM     40  C   UNL     1      62.223  30.079  52.753  1.00  0.00     0.246 CG0
ATOM     41  O   UNL     1      62.696  29.026  53.278  1.00  0.00    -0.272 OA
ATOM     42  G   UNL     1      61.211  30.897  53.545  1.00  0.00     0.000 G0
ENDBRANCH  35  40
ENDBRANCH  31  34
ENDBRANCH   2  30
ENDBRANCH   1   2
BRANCH   1  43
ATOM     43  C   UNL     1      60.212  25.823  50.457  1.00  0.00     0.003 C 
BRANCH  43  44
ATOM     44  C   UNL     1      59.140  24.895  51.029  1.00  0.00     0.001 C 
BRANCH  44  45
ATOM     45  C   UNL     1      59.719  23.530  51.403  1.00  0.00     0.008 C 
BRANCH  45  46
ATOM     46  C   UNL     1      60.538  22.907  50.259  1.00  0.00     0.075 C 
BRANCH  46  47
ATOM     47  C   UNL     1      61.588  21.937  50.741  1.00  0.00     0.132 C 
ATOM     48  O   UNL     1      61.635  20.803  50.280  1.00  0.00    -0.300 OA
BRANCH  47  49
ATOM     49  C   UNL     1      62.502  22.334  51.883  1.00  0.00     0.072 C 
ATOM     50  C   UNL     1      63.453  23.487  51.537  1.00  0.00     0.012 C 
ENDBRANCH  47  49
ENDBRANCH  46  47
ENDBRANCH  45  46
ENDBRANCH  44  45
ENDBRANCH  43  44
ENDBRANCH   1  43
TORSDOF 12
ENDMDL
MODEL 6
REMARK VINA RESULT:    -3.551      4.278      6.437
REMARK INTER + INTRA:         -10.572
REMARK INTER:                  -7.719
REMARK INTRA:                  -2.852
REMARK UNBOUND:                -3.077
REMARK SMILES CCC(=O)CCCCC[C@@H]1NC(=O)[C@H]2CCCCN2C(=O)[C@H]([C@@H](C)CC)NC(=O)[C@H](Cc2cn(OC)c3ccccc23)NC1=O
REMARK SMILES IDX 9 1 10 2 44 3 43 4 45 6 30 7 28 8 27 9 29 11 22 12 23 14
REMARK SMILES IDX 24 15 25 16 26 17 31 18 32 19 33 20 42 21 34 22 37 23 41 24
REMARK SMILES IDX 38 25 40 26 39 27 35 28 36 29 11 30 12 31 13 33 14 34 19 35
REMARK SMILES IDX 15 36 18 37 16 38 17 39 20 40 21 41 8 43 7 44 6 45 5 46 3 47
REMARK SMILES IDX 4 48 2 49 1 50
REMARK H PARENT 43 5 27 10 11 32
REMARK Flexibility Score: 80.00
ROOT
ATOM      1  C   UNL     1      61.876  32.546  50.039  1.00  0.00     0.035 C 
ENDROOT
BRANCH   1   2
ATOM      2  C   UNL     1      62.030  31.295  50.921  1.00  0.00     0.171 C 
BRANCH   2   3
ATOM      3  C   UNL     1      61.222  31.339  52.192  1.00  0.00     0.243 C 
ATOM      4  N   UNL     1      59.824  31.654  52.180  1.00  0.00    -0.342 N 
ATOM      5  H   UNL     1      59.407  31.996  51.277  1.00  0.00     0.164 HD
ATOM      6  O   UNL     1      61.760  30.968  53.271  1.00  0.00    -0.273 OA
BRANCH   4   7
ATOM      7  C   UNL     1      58.895  31.238  53.245  1.00  0.00     0.175 C 
BRANCH   7   8
ATOM      8  C   UNL     1      58.187  29.961  52.858  1.00  0.00     0.243 C 
ATOM      9  N   UNL     1      58.256  29.466  51.509  1.00  0.00    -0.342 N 
ATOM     10  H   UNL     1      58.457  30.163  50.751  1.00  0.00     0.164 HD
ATOM     11  O   UNL     1      57.518  29.332  53.723  1.00  0.00    -0.273 OA
BRANCH   9  12
ATOM     12  C   UNL     1      58.264  28.035  51.191  1.00  0.00     0.174 CG0
ATOM     13  G   UNL     1      59.447  27.734  50.280  1.00  0.00     0.000 G0
BRANCH  12  14
ATOM     14  C   UNL     1      56.887  27.589  50.588  1.00  0.00     0.018 C 
ATOM     15  C   UNL     1      56.304  26.314  51.238  1.00  0.00     0.010 C 
BRANCH  14  16
ATOM     16  C   UNL     1      55.846  28.746  50.482  1.00  0.00     0.002 C 
ATOM     17  C   UNL     1      54.399  28.325  50.212  1.00  0.00     0.004 C 
ENDBRANCH  14  16
ENDBRANCH  12  14
ENDBRANCH   9  12
ENDBRANCH   7   8
BRANCH   7  18
ATOM     18  C   UNL     1      57.897  32.374  53.544  1.00  0.00     0.073 C 
BRANCH  18  19
ATOM     19  C   UNL     1      58.238  33.121  54.802  1.00  0.00    -0.016 A 
ATOM     20  C   UNL     1      59.466  33.147  55.442  1.00  0.00     0.134 A 
ATOM     21  C   UNL     1      57.406  33.927  55.547  1.00  0.00     0.006 A 
ATOM     22  N   UNL     1      59.402  33.895  56.564  1.00  0.00    -0.191 N 
ATOM     23  C   UNL     1      58.132  34.387  56.624  1.00  0.00     0.087 A 
ATOM     24  C   UNL     1      56.071  34.294  55.326  1.00  0.00     0.011 A 
ATOM     25  C   UNL     1      57.540  35.257  57.553  1.00  0.00     0.030 A 
ATOM     26  C   UNL     1      55.472  35.162  56.252  1.00  0.00     0.001 A 
ATOM     27  C   UNL     1      56.200  35.645  57.356  1.00  0.00     0.002 A 
BRANCH  22  28
ATOM     28  O   UNL     1      60.476  34.027  57.429  1.00  0.00    -0.417 OA
ATOM     29  C   UNL     1      60.357  34.306  58.815  1.00  0.00     0.313 C 
ENDBRANCH  22  28
ENDBRANCH  18  19
ENDBRANCH   7  18
ENDBRANCH   4   7
ENDBRANCH   2   3
BRANCH   2  30
ATOM     30  N   UNL     1      61.617  30.120  50.156  1.00  0.00    -0.343 N 
ATOM     31  C   UNL     1      62.509  29.049  49.844  1.00  0.00     0.243 C 
ATOM     32  H   UNL     1      60.598  29.981  49.967  1.00  0.00     0.164 HD
ATOM     33  O   UNL     1      63.739  29.284  49.677  1.00  0.00    -0.273 OA
BRANCH  31  34
ATOM     34  C   UNL     1      61.952  27.646  49.788  1.00  0.00     0.174 C 
ATOM     35  N   UNL     1      60.823  27.539  50.751  1.00  0.00    -0.329 N 
ATOM     36  C   UNL     1      62.987  26.542  50.053  1.00  0.00     0.035 C 
ATOM     37  C   UNL     1      61.130  27.460  52.190  1.00  0.00     0.120 C 
ATOM     38  C   UNL     1      63.383  26.429  51.535  1.00  0.00     0.004 C 
ATOM     39  C   UNL     1      62.141  26.317  52.427  1.00  0.00     0.022 C 
BRANCH  35  40
ATOM     40  C   UNL     1      59.468  27.717  50.254  1.00  0.00     0.246 CG0
ATOM     41  O   UNL     1      59.272  27.701  49.002  1.00  0.00    -0.272 OA
ATOM     42  G   UNL     1      58.293  28.032  51.172  1.00  0.00     0.000 G0
ENDBRANCH  35  40
ENDBRANCH  31  34
ENDBRANCH   2  30
ENDBRANCH   1   2
BRANCH   1  43
ATOM     43  C   UNL     1      63.136  33.411  49.986  1.00  0.00     0.003 C 
BRANCH  43  44
ATOM     44  C   UNL     1      62.830  34.752  49.319  1.00  0.00     0.001 C 
BRANCH  44  45
ATOM     45  C   UNL     1      61.526  35.355  49.842  1.00  0.00     0.008 C 
BRANCH  45  46
ATOM     46  C   UNL     1      61.743  36.227  51.092  1.00  0.00     0.075 C 
BRANCH  46  47
ATOM     47  C   UNL     1      61.259  35.574  52.363  1.00  0.00     0.132 C 
ATOM     48  O   UNL     1      62.062  35.090  53.151  1.00  0.00    -0.300 OA
BRANCH  47  49
ATOM     49  C   UNL     1      59.770  35.410  52.595  1.00  0.00     0.072 C 
ATOM     50  C   UNL     1      59.181  36.448  53.559  1.00  0.00     0.012 C 
ENDBRANCH  47  49
ENDBRANCH  46  47
ENDBRANCH  45  46
ENDBRANCH  44  45
ENDBRANCH  43  44
ENDBRANCH   1  43
TORSDOF 12
ENDMDL
MODEL 7
REMARK VINA RESULT:    -3.525      2.747      7.664
REMARK INTER + INTRA:         -10.517
REMARK INTER:                  -7.779
REMARK INTRA:                  -2.737
REMARK UNBOUND:                -3.077
REMARK SMILES CCC(=O)CCCCC[C@@H]1NC(=O)[C@H]2CCCCN2C(=O)[C@H]([C@@H](C)CC)NC(=O)[C@H](Cc2cn(OC)c3ccccc23)NC1=O
REMARK SMILES IDX 9 1 10 2 44 3 43 4 45 6 30 7 28 8 27 9 29 11 22 12 23 14
REMARK SMILES IDX 24 15 25 16 26 17 31 18 32 19 33 20 42 21 34 22 37 23 41 24
REMARK SMILES IDX 38 25 40 26 39 27 35 28 36 29 11 30 12 31 13 33 14 34 19 35
REMARK SMILES IDX 15 36 18 37 16 38 17 39 20 40 21 41 8 43 7 44 6 45 5 46 3 47
REMARK SMILES IDX 4 48 2 49 1 50
REMARK H PARENT 43 5 27 10 11 32
REMARK Flexibility Score: 80.00
ROOT
ATOM      1  C   UNL     1      58.195  29.693  52.134  1.00  0.00     0.035 C 
ENDROOT
BRANCH   1   2
ATOM      2  C   UNL     1      59.608  29.984  52.670  1.00  0.00     0.171 C 
BRANCH   2   3
ATOM      3  C   UNL     1      60.539  28.801  52.616  1.00  0.00     0.243 C 
ATOM      4  N   UNL     1      60.963  28.238  51.367  1.00  0.00    -0.342 N 
ATOM      5  H   UNL     1      60.493  28.581  50.492  1.00  0.00     0.164 HD
ATOM      6  O   UNL     1      61.054  28.379  53.688  1.00  0.00    -0.273 OA
BRANCH   4   7
ATOM      7  C   UNL     1      62.204  27.460  51.214  1.00  0.00     0.175 C 
BRANCH   7   8
ATOM      8  C   UNL     1      63.359  28.370  50.868  1.00  0.00     0.243 C 
ATOM      9  N   UNL     1      63.229  29.352  49.825  1.00  0.00    -0.342 N 
ATOM     10  H   UNL     1      62.509  29.173  49.084  1.00  0.00     0.164 HD
ATOM     11  O   UNL     1      64.449  28.258  51.492  1.00  0.00    -0.273 OA
BRANCH   9  12
ATOM     12  C   UNL     1      63.902  30.653  49.876  1.00  0.00     0.174 CG0
ATOM     13  G   UNL     1      62.891  31.722  50.272  1.00  0.00     0.000 G0
BRANCH  12  14
ATOM     14  C   UNL     1      64.629  30.960  48.520  1.00  0.00     0.018 C 
ATOM     15  C   UNL     1      65.890  31.839  48.672  1.00  0.00     0.010 C 
BRANCH  14  16
ATOM     16  C   UNL     1      64.875  29.694  47.642  1.00  0.00     0.002 C 
ATOM     17  C   UNL     1      66.313  29.169  47.609  1.00  0.00     0.004 C 
ENDBRANCH  14  16
ENDBRANCH  12  14
ENDBRANCH   9  12
ENDBRANCH   7   8
BRANCH   7  18
ATOM     18  C   UNL     1      62.007  26.362  50.150  1.00  0.00     0.073 C 
BRANCH  18  19
ATOM     19  C   UNL     1      62.510  25.023  50.607  1.00  0.00    -0.016 A 
ATOM     20  C   UNL     1      63.739  24.755  51.189  1.00  0.00     0.134 A 
ATOM     21  C   UNL     1      61.848  23.817  50.550  1.00  0.00     0.006 A 
ATOM     22  N   UNL     1      63.867  23.436  51.443  1.00  0.00    -0.191 N 
ATOM     23  C   UNL     1      62.695  22.855  51.059  1.00  0.00     0.087 A 
ATOM     24  C   UNL     1      60.553  23.520  50.103  1.00  0.00     0.011 A 
ATOM     25  C   UNL     1      62.273  21.520  51.145  1.00  0.00     0.030 A 
ATOM     26  C   UNL     1      60.126  22.185  50.184  1.00  0.00     0.001 A 
ATOM     27  C   UNL     1      60.976  21.191  50.706  1.00  0.00     0.002 A 
BRANCH  22  28
ATOM     28  O   UNL     1      65.032  22.890  51.959  1.00  0.00    -0.417 OA
ATOM     29  C   UNL     1      66.274  23.573  52.027  1.00  0.00     0.313 C 
ENDBRANCH  22  28
ENDBRANCH  18  19
ENDBRANCH   7  18
ENDBRANCH   4   7
ENDBRANCH   2   3
BRANCH   2  30
ATOM     30  N   UNL     1      60.198  31.069  51.890  1.00  0.00    -0.343 N 
ATOM     31  C   UNL     1      60.429  32.371  52.429  1.00  0.00     0.243 C 
ATOM     32  H   UNL     1      60.613  30.843  50.956  1.00  0.00     0.164 HD
ATOM     33  O   UNL     1      59.660  32.828  53.320  1.00  0.00    -0.273 OA
BRANCH  31  34
ATOM     34  C   UNL     1      61.639  33.140  51.951  1.00  0.00     0.174 C 
ATOM     35  N   UNL     1      62.731  32.176  51.649  1.00  0.00    -0.329 N 
ATOM     36  C   UNL     1      62.132  34.217  52.930  1.00  0.00     0.035 C 
ATOM     37  C   UNL     1      63.453  31.554  52.773  1.00  0.00     0.120 C 
ATOM     38  C   UNL     1      62.864  33.633  54.151  1.00  0.00     0.004 C 
ATOM     39  C   UNL     1      63.969  32.664  53.715  1.00  0.00     0.022 C 
BRANCH  35  40
ATOM     40  C   UNL     1      62.909  31.738  50.274  1.00  0.00     0.246 CG0
ATOM     41  O   UNL     1      62.137  32.204  49.382  1.00  0.00    -0.272 OA
ATOM     42  G   UNL     1      63.910  30.659  49.880  1.00  0.00     0.000 G0
ENDBRANCH  35  40
ENDBRANCH  31  34
ENDBRANCH   2  30
ENDBRANCH   1   2
BRANCH   1  43
ATOM     43  C   UNL     1      58.096  29.764  50.611  1.00  0.00     0.003 C 
BRANCH  43  44
ATOM     44  C   UNL     1      56.860  29.007  50.125  1.00  0.00     0.001 C 
BRANCH  44  45
ATOM     45  C   UNL     1      55.881  28.736  51.267  1.00  0.00     0.008 C 
BRANCH  45  46
ATOM     46  C   UNL     1      55.647  27.232  51.494  1.00  0.00     0.075 C 
BRANCH  46  47
ATOM     47  C   UNL     1      56.268  26.367  50.425  1.00  0.00     0.132 C 
ATOM     48  O   UNL     1      55.581  25.940  49.504  1.00  0.00    -0.300 OA
BRANCH  47  49
ATOM     49  C   UNL     1      57.712  25.931  50.564  1.00  0.00     0.072 C 
ATOM     50  C   UNL     1      58.196  25.863  52.018  1.00  0.00     0.012 C 
ENDBRANCH  47  49
ENDBRANCH  46  47
ENDBRANCH  45  46
ENDBRANCH  44  45
ENDBRANCH  43  44
ENDBRANCH   1  43
TORSDOF 12
ENDMDL
MODEL 8
REMARK VINA RESULT:    -3.420      2.953      9.735
REMARK INTER + INTRA:         -10.297
REMARK INTER:                  -8.230
REMARK INTRA:                  -2.066
REMARK UNBOUND:                -3.077
REMARK SMILES CCC(=O)CCCCC[C@@H]1NC(=O)[C@H]2CCCCN2C(=O)[C@H]([C@@H](C)CC)NC(=O)[C@H](Cc2cn(OC)c3ccccc23)NC1=O
REMARK SMILES IDX 9 1 10 2 44 3 43 4 45 6 30 7 28 8 27 9 29 11 22 12 23 14
REMARK SMILES IDX 24 15 25 16 26 17 31 18 32 19 33 20 42 21 34 22 37 23 41 24
REMARK SMILES IDX 38 25 40 26 39 27 35 28 36 29 11 30 12 31 13 33 14 34 19 35
REMARK SMILES IDX 15 36 18 37 16 38 17 39 20 40 21 41 8 43 7 44 6 45 5 46 3 47
REMARK SMILES IDX 4 48 2 49 1 50
REMARK H PARENT 43 5 27 10 11 32
REMARK Flexibility Score: 80.00
ROOT
ATOM      1  C   UNL     1      62.178  29.553  51.355  1.00  0.00     0.035 C 
ENDROOT
BRANCH   1   2
ATOM      2  C   UNL     1      63.118  30.770  51.426  1.00  0.00     0.171 C 
BRANCH   2   3
ATOM      3  C   UNL     1      64.452  30.552  50.763  1.00  0.00     0.243 C 
ATOM      4  N   UNL     1      64.556  30.285  49.358  1.00  0.00    -0.342 N 
ATOM      5  H   UNL     1      63.667  30.101  48.829  1.00  0.00     0.164 HD
ATOM      6  O   UNL     1      65.505  30.734  51.434  1.00  0.00    -0.273 OA
BRANCH   4   7
ATOM      7  C   UNL     1      65.772  30.558  48.574  1.00  0.00     0.175 C 
BRANCH   7   8
ATOM      8  C   UNL     1      66.074  32.038  48.566  1.00  0.00     0.243 C 
ATOM      9  N   UNL     1      65.068  32.987  48.171  1.00  0.00    -0.342 N 
ATOM     10  H   UNL     1      64.301  32.642  47.545  1.00  0.00     0.164 HD
ATOM     11  O   UNL     1      67.222  32.442  48.897  1.00  0.00    -0.273 OA
BRANCH   9  12
ATOM     12  C   UNL     1      64.967  34.325  48.762  1.00  0.00     0.174 CG0
ATOM     13  G   UNL     1      63.534  34.558  49.223  1.00  0.00     0.000 G0
BRANCH  12  14
ATOM     14  C   UNL     1      65.482  35.419  47.763  1.00  0.00     0.018 C 
ATOM     15  C   UNL     1      66.519  36.386  48.376  1.00  0.00     0.010 C 
BRANCH  14  16
ATOM     16  C   UNL     1      65.930  34.845  46.383  1.00  0.00     0.002 C 
ATOM     17  C   UNL     1      67.432  34.894  46.091  1.00  0.00     0.004 C 
ENDBRANCH  14  16
ENDBRANCH  12  14
ENDBRANCH   9  12
ENDBRANCH   7   8
BRANCH   7  18
ATOM     18  C   UNL     1      65.610  30.003  47.144  1.00  0.00     0.073 C 
BRANCH  18  19
ATOM     19  C   UNL     1      66.682  29.012  46.789  1.00  0.00    -0.016 A 
ATOM     20  C   UNL     1      66.552  27.633  46.745  1.00  0.00     0.134 A 
ATOM     21  C   UNL     1      67.982  29.282  46.427  1.00  0.00     0.006 A 
ATOM     22  N   UNL     1      67.728  27.056  46.418  1.00  0.00    -0.191 N 
ATOM     23  C   UNL     1      68.611  28.075  46.211  1.00  0.00     0.087 A 
ATOM     24  C   UNL     1      68.635  30.511  46.259  1.00  0.00     0.011 A 
ATOM     25  C   UNL     1      69.954  28.041  45.805  1.00  0.00     0.030 A 
ATOM     26  C   UNL     1      69.979  30.486  45.856  1.00  0.00     0.001 A 
ATOM     27  C   UNL     1      70.635  29.261  45.625  1.00  0.00     0.002 A 
BRANCH  22  28
ATOM     28  O   UNL     1      67.892  25.681  46.375  1.00  0.00    -0.417 OA
ATOM     29  C   UNL     1      68.315  24.891  47.476  1.00  0.00     0.313 C 
ENDBRANCH  22  28
ENDBRANCH  18  19
ENDBRANCH   7  18
ENDBRANCH   4   7
ENDBRANCH   2   3
BRANCH   2  30
ATOM     30  N   UNL     1      62.467  31.911  50.786  1.00  0.00    -0.343 N 
ATOM     31  C   UNL     1      61.729  32.890  51.518  1.00  0.00     0.243 C 
ATOM     32  H   UNL     1      62.682  32.107  49.781  1.00  0.00     0.164 HD
ATOM     33  O   UNL     1      61.115  32.557  52.570  1.00  0.00    -0.273 OA
BRANCH  31  34
ATOM     34  C   UNL     1      61.762  34.321  51.035  1.00  0.00     0.174 C 
ATOM     35  N   UNL     1      63.156  34.664  50.645  1.00  0.00    -0.329 N 
ATOM     36  C   UNL     1      61.223  35.344  52.046  1.00  0.00     0.035 C 
ATOM     37  C   UNL     1      64.146  34.902  51.710  1.00  0.00     0.120 C 
ATOM     38  C   UNL     1      62.193  35.612  53.208  1.00  0.00     0.004 C 
ATOM     39  C   UNL     1      63.591  35.962  52.685  1.00  0.00     0.022 C 
BRANCH  35  40
ATOM     40  C   UNL     1      63.531  34.555  49.244  1.00  0.00     0.246 CG0
ATOM     41  O   UNL     1      62.616  34.556  48.367  1.00  0.00    -0.272 OA
ATOM     42  G   UNL     1      64.970  34.329  48.796  1.00  0.00     0.000 G0
ENDBRANCH  35  40
ENDBRANCH  31  34
ENDBRANCH   2  30
ENDBRANCH   1   2
BRANCH   1  43
ATOM     43  C   UNL     1      61.298  29.537  50.106  1.00  0.00     0.003 C 
BRANCH  43  44
ATOM     44  C   UNL     1      61.018  28.097  49.674  1.00  0.00     0.001 C 
BRANCH  44  45
ATOM     45  C   UNL     1      59.517  27.819  49.583  1.00  0.00     0.008 C 
BRANCH  45  46
ATOM     46  C   UNL     1      59.180  26.338  49.829  1.00  0.00     0.075 C 
BRANCH  46  47
ATOM     47  C   UNL     1      58.589  26.083  51.193  1.00  0.00     0.132 C 
ATOM     48  O   UNL     1      59.322  25.945  52.165  1.00  0.00    -0.300 OA
BRANCH  47  49
ATOM     49  C   UNL     1      57.094  25.877  51.331  1.00  0.00     0.072 C 
ATOM     50  C   UNL     1      56.290  26.387  50.129  1.00  0.00     0.012 C 
ENDBRANCH  47  49
ENDBRANCH  46  47
ENDBRANCH  45  46
ENDBRANCH  44  45
ENDBRANCH  43  44
ENDBRANCH   1  43
TORSDOF 12
ENDMDL
MODEL 9
REMARK VINA RESULT:    -3.395      2.899      6.355
REMARK INTER + INTRA:         -10.244
REMARK INTER:                  -6.276
REMARK INTRA:                  -3.968
REMARK UNBOUND:                -3.077
REMARK SMILES CCC(=O)CCCCC[C@@H]1NC(=O)[C@H]2CCCCN2C(=O)[C@H]([C@@H](C)CC)NC(=O)[C@H](Cc2cn(OC)c3ccccc23)NC1=O
REMARK SMILES IDX 9 1 10 2 44 3 43 4 45 6 30 7 28 8 27 9 29 11 22 12 23 14
REMARK SMILES IDX 24 15 25 16 26 17 31 18 32 19 33 20 42 21 34 22 37 23 41 24
REMARK SMILES IDX 38 25 40 26 39 27 35 28 36 29 11 30 12 31 13 33 14 34 19 35
REMARK SMILES IDX 15 36 18 37 16 38 17 39 20 40 21 41 8 43 7 44 6 45 5 46 3 47
REMARK SMILES IDX 4 48 2 49 1 50
REMARK H PARENT 43 5 27 10 11 32
REMARK Flexibility Score: 80.00
ROOT
ATOM      1  C   UNL     1      59.512  26.194  50.353  1.00  0.00     0.035 C 
ENDROOT
BRANCH   1   2
ATOM      2  C   UNL     1      60.063  27.549  49.871  1.00  0.00     0.171 C 
BRANCH   2   3
ATOM      3  C   UNL     1      59.094  28.692  50.024  1.00  0.00     0.243 C 
ATOM      4  N   UNL     1      58.315  28.860  51.216  1.00  0.00    -0.342 N 
ATOM      5  H   UNL     1      58.331  28.083  51.924  1.00  0.00     0.164 HD
ATOM      6  O   UNL     1      59.062  29.589  49.137  1.00  0.00    -0.273 OA
BRANCH   4   7
ATOM      7  C   UNL     1      57.762  30.158  51.641  1.00  0.00     0.175 C 
BRANCH   7   8
ATOM      8  C   UNL     1      58.685  30.827  52.631  1.00  0.00     0.243 C 
ATOM      9  N   UNL     1      59.818  30.121  53.167  1.00  0.00    -0.342 N 
ATOM     10  H   UNL     1      59.773  29.073  53.172  1.00  0.00     0.164 HD
ATOM     11  O   UNL     1      58.451  32.010  53.000  1.00  0.00    -0.273 OA
BRANCH   9  12
ATOM     12  C   UNL     1      61.079  30.789  53.504  1.00  0.00     0.174 CG0
ATOM     13  G   UNL     1      62.227  30.057  52.821  1.00  0.00     0.000 G0
BRANCH  12  14
ATOM     14  C   UNL     1      61.254  30.903  55.058  1.00  0.00     0.018 C 
ATOM     15  C   UNL     1      61.321  32.358  55.574  1.00  0.00     0.010 C 
BRANCH  14  16
ATOM     16  C   UNL     1      60.255  30.018  55.866  1.00  0.00     0.002 C 
ATOM     17  C   UNL     1      59.164  30.769  56.635  1.00  0.00     0.004 C 
ENDBRANCH  14  16
ENDBRANCH  12  14
ENDBRANCH   9  12
ENDBRANCH   7   8
BRANCH   7  18
ATOM     18  C   UNL     1      56.348  29.959  52.224  1.00  0.00     0.073 C 
BRANCH  18  19
ATOM     19  C   UNL     1      55.873  28.539  52.103  1.00  0.00    -0.016 A 
ATOM     20  C   UNL     1      55.105  28.008  51.080  1.00  0.00     0.134 A 
ATOM     21  C   UNL     1      56.118  27.499  52.971  1.00  0.00     0.006 A 
ATOM     22  N   UNL     1      54.837  26.706  51.313  1.00  0.00    -0.191 N 
ATOM     23  C   UNL     1      55.472  26.386  52.477  1.00  0.00     0.087 A 
ATOM     24  C   UNL     1      56.884  27.466  54.145  1.00  0.00     0.011 A 
ATOM     25  C   UNL     1      55.565  25.160  53.151  1.00  0.00     0.030 A 
ATOM     26  C   UNL     1      56.980  26.242  54.826  1.00  0.00     0.001 A 
ATOM     27  C   UNL     1      56.330  25.095  54.332  1.00  0.00     0.002 A 
BRANCH  22  28
ATOM     28  O   UNL     1      54.025  25.955  50.478  1.00  0.00    -0.417 OA
ATOM     29  C   UNL     1      54.186  25.869  49.071  1.00  0.00     0.313 C 
ENDBRANCH  22  28
ENDBRANCH  18  19
ENDBRANCH   7  18
ENDBRANCH   4   7
ENDBRANCH   2   3
BRANCH   2  30
ATOM     30  N   UNL     1      61.271  27.867  50.629  1.00  0.00    -0.343 N 
ATOM     31  C   UNL     1      62.495  28.253  50.002  1.00  0.00     0.243 C 
ATOM     32  H   UNL     1      61.196  27.971  51.667  1.00  0.00     0.164 HD
ATOM     33  O   UNL     1      62.788  27.799  48.861  1.00  0.00    -0.273 OA
BRANCH  31  34
ATOM     34  C   UNL     1      63.377  29.254  50.711  1.00  0.00     0.174 C 
ATOM     35  N   UNL     1      62.514  30.254  51.395  1.00  0.00    -0.329 N 
ATOM     36  C   UNL     1      64.394  29.960  49.800  1.00  0.00     0.035 C 
ATOM     37  C   UNL     1      61.844  31.281  50.579  1.00  0.00     0.120 C 
ATOM     38  C   UNL     1      63.753  31.022  48.891  1.00  0.00     0.004 C 
ATOM     39  C   UNL     1      62.897  31.997  49.707  1.00  0.00     0.022 C 
BRANCH  35  40
ATOM     40  C   UNL     1      62.210  30.059  52.804  1.00  0.00     0.246 CG0
ATOM     41  O   UNL     1      62.839  29.163  53.444  1.00  0.00    -0.272 OA
ATOM     42  G   UNL     1      61.089  30.810  53.512  1.00  0.00     0.000 G0
ENDBRANCH  35  40
ENDBRANCH  31  34
ENDBRANCH   2  30
ENDBRANCH   1   2
BRANCH   1  43
ATOM     43  C   UNL     1      60.374  25.004  49.933  1.00  0.00     0.003 C 
BRANCH  43  44
ATOM     44  C   UNL     1      59.867  23.723  50.596  1.00  0.00     0.001 C 
BRANCH  44  45
ATOM     45  C   UNL     1      59.232  24.008  51.958  1.00  0.00     0.008 C 
BRANCH  45  46
ATOM     46  C   UNL     1      60.044  23.406  53.119  1.00  0.00     0.075 C 
BRANCH  46  47
ATOM     47  C   UNL     1      61.037  24.374  53.712  1.00  0.00     0.132 C 
ATOM     48  O   UNL     1      62.223  24.301  53.411  1.00  0.00    -0.300 OA
BRANCH  47  49
ATOM     49  C   UNL     1      60.580  25.354  54.773  1.00  0.00     0.072 C 
ATOM     50  C   UNL     1      60.414  26.788  54.255  1.00  0.00     0.012 C 
ENDBRANCH  47  49
ENDBRANCH  46  47
ENDBRANCH  45  46
ENDBRANCH  44  45
ENDBRANCH  43  44
ENDBRANCH   1  43
TORSDOF 12
ENDMDL
