MODEL 1
REMARK VINA RESULT:    25.952      0.000      0.000
REMARK INTER + INTRA:          30.230
REMARK INTER:                  30.504
REMARK INTRA:                  -0.274
REMARK UNBOUND:                -0.274
REMARK SMILES Oc1ccc(-c2[o+]c3cc(O)cc(O)c3cc2O)cc1
REMARK SMILES IDX 6 1 7 2 8 3 9 4 10 5 12 6 13 7 15 8 16 9 17 10 5 11 4 12
REMARK SMILES IDX 3 13 2 14 19 15 20 16 1 17 18 19 11 21 14 23
REMARK H PARENT 1 18 18 20 11 22 14 24
REMARK Flexibility Score: inf
ROOT
ATOM      1  C   UNL     1      12.227   5.065  17.969  1.00  0.00     0.401 A 
ATOM      2  O   UNL     1      12.966   6.089  18.388  1.00  0.00    -0.202 OA
ATOM      3  C   UNL     1      12.766   7.343  17.994  1.00  0.00     0.368 A 
ATOM      4  C   UNL     1      13.593   8.353  18.492  1.00  0.00     0.162 A 
ATOM      5  C   UNL     1      13.403   9.680  18.097  1.00  0.00     0.128 A 
ATOM      6  C   UNL     1      12.380   9.999  17.200  1.00  0.00     0.093 A 
ATOM      7  C   UNL     1      11.537   9.005  16.687  1.00  0.00     0.136 A 
ATOM      8  C   UNL     1      11.728   7.656  17.084  1.00  0.00     0.125 A 
ATOM      9  C   UNL     1      10.940   6.593  16.610  1.00  0.00     0.078 A 
ATOM     10  C   UNL     1      11.192   5.288  17.044  1.00  0.00     0.223 A 
ENDROOT
BRANCH   1  11
ATOM     11  C   UNL     1      12.543   3.715  18.489  1.00  0.00     0.084 A 
ATOM     12  C   UNL     1      12.079   3.338  19.760  1.00  0.00     0.022 A 
ATOM     13  C   UNL     1      12.349   2.061  20.262  1.00  0.00     0.047 A 
ATOM     14  C   UNL     1      13.068   1.140  19.496  1.00  0.00     0.115 A 
ATOM     15  C   UNL     1      13.250   2.777  17.714  1.00  0.00     0.022 A 
ATOM     16  C   UNL     1      13.516   1.501  18.218  1.00  0.00     0.047 A 
BRANCH  14  17
ATOM     17  O   UNL     1      13.329  -0.129  20.009  1.00  0.00    -0.508 OA
ATOM     18  H   UNL     1      12.634  -0.637  20.541  1.00  0.00     0.293 HD
ENDBRANCH  14  17
ENDBRANCH   1  11
BRANCH  10  19
ATOM     19  O   UNL     1      10.442   4.226  16.535  1.00  0.00    -0.500 OA
ATOM     20  H   UNL     1       9.744   3.750  17.094  1.00  0.00     0.294 HD
ENDBRANCH  10  19
BRANCH   5  21
ATOM     21  O   UNL     1      14.224  10.692  18.589  1.00  0.00    -0.507 OA
ATOM     22  H   UNL     1      14.953  11.107  18.019  1.00  0.00     0.293 HD
ENDBRANCH   5  21
BRANCH   7  23
ATOM     23  O   UNL     1      10.536   9.407  15.798  1.00  0.00    -0.507 OA
ATOM     24  H   UNL     1       9.608   9.695  16.076  1.00  0.00     0.293 HD
ENDBRANCH   7  23
TORSDOF 5
ENDMDL
MODEL 2
REMARK VINA RESULT:    26.217      1.066      2.868
REMARK INTER + INTRA:          30.541
REMARK INTER:                  30.813
REMARK INTRA:                  -0.272
REMARK UNBOUND:                -0.274
REMARK SMILES Oc1ccc(-c2[o+]c3cc(O)cc(O)c3cc2O)cc1
REMARK SMILES IDX 6 1 7 2 8 3 9 4 10 5 12 6 13 7 15 8 16 9 17 10 5 11 4 12
REMARK SMILES IDX 3 13 2 14 19 15 20 16 1 17 18 19 11 21 14 23
REMARK H PARENT 1 18 18 20 11 22 14 24
REMARK Flexibility Score: inf
ROOT
ATOM      1  C   UNL     1      12.839   4.999  18.495  1.00  0.00     0.401 A 
ATOM      2  O   UNL     1      11.948   5.470  17.627  1.00  0.00    -0.202 OA
ATOM      3  C   UNL     1      11.900   6.743  17.245  1.00  0.00     0.368 A 
ATOM      4  C   UNL     1      10.928   7.142  16.325  1.00  0.00     0.162 A 
ATOM      5  C   UNL     1      10.859   8.473  15.905  1.00  0.00     0.128 A 
ATOM      6  C   UNL     1      11.766   9.409  16.407  1.00  0.00     0.093 A 
ATOM      7  C   UNL     1      12.750   9.034  17.330  1.00  0.00     0.136 A 
ATOM      8  C   UNL     1      12.823   7.684  17.762  1.00  0.00     0.125 A 
ATOM      9  C   UNL     1      13.767   7.222  18.693  1.00  0.00     0.078 A 
ATOM     10  C   UNL     1      13.774   5.876  19.074  1.00  0.00     0.223 A 
ENDROOT
BRANCH   1  11
ATOM     11  C   UNL     1      12.794   3.558  18.832  1.00  0.00     0.084 A 
ATOM     12  C   UNL     1      13.373   2.625  17.956  1.00  0.00     0.022 A 
ATOM     13  C   UNL     1      13.360   1.261  18.265  1.00  0.00     0.047 A 
ATOM     14  C   UNL     1      12.788   0.815  19.459  1.00  0.00     0.115 A 
ATOM     15  C   UNL     1      12.237   3.104  20.043  1.00  0.00     0.022 A 
ATOM     16  C   UNL     1      12.228   1.741  20.349  1.00  0.00     0.047 A 
BRANCH  14  17
ATOM     17  O   UNL     1      12.783  -0.547  19.753  1.00  0.00    -0.508 OA
ATOM     18  H   UNL     1      13.357  -1.202  19.236  1.00  0.00     0.293 HD
ENDBRANCH  14  17
ENDBRANCH   1  11
BRANCH  10  19
ATOM     19  O   UNL     1      14.679   5.427  20.037  1.00  0.00    -0.500 OA
ATOM     20  H   UNL     1      15.680   5.466  19.887  1.00  0.00     0.294 HD
ENDBRANCH  10  19
BRANCH   5  21
ATOM     21  O   UNL     1       9.892   8.878  14.988  1.00  0.00    -0.507 OA
ATOM     22  H   UNL     1      10.139   9.149  14.042  1.00  0.00     0.293 HD
ENDBRANCH   5  21
BRANCH   7  23
ATOM     23  O   UNL     1      13.621  10.030  17.781  1.00  0.00    -0.507 OA
ATOM     24  H   UNL     1      14.268  10.532  17.190  1.00  0.00     0.293 HD
ENDBRANCH   7  23
TORSDOF 5
ENDMDL
MODEL 3
REMARK VINA RESULT:    26.665      4.552      7.505
REMARK INTER + INTRA:          31.068
REMARK INTER:                  31.333
REMARK INTRA:                  -0.265
REMARK UNBOUND:                -0.274
REMARK SMILES Oc1ccc(-c2[o+]c3cc(O)cc(O)c3cc2O)cc1
REMARK SMILES IDX 6 1 7 2 8 3 9 4 10 5 12 6 13 7 15 8 16 9 17 10 5 11 4 12
REMARK SMILES IDX 3 13 2 14 19 15 20 16 1 17 18 19 11 21 14 23
REMARK H PARENT 1 18 18 20 11 22 14 24
REMARK Flexibility Score: inf
ROOT
ATOM      1  C   UNL     1       9.911   9.980  19.797  1.00  0.00     0.401 A 
ATOM      2  O   UNL     1       9.679   9.507  18.575  1.00  0.00    -0.202 OA
ATOM      3  C   UNL     1      10.640   9.076  17.763  1.00  0.00     0.368 A 
ATOM      4  C   UNL     1      10.297   8.595  16.497  1.00  0.00     0.162 A 
ATOM      5  C   UNL     1      11.287   8.132  15.626  1.00  0.00     0.128 A 
ATOM      6  C   UNL     1      12.627   8.152  16.022  1.00  0.00     0.093 A 
ATOM      7  C   UNL     1      12.997   8.629  17.286  1.00  0.00     0.136 A 
ATOM      8  C   UNL     1      11.995   9.101  18.174  1.00  0.00     0.125 A 
ATOM      9  C   UNL     1      12.275   9.609  19.453  1.00  0.00     0.078 A 
ATOM     10  C   UNL     1      11.233  10.062  20.270  1.00  0.00     0.223 A 
ENDROOT
BRANCH   1  11
ATOM     11  C   UNL     1       8.754  10.420  20.608  1.00  0.00     0.084 A 
ATOM     12  C   UNL     1       7.967   9.462  21.267  1.00  0.00     0.022 A 
ATOM     13  C   UNL     1       6.881   9.858  22.055  1.00  0.00     0.047 A 
ATOM     14  C   UNL     1       6.581  11.213  22.210  1.00  0.00     0.115 A 
ATOM     15  C   UNL     1       8.459  11.786  20.784  1.00  0.00     0.022 A 
ATOM     16  C   UNL     1       7.375  12.177  21.574  1.00  0.00     0.047 A 
BRANCH  14  17
ATOM     17  O   UNL     1       5.497  11.593  22.999  1.00  0.00    -0.508 OA
ATOM     18  H   UNL     1       5.626  11.976  23.927  1.00  0.00     0.293 HD
ENDBRANCH  14  17
ENDBRANCH   1  11
BRANCH  10  19
ATOM     19  O   UNL     1      11.516  10.613  21.520  1.00  0.00    -0.500 OA
ATOM     20  H   UNL     1      10.923  11.319  21.938  1.00  0.00     0.294 HD
ENDBRANCH  10  19
BRANCH   5  21
ATOM     21  O   UNL     1      10.952   7.652  14.362  1.00  0.00    -0.507 OA
ATOM     22  H   UNL     1      10.091   7.925  13.902  1.00  0.00     0.293 HD
ENDBRANCH   5  21
BRANCH   7  23
ATOM     23  O   UNL     1      14.356   8.611  17.607  1.00  0.00    -0.507 OA
ATOM     24  H   UNL     1      14.842   7.811  17.990  1.00  0.00     0.293 HD
ENDBRANCH   7  23
TORSDOF 5
ENDMDL
MODEL 4
REMARK VINA RESULT:    27.029      4.796      7.183
REMARK INTER + INTRA:          31.495
REMARK INTER:                  31.769
REMARK INTRA:                  -0.274
REMARK UNBOUND:                -0.274
REMARK SMILES Oc1ccc(-c2[o+]c3cc(O)cc(O)c3cc2O)cc1
REMARK SMILES IDX 6 1 7 2 8 3 9 4 10 5 12 6 13 7 15 8 16 9 17 10 5 11 4 12
REMARK SMILES IDX 3 13 2 14 19 15 20 16 1 17 18 19 11 21 14 23
REMARK H PARENT 1 18 18 20 11 22 14 24
REMARK Flexibility Score: inf
ROOT
ATOM      1  C   UNL     1       9.120   9.919  19.563  1.00  0.00     0.401 A 
ATOM      2  O   UNL     1      10.439   9.931  19.741  1.00  0.00    -0.202 OA
ATOM      3  C   UNL     1      11.307   9.566  18.802  1.00  0.00     0.368 A 
ATOM      4  C   UNL     1      12.674   9.615  19.083  1.00  0.00     0.162 A 
ATOM      5  C   UNL     1      13.608   9.240  18.112  1.00  0.00     0.128 A 
ATOM      6  C   UNL     1      13.171   8.814  16.855  1.00  0.00     0.093 A 
ATOM      7  C   UNL     1      11.806   8.757  16.548  1.00  0.00     0.136 A 
ATOM      8  C   UNL     1      10.854   9.134  17.531  1.00  0.00     0.125 A 
ATOM      9  C   UNL     1       9.466   9.095  17.318  1.00  0.00     0.078 A 
ATOM     10  C   UNL     1       8.589   9.478  18.337  1.00  0.00     0.223 A 
ENDROOT
BRANCH   1  11
ATOM     11  C   UNL     1       8.259  10.358  20.684  1.00  0.00     0.084 A 
ATOM     12  C   UNL     1       8.065  11.731  20.910  1.00  0.00     0.022 A 
ATOM     13  C   UNL     1       7.239  12.168  21.950  1.00  0.00     0.047 A 
ATOM     14  C   UNL     1       6.582  11.241  22.764  1.00  0.00     0.115 A 
ATOM     15  C   UNL     1       7.579   9.430  21.495  1.00  0.00     0.022 A 
ATOM     16  C   UNL     1       6.752   9.870  22.532  1.00  0.00     0.047 A 
BRANCH  14  17
ATOM     17  O   UNL     1       5.762  11.691  23.797  1.00  0.00    -0.508 OA
ATOM     18  H   UNL     1       6.085  11.716  24.756  1.00  0.00     0.293 HD
ENDBRANCH  14  17
ENDBRANCH   1  11
BRANCH  10  19
ATOM     19  O   UNL     1       7.210   9.392  18.141  1.00  0.00    -0.500 OA
ATOM     20  H   UNL     1       6.673  10.170  17.778  1.00  0.00     0.294 HD
ENDBRANCH  10  19
BRANCH   5  21
ATOM     21  O   UNL     1      14.972   9.286  18.385  1.00  0.00    -0.507 OA
ATOM     22  H   UNL     1      15.545  10.072  18.096  1.00  0.00     0.293 HD
ENDBRANCH   5  21
BRANCH   7  23
ATOM     23  O   UNL     1      11.452   8.324  15.268  1.00  0.00    -0.507 OA
ATOM     24  H   UNL     1      12.084   7.868  14.625  1.00  0.00     0.293 HD
ENDBRANCH   7  23
TORSDOF 5
ENDMDL
