MODEL 1
REMARK VINA RESULT:    -4.547      0.000      0.000
REMARK INTER + INTRA:         -10.924
REMARK INTER:                  -9.597
REMARK INTRA:                  -1.327
REMARK UNBOUND:                -1.327
REMARK SMILES CCC(=O)CCCCC[C@H]1NC(=O)[C@@H]2CCCCN2C(=O)[C@H]([C@@H](C)CC)NC(=O)[C@@H](Cc2cn(OC)c3ccccc23)NC1=O
REMARK SMILES IDX 9 1 10 2 44 3 43 4 45 6 30 7 28 8 27 9 29 11 22 12 23 14
REMARK SMILES IDX 24 15 25 16 26 17 31 18 32 19 33 20 42 21 34 22 37 23 41 24
REMARK SMILES IDX 38 25 40 26 39 27 35 28 36 29 11 30 12 31 13 33 14 34 19 35
REMARK SMILES IDX 15 36 18 37 16 38 17 39 20 40 21 41 8 43 7 44 6 45 5 46 3 47
REMARK SMILES IDX 4 48 2 49 1 50
REMARK H PARENT 43 5 27 10 11 32
REMARK Flexibility Score: 80.00
ROOT
ATOM      1  C   UNL     1      58.401  26.307  49.993  1.00  0.00     0.035 C 
ENDROOT
BRANCH   1   2
ATOM      2  C   UNL     1      59.621  25.576  50.538  1.00  0.00     0.171 C 
BRANCH   2   3
ATOM      3  C   UNL     1      60.773  26.592  50.554  1.00  0.00     0.243 C 
ATOM      4  N   UNL     1      61.510  26.815  49.345  1.00  0.00    -0.342 N 
ATOM      5  H   UNL     1      61.196  26.485  48.410  1.00  0.00     0.164 HD
ATOM      6  O   UNL     1      61.114  27.132  51.649  1.00  0.00    -0.273 OA
BRANCH   4   7
ATOM      7  C   UNL     1      62.977  27.205  49.540  1.00  0.00     0.175 C 
BRANCH   7   8
ATOM      8  C   UNL     1      63.846  26.006  50.118  1.00  0.00     0.243 C 
ATOM      9  N   UNL     1      63.327  24.694  50.380  1.00  0.00    -0.342 N 
ATOM     10  H   UNL     1      62.410  24.376  50.090  1.00  0.00     0.164 HD
ATOM     11  O   UNL     1      65.030  26.245  50.504  1.00  0.00    -0.273 OA
BRANCH   9  12
ATOM     12  C   UNL     1      63.887  24.086  51.634  1.00  0.00     0.174 CG0
ATOM     13  G   UNL     1      63.672  22.578  51.377  1.00  0.00     0.000 G0
BRANCH  12  14
ATOM     14  C   UNL     1      63.392  25.094  52.790  1.00  0.00     0.018 C 
ATOM     15  C   UNL     1      62.253  24.661  53.827  1.00  0.00     0.010 C 
BRANCH  14  16
ATOM     16  C   UNL     1      64.626  25.434  53.675  1.00  0.00     0.002 C 
ATOM     17  C   UNL     1      64.637  26.821  54.408  1.00  0.00     0.004 C 
ENDBRANCH  14  16
ENDBRANCH  12  14
ENDBRANCH   9  12
ENDBRANCH   7   8
BRANCH   7  18
ATOM     18  C   UNL     1      63.432  28.125  48.320  1.00  0.00     0.073 C 
BRANCH  18  19
ATOM     19  C   UNL     1      63.793  29.517  48.867  1.00  0.00    -0.016 A 
ATOM     20  C   UNL     1      63.211  30.205  49.953  1.00  0.00     0.134 A 
ATOM     21  C   UNL     1      64.856  30.318  48.500  1.00  0.00     0.006 A 
ATOM     22  N   UNL     1      63.819  31.357  50.122  1.00  0.00    -0.191 N 
ATOM     23  C   UNL     1      64.825  31.496  49.285  1.00  0.00     0.087 A 
ATOM     24  C   UNL     1      65.802  30.154  47.493  1.00  0.00     0.011 A 
ATOM     25  C   UNL     1      65.719  32.531  49.045  1.00  0.00     0.030 A 
ATOM     26  C   UNL     1      66.753  31.194  47.251  1.00  0.00     0.001 A 
ATOM     27  C   UNL     1      66.687  32.395  48.042  1.00  0.00     0.002 A 
BRANCH  22  28
ATOM     28  O   UNL     1      63.446  32.307  51.173  1.00  0.00    -0.417 OA
ATOM     29  C   UNL     1      62.246  33.053  51.041  1.00  0.00     0.313 C 
ENDBRANCH  22  28
ENDBRANCH  18  19
ENDBRANCH   7  18
ENDBRANCH   4   7
ENDBRANCH   2   3
BRANCH   2  30
ATOM     30  N   UNL     1      59.981  24.300  49.908  1.00  0.00    -0.343 N 
ATOM     31  C   UNL     1      60.471  23.206  50.744  1.00  0.00     0.243 C 
ATOM     32  H   UNL     1      59.809  24.071  48.903  1.00  0.00     0.164 HD
ATOM     33  O   UNL     1      60.273  23.388  52.012  1.00  0.00    -0.273 OA
BRANCH  31  34
ATOM     34  C   UNL     1      61.405  22.195  50.166  1.00  0.00     0.174 C 
ATOM     35  N   UNL     1      62.394  21.837  51.344  1.00  0.00    -0.329 N 
ATOM     36  C   UNL     1      60.590  20.922  49.590  1.00  0.00     0.035 C 
ATOM     37  C   UNL     1      61.873  20.880  52.425  1.00  0.00     0.120 C 
ATOM     38  C   UNL     1      59.891  20.047  50.640  1.00  0.00     0.004 C 
ATOM     39  C   UNL     1      61.037  19.730  51.731  1.00  0.00     0.022 C 
BRANCH  35  40
ATOM     40  C   UNL     1      63.660  22.573  51.328  1.00  0.00     0.246 CG0
ATOM     41  O   UNL     1      64.727  21.876  51.332  1.00  0.00    -0.272 OA
ATOM     42  G   UNL     1      63.814  24.079  51.639  1.00  0.00     0.000 G0
ENDBRANCH  35  40
ENDBRANCH  31  34
ENDBRANCH   2  30
ENDBRANCH   1   2
BRANCH   1  43
ATOM     43  C   UNL     1      57.726  27.257  50.968  1.00  0.00     0.003 C 
BRANCH  43  44
ATOM     44  C   UNL     1      57.420  28.665  50.347  1.00  0.00     0.001 C 
BRANCH  44  45
ATOM     45  C   UNL     1      55.926  28.992  50.383  1.00  0.00     0.008 C 
BRANCH  45  46
ATOM     46  C   UNL     1      55.095  27.871  51.055  1.00  0.00     0.075 C 
BRANCH  46  47
ATOM     47  C   UNL     1      54.199  27.258  50.022  1.00  0.00     0.132 C 
ATOM     48  O   UNL     1      53.208  27.889  49.641  1.00  0.00    -0.300 OA
BRANCH  47  49
ATOM     49  C   UNL     1      54.522  25.876  49.581  1.00  0.00     0.072 C 
ATOM     50  C   UNL     1      53.254  25.059  49.269  1.00  0.00     0.012 C 
ENDBRANCH  47  49
ENDBRANCH  46  47
ENDBRANCH  45  46
ENDBRANCH  44  45
ENDBRANCH  43  44
ENDBRANCH   1  43
TORSDOF 12
ENDMDL
MODEL 2
REMARK VINA RESULT:    -4.356      9.396     12.071
REMARK INTER + INTRA:         -10.521
REMARK INTER:                  -8.976
REMARK INTRA:                  -1.545
REMARK UNBOUND:                -1.327
REMARK SMILES CCC(=O)CCCCC[C@H]1NC(=O)[C@@H]2CCCCN2C(=O)[C@H]([C@@H](C)CC)NC(=O)[C@@H](Cc2cn(OC)c3ccccc23)NC1=O
REMARK SMILES IDX 9 1 10 2 44 3 43 4 45 6 30 7 28 8 27 9 29 11 22 12 23 14
REMARK SMILES IDX 24 15 25 16 26 17 31 18 32 19 33 20 42 21 34 22 37 23 41 24
REMARK SMILES IDX 38 25 40 26 39 27 35 28 36 29 11 30 12 31 13 33 14 34 19 35
REMARK SMILES IDX 15 36 18 37 16 38 17 39 20 40 21 41 8 43 7 44 6 45 5 46 3 47
REMARK SMILES IDX 4 48 2 49 1 50
REMARK H PARENT 43 5 27 10 11 32
REMARK Flexibility Score: 80.00
ROOT
ATOM      1  C   UNL     1      61.216  25.499  63.644  1.00  0.00     0.035 C 
ENDROOT
BRANCH   1   2
ATOM      2  C   UNL     1      60.361  26.009  62.492  1.00  0.00     0.171 C 
BRANCH   2   3
ATOM      3  C   UNL     1      61.216  27.031  61.727  1.00  0.00     0.243 C 
ATOM      4  N   UNL     1      61.516  28.284  62.355  1.00  0.00    -0.342 N 
ATOM      5  H   UNL     1      61.363  28.472  63.366  1.00  0.00     0.164 HD
ATOM      6  O   UNL     1      61.548  26.793  60.527  1.00  0.00    -0.273 OA
BRANCH   4   7
ATOM      7  C   UNL     1      61.692  29.465  61.399  1.00  0.00     0.175 C 
BRANCH   7   8
ATOM      8  C   UNL     1      60.375  29.759  60.559  1.00  0.00     0.243 C 
ATOM      9  N   UNL     1      59.204  28.931  60.589  1.00  0.00    -0.342 N 
ATOM     10  H   UNL     1      59.057  28.175  61.247  1.00  0.00     0.164 HD
ATOM     11  O   UNL     1      60.396  30.697  59.706  1.00  0.00    -0.273 OA
BRANCH   9  12
ATOM     12  C   UNL     1      58.558  28.787  59.241  1.00  0.00     0.174 CG0
ATOM     13  G   UNL     1      57.070  28.612  59.620  1.00  0.00     0.000 G0
BRANCH  12  14
ATOM     14  C   UNL     1      59.606  27.877  58.421  1.00  0.00     0.018 C 
ATOM     15  C   UNL     1      59.228  26.388  57.973  1.00  0.00     0.010 C 
BRANCH  14  16
ATOM     16  C   UNL     1      59.934  28.619  57.094  1.00  0.00     0.002 C 
ATOM     17  C   UNL     1      59.439  27.971  55.754  1.00  0.00     0.004 C 
ENDBRANCH  14  16
ENDBRANCH  12  14
ENDBRANCH   9  12
ENDBRANCH   7   8
BRANCH   7  18
ATOM     18  C   UNL     1      62.553  30.593  62.127  1.00  0.00     0.073 C 
BRANCH  18  19
ATOM     19  C   UNL     1      63.530  31.196  61.102  1.00  0.00    -0.016 A 
ATOM     20  C   UNL     1      64.611  30.565  60.450  1.00  0.00     0.134 A 
ATOM     21  C   UNL     1      63.463  32.438  60.503  1.00  0.00     0.006 A 
ATOM     22  N   UNL     1      65.185  31.412  59.627  1.00  0.00    -0.191 N 
ATOM     23  C   UNL     1      64.547  32.562  59.601  1.00  0.00     0.087 A 
ATOM     24  C   UNL     1      62.592  33.501  60.726  1.00  0.00     0.011 A 
ATOM     25  C   UNL     1      64.787  33.761  58.942  1.00  0.00     0.030 A 
ATOM     26  C   UNL     1      62.802  34.733  60.033  1.00  0.00     0.001 A 
ATOM     27  C   UNL     1      63.926  34.848  59.141  1.00  0.00     0.002 A 
BRANCH  22  28
ATOM     28  O   UNL     1      66.340  31.057  58.800  1.00  0.00    -0.417 OA
ATOM     29  C   UNL     1      66.138  30.675  57.449  1.00  0.00     0.313 C 
ENDBRANCH  22  28
ENDBRANCH  18  19
ENDBRANCH   7  18
ENDBRANCH   4   7
ENDBRANCH   2   3
BRANCH   2  30
ATOM     30  N   UNL     1      59.016  26.502  62.815  1.00  0.00    -0.343 N 
ATOM     31  C   UNL     1      57.939  26.323  61.844  1.00  0.00     0.243 C 
ATOM     32  H   UNL     1      58.739  26.882  63.747  1.00  0.00     0.164 HD
ATOM     33  O   UNL     1      58.225  25.487  60.895  1.00  0.00    -0.273 OA
BRANCH  31  34
ATOM     34  C   UNL     1      56.807  27.295  61.808  1.00  0.00     0.174 C 
ATOM     35  N   UNL     1      56.459  27.456  60.276  1.00  0.00    -0.329 N 
ATOM     36  C   UNL     1      55.569  26.769  62.705  1.00  0.00     0.035 C 
ATOM     37  C   UNL     1      55.641  26.332  59.625  1.00  0.00     0.120 C 
ATOM     38  C   UNL     1      54.846  25.521  62.178  1.00  0.00     0.004 C 
ATOM     39  C   UNL     1      54.518  25.864  60.636  1.00  0.00     0.022 C 
BRANCH  35  40
ATOM     40  C   UNL     1      57.077  28.613  59.624  1.00  0.00     0.246 CG0
ATOM     41  O   UNL     1      56.288  29.444  59.067  1.00  0.00    -0.272 OA
ATOM     42  G   UNL     1      58.576  28.735  59.270  1.00  0.00     0.000 G0
ENDBRANCH  35  40
ENDBRANCH  31  34
ENDBRANCH   2  30
ENDBRANCH   1   2
BRANCH   1  43
ATOM     43  C   UNL     1      61.199  23.993  63.847  1.00  0.00     0.003 C 
BRANCH  43  44
ATOM     44  C   UNL     1      61.298  23.188  62.505  1.00  0.00     0.001 C 
BRANCH  44  45
ATOM     45  C   UNL     1      60.161  22.175  62.362  1.00  0.00     0.008 C 
BRANCH  45  46
ATOM     46  C   UNL     1      58.766  22.845  62.415  1.00  0.00     0.075 C 
BRANCH  46  47
ATOM     47  C   UNL     1      58.094  22.447  63.695  1.00  0.00     0.132 C 
ATOM     48  O   UNL     1      58.523  21.468  64.314  1.00  0.00    -0.300 OA
BRANCH  47  49
ATOM     49  C   UNL     1      56.889  23.219  64.095  1.00  0.00     0.072 C 
ATOM     50  C   UNL     1      55.687  22.302  64.387  1.00  0.00     0.012 C 
ENDBRANCH  47  49
ENDBRANCH  46  47
ENDBRANCH  45  46
ENDBRANCH  44  45
ENDBRANCH  43  44
ENDBRANCH   1  43
TORSDOF 12
ENDMDL
MODEL 3
REMARK VINA RESULT:    -4.323      8.909     12.039
REMARK INTER + INTRA:         -10.451
REMARK INTER:                  -8.596
REMARK INTRA:                  -1.855
REMARK UNBOUND:                -1.327
REMARK SMILES CCC(=O)CCCCC[C@H]1NC(=O)[C@@H]2CCCCN2C(=O)[C@H]([C@@H](C)CC)NC(=O)[C@@H](Cc2cn(OC)c3ccccc23)NC1=O
REMARK SMILES IDX 9 1 10 2 44 3 43 4 45 6 30 7 28 8 27 9 29 11 22 12 23 14
REMARK SMILES IDX 24 15 25 16 26 17 31 18 32 19 33 20 42 21 34 22 37 23 41 24
REMARK SMILES IDX 38 25 40 26 39 27 35 28 36 29 11 30 12 31 13 33 14 34 19 35
REMARK SMILES IDX 15 36 18 37 16 38 17 39 20 40 21 41 8 43 7 44 6 45 5 46 3 47
REMARK SMILES IDX 4 48 2 49 1 50
REMARK H PARENT 43 5 27 10 11 32
REMARK Flexibility Score: 80.00
ROOT
ATOM      1  C   UNL     1      61.380  25.553  63.599  1.00  0.00     0.035 C 
ENDROOT
BRANCH   1   2
ATOM      2  C   UNL     1      60.529  26.029  62.429  1.00  0.00     0.171 C 
BRANCH   2   3
ATOM      3  C   UNL     1      61.344  27.108  61.701  1.00  0.00     0.243 C 
ATOM      4  N   UNL     1      61.578  28.359  62.363  1.00  0.00    -0.342 N 
ATOM      5  H   UNL     1      61.403  28.514  63.376  1.00  0.00     0.164 HD
ATOM      6  O   UNL     1      61.703  26.916  60.500  1.00  0.00    -0.273 OA
BRANCH   4   7
ATOM      7  C   UNL     1      61.711  29.570  61.437  1.00  0.00     0.175 C 
BRANCH   7   8
ATOM      8  C   UNL     1      60.368  29.865  60.638  1.00  0.00     0.243 C 
ATOM      9  N   UNL     1      59.281  28.935  60.527  1.00  0.00    -0.342 N 
ATOM     10  H   UNL     1      59.210  28.076  61.057  1.00  0.00     0.164 HD
ATOM     11  O   UNL     1      60.297  30.922  59.941  1.00  0.00    -0.273 OA
BRANCH   9  12
ATOM     12  C   UNL     1      58.647  28.942  59.165  1.00  0.00     0.174 CG0
ATOM     13  G   UNL     1      57.163  28.683  59.506  1.00  0.00     0.000 G0
BRANCH  12  14
ATOM     14  C   UNL     1      59.724  28.168  58.249  1.00  0.00     0.018 C 
ATOM     15  C   UNL     1      59.441  26.685  57.721  1.00  0.00     0.010 C 
BRANCH  14  16
ATOM     16  C   UNL     1      59.937  29.014  56.960  1.00  0.00     0.002 C 
ATOM     17  C   UNL     1      58.680  29.709  56.329  1.00  0.00     0.004 C 
ENDBRANCH  14  16
ENDBRANCH  12  14
ENDBRANCH   9  12
ENDBRANCH   7   8
BRANCH   7  18
ATOM     18  C   UNL     1      62.570  30.691  62.176  1.00  0.00     0.073 C 
BRANCH  18  19
ATOM     19  C   UNL     1      63.547  31.305  61.158  1.00  0.00    -0.016 A 
ATOM     20  C   UNL     1      64.593  30.667  60.458  1.00  0.00     0.134 A 
ATOM     21  C   UNL     1      63.510  32.573  60.614  1.00  0.00     0.006 A 
ATOM     22  N   UNL     1      65.180  31.529  59.659  1.00  0.00    -0.191 N 
ATOM     23  C   UNL     1      64.580  32.700  59.695  1.00  0.00     0.087 A 
ATOM     24  C   UNL     1      62.680  33.653  60.899  1.00  0.00     0.011 A 
ATOM     25  C   UNL     1      64.847  33.917  59.082  1.00  0.00     0.030 A 
ATOM     26  C   UNL     1      62.917  34.907  60.254  1.00  0.00     0.001 A 
ATOM     27  C   UNL     1      64.027  35.022  59.345  1.00  0.00     0.002 A 
BRANCH  22  28
ATOM     28  O   UNL     1      66.306  31.173  58.795  1.00  0.00    -0.417 OA
ATOM     29  C   UNL     1      66.054  30.715  57.476  1.00  0.00     0.313 C 
ENDBRANCH  22  28
ENDBRANCH  18  19
ENDBRANCH   7  18
ENDBRANCH   4   7
ENDBRANCH   2   3
BRANCH   2  30
ATOM     30  N   UNL     1      59.150  26.442  62.721  1.00  0.00    -0.343 N 
ATOM     31  C   UNL     1      58.147  26.375  61.661  1.00  0.00     0.243 C 
ATOM     32  H   UNL     1      58.799  26.682  63.674  1.00  0.00     0.164 HD
ATOM     33  O   UNL     1      58.522  25.685  60.629  1.00  0.00    -0.273 OA
BRANCH  31  34
ATOM     34  C   UNL     1      56.988  27.316  61.679  1.00  0.00     0.174 C 
ATOM     35  N   UNL     1      56.596  27.505  60.161  1.00  0.00    -0.329 N 
ATOM     36  C   UNL     1      55.789  26.733  62.593  1.00  0.00     0.035 C 
ATOM     37  C   UNL     1      55.792  26.375  59.502  1.00  0.00     0.120 C 
ATOM     38  C   UNL     1      55.086  25.479  62.052  1.00  0.00     0.004 C 
ATOM     39  C   UNL     1      54.709  25.852  60.528  1.00  0.00     0.022 C 
BRANCH  35  40
ATOM     40  C   UNL     1      57.166  28.694  59.523  1.00  0.00     0.246 CG0
ATOM     41  O   UNL     1      56.345  29.490  58.961  1.00  0.00    -0.272 OA
ATOM     42  G   UNL     1      58.661  28.890  59.188  1.00  0.00     0.000 G0
ENDBRANCH  35  40
ENDBRANCH  31  34
ENDBRANCH   2  30
ENDBRANCH   1   2
BRANCH   1  43
ATOM     43  C   UNL     1      61.775  24.086  63.557  1.00  0.00     0.003 C 
BRANCH  43  44
ATOM     44  C   UNL     1      61.187  23.323  62.319  1.00  0.00     0.001 C 
BRANCH  44  45
ATOM     45  C   UNL     1      62.265  22.537  61.569  1.00  0.00     0.008 C 
BRANCH  45  46
ATOM     46  C   UNL     1      62.681  23.224  60.246  1.00  0.00     0.075 C 
BRANCH  46  47
ATOM     47  C   UNL     1      64.039  23.831  60.430  1.00  0.00     0.132 C 
ATOM     48  O   UNL     1      64.131  25.053  60.587  1.00  0.00    -0.300 OA
BRANCH  47  49
ATOM     49  C   UNL     1      65.208  22.919  60.329  1.00  0.00     0.072 C 
ATOM     50  C   UNL     1      65.047  21.899  59.186  1.00  0.00     0.012 C 
ENDBRANCH  47  49
ENDBRANCH  46  47
ENDBRANCH  45  46
ENDBRANCH  44  45
ENDBRANCH  43  44
ENDBRANCH   1  43
TORSDOF 12
ENDMDL
MODEL 4
REMARK VINA RESULT:    -4.254      3.390      9.934
REMARK INTER + INTRA:         -10.307
REMARK INTER:                  -8.544
REMARK INTRA:                  -1.763
REMARK UNBOUND:                -1.327
REMARK SMILES CCC(=O)CCCCC[C@H]1NC(=O)[C@@H]2CCCCN2C(=O)[C@H]([C@@H](C)CC)NC(=O)[C@@H](Cc2cn(OC)c3ccccc23)NC1=O
REMARK SMILES IDX 9 1 10 2 44 3 43 4 45 6 30 7 28 8 27 9 29 11 22 12 23 14
REMARK SMILES IDX 24 15 25 16 26 17 31 18 32 19 33 20 42 21 34 22 37 23 41 24
REMARK SMILES IDX 38 25 40 26 39 27 35 28 36 29 11 30 12 31 13 33 14 34 19 35
REMARK SMILES IDX 15 36 18 37 16 38 17 39 20 40 21 41 8 43 7 44 6 45 5 46 3 47
REMARK SMILES IDX 4 48 2 49 1 50
REMARK H PARENT 43 5 27 10 11 32
REMARK Flexibility Score: 80.00
ROOT
ATOM      1  C   UNL     1      64.370  28.255  47.553  1.00  0.00     0.035 C 
ENDROOT
BRANCH   1   2
ATOM      2  C   UNL     1      63.857  29.044  48.750  1.00  0.00     0.171 C 
BRANCH   2   3
ATOM      3  C   UNL     1      62.810  28.160  49.445  1.00  0.00     0.243 C 
ATOM      4  N   UNL     1      61.483  28.111  48.906  1.00  0.00    -0.342 N 
ATOM      5  H   UNL     1      61.230  28.476  47.966  1.00  0.00     0.164 HD
ATOM      6  O   UNL     1      63.108  27.578  50.531  1.00  0.00    -0.273 OA
BRANCH   4   7
ATOM      7  C   UNL     1      60.373  27.868  49.931  1.00  0.00     0.175 C 
BRANCH   7   8
ATOM      8  C   UNL     1      60.115  29.139  50.851  1.00  0.00     0.243 C 
ATOM      9  N   UNL     1      60.959  30.299  50.870  1.00  0.00    -0.342 N 
ATOM     10  H   UNL     1      61.704  30.472  50.206  1.00  0.00     0.164 HD
ATOM     11  O   UNL     1      59.194  29.081  51.720  1.00  0.00    -0.273 OA
BRANCH   9  12
ATOM     12  C   UNL     1      61.139  30.864  52.250  1.00  0.00     0.174 CG0
ATOM     13  G   UNL     1      61.350  32.365  51.951  1.00  0.00     0.000 G0
BRANCH  12  14
ATOM     14  C   UNL     1      62.031  29.749  52.996  1.00  0.00     0.018 C 
ATOM     15  C   UNL     1      63.480  30.104  53.573  1.00  0.00     0.010 C 
BRANCH  14  16
ATOM     16  C   UNL     1      61.224  29.252  54.231  1.00  0.00     0.002 C 
ATOM     17  C   UNL     1      60.784  30.320  55.291  1.00  0.00     0.004 C 
ENDBRANCH  14  16
ENDBRANCH  12  14
ENDBRANCH   9  12
ENDBRANCH   7   8
BRANCH   7  18
ATOM     18  C   UNL     1      59.213  27.018  49.242  1.00  0.00     0.073 C 
BRANCH  18  19
ATOM     19  C   UNL     1      58.458  26.247  50.338  1.00  0.00    -0.016 A 
ATOM     20  C   UNL     1      58.955  25.248  51.203  1.00  0.00     0.134 A 
ATOM     21  C   UNL     1      57.176  26.474  50.798  1.00  0.00     0.006 A 
ATOM     22  N   UNL     1      58.002  24.856  52.018  1.00  0.00    -0.191 N 
ATOM     23  C   UNL     1      56.900  25.552  51.836  1.00  0.00     0.087 A 
ATOM     24  C   UNL     1      56.199  27.356  50.345  1.00  0.00     0.011 A 
ATOM     25  C   UNL     1      55.635  25.483  52.405  1.00  0.00     0.030 A 
ATOM     26  C   UNL     1      54.899  27.324  50.939  1.00  0.00     0.001 A 
ATOM     27  C   UNL     1      54.631  26.361  51.975  1.00  0.00     0.002 A 
BRANCH  22  28
ATOM     28  O   UNL     1      58.203  23.826  53.039  1.00  0.00    -0.417 OA
ATOM     29  C   UNL     1      58.522  22.503  52.639  1.00  0.00     0.313 C 
ENDBRANCH  22  28
ENDBRANCH  18  19
ENDBRANCH   7  18
ENDBRANCH   4   7
ENDBRANCH   2   3
BRANCH   2  30
ATOM     30  N   UNL     1      63.388  30.415  48.505  1.00  0.00    -0.343 N 
ATOM     31  C   UNL     1      63.472  31.399  49.582  1.00  0.00     0.243 C 
ATOM     32  H   UNL     1      63.095  30.777  47.571  1.00  0.00     0.164 HD
ATOM     33  O   UNL     1      64.218  31.025  50.575  1.00  0.00    -0.273 OA
BRANCH  31  34
ATOM     34  C   UNL     1      62.495  32.527  49.630  1.00  0.00     0.174 C 
ATOM     35  N   UNL     1      62.451  32.961  51.147  1.00  0.00    -0.329 N 
ATOM     36  C   UNL     1      62.938  33.713  48.625  1.00  0.00     0.035 C 
ATOM     37  C   UNL     1      63.615  33.820  51.661  1.00  0.00     0.120 C 
ATOM     38  C   UNL     1      64.217  34.471  49.011  1.00  0.00     0.004 C 
ATOM     39  C   UNL     1      63.992  34.886  50.554  1.00  0.00     0.022 C 
BRANCH  35  40
ATOM     40  C   UNL     1      61.355  32.376  51.923  1.00  0.00     0.246 CG0
ATOM     41  O   UNL     1      60.649  33.181  52.613  1.00  0.00    -0.272 OA
ATOM     42  G   UNL     1      61.193  30.871  52.233  1.00  0.00     0.000 G0
ENDBRANCH  35  40
ENDBRANCH  31  34
ENDBRANCH   2  30
ENDBRANCH   1   2
BRANCH   1  43
ATOM     43  C   UNL     1      65.712  27.572  47.755  1.00  0.00     0.003 C 
BRANCH  43  44
ATOM     44  C   UNL     1      66.740  27.878  46.611  1.00  0.00     0.001 C 
BRANCH  44  45
ATOM     45  C   UNL     1      67.724  28.981  47.008  1.00  0.00     0.008 C 
BRANCH  45  46
ATOM     46  C   UNL     1      67.542  29.429  48.479  1.00  0.00     0.075 C 
BRANCH  46  47
ATOM     47  C   UNL     1      67.677  30.920  48.543  1.00  0.00     0.132 C 
ATOM     48  O   UNL     1      68.574  31.408  49.238  1.00  0.00    -0.300 OA
BRANCH  47  49
ATOM     49  C   UNL     1      66.657  31.724  47.821  1.00  0.00     0.072 C 
ATOM     50  C   UNL     1      67.299  32.784  46.907  1.00  0.00     0.012 C 
ENDBRANCH  47  49
ENDBRANCH  46  47
ENDBRANCH  45  46
ENDBRANCH  44  45
ENDBRANCH  43  44
ENDBRANCH   1  43
TORSDOF 12
ENDMDL
MODEL 5
REMARK VINA RESULT:    -4.202      3.388      7.310
REMARK INTER + INTRA:         -10.197
REMARK INTER:                  -7.839
REMARK INTRA:                  -2.358
REMARK UNBOUND:                -1.327
REMARK SMILES CCC(=O)CCCCC[C@H]1NC(=O)[C@@H]2CCCCN2C(=O)[C@H]([C@@H](C)CC)NC(=O)[C@@H](Cc2cn(OC)c3ccccc23)NC1=O
REMARK SMILES IDX 9 1 10 2 44 3 43 4 45 6 30 7 28 8 27 9 29 11 22 12 23 14
REMARK SMILES IDX 24 15 25 16 26 17 31 18 32 19 33 20 42 21 34 22 37 23 41 24
REMARK SMILES IDX 38 25 40 26 39 27 35 28 36 29 11 30 12 31 13 33 14 34 19 35
REMARK SMILES IDX 15 36 18 37 16 38 17 39 20 40 21 41 8 43 7 44 6 45 5 46 3 47
REMARK SMILES IDX 4 48 2 49 1 50
REMARK H PARENT 43 5 27 10 11 32
REMARK Flexibility Score: 80.00
ROOT
ATOM      1  C   UNL     1      62.310  33.054  49.372  1.00  0.00     0.035 C 
ENDROOT
BRANCH   1   2
ATOM      2  C   UNL     1      62.192  31.655  49.964  1.00  0.00     0.171 C 
BRANCH   2   3
ATOM      3  C   UNL     1      63.549  30.969  49.745  1.00  0.00     0.243 C 
ATOM      4  N   UNL     1      63.962  30.671  48.405  1.00  0.00    -0.342 N 
ATOM      5  H   UNL     1      63.499  31.063  47.561  1.00  0.00     0.164 HD
ATOM      6  O   UNL     1      64.224  30.588  50.748  1.00  0.00    -0.273 OA
BRANCH   4   7
ATOM      7  C   UNL     1      64.853  29.436  48.258  1.00  0.00     0.175 C 
BRANCH   7   8
ATOM      8  C   UNL     1      64.072  28.090  48.582  1.00  0.00     0.243 C 
ATOM      9  N   UNL     1      62.920  28.017  49.435  1.00  0.00    -0.342 N 
ATOM     10  H   UNL     1      62.421  28.824  49.787  1.00  0.00     0.164 HD
ATOM     11  O   UNL     1      64.564  26.992  48.183  1.00  0.00    -0.273 OA
BRANCH   9  12
ATOM     12  C   UNL     1      62.912  26.788  50.298  1.00  0.00     0.174 CG0
ATOM     13  G   UNL     1      61.424  26.376  50.247  1.00  0.00     0.000 G0
BRANCH  12  14
ATOM     14  C   UNL     1      63.914  27.171  51.501  1.00  0.00     0.018 C 
ATOM     15  C   UNL     1      63.380  27.317  53.002  1.00  0.00     0.010 C 
BRANCH  14  16
ATOM     16  C   UNL     1      65.004  26.063  51.574  1.00  0.00     0.002 C 
ATOM     17  C   UNL     1      66.428  26.403  51.013  1.00  0.00     0.004 C 
ENDBRANCH  14  16
ENDBRANCH  12  14
ENDBRANCH   9  12
ENDBRANCH   7   8
BRANCH   7  18
ATOM     18  C   UNL     1      65.799  29.632  46.989  1.00  0.00     0.073 C 
BRANCH  18  19
ATOM     19  C   UNL     1      67.085  30.342  47.446  1.00  0.00    -0.016 A 
ATOM     20  C   UNL     1      68.280  29.762  47.922  1.00  0.00     0.134 A 
ATOM     21  C   UNL     1      67.386  31.686  47.349  1.00  0.00     0.006 A 
ATOM     22  N   UNL     1      69.156  30.706  48.183  1.00  0.00    -0.191 N 
ATOM     23  C   UNL     1      68.690  31.893  47.860  1.00  0.00     0.087 A 
ATOM     24  C   UNL     1      66.602  32.757  46.931  1.00  0.00     0.011 A 
ATOM     25  C   UNL     1      69.206  33.177  47.987  1.00  0.00     0.030 A 
ATOM     26  C   UNL     1      67.126  34.084  47.023  1.00  0.00     0.001 A 
ATOM     27  C   UNL     1      68.444  34.276  47.570  1.00  0.00     0.002 A 
BRANCH  22  28
ATOM     28  O   UNL     1      70.499  30.425  48.694  1.00  0.00    -0.417 OA
ATOM     29  C   UNL     1      70.693  30.264  50.090  1.00  0.00     0.313 C 
ENDBRANCH  22  28
ENDBRANCH  18  19
ENDBRANCH   7  18
ENDBRANCH   4   7
ENDBRANCH   2   3
BRANCH   2  30
ATOM     30  N   UNL     1      61.051  30.835  49.537  1.00  0.00    -0.343 N 
ATOM     31  C   UNL     1      60.725  29.624  50.288  1.00  0.00     0.243 C 
ATOM     32  H   UNL     1      60.375  31.112  48.791  1.00  0.00     0.164 HD
ATOM     33  O   UNL     1      61.319  29.545  51.437  1.00  0.00    -0.273 OA
BRANCH  31  34
ATOM     34  C   UNL     1      60.060  28.481  49.594  1.00  0.00     0.174 C 
ATOM     35  N   UNL     1      60.261  27.249  50.560  1.00  0.00    -0.329 N 
ATOM     36  C   UNL     1      58.510  28.820  49.284  1.00  0.00     0.035 C 
ATOM     37  C   UNL     1      59.340  27.166  51.785  1.00  0.00     0.120 C 
ATOM     38  C   UNL     1      57.594  28.937  50.511  1.00  0.00     0.004 C 
ATOM     39  C   UNL     1      57.878  27.592  51.357  1.00  0.00     0.022 C 
BRANCH  35  40
ATOM     40  C   UNL     1      61.403  26.392  50.234  1.00  0.00     0.246 CG0
ATOM     41  O   UNL     1      61.170  25.143  50.134  1.00  0.00    -0.272 OA
ATOM     42  G   UNL     1      62.886  26.815  50.328  1.00  0.00     0.000 G0
ENDBRANCH  35  40
ENDBRANCH  31  34
ENDBRANCH   2  30
ENDBRANCH   1   2
BRANCH   1  43
ATOM     43  C   UNL     1      63.730  33.568  49.203  1.00  0.00     0.003 C 
BRANCH  43  44
ATOM     44  C   UNL     1      64.010  34.885  50.008  1.00  0.00     0.001 C 
BRANCH  44  45
ATOM     45  C   UNL     1      65.507  35.184  50.108  1.00  0.00     0.008 C 
BRANCH  45  46
ATOM     46  C   UNL     1      66.083  34.842  51.504  1.00  0.00     0.075 C 
BRANCH  46  47
ATOM     47  C   UNL     1      67.296  33.981  51.322  1.00  0.00     0.132 C 
ATOM     48  O   UNL     1      68.412  34.476  51.507  1.00  0.00    -0.300 OA
BRANCH  47  49
ATOM     49  C   UNL     1      67.075  32.591  50.845  1.00  0.00     0.072 C 
ATOM     50  C   UNL     1      67.683  31.549  51.801  1.00  0.00     0.012 C 
ENDBRANCH  47  49
ENDBRANCH  46  47
ENDBRANCH  45  46
ENDBRANCH  44  45
ENDBRANCH  43  44
ENDBRANCH   1  43
TORSDOF 12
ENDMDL
MODEL 6
REMARK VINA RESULT:    -4.120      8.525     11.591
REMARK INTER + INTRA:         -10.023
REMARK INTER:                  -7.328
REMARK INTRA:                  -2.694
REMARK UNBOUND:                -1.327
REMARK SMILES CCC(=O)CCCCC[C@H]1NC(=O)[C@@H]2CCCCN2C(=O)[C@H]([C@@H](C)CC)NC(=O)[C@@H](Cc2cn(OC)c3ccccc23)NC1=O
REMARK SMILES IDX 9 1 10 2 44 3 43 4 45 6 30 7 28 8 27 9 29 11 22 12 23 14
REMARK SMILES IDX 24 15 25 16 26 17 31 18 32 19 33 20 42 21 34 22 37 23 41 24
REMARK SMILES IDX 38 25 40 26 39 27 35 28 36 29 11 30 12 31 13 33 14 34 19 35
REMARK SMILES IDX 15 36 18 37 16 38 17 39 20 40 21 41 8 43 7 44 6 45 5 46 3 47
REMARK SMILES IDX 4 48 2 49 1 50
REMARK H PARENT 43 5 27 10 11 32
REMARK Flexibility Score: 80.00
ROOT
ATOM      1  C   UNL     1      61.171  29.383  61.801  1.00  0.00     0.035 C 
ENDROOT
BRANCH   1   2
ATOM      2  C   UNL     1      59.994  28.877  60.978  1.00  0.00     0.171 C 
BRANCH   2   3
ATOM      3  C   UNL     1      60.008  29.664  59.659  1.00  0.00     0.243 C 
ATOM      4  N   UNL     1      59.634  31.048  59.679  1.00  0.00    -0.342 N 
ATOM      5  H   UNL     1      59.543  31.606  60.551  1.00  0.00     0.164 HD
ATOM      6  O   UNL     1      60.247  29.057  58.572  1.00  0.00    -0.273 OA
BRANCH   4   7
ATOM      7  C   UNL     1      58.979  31.563  58.396  1.00  0.00     0.175 C 
BRANCH   7   8
ATOM      8  C   UNL     1      57.559  30.896  58.136  1.00  0.00     0.243 C 
ATOM      9  N   UNL     1      57.089  29.723  58.814  1.00  0.00    -0.342 N 
ATOM     10  H   UNL     1      57.551  29.302  59.610  1.00  0.00     0.164 HD
ATOM     11  O   UNL     1      56.849  31.334  57.181  1.00  0.00    -0.273 OA
BRANCH   9  12
ATOM     12  C   UNL     1      56.321  28.799  57.913  1.00  0.00     0.174 CG0
ATOM     13  G   UNL     1      55.252  28.235  58.876  1.00  0.00     0.000 G0
BRANCH  12  14
ATOM     14  C   UNL     1      57.470  28.117  57.012  1.00  0.00     0.018 C 
ATOM     15  C   UNL     1      57.803  26.558  57.145  1.00  0.00     0.010 C 
BRANCH  14  16
ATOM     16  C   UNL     1      57.073  28.310  55.520  1.00  0.00     0.002 C 
ATOM     17  C   UNL     1      58.148  27.973  54.429  1.00  0.00     0.004 C 
ENDBRANCH  14  16
ENDBRANCH  12  14
ENDBRANCH   9  12
ENDBRANCH   7   8
BRANCH   7  18
ATOM     18  C   UNL     1      59.265  33.127  58.264  1.00  0.00     0.073 C 
BRANCH  18  19
ATOM     19  C   UNL     1      60.593  33.317  57.511  1.00  0.00    -0.016 A 
ATOM     20  C   UNL     1      61.266  32.394  56.682  1.00  0.00     0.134 A 
ATOM     21  C   UNL     1      61.327  34.479  57.377  1.00  0.00     0.006 A 
ATOM     22  N   UNL     1      62.357  32.947  56.202  1.00  0.00    -0.191 N 
ATOM     23  C   UNL     1      62.460  34.205  56.573  1.00  0.00     0.087 A 
ATOM     24  C   UNL     1      61.143  35.732  57.951  1.00  0.00     0.011 A 
ATOM     25  C   UNL     1      63.434  35.174  56.368  1.00  0.00     0.030 A 
ATOM     26  C   UNL     1      62.117  36.754  57.726  1.00  0.00     0.001 A 
ATOM     27  C   UNL     1      63.276  36.448  56.929  1.00  0.00     0.002 A 
BRANCH  22  28
ATOM     28  O   UNL     1      63.276  32.243  55.304  1.00  0.00    -0.417 OA
ATOM     29  C   UNL     1      64.415  31.593  55.845  1.00  0.00     0.313 C 
ENDBRANCH  22  28
ENDBRANCH  18  19
ENDBRANCH   7  18
ENDBRANCH   4   7
ENDBRANCH   2   3
BRANCH   2  30
ATOM     30  N   UNL     1      58.676  28.854  61.626  1.00  0.00    -0.343 N 
ATOM     31  C   UNL     1      57.664  27.913  61.150  1.00  0.00     0.243 C 
ATOM     32  H   UNL     1      58.436  29.393  62.488  1.00  0.00     0.164 HD
ATOM     33  O   UNL     1      58.135  26.989  60.371  1.00  0.00    -0.273 OA
BRANCH  31  34
ATOM     34  C   UNL     1      56.217  28.250  61.291  1.00  0.00     0.174 C 
ATOM     35  N   UNL     1      55.503  27.475  60.115  1.00  0.00    -0.329 N 
ATOM     36  C   UNL     1      55.674  27.847  62.760  1.00  0.00     0.035 C 
ATOM     37  C   UNL     1      55.272  25.970  60.311  1.00  0.00     0.120 C 
ATOM     38  C   UNL     1      55.612  26.342  63.058  1.00  0.00     0.004 C 
ATOM     39  C   UNL     1      54.818  25.712  61.803  1.00  0.00     0.022 C 
BRANCH  35  40
ATOM     40  C   UNL     1      55.263  28.273  58.911  1.00  0.00     0.246 CG0
ATOM     41  O   UNL     1      54.060  28.329  58.493  1.00  0.00    -0.272 OA
ATOM     42  G   UNL     1      56.358  28.763  57.937  1.00  0.00     0.000 G0
ENDBRANCH  35  40
ENDBRANCH  31  34
ENDBRANCH   2  30
ENDBRANCH   1   2
BRANCH   1  43
ATOM     43  C   UNL     1      62.532  28.857  61.376  1.00  0.00     0.003 C 
BRANCH  43  44
ATOM     44  C   UNL     1      63.547  29.996  61.010  1.00  0.00     0.001 C 
BRANCH  44  45
ATOM     45  C   UNL     1      62.980  31.384  61.314  1.00  0.00     0.008 C 
BRANCH  45  46
ATOM     46  C   UNL     1      62.925  32.286  60.057  1.00  0.00     0.075 C 
BRANCH  46  47
ATOM     47  C   UNL     1      62.612  33.687  60.488  1.00  0.00     0.132 C 
ATOM     48  O   UNL     1      61.471  33.950  60.880  1.00  0.00    -0.300 OA
BRANCH  47  49
ATOM     49  C   UNL     1      63.690  34.699  60.335  1.00  0.00     0.072 C 
ATOM     50  C   UNL     1      64.503  34.875  61.631  1.00  0.00     0.012 C 
ENDBRANCH  47  49
ENDBRANCH  46  47
ENDBRANCH  45  46
ENDBRANCH  44  45
ENDBRANCH  43  44
ENDBRANCH   1  43
TORSDOF 12
ENDMDL
MODEL 7
REMARK VINA RESULT:    -3.924      3.414      9.922
REMARK INTER + INTRA:          -9.610
REMARK INTER:                  -8.356
REMARK INTRA:                  -1.253
REMARK UNBOUND:                -1.327
REMARK SMILES CCC(=O)CCCCC[C@H]1NC(=O)[C@@H]2CCCCN2C(=O)[C@H]([C@@H](C)CC)NC(=O)[C@@H](Cc2cn(OC)c3ccccc23)NC1=O
REMARK SMILES IDX 9 1 10 2 44 3 43 4 45 6 30 7 28 8 27 9 29 11 22 12 23 14
REMARK SMILES IDX 24 15 25 16 26 17 31 18 32 19 33 20 42 21 34 22 37 23 41 24
REMARK SMILES IDX 38 25 40 26 39 27 35 28 36 29 11 30 12 31 13 33 14 34 19 35
REMARK SMILES IDX 15 36 18 37 16 38 17 39 20 40 21 41 8 43 7 44 6 45 5 46 3 47
REMARK SMILES IDX 4 48 2 49 1 50
REMARK H PARENT 43 5 27 10 11 32
REMARK Flexibility Score: 80.00
ROOT
ATOM      1  C   UNL     1      64.384  28.624  47.736  1.00  0.00     0.035 C 
ENDROOT
BRANCH   1   2
ATOM      2  C   UNL     1      63.965  29.482  48.922  1.00  0.00     0.171 C 
BRANCH   2   3
ATOM      3  C   UNL     1      62.866  28.705  49.662  1.00  0.00     0.243 C 
ATOM      4  N   UNL     1      61.624  28.461  48.989  1.00  0.00    -0.342 N 
ATOM      5  H   UNL     1      61.486  28.601  47.968  1.00  0.00     0.164 HD
ATOM      6  O   UNL     1      63.036  28.388  50.878  1.00  0.00    -0.273 OA
BRANCH   4   7
ATOM      7  C   UNL     1      60.397  28.376  49.900  1.00  0.00     0.175 C 
BRANCH   7   8
ATOM      8  C   UNL     1      60.156  29.722  50.712  1.00  0.00     0.243 C 
ATOM      9  N   UNL     1      61.132  30.766  50.839  1.00  0.00    -0.342 N 
ATOM     10  H   UNL     1      61.996  30.805  50.314  1.00  0.00     0.164 HD
ATOM     11  O   UNL     1      59.100  29.832  51.404  1.00  0.00    -0.273 OA
BRANCH   9  12
ATOM     12  C   UNL     1      61.145  31.385  52.208  1.00  0.00     0.174 CG0
ATOM     13  G   UNL     1      61.369  32.878  51.877  1.00  0.00     0.000 G0
BRANCH  12  14
ATOM     14  C   UNL     1      61.960  30.314  53.094  1.00  0.00     0.018 C 
ATOM     15  C   UNL     1      63.355  30.701  53.776  1.00  0.00     0.010 C 
BRANCH  14  16
ATOM     16  C   UNL     1      61.044  29.890  54.278  1.00  0.00     0.002 C 
ATOM     17  C   UNL     1      60.499  28.420  54.289  1.00  0.00     0.004 C 
ENDBRANCH  14  16
ENDBRANCH  12  14
ENDBRANCH   9  12
ENDBRANCH   7   8
BRANCH   7  18
ATOM     18  C   UNL     1      59.245  27.579  49.138  1.00  0.00     0.073 C 
BRANCH  18  19
ATOM     19  C   UNL     1      58.506  26.697  50.160  1.00  0.00    -0.016 A 
ATOM     20  C   UNL     1      59.004  25.588  50.877  1.00  0.00     0.134 A 
ATOM     21  C   UNL     1      57.247  26.896  50.691  1.00  0.00     0.006 A 
ATOM     22  N   UNL     1      58.069  25.122  51.673  1.00  0.00    -0.191 N 
ATOM     23  C   UNL     1      56.981  25.860  51.619  1.00  0.00     0.087 A 
ATOM     24  C   UNL     1      56.281  27.849  50.386  1.00  0.00     0.011 A 
ATOM     25  C   UNL     1      55.735  25.752  52.222  1.00  0.00     0.030 A 
ATOM     26  C   UNL     1      55.001  27.775  51.020  1.00  0.00     0.001 A 
ATOM     27  C   UNL     1      54.742  26.699  51.939  1.00  0.00     0.002 A 
BRANCH  22  28
ATOM     28  O   UNL     1      58.276  23.970  52.553  1.00  0.00    -0.417 OA
ATOM     29  C   UNL     1      59.467  23.208  52.433  1.00  0.00     0.313 C 
ENDBRANCH  22  28
ENDBRANCH  18  19
ENDBRANCH   7  18
ENDBRANCH   4   7
ENDBRANCH   2   3
BRANCH   2  30
ATOM     30  N   UNL     1      63.607  30.880  48.651  1.00  0.00    -0.343 N 
ATOM     31  C   UNL     1      63.695  31.860  49.732  1.00  0.00     0.243 C 
ATOM     32  H   UNL     1      63.393  31.258  47.702  1.00  0.00     0.164 HD
ATOM     33  O   UNL     1      64.357  31.440  50.765  1.00  0.00    -0.273 OA
BRANCH  31  34
ATOM     34  C   UNL     1      62.797  33.052  49.724  1.00  0.00     0.174 C 
ATOM     35  N   UNL     1      62.604  33.425  51.246  1.00  0.00    -0.329 N 
ATOM     36  C   UNL     1      63.433  34.245  48.837  1.00  0.00     0.035 C 
ATOM     37  C   UNL     1      63.754  34.175  51.931  1.00  0.00     0.120 C 
ATOM     38  C   UNL     1      64.705  34.893  49.404  1.00  0.00     0.004 C 
ATOM     39  C   UNL     1      64.328  35.257  50.931  1.00  0.00     0.022 C 
BRANCH  35  40
ATOM     40  C   UNL     1      61.388  32.887  51.860  1.00  0.00     0.246 CG0
ATOM     41  O   UNL     1      60.609  33.728  52.418  1.00  0.00    -0.272 OA
ATOM     42  G   UNL     1      61.139  31.396  52.178  1.00  0.00     0.000 G0
ENDBRANCH  35  40
ENDBRANCH  31  34
ENDBRANCH   2  30
ENDBRANCH   1   2
BRANCH   1  43
ATOM     43  C   UNL     1      65.736  28.968  47.132  1.00  0.00     0.003 C 
BRANCH  43  44
ATOM     44  C   UNL     1      66.832  27.882  47.414  1.00  0.00     0.001 C 
BRANCH  44  45
ATOM     45  C   UNL     1      66.390  26.892  48.493  1.00  0.00     0.008 C 
BRANCH  45  46
ATOM     46  C   UNL     1      66.996  27.223  49.879  1.00  0.00     0.075 C 
BRANCH  46  47
ATOM     47  C   UNL     1      67.996  26.164  50.228  1.00  0.00     0.132 C 
ATOM     48  O   UNL     1      68.887  26.429  51.042  1.00  0.00    -0.300 OA
BRANCH  47  49
ATOM     49  C   UNL     1      67.897  24.872  49.499  1.00  0.00     0.072 C 
ATOM     50  C   UNL     1      67.445  23.724  50.419  1.00  0.00     0.012 C 
ENDBRANCH  47  49
ENDBRANCH  46  47
ENDBRANCH  45  46
ENDBRANCH  44  45
ENDBRANCH  43  44
ENDBRANCH   1  43
TORSDOF 12
ENDMDL
MODEL 8
REMARK VINA RESULT:    -3.834      3.419     10.120
REMARK INTER + INTRA:          -9.419
REMARK INTER:                  -8.173
REMARK INTRA:                  -1.246
REMARK UNBOUND:                -1.327
REMARK SMILES CCC(=O)CCCCC[C@H]1NC(=O)[C@@H]2CCCCN2C(=O)[C@H]([C@@H](C)CC)NC(=O)[C@@H](Cc2cn(OC)c3ccccc23)NC1=O
REMARK SMILES IDX 9 1 10 2 44 3 43 4 45 6 30 7 28 8 27 9 29 11 22 12 23 14
REMARK SMILES IDX 24 15 25 16 26 17 31 18 32 19 33 20 42 21 34 22 37 23 41 24
REMARK SMILES IDX 38 25 40 26 39 27 35 28 36 29 11 30 12 31 13 33 14 34 19 35
REMARK SMILES IDX 15 36 18 37 16 38 17 39 20 40 21 41 8 43 7 44 6 45 5 46 3 47
REMARK SMILES IDX 4 48 2 49 1 50
REMARK H PARENT 43 5 27 10 11 32
REMARK Flexibility Score: 80.00
ROOT
ATOM      1  C   UNL     1      64.236  28.334  47.497  1.00  0.00     0.035 C 
ENDROOT
BRANCH   1   2
ATOM      2  C   UNL     1      63.915  29.227  48.687  1.00  0.00     0.171 C 
BRANCH   2   3
ATOM      3  C   UNL     1      62.818  28.513  49.492  1.00  0.00     0.243 C 
ATOM      4  N   UNL     1      61.508  28.400  48.920  1.00  0.00    -0.342 N 
ATOM      5  H   UNL     1      61.299  28.592  47.920  1.00  0.00     0.164 HD
ATOM      6  O   UNL     1      63.060  28.134  50.677  1.00  0.00    -0.273 OA
BRANCH   4   7
ATOM      7  C   UNL     1      60.358  28.378  49.928  1.00  0.00     0.175 C 
BRANCH   7   8
ATOM      8  C   UNL     1      60.225  29.751  50.719  1.00  0.00     0.243 C 
ATOM      9  N   UNL     1      61.260  30.742  50.783  1.00  0.00    -0.342 N 
ATOM     10  H   UNL     1      62.103  30.722  50.223  1.00  0.00     0.164 HD
ATOM     11  O   UNL     1      59.205  29.934  51.450  1.00  0.00    -0.273 OA
BRANCH   9  12
ATOM     12  C   UNL     1      61.364  31.387  52.136  1.00  0.00     0.174 CG0
ATOM     13  G   UNL     1      61.686  32.852  51.763  1.00  0.00     0.000 G0
BRANCH  12  14
ATOM     14  C   UNL     1      62.127  30.277  53.021  1.00  0.00     0.018 C 
ATOM     15  C   UNL     1      63.584  30.560  53.618  1.00  0.00     0.010 C 
BRANCH  14  16
ATOM     16  C   UNL     1      61.240  29.978  54.264  1.00  0.00     0.002 C 
ATOM     17  C   UNL     1      61.319  30.974  55.472  1.00  0.00     0.004 C 
ENDBRANCH  14  16
ENDBRANCH  12  14
ENDBRANCH   9  12
ENDBRANCH   7   8
BRANCH   7  18
ATOM     18  C   UNL     1      59.124  27.599  49.285  1.00  0.00     0.073 C 
BRANCH  18  19
ATOM     19  C   UNL     1      58.523  26.670  50.354  1.00  0.00    -0.016 A 
ATOM     20  C   UNL     1      57.272  26.776  50.998  1.00  0.00     0.134 A 
ATOM     21  C   UNL     1      59.024  25.463  50.800  1.00  0.00     0.006 A 
ATOM     22  N   UNL     1      57.117  25.770  51.828  1.00  0.00    -0.191 N 
ATOM     23  C   UNL     1      58.131  24.934  51.763  1.00  0.00     0.087 A 
ATOM     24  C   UNL     1      60.221  24.820  50.505  1.00  0.00     0.011 A 
ATOM     25  C   UNL     1      58.446  23.775  52.460  1.00  0.00     0.030 A 
ATOM     26  C   UNL     1      60.551  23.608  51.188  1.00  0.00     0.001 A 
ATOM     27  C   UNL     1      59.643  23.101  52.182  1.00  0.00     0.002 A 
BRANCH  22  28
ATOM     28  O   UNL     1      55.917  25.594  52.649  1.00  0.00    -0.417 OA
ATOM     29  C   UNL     1      54.640  25.627  52.031  1.00  0.00     0.313 C 
ENDBRANCH  22  28
ENDBRANCH  18  19
ENDBRANCH   7  18
ENDBRANCH   4   7
ENDBRANCH   2   3
BRANCH   2  30
ATOM     30  N   UNL     1      63.608  30.637  48.411  1.00  0.00    -0.343 N 
ATOM     31  C   UNL     1      63.766  31.622  49.478  1.00  0.00     0.243 C 
ATOM     32  H   UNL     1      63.385  31.014  47.464  1.00  0.00     0.164 HD
ATOM     33  O   UNL     1      64.436  31.185  50.499  1.00  0.00    -0.273 OA
BRANCH  31  34
ATOM     34  C   UNL     1      62.919  32.852  49.481  1.00  0.00     0.174 C 
ATOM     35  N   UNL     1      62.863  33.302  50.993  1.00  0.00    -0.329 N 
ATOM     36  C   UNL     1      63.529  33.973  48.489  1.00  0.00     0.035 C 
ATOM     37  C   UNL     1      64.093  34.033  51.549  1.00  0.00     0.120 C 
ATOM     38  C   UNL     1      64.867  34.589  48.923  1.00  0.00     0.004 C 
ATOM     39  C   UNL     1      64.629  35.040  50.453  1.00  0.00     0.022 C 
BRANCH  35  40
ATOM     40  C   UNL     1      61.679  32.848  51.726  1.00  0.00     0.246 CG0
ATOM     41  O   UNL     1      60.995  33.745  52.319  1.00  0.00    -0.272 OA
ATOM     42  G   UNL     1      61.384  31.382  52.114  1.00  0.00     0.000 G0
ENDBRANCH  35  40
ENDBRANCH  31  34
ENDBRANCH   2  30
ENDBRANCH   1   2
BRANCH   1  43
ATOM     43  C   UNL     1      65.712  28.038  47.288  1.00  0.00     0.003 C 
BRANCH  43  44
ATOM     44  C   UNL     1      66.473  29.189  46.542  1.00  0.00     0.001 C 
BRANCH  44  45
ATOM     45  C   UNL     1      67.833  29.479  47.179  1.00  0.00     0.008 C 
BRANCH  45  46
ATOM     46  C   UNL     1      69.010  28.974  46.310  1.00  0.00     0.075 C 
BRANCH  46  47
ATOM     47  C   UNL     1      69.653  27.813  47.006  1.00  0.00     0.132 C 
ATOM     48  O   UNL     1      70.602  28.025  47.767  1.00  0.00    -0.300 OA
BRANCH  47  49
ATOM     49  C   UNL     1      69.151  26.457  46.664  1.00  0.00     0.072 C 
ATOM     50  C   UNL     1      70.262  25.557  46.093  1.00  0.00     0.012 C 
ENDBRANCH  47  49
ENDBRANCH  46  47
ENDBRANCH  45  46
ENDBRANCH  44  45
ENDBRANCH  43  44
ENDBRANCH   1  43
TORSDOF 12
ENDMDL
MODEL 9
REMARK VINA RESULT:    -3.644      2.847      9.700
REMARK INTER + INTRA:          -9.018
REMARK INTER:                  -7.015
REMARK INTRA:                  -2.004
REMARK UNBOUND:                -1.327
REMARK SMILES CCC(=O)CCCCC[C@H]1NC(=O)[C@@H]2CCCCN2C(=O)[C@H]([C@@H](C)CC)NC(=O)[C@@H](Cc2cn(OC)c3ccccc23)NC1=O
REMARK SMILES IDX 9 1 10 2 44 3 43 4 45 6 30 7 28 8 27 9 29 11 22 12 23 14
REMARK SMILES IDX 24 15 25 16 26 17 31 18 32 19 33 20 42 21 34 22 37 23 41 24
REMARK SMILES IDX 38 25 40 26 39 27 35 28 36 29 11 30 12 31 13 33 14 34 19 35
REMARK SMILES IDX 15 36 18 37 16 38 17 39 20 40 21 41 8 43 7 44 6 45 5 46 3 47
REMARK SMILES IDX 4 48 2 49 1 50
REMARK H PARENT 43 5 27 10 11 32
REMARK Flexibility Score: 80.00
ROOT
ATOM      1  C   UNL     1      65.092  24.332  52.023  1.00  0.00     0.035 C 
ENDROOT
BRANCH   1   2
ATOM      2  C   UNL     1      63.926  25.276  51.764  1.00  0.00     0.171 C 
BRANCH   2   3
ATOM      3  C   UNL     1      62.647  24.429  51.840  1.00  0.00     0.243 C 
ATOM      4  N   UNL     1      62.287  23.624  50.709  1.00  0.00    -0.342 N 
ATOM      5  H   UNL     1      62.931  23.421  49.919  1.00  0.00     0.164 HD
ATOM      6  O   UNL     1      61.887  24.535  52.849  1.00  0.00    -0.273 OA
BRANCH   4   7
ATOM      7  C   UNL     1      60.784  23.409  50.517  1.00  0.00     0.175 C 
BRANCH   7   8
ATOM      8  C   UNL     1      60.028  24.757  50.144  1.00  0.00     0.243 C 
ATOM      9  N   UNL     1      60.676  26.030  50.013  1.00  0.00    -0.342 N 
ATOM     10  H   UNL     1      61.680  26.160  50.004  1.00  0.00     0.164 HD
ATOM     11  O   UNL     1      58.761  24.747  50.093  1.00  0.00    -0.273 OA
BRANCH   9  12
ATOM     12  C   UNL     1      59.855  27.161  50.563  1.00  0.00     0.174 CG0
ATOM     13  G   UNL     1      60.371  28.359  49.734  1.00  0.00     0.000 G0
BRANCH  12  14
ATOM     14  C   UNL     1      59.803  26.849  52.143  1.00  0.00     0.018 C 
ATOM     15  C   UNL     1      60.629  27.739  53.185  1.00  0.00     0.010 C 
BRANCH  14  16
ATOM     16  C   UNL     1      58.321  26.981  52.599  1.00  0.00     0.002 C 
ATOM     17  C   UNL     1      57.632  25.712  53.212  1.00  0.00     0.004 C 
ENDBRANCH  14  16
ENDBRANCH  12  14
ENDBRANCH   9  12
ENDBRANCH   7   8
BRANCH   7  18
ATOM     18  C   UNL     1      60.555  22.023  49.762  1.00  0.00     0.073 C 
BRANCH  18  19
ATOM     19  C   UNL     1      59.933  21.026  50.755  1.00  0.00    -0.016 A 
ATOM     20  C   UNL     1      59.692  21.203  52.134  1.00  0.00     0.134 A 
ATOM     21  C   UNL     1      59.351  19.806  50.470  1.00  0.00     0.006 A 
ATOM     22  N   UNL     1      59.119  20.126  52.623  1.00  0.00    -0.191 N 
ATOM     23  C   UNL     1      58.878  19.241  51.680  1.00  0.00     0.087 A 
ATOM     24  C   UNL     1      59.263  19.107  49.271  1.00  0.00     0.011 A 
ATOM     25  C   UNL     1      58.346  17.958  51.702  1.00  0.00     0.030 A 
ATOM     26  C   UNL     1      58.688  17.798  49.266  1.00  0.00     0.001 A 
ATOM     27  C   UNL     1      58.239  17.230  50.510  1.00  0.00     0.002 A 
BRANCH  22  28
ATOM     28  O   UNL     1      58.741  19.997  54.032  1.00  0.00    -0.417 OA
ATOM     29  C   UNL     1      59.282  20.901  54.982  1.00  0.00     0.313 C 
ENDBRANCH  22  28
ENDBRANCH  18  19
ENDBRANCH   7  18
ENDBRANCH   4   7
ENDBRANCH   2   3
BRANCH   2  30
ATOM     30  N   UNL     1      63.993  26.120  50.564  1.00  0.00    -0.343 N 
ATOM     31  C   UNL     1      63.444  27.473  50.612  1.00  0.00     0.243 C 
ATOM     32  H   UNL     1      64.510  25.862  49.694  1.00  0.00     0.164 HD
ATOM     33  O   UNL     1      63.196  27.894  51.813  1.00  0.00    -0.273 OA
BRANCH  31  34
ATOM     34  C   UNL     1      62.916  28.102  49.365  1.00  0.00     0.174 C 
ATOM     35  N   UNL     1      61.696  28.984  49.841  1.00  0.00    -0.329 N 
ATOM     36  C   UNL     1      64.073  28.942  48.611  1.00  0.00     0.035 C 
ATOM     37  C   UNL     1      62.026  30.333  50.497  1.00  0.00     0.120 C 
ATOM     38  C   UNL     1      64.565  30.201  49.339  1.00  0.00     0.004 C 
ATOM     39  C   UNL     1      63.217  31.009  49.706  1.00  0.00     0.022 C 
BRANCH  35  40
ATOM     40  C   UNL     1      60.386  28.342  49.714  1.00  0.00     0.246 CG0
ATOM     41  O   UNL     1      59.508  28.965  49.032  1.00  0.00    -0.272 OA
ATOM     42  G   UNL     1      59.883  27.172  50.588  1.00  0.00     0.000 G0
ENDBRANCH  35  40
ENDBRANCH  31  34
ENDBRANCH   2  30
ENDBRANCH   1   2
BRANCH   1  43
ATOM     43  C   UNL     1      65.351  24.008  53.486  1.00  0.00     0.003 C 
BRANCH  43  44
ATOM     44  C   UNL     1      66.142  22.670  53.691  1.00  0.00     0.001 C 
BRANCH  44  45
ATOM     45  C   UNL     1      65.291  21.445  53.347  1.00  0.00     0.008 C 
BRANCH  45  46
ATOM     46  C   UNL     1      66.057  20.425  52.470  1.00  0.00     0.075 C 
BRANCH  46  47
ATOM     47  C   UNL     1      65.061  19.641  51.670  1.00  0.00     0.132 C 
ATOM     48  O   UNL     1      65.469  18.757  50.910  1.00  0.00    -0.300 OA
BRANCH  47  49
ATOM     49  C   UNL     1      63.635  20.041  51.787  1.00  0.00     0.072 C 
ATOM     50  C   UNL     1      62.685  18.836  51.653  1.00  0.00     0.012 C 
ENDBRANCH  47  49
ENDBRANCH  46  47
ENDBRANCH  45  46
ENDBRANCH  44  45
ENDBRANCH  43  44
ENDBRANCH   1  43
TORSDOF 12
ENDMDL
