MODEL 1
REMARK VINA RESULT:    22.951      0.000      0.000
REMARK INTER + INTRA:          31.843
REMARK INTER:                  31.672
REMARK INTRA:                   0.171
REMARK UNBOUND:                 0.171
REMARK SMILES CC[C@@H](CC[C@@H](C)[C@@H]1CC[C@@H]2[C@H]3CC=C4C[C@H](O)CC[C@]4(C)[C@@H]3CC[C@]21C)C(C)C
REMARK SMILES IDX 5 1 4 2 3 3 2 4 1 5 28 6 29 7 30 8 6 9 7 10 8 11 9 12 26 13
REMARK SMILES IDX 10 14 11 15 25 16 27 17 12 18 24 19 23 20 13 21 21 22 14 23
REMARK SMILES IDX 15 24 20 25 22 26 16 27 19 28 17 29 18 30
REMARK H PARENT 18 31
REMARK Flexibility Score: inf
ROOT
ATOM      1  C   UNL     1      11.234  22.092  -4.985  1.00  0.00     0.004 C 
ENDROOT
BRANCH   1   2
ATOM      2  C   UNL     1      12.124  23.349  -5.071  1.00  0.00     0.004 C 
BRANCH   2   3
ATOM      3  C   UNL     1      11.514  24.564  -4.318  1.00  0.00    -0.009 C 
BRANCH   3   4
ATOM      4  C   UNL     1      11.714  25.876  -5.125  1.00  0.00     0.000 C 
ATOM      5  C   UNL     1      10.476  26.778  -5.099  1.00  0.00     0.004 C 
ENDBRANCH   3   4
BRANCH   3   6
ATOM      6  C   UNL     1      12.070  24.667  -2.858  1.00  0.00    -0.014 C 
ATOM      7  C   UNL     1      11.000  25.171  -1.877  1.00  0.00     0.007 C 
ATOM      8  C   UNL     1      13.342  25.528  -2.735  1.00  0.00     0.007 C 
ENDBRANCH   3   6
ENDBRANCH   2   3
ENDBRANCH   1   2
BRANCH   1   9
ATOM      9  C   UNL     1      11.667  21.149  -3.830  1.00  0.00    -0.011 C 
ATOM     10  C   UNL     1      12.486  19.959  -4.399  1.00  0.00     0.008 C 
BRANCH   9  11
ATOM     11  C   UNL     1      12.356  21.974  -2.687  1.00  0.00    -0.002 C 
ATOM     12  C   UNL     1      13.906  21.968  -2.668  1.00  0.00     0.005 C 
ATOM     13  C   UNL     1      11.935  21.730  -1.210  1.00  0.00    -0.026 C 
ATOM     14  C   UNL     1      14.320  22.172  -1.199  1.00  0.00     0.005 C 
ATOM     15  C   UNL     1      13.020  22.545  -0.492  1.00  0.00    -0.001 C 
ATOM     16  C   UNL     1      10.568  22.342  -0.821  1.00  0.00     0.007 C 
ATOM     17  C   UNL     1      11.972  20.216  -0.841  1.00  0.00     0.012 C 
ATOM     18  C   UNL     1      12.942  22.446   1.047  1.00  0.00     0.000 C 
ATOM     19  C   UNL     1      10.363  22.310   0.711  1.00  0.00     0.005 C 
ATOM     20  C   UNL     1      11.545  22.953   1.516  1.00  0.00     0.003 C 
ATOM     21  C   UNL     1      14.016  23.332   1.692  1.00  0.00     0.031 C 
ATOM     22  C   UNL     1      11.384  22.871   3.090  1.00  0.00    -0.008 C 
ATOM     23  C   UNL     1      13.886  23.330   3.183  1.00  0.00    -0.027 C 
ATOM     24  C   UNL     1      12.709  23.158   3.824  1.00  0.00    -0.065 C 
ATOM     25  C   UNL     1      10.901  21.456   3.543  1.00  0.00     0.014 C 
ATOM     26  C   UNL     1      10.341  23.937   3.520  1.00  0.00     0.016 C 
ATOM     27  C   UNL     1      12.731  23.007   5.331  1.00  0.00     0.063 C 
ATOM     28  C   UNL     1      10.917  21.237   5.071  1.00  0.00     0.033 C 
ATOM     29  C   UNL     1      12.261  21.600   5.730  1.00  0.00     0.118 C 
BRANCH  29  30
ATOM     30  O   UNL     1      13.244  20.631   5.457  1.00  0.00    -0.393 OA
ATOM     31  H   UNL     1      12.814  19.882   4.970  1.00  0.00     0.210 HD
ENDBRANCH  29  30
ENDBRANCH   9  11
ENDBRANCH   1   9
TORSDOF 7
ENDMDL
MODEL 2
REMARK VINA RESULT:    23.076      1.367      3.002
REMARK INTER + INTRA:          32.016
REMARK INTER:                  30.265
REMARK INTRA:                   1.751
REMARK UNBOUND:                 0.171
REMARK SMILES CC[C@@H](CC[C@@H](C)[C@@H]1CC[C@@H]2[C@H]3CC=C4C[C@H](O)CC[C@]4(C)[C@@H]3CC[C@]21C)C(C)C
REMARK SMILES IDX 5 1 4 2 3 3 2 4 1 5 28 6 29 7 30 8 6 9 7 10 8 11 9 12 26 13
REMARK SMILES IDX 10 14 11 15 25 16 27 17 12 18 24 19 23 20 13 21 21 22 14 23
REMARK SMILES IDX 15 24 20 25 22 26 16 27 19 28 17 29 18 30
REMARK H PARENT 18 31
REMARK Flexibility Score: inf
ROOT
ATOM      1  C   UNL     1      12.919  21.959  -2.914  1.00  0.00     0.004 C 
ENDROOT
BRANCH   1   2
ATOM      2  C   UNL     1      12.196  21.454  -4.179  1.00  0.00     0.004 C 
BRANCH   2   3
ATOM      3  C   UNL     1      11.314  20.205  -3.902  1.00  0.00    -0.009 C 
BRANCH   3   4
ATOM      4  C   UNL     1      10.414  19.876  -5.125  1.00  0.00     0.000 C 
ATOM      5  C   UNL     1       8.951  20.268  -4.902  1.00  0.00     0.004 C 
ENDBRANCH   3   4
BRANCH   3   6
ATOM      6  C   UNL     1      10.490  20.371  -2.580  1.00  0.00    -0.014 C 
ATOM      7  C   UNL     1      10.014  21.820  -2.386  1.00  0.00     0.007 C 
ATOM      8  C   UNL     1      11.232  19.889  -1.318  1.00  0.00     0.007 C 
ENDBRANCH   3   6
ENDBRANCH   2   3
ENDBRANCH   1   2
BRANCH   1   9
ATOM      9  C   UNL     1      13.054  23.506  -2.899  1.00  0.00    -0.011 C 
ATOM     10  C   UNL     1      11.844  24.149  -3.628  1.00  0.00     0.008 C 
BRANCH   9  11
ATOM     11  C   UNL     1      13.325  24.012  -1.438  1.00  0.00    -0.002 C 
ATOM     12  C   UNL     1      14.784  24.416  -1.106  1.00  0.00     0.005 C 
ATOM     13  C   UNL     1      12.863  23.146  -0.233  1.00  0.00    -0.026 C 
ATOM     14  C   UNL     1      14.965  24.176   0.404  1.00  0.00     0.005 C 
ATOM     15  C   UNL     1      13.551  23.904   0.912  1.00  0.00    -0.001 C 
ATOM     16  C   UNL     1      11.340  23.184   0.042  1.00  0.00     0.007 C 
ATOM     17  C   UNL     1      13.350  21.671  -0.361  1.00  0.00     0.012 C 
ATOM     18  C   UNL     1      13.359  23.236   2.290  1.00  0.00     0.000 C 
ATOM     19  C   UNL     1      11.008  22.544   1.409  1.00  0.00     0.005 C 
ATOM     20  C   UNL     1      11.834  23.144   2.599  1.00  0.00     0.003 C 
ATOM     21  C   UNL     1      14.021  24.080   3.387  1.00  0.00     0.031 C 
ATOM     22  C   UNL     1      11.555  22.455   3.999  1.00  0.00    -0.008 C 
ATOM     23  C   UNL     1      13.754  23.503   4.741  1.00  0.00    -0.027 C 
ATOM     24  C   UNL     1      12.639  22.801   5.041  1.00  0.00    -0.065 C 
ATOM     25  C   UNL     1      11.513  20.899   3.874  1.00  0.00     0.014 C 
ATOM     26  C   UNL     1      10.188  22.971   4.521  1.00  0.00     0.016 C 
ATOM     27  C   UNL     1      12.560  22.126   6.395  1.00  0.00     0.063 C 
ATOM     28  C   UNL     1      11.449  20.153   5.224  1.00  0.00     0.033 C 
ATOM     29  C   UNL     1      12.533  20.599   6.224  1.00  0.00     0.118 C 
BRANCH  29  30
ATOM     30  O   UNL     1      13.798  20.097   5.867  1.00  0.00    -0.393 OA
ATOM     31  H   UNL     1      13.680  19.174   5.524  1.00  0.00     0.210 HD
ENDBRANCH  29  30
ENDBRANCH   9  11
ENDBRANCH   1   9
TORSDOF 7
ENDMDL
