MODEL 1
REMARK VINA RESULT:    -8.460      0.000      0.000
REMARK INTER + INTRA:          -9.201
REMARK INTER:                  -9.201
REMARK INTRA:                   0.000
REMARK UNBOUND:                 0.000
REMARK SMILES C[C@H]1CC[C@H]2[N@@H+](C1)C[C@H]1[C@H]3C[C@H]4[C@@H](C[C@H](O)[C@H]5C[C@H](O)CC[C@]54C)[C@H]3CC[C@@H]1[C@@]2(C)O
REMARK SMILES IDX 5 1 6 2 8 3 7 4 4 5 29 6 3 7 28 8 30 9 2 10 27 11 9 12 1 13
REMARK SMILES IDX 26 14 10 15 25 16 11 17 13 18 12 19 14 20 23 21 15 22 17 23
REMARK SMILES IDX 22 24 24 25 18 26 21 27 19 28 31 30 16 32 20 34
REMARK H PARENT 6 29 31 31 16 33 20 35
REMARK Flexibility Score: inf
ROOT
ATOM      1  C   UNL     1      20.132  16.170   8.683  1.00  0.00     0.216 C 
ATOM      2  N   UNL     1      19.133  15.070   8.750  1.00  0.00    -0.330 N 
ATOM      3  C   UNL     1      18.074  15.166   7.703  1.00  0.00     0.266 C 
ATOM      4  C   UNL     1      18.564  14.860  10.109  1.00  0.00     0.265 C 
ATOM      5  C   UNL     1      21.334  15.912   9.648  1.00  0.00     0.069 C 
ATOM      6  C   UNL     1      19.505  17.619   8.827  1.00  0.00     0.117 C 
ATOM      7  C   UNL     1      21.045  14.844  10.711  1.00  0.00     0.015 C 
ATOM      8  C   UNL     1      18.028  17.651   8.271  1.00  0.00     0.036 C 
ATOM      9  C   UNL     1      20.447  18.601   8.073  1.00  0.00     0.049 C 
ATOM     10  C   UNL     1      19.614  14.974  11.247  1.00  0.00     0.041 C 
ATOM     11  C   UNL     1      17.482  19.061   7.880  1.00  0.00     0.007 C 
ATOM     12  C   UNL     1      17.855  16.600   7.153  1.00  0.00     0.054 C 
ATOM     13  C   UNL     1      19.354  13.939  12.349  1.00  0.00     0.013 C 
ATOM     14  C   UNL     1      17.264  19.234   6.371  1.00  0.00     0.004 C 
ATOM     15  C   UNL     1      16.520  16.744   6.377  1.00  0.00     0.002 C 
ATOM     16  C   UNL     1      16.351  18.146   5.737  1.00  0.00    -0.004 C 
ATOM     17  C   UNL     1      15.237  16.461   7.203  1.00  0.00     0.009 C 
ATOM     18  C   UNL     1      14.831  18.390   5.803  1.00  0.00    -0.001 C 
ATOM     19  C   UNL     1      14.361  17.709   7.076  1.00  0.00    -0.001 C 
ATOM     20  C   UNL     1      14.301  19.824   5.756  1.00  0.00     0.036 C 
ATOM     21  C   UNL     1      12.802  17.563   7.171  1.00  0.00    -0.024 C 
ATOM     22  C   UNL     1      12.758  19.783   5.752  1.00  0.00     0.118 C 
ATOM     23  C   UNL     1      12.172  18.999   6.979  1.00  0.00     0.026 C 
ATOM     24  C   UNL     1      12.215  16.570   6.116  1.00  0.00     0.010 C 
ATOM     25  C   UNL     1      12.484  17.036   8.599  1.00  0.00     0.012 C 
ATOM     26  C   UNL     1      10.623  18.948   6.913  1.00  0.00     0.038 C 
ATOM     27  C   UNL     1      10.679  16.556   6.089  1.00  0.00     0.032 C 
ATOM     28  C   UNL     1      10.102  17.956   5.858  1.00  0.00     0.114 C 
ATOM     29  H   UNL     1      19.654  14.188   8.525  1.00  0.00     0.348 HD
ENDROOT
BRANCH   6  30
ATOM     30  O   UNL     1      19.478  17.977  10.190  1.00  0.00    -0.384 OA
ATOM     31  H   UNL     1      18.533  18.138  10.451  1.00  0.00     0.211 HD
ENDBRANCH   6  30
BRANCH  22  32
ATOM     32  O   UNL     1      12.250  21.094   5.700  1.00  0.00    -0.393 OA
ATOM     33  H   UNL     1      11.274  21.045   5.874  1.00  0.00     0.210 HD
ENDBRANCH  22  32
BRANCH  28  34
ATOM     34  O   UNL     1       8.702  17.886   5.928  1.00  0.00    -0.393 OA
ATOM     35  H   UNL     1       8.356  18.788   5.697  1.00  0.00     0.210 HD
ENDBRANCH  28  34
TORSDOF 3
ENDMDL
MODEL 2
REMARK VINA RESULT:    -8.264      2.708      8.196
REMARK INTER + INTRA:          -8.988
REMARK INTER:                  -8.988
REMARK INTRA:                   0.000
REMARK UNBOUND:                 0.000
REMARK SMILES C[C@H]1CC[C@H]2[N@@H+](C1)C[C@H]1[C@H]3C[C@H]4[C@@H](C[C@H](O)[C@H]5C[C@H](O)CC[C@]54C)[C@H]3CC[C@@H]1[C@@]2(C)O
REMARK SMILES IDX 5 1 6 2 8 3 7 4 4 5 29 6 3 7 28 8 30 9 2 10 27 11 9 12 1 13
REMARK SMILES IDX 26 14 10 15 25 16 11 17 13 18 12 19 14 20 23 21 15 22 17 23
REMARK SMILES IDX 22 24 24 25 18 26 21 27 19 28 31 30 16 32 20 34
REMARK H PARENT 6 29 31 31 16 33 20 35
REMARK Flexibility Score: inf
ROOT
ATOM      1  C   UNL     1      13.026  17.584   7.760  1.00  0.00     0.216 C 
ATOM      2  N   UNL     1      13.463  16.192   7.465  1.00  0.00    -0.330 N 
ATOM      3  C   UNL     1      14.828  15.877   7.982  1.00  0.00     0.266 C 
ATOM      4  C   UNL     1      13.297  15.801   6.039  1.00  0.00     0.265 C 
ATOM      5  C   UNL     1      11.521  17.800   7.397  1.00  0.00     0.069 C 
ATOM      6  C   UNL     1      13.985  18.698   7.168  1.00  0.00     0.117 C 
ATOM      7  C   UNL     1      10.952  16.713   6.476  1.00  0.00     0.015 C 
ATOM      8  C   UNL     1      15.472  18.174   7.084  1.00  0.00     0.036 C 
ATOM      9  C   UNL     1      13.846  19.951   8.080  1.00  0.00     0.049 C 
ATOM     10  C   UNL     1      11.974  16.309   5.406  1.00  0.00     0.041 C 
ATOM     11  C   UNL     1      16.576  19.277   7.015  1.00  0.00     0.007 C 
ATOM     12  C   UNL     1      15.731  17.122   8.184  1.00  0.00     0.054 C 
ATOM     13  C   UNL     1      11.375  15.263   4.456  1.00  0.00     0.013 C 
ATOM     14  C   UNL     1      17.454  19.340   8.272  1.00  0.00     0.004 C 
ATOM     15  C   UNL     1      17.229  16.752   8.339  1.00  0.00     0.002 C 
ATOM     16  C   UNL     1      18.119  17.984   8.647  1.00  0.00    -0.004 C 
ATOM     17  C   UNL     1      17.863  16.023   7.124  1.00  0.00     0.009 C 
ATOM     18  C   UNL     1      19.451  17.649   7.950  1.00  0.00    -0.001 C 
ATOM     19  C   UNL     1      19.078  16.856   6.710  1.00  0.00    -0.001 C 
ATOM     20  C   UNL     1      20.404  18.784   7.572  1.00  0.00     0.036 C 
ATOM     21  C   UNL     1      20.299  16.144   6.029  1.00  0.00    -0.024 C 
ATOM     22  C   UNL     1      21.690  18.173   6.973  1.00  0.00     0.118 C 
ATOM     23  C   UNL     1      21.398  17.242   5.743  1.00  0.00     0.026 C 
ATOM     24  C   UNL     1      20.898  14.992   6.899  1.00  0.00     0.010 C 
ATOM     25  C   UNL     1      19.784  15.552   4.686  1.00  0.00     0.012 C 
ATOM     26  C   UNL     1      22.710  16.620   5.198  1.00  0.00     0.038 C 
ATOM     27  C   UNL     1      22.197  14.410   6.319  1.00  0.00     0.032 C 
ATOM     28  C   UNL     1      23.255  15.494   6.095  1.00  0.00     0.114 C 
ATOM     29  H   UNL     1      12.820  15.563   8.005  1.00  0.00     0.348 HD
ENDROOT
BRANCH   6  30
ATOM     30  O   UNL     1      13.556  19.036   5.869  1.00  0.00    -0.384 OA
ATOM     31  H   UNL     1      12.960  19.827   5.934  1.00  0.00     0.211 HD
ENDBRANCH   6  30
BRANCH  22  32
ATOM     32  O   UNL     1      22.584  19.202   6.626  1.00  0.00    -0.393 OA
ATOM     33  H   UNL     1      22.275  20.032   7.074  1.00  0.00     0.210 HD
ENDBRANCH  22  32
BRANCH  28  34
ATOM     34  O   UNL     1      24.379  14.911   5.489  1.00  0.00    -0.393 OA
ATOM     35  H   UNL     1      24.330  15.129   4.521  1.00  0.00     0.210 HD
ENDBRANCH  28  34
TORSDOF 3
ENDMDL
MODEL 3
REMARK VINA RESULT:    -7.656      2.741      4.555
REMARK INTER + INTRA:          -8.328
REMARK INTER:                  -8.328
REMARK INTRA:                   0.000
REMARK UNBOUND:                 0.000
REMARK SMILES C[C@H]1CC[C@H]2[N@@H+](C1)C[C@H]1[C@H]3C[C@H]4[C@@H](C[C@H](O)[C@H]5C[C@H](O)CC[C@]54C)[C@H]3CC[C@@H]1[C@@]2(C)O
REMARK SMILES IDX 5 1 6 2 8 3 7 4 4 5 29 6 3 7 28 8 30 9 2 10 27 11 9 12 1 13
REMARK SMILES IDX 26 14 10 15 25 16 11 17 13 18 12 19 14 20 23 21 15 22 17 23
REMARK SMILES IDX 22 24 24 25 18 26 21 27 19 28 31 30 16 32 20 34
REMARK H PARENT 6 29 31 31 16 33 20 35
REMARK Flexibility Score: inf
ROOT
ATOM      1  C   UNL     1      21.676  13.098   8.716  1.00  0.00     0.216 C 
ATOM      2  N   UNL     1      21.225  13.081   7.298  1.00  0.00    -0.330 N 
ATOM      3  C   UNL     1      20.988  14.443   6.735  1.00  0.00     0.266 C 
ATOM      4  C   UNL     1      20.085  12.160   7.043  1.00  0.00     0.265 C 
ATOM      5  C   UNL     1      22.119  11.678   9.193  1.00  0.00     0.069 C 
ATOM      6  C   UNL     1      20.662  13.810   9.705  1.00  0.00     0.117 C 
ATOM      7  C   UNL     1      21.630  10.546   8.280  1.00  0.00     0.015 C 
ATOM      8  C   UNL     1      19.848  14.939   8.960  1.00  0.00     0.036 C 
ATOM      9  C   UNL     1      21.498  14.365  10.894  1.00  0.00     0.049 C 
ATOM     10  C   UNL     1      20.197  10.808   7.798  1.00  0.00     0.041 C 
ATOM     11  C   UNL     1      19.213  16.033   9.876  1.00  0.00     0.007 C 
ATOM     12  C   UNL     1      20.685  15.526   7.802  1.00  0.00     0.054 C 
ATOM     13  C   UNL     1      19.698   9.644   6.933  1.00  0.00     0.013 C 
ATOM     14  C   UNL     1      19.854  17.417   9.708  1.00  0.00     0.004 C 
ATOM     15  C   UNL     1      20.069  16.811   7.190  1.00  0.00     0.002 C 
ATOM     16  C   UNL     1      19.865  17.933   8.240  1.00  0.00    -0.004 C 
ATOM     17  C   UNL     1      18.713  16.615   6.460  1.00  0.00     0.009 C 
ATOM     18  C   UNL     1      18.597  18.658   7.750  1.00  0.00    -0.001 C 
ATOM     19  C   UNL     1      17.729  17.584   7.119  1.00  0.00    -0.001 C 
ATOM     20  C   UNL     1      17.770  19.475   8.745  1.00  0.00     0.036 C 
ATOM     21  C   UNL     1      16.536  18.157   6.274  1.00  0.00    -0.024 C 
ATOM     22  C   UNL     1      16.614  20.160   7.983  1.00  0.00     0.118 C 
ATOM     23  C   UNL     1      15.716  19.136   7.202  1.00  0.00     0.026 C 
ATOM     24  C   UNL     1      17.005  18.901   4.982  1.00  0.00     0.010 C 
ATOM     25  C   UNL     1      15.648  16.946   5.870  1.00  0.00     0.012 C 
ATOM     26  C   UNL     1      14.595  19.870   6.422  1.00  0.00     0.038 C 
ATOM     27  C   UNL     1      15.859  19.612   4.245  1.00  0.00     0.032 C 
ATOM     28  C   UNL     1      15.113  20.586   5.162  1.00  0.00     0.114 C 
ATOM     29  H   UNL     1      22.026  12.696   6.741  1.00  0.00     0.348 HD
ENDROOT
BRANCH   6  30
ATOM     30  O   UNL     1      19.752  12.855  10.199  1.00  0.00    -0.384 OA
ATOM     31  H   UNL     1      18.832  13.156   9.976  1.00  0.00     0.211 HD
ENDBRANCH   6  30
BRANCH  22  32
ATOM     32  O   UNL     1      15.846  20.925   8.880  1.00  0.00    -0.393 OA
ATOM     33  H   UNL     1      16.055  21.881   8.715  1.00  0.00     0.210 HD
ENDBRANCH  22  32
BRANCH  28  34
ATOM     34  O   UNL     1      14.032  21.136   4.454  1.00  0.00    -0.393 OA
ATOM     35  H   UNL     1      14.353  21.986   4.053  1.00  0.00     0.210 HD
ENDBRANCH  28  34
TORSDOF 3
ENDMDL
MODEL 4
REMARK VINA RESULT:    -7.595      6.301      9.947
REMARK INTER + INTRA:          -8.261
REMARK INTER:                  -8.261
REMARK INTRA:                   0.000
REMARK UNBOUND:                 0.000
REMARK SMILES C[C@H]1CC[C@H]2[N@@H+](C1)C[C@H]1[C@H]3C[C@H]4[C@@H](C[C@H](O)[C@H]5C[C@H](O)CC[C@]54C)[C@H]3CC[C@@H]1[C@@]2(C)O
REMARK SMILES IDX 5 1 6 2 8 3 7 4 4 5 29 6 3 7 28 8 30 9 2 10 27 11 9 12 1 13
REMARK SMILES IDX 26 14 10 15 25 16 11 17 13 18 12 19 14 20 23 21 15 22 17 23
REMARK SMILES IDX 22 24 24 25 18 26 21 27 19 28 31 30 16 32 20 34
REMARK H PARENT 6 29 31 31 16 33 20 35
REMARK Flexibility Score: inf
ROOT
ATOM      1  C   UNL     1      20.362  18.373   7.655  1.00  0.00     0.216 C 
ATOM      2  N   UNL     1      21.832  18.240   7.837  1.00  0.00    -0.330 N 
ATOM      3  C   UNL     1      22.570  18.009   6.560  1.00  0.00     0.266 C 
ATOM      4  C   UNL     1      22.220  17.267   8.895  1.00  0.00     0.265 C 
ATOM      5  C   UNL     1      19.660  18.828   8.975  1.00  0.00     0.069 C 
ATOM      6  C   UNL     1      19.681  17.111   6.980  1.00  0.00     0.117 C 
ATOM      7  C   UNL     1      20.533  18.649  10.224  1.00  0.00     0.015 C 
ATOM      8  C   UNL     1      20.689  16.378   6.011  1.00  0.00     0.036 C 
ATOM      9  C   UNL     1      18.409  17.619   6.241  1.00  0.00     0.049 C 
ATOM     10  C   UNL     1      21.322  17.336  10.160  1.00  0.00     0.041 C 
ATOM     11  C   UNL     1      20.040  15.466   4.922  1.00  0.00     0.007 C 
ATOM     12  C   UNL     1      21.704  17.387   5.433  1.00  0.00     0.054 C 
ATOM     13  C   UNL     1      22.147  17.139  11.439  1.00  0.00     0.013 C 
ATOM     14  C   UNL     1      20.215  16.001   3.494  1.00  0.00     0.004 C 
ATOM     15  C   UNL     1      22.559  16.805   4.277  1.00  0.00     0.002 C 
ATOM     16  C   UNL     1      21.695  16.281   3.102  1.00  0.00    -0.004 C 
ATOM     17  C   UNL     1      23.527  15.661   4.679  1.00  0.00     0.009 C 
ATOM     18  C   UNL     1      22.506  15.088   2.562  1.00  0.00    -0.001 C 
ATOM     19  C   UNL     1      23.189  14.475   3.773  1.00  0.00    -0.001 C 
ATOM     20  C   UNL     1      21.792  13.998   1.762  1.00  0.00     0.036 C 
ATOM     21  C   UNL     1      24.314  13.446   3.404  1.00  0.00    -0.024 C 
ATOM     22  C   UNL     1      22.841  12.976   1.271  1.00  0.00     0.118 C 
ATOM     23  C   UNL     1      23.681  12.361   2.447  1.00  0.00     0.026 C 
ATOM     24  C   UNL     1      25.553  14.112   2.722  1.00  0.00     0.010 C 
ATOM     25  C   UNL     1      24.765  12.776   4.733  1.00  0.00     0.012 C 
ATOM     26  C   UNL     1      24.746  11.372   1.907  1.00  0.00     0.038 C 
ATOM     27  C   UNL     1      26.578  13.092   2.203  1.00  0.00     0.032 C 
ATOM     28  C   UNL     1      25.939  12.082   1.244  1.00  0.00     0.114 C 
ATOM     29  H   UNL     1      22.170  19.173   8.177  1.00  0.00     0.348 HD
ENDROOT
BRANCH   6  30
ATOM     30  O   UNL     1      19.288  16.204   7.985  1.00  0.00    -0.384 OA
ATOM     31  H   UNL     1      19.050  16.724   8.797  1.00  0.00     0.211 HD
ENDBRANCH   6  30
BRANCH  22  32
ATOM     32  O   UNL     1      22.204  11.968   0.524  1.00  0.00    -0.393 OA
ATOM     33  H   UNL     1      21.757  12.404  -0.247  1.00  0.00     0.210 HD
ENDBRANCH  22  32
BRANCH  28  34
ATOM     34  O   UNL     1      26.907  11.135   0.876  1.00  0.00    -0.393 OA
ATOM     35  H   UNL     1      27.707  11.641   0.578  1.00  0.00     0.210 HD
ENDBRANCH  28  34
TORSDOF 3
ENDMDL
MODEL 5
REMARK VINA RESULT:    -7.582      2.432      8.494
REMARK INTER + INTRA:          -8.247
REMARK INTER:                  -8.247
REMARK INTRA:                   0.000
REMARK UNBOUND:                 0.000
REMARK SMILES C[C@H]1CC[C@H]2[N@@H+](C1)C[C@H]1[C@H]3C[C@H]4[C@@H](C[C@H](O)[C@H]5C[C@H](O)CC[C@]54C)[C@H]3CC[C@@H]1[C@@]2(C)O
REMARK SMILES IDX 5 1 6 2 8 3 7 4 4 5 29 6 3 7 28 8 30 9 2 10 27 11 9 12 1 13
REMARK SMILES IDX 26 14 10 15 25 16 11 17 13 18 12 19 14 20 23 21 15 22 17 23
REMARK SMILES IDX 22 24 24 25 18 26 21 27 19 28 31 30 16 32 20 34
REMARK H PARENT 6 29 31 31 16 33 20 35
REMARK Flexibility Score: inf
ROOT
ATOM      1  C   UNL     1      12.645  16.552   6.119  1.00  0.00     0.216 C 
ATOM      2  N   UNL     1      13.365  17.804   5.757  1.00  0.00    -0.330 N 
ATOM      3  C   UNL     1      14.813  17.592   5.465  1.00  0.00     0.266 C 
ATOM      4  C   UNL     1      13.141  18.921   6.714  1.00  0.00     0.265 C 
ATOM      5  C   UNL     1      11.102  16.782   6.202  1.00  0.00     0.069 C 
ATOM      6  C   UNL     1      13.243  15.810   7.386  1.00  0.00     0.117 C 
ATOM      7  C   UNL     1      10.709  18.262   6.296  1.00  0.00     0.015 C 
ATOM      8  C   UNL     1      14.793  16.080   7.517  1.00  0.00     0.036 C 
ATOM      9  C   UNL     1      12.912  14.298   7.227  1.00  0.00     0.049 C 
ATOM     10  C   UNL     1      11.673  19.030   7.209  1.00  0.00     0.041 C 
ATOM     11  C   UNL     1      15.590  15.045   8.372  1.00  0.00     0.007 C 
ATOM     12  C   UNL     1      15.413  16.322   6.123  1.00  0.00     0.054 C 
ATOM     13  C   UNL     1      11.238  20.495   7.343  1.00  0.00     0.013 C 
ATOM     14  C   UNL     1      16.561  14.189   7.547  1.00  0.00     0.004 C 
ATOM     15  C   UNL     1      16.964  16.333   6.135  1.00  0.00     0.002 C 
ATOM     16  C   UNL     1      17.564  15.018   6.695  1.00  0.00    -0.004 C 
ATOM     17  C   UNL     1      17.615  17.503   6.918  1.00  0.00     0.009 C 
ATOM     18  C   UNL     1      18.853  15.482   7.398  1.00  0.00    -0.001 C 
ATOM     19  C   UNL     1      18.545  16.863   7.951  1.00  0.00    -0.001 C 
ATOM     20  C   UNL     1      19.464  14.609   8.496  1.00  0.00     0.036 C 
ATOM     21  C   UNL     1      19.818  17.647   8.427  1.00  0.00    -0.024 C 
ATOM     22  C   UNL     1      20.784  15.257   8.968  1.00  0.00     0.118 C 
ATOM     23  C   UNL     1      20.587  16.735   9.460  1.00  0.00     0.026 C 
ATOM     24  C   UNL     1      20.764  18.048   7.249  1.00  0.00     0.010 C 
ATOM     25  C   UNL     1      19.314  18.936   9.135  1.00  0.00     0.012 C 
ATOM     26  C   UNL     1      21.942  17.358   9.887  1.00  0.00     0.038 C 
ATOM     27  C   UNL     1      22.092  18.660   7.723  1.00  0.00     0.032 C 
ATOM     28  C   UNL     1      22.832  17.731   8.690  1.00  0.00     0.114 C 
ATOM     29  H   UNL     1      12.951  18.126   4.848  1.00  0.00     0.348 HD
ENDROOT
BRANCH   6  30
ATOM     30  O   UNL     1      12.606  16.293   8.547  1.00  0.00    -0.384 OA
ATOM     31  H   UNL     1      11.740  16.698   8.281  1.00  0.00     0.211 HD
ENDBRANCH   6  30
BRANCH  22  32
ATOM     32  O   UNL     1      21.366  14.463   9.973  1.00  0.00    -0.393 OA
ATOM     33  H   UNL     1      20.644  13.917  10.381  1.00  0.00     0.210 HD
ENDBRANCH  22  32
BRANCH  28  34
ATOM     34  O   UNL     1      23.989  18.383   9.146  1.00  0.00    -0.393 OA
ATOM     35  H   UNL     1      24.672  18.293   8.431  1.00  0.00     0.210 HD
ENDBRANCH  28  34
TORSDOF 3
ENDMDL
MODEL 6
REMARK VINA RESULT:    -7.573      5.693      8.683
REMARK INTER + INTRA:          -8.238
REMARK INTER:                  -8.238
REMARK INTRA:                   0.000
REMARK UNBOUND:                 0.000
REMARK SMILES C[C@H]1CC[C@H]2[N@@H+](C1)C[C@H]1[C@H]3C[C@H]4[C@@H](C[C@H](O)[C@H]5C[C@H](O)CC[C@]54C)[C@H]3CC[C@@H]1[C@@]2(C)O
REMARK SMILES IDX 5 1 6 2 8 3 7 4 4 5 29 6 3 7 28 8 30 9 2 10 27 11 9 12 1 13
REMARK SMILES IDX 26 14 10 15 25 16 11 17 13 18 12 19 14 20 23 21 15 22 17 23
REMARK SMILES IDX 22 24 24 25 18 26 21 27 19 28 31 30 16 32 20 34
REMARK H PARENT 6 29 31 31 16 33 20 35
REMARK Flexibility Score: inf
ROOT
ATOM      1  C   UNL     1      24.338  12.406   3.014  1.00  0.00     0.216 C 
ATOM      2  N   UNL     1      24.619  13.866   3.077  1.00  0.00    -0.330 N 
ATOM      3  C   UNL     1      24.363  14.461   4.421  1.00  0.00     0.266 C 
ATOM      4  C   UNL     1      23.978  14.647   1.984  1.00  0.00     0.265 C 
ATOM      5  C   UNL     1      24.823  11.787   1.663  1.00  0.00     0.069 C 
ATOM      6  C   UNL     1      22.846  12.021   3.386  1.00  0.00     0.117 C 
ATOM      7  C   UNL     1      25.094  12.834   0.574  1.00  0.00     0.015 C 
ATOM      8  C   UNL     1      22.237  13.056   4.411  1.00  0.00     0.036 C 
ATOM      9  C   UNL     1      22.875  10.571   3.950  1.00  0.00     0.049 C 
ATOM     10  C   UNL     1      24.035  13.943   0.601  1.00  0.00     0.041 C 
ATOM     11  C   UNL     1      21.013  12.549   5.239  1.00  0.00     0.007 C 
ATOM     12  C   UNL     1      23.355  13.661   5.287  1.00  0.00     0.054 C 
ATOM     13  C   UNL     1      24.283  14.953  -0.527  1.00  0.00     0.013 C 
ATOM     14  C   UNL     1      21.317  12.375   6.733  1.00  0.00     0.004 C 
ATOM     15  C   UNL     1      22.817  14.483   6.487  1.00  0.00     0.002 C 
ATOM     16  C   UNL     1      21.892  13.651   7.413  1.00  0.00    -0.004 C 
ATOM     17  C   UNL     1      22.046  15.777   6.115  1.00  0.00     0.009 C 
ATOM     18  C   UNL     1      20.871  14.684   7.924  1.00  0.00    -0.001 C 
ATOM     19  C   UNL     1      20.674  15.666   6.782  1.00  0.00    -0.001 C 
ATOM     20  C   UNL     1      19.511  14.203   8.435  1.00  0.00     0.036 C 
ATOM     21  C   UNL     1      19.917  16.975   7.203  1.00  0.00    -0.024 C 
ATOM     22  C   UNL     1      18.721  15.421   8.963  1.00  0.00     0.118 C 
ATOM     23  C   UNL     1      18.557  16.548   7.882  1.00  0.00     0.026 C 
ATOM     24  C   UNL     1      20.748  17.875   8.174  1.00  0.00     0.010 C 
ATOM     25  C   UNL     1      19.628  17.768   5.897  1.00  0.00     0.012 C 
ATOM     26  C   UNL     1      17.794  17.765   8.466  1.00  0.00     0.038 C 
ATOM     27  C   UNL     1      19.949  19.066   8.726  1.00  0.00     0.032 C 
ATOM     28  C   UNL     1      18.658  18.613   9.415  1.00  0.00     0.114 C 
ATOM     29  H   UNL     1      25.652  13.971   2.928  1.00  0.00     0.348 HD
ENDROOT
BRANCH   6  30
ATOM     30  O   UNL     1      22.059  12.035   2.216  1.00  0.00    -0.384 OA
ATOM     31  H   UNL     1      21.229  12.545   2.406  1.00  0.00     0.211 HD
ENDBRANCH   6  30
BRANCH  22  32
ATOM     32  O   UNL     1      17.470  14.998   9.446  1.00  0.00    -0.393 OA
ATOM     33  H   UNL     1      16.827  15.740   9.304  1.00  0.00     0.210 HD
ENDBRANCH  22  32
BRANCH  28  34
ATOM     34  O   UNL     1      17.939  19.749   9.820  1.00  0.00    -0.393 OA
ATOM     35  H   UNL     1      18.595  20.488   9.909  1.00  0.00     0.210 HD
ENDBRANCH  28  34
TORSDOF 3
ENDMDL
MODEL 7
REMARK VINA RESULT:    -7.538      5.959      9.568
REMARK INTER + INTRA:          -8.199
REMARK INTER:                  -8.199
REMARK INTRA:                   0.000
REMARK UNBOUND:                 0.000
REMARK SMILES C[C@H]1CC[C@H]2[N@@H+](C1)C[C@H]1[C@H]3C[C@H]4[C@@H](C[C@H](O)[C@H]5C[C@H](O)CC[C@]54C)[C@H]3CC[C@@H]1[C@@]2(C)O
REMARK SMILES IDX 5 1 6 2 8 3 7 4 4 5 29 6 3 7 28 8 30 9 2 10 27 11 9 12 1 13
REMARK SMILES IDX 26 14 10 15 25 16 11 17 13 18 12 19 14 20 23 21 15 22 17 23
REMARK SMILES IDX 22 24 24 25 18 26 21 27 19 28 31 30 16 32 20 34
REMARK H PARENT 6 29 31 31 16 33 20 35
REMARK Flexibility Score: inf
ROOT
ATOM      1  C   UNL     1      23.024  10.044   3.032  1.00  0.00     0.216 C 
ATOM      2  N   UNL     1      23.273  11.471   2.692  1.00  0.00    -0.330 N 
ATOM      3  C   UNL     1      23.552  12.325   3.884  1.00  0.00     0.266 C 
ATOM      4  C   UNL     1      22.237  12.065   1.804  1.00  0.00     0.265 C 
ATOM      5  C   UNL     1      22.954   9.154   1.749  1.00  0.00     0.069 C 
ATOM      6  C   UNL     1      21.807   9.822   4.023  1.00  0.00     0.117 C 
ATOM      7  C   UNL     1      22.753   9.958   0.458  1.00  0.00     0.015 C 
ATOM      8  C   UNL     1      21.624  11.065   4.979  1.00  0.00     0.036 C 
ATOM      9  C   UNL     1      22.089   8.506   4.804  1.00  0.00     0.049 C 
ATOM     10  C   UNL     1      21.764  11.110   0.676  1.00  0.00     0.041 C 
ATOM     11  C   UNL     1      20.836  10.794   6.299  1.00  0.00     0.007 C 
ATOM     12  C   UNL     1      22.982  11.762   5.213  1.00  0.00     0.054 C 
ATOM     13  C   UNL     1      21.526  11.871  -0.635  1.00  0.00     0.013 C 
ATOM     14  C   UNL     1      21.705  10.890   7.560  1.00  0.00     0.004 C 
ATOM     15  C   UNL     1      22.939  12.826   6.341  1.00  0.00     0.002 C 
ATOM     16  C   UNL     1      22.471  12.238   7.697  1.00  0.00    -0.004 C 
ATOM     17  C   UNL     1      22.054  14.067   6.050  1.00  0.00     0.009 C 
ATOM     18  C   UNL     1      21.708  13.405   8.351  1.00  0.00    -0.001 C 
ATOM     19  C   UNL     1      21.056  14.162   7.206  1.00  0.00    -0.001 C 
ATOM     20  C   UNL     1      20.669  13.108   9.434  1.00  0.00     0.036 C 
ATOM     21  C   UNL     1      20.495  15.567   7.622  1.00  0.00    -0.024 C 
ATOM     22  C   UNL     1      20.121  14.446   9.976  1.00  0.00     0.118 C 
ATOM     23  C   UNL     1      19.521  15.354   8.845  1.00  0.00     0.026 C 
ATOM     24  C   UNL     1      21.619  16.587   7.996  1.00  0.00     0.010 C 
ATOM     25  C   UNL     1      19.699  16.113   6.403  1.00  0.00     0.012 C 
ATOM     26  C   UNL     1      19.019  16.702   9.428  1.00  0.00     0.038 C 
ATOM     27  C   UNL     1      21.073  17.905   8.569  1.00  0.00     0.032 C 
ATOM     28  C   UNL     1      20.166  17.665   9.780  1.00  0.00     0.114 C 
ATOM     29  H   UNL     1      24.162  11.488   2.136  1.00  0.00     0.348 HD
ENDROOT
BRANCH   6  30
ATOM     30  O   UNL     1      20.624   9.657   3.273  1.00  0.00    -0.384 OA
ATOM     31  H   UNL     1      20.876   9.486   2.328  1.00  0.00     0.211 HD
ENDBRANCH   6  30
BRANCH  22  32
ATOM     32  O   UNL     1      19.170  14.194  10.981  1.00  0.00    -0.393 OA
ATOM     33  H   UNL     1      18.918  13.236  10.922  1.00  0.00     0.210 HD
ENDBRANCH  22  32
BRANCH  28  34
ATOM     34  O   UNL     1      19.637  18.895  10.200  1.00  0.00    -0.393 OA
ATOM     35  H   UNL     1      19.533  19.456   9.387  1.00  0.00     0.210 HD
ENDBRANCH  28  34
TORSDOF 3
ENDMDL
MODEL 8
REMARK VINA RESULT:    -7.450      7.321     10.963
REMARK INTER + INTRA:          -8.104
REMARK INTER:                  -8.104
REMARK INTRA:                   0.000
REMARK UNBOUND:                 0.000
REMARK SMILES C[C@H]1CC[C@H]2[N@@H+](C1)C[C@H]1[C@H]3C[C@H]4[C@@H](C[C@H](O)[C@H]5C[C@H](O)CC[C@]54C)[C@H]3CC[C@@H]1[C@@]2(C)O
REMARK SMILES IDX 5 1 6 2 8 3 7 4 4 5 29 6 3 7 28 8 30 9 2 10 27 11 9 12 1 13
REMARK SMILES IDX 26 14 10 15 25 16 11 17 13 18 12 19 14 20 23 21 15 22 17 23
REMARK SMILES IDX 22 24 24 25 18 26 21 27 19 28 31 30 16 32 20 34
REMARK H PARENT 6 29 31 31 16 33 20 35
REMARK Flexibility Score: inf
ROOT
ATOM      1  C   UNL     1      23.786  10.881   0.490  1.00  0.00     0.216 C 
ATOM      2  N   UNL     1      24.147  12.324   0.460  1.00  0.00    -0.330 N 
ATOM      3  C   UNL     1      24.569  12.858   1.788  1.00  0.00     0.266 C 
ATOM      4  C   UNL     1      23.124  13.184  -0.193  1.00  0.00     0.265 C 
ATOM      5  C   UNL     1      23.564  10.316  -0.950  1.00  0.00     0.069 C 
ATOM      6  C   UNL     1      22.609  10.533   1.494  1.00  0.00     0.117 C 
ATOM      7  C   UNL     1      23.367  11.407  -2.011  1.00  0.00     0.015 C 
ATOM      8  C   UNL     1      22.596  11.535   2.714  1.00  0.00     0.036 C 
ATOM      9  C   UNL     1      22.810   9.056   1.938  1.00  0.00     0.049 C 
ATOM     10  C   UNL     1      22.503  12.552  -1.469  1.00  0.00     0.041 C 
ATOM     11  C   UNL     1      21.859  11.032   3.995  1.00  0.00     0.007 C 
ATOM     12  C   UNL     1      24.023  12.052   2.996  1.00  0.00     0.054 C 
ATOM     13  C   UNL     1      22.265  13.610  -2.554  1.00  0.00     0.013 C 
ATOM     14  C   UNL     1      22.801  10.769   5.177  1.00  0.00     0.004 C 
ATOM     15  C   UNL     1      24.141  12.830   4.333  1.00  0.00     0.002 C 
ATOM     16  C   UNL     1      23.695  11.985   5.555  1.00  0.00    -0.004 C 
ATOM     17  C   UNL     1      23.360  14.169   4.394  1.00  0.00     0.009 C 
ATOM     18  C   UNL     1      23.080  13.028   6.508  1.00  0.00    -0.001 C 
ATOM     19  C   UNL     1      22.440  14.074   5.613  1.00  0.00    -0.001 C 
ATOM     20  C   UNL     1      22.080  12.572   7.571  1.00  0.00     0.036 C 
ATOM     21  C   UNL     1      22.036  15.387   6.372  1.00  0.00    -0.024 C 
ATOM     22  C   UNL     1      21.689  13.789   8.438  1.00  0.00     0.118 C 
ATOM     23  C   UNL     1      21.114  14.976   7.586  1.00  0.00     0.026 C 
ATOM     24  C   UNL     1      23.268  16.203   6.880  1.00  0.00     0.010 C 
ATOM     25  C   UNL     1      21.227  16.257   5.368  1.00  0.00     0.012 C 
ATOM     26  C   UNL     1      20.772  16.189   8.491  1.00  0.00     0.038 C 
ATOM     27  C   UNL     1      22.878  17.393   7.772  1.00  0.00     0.032 C 
ATOM     28  C   UNL     1      22.021  16.953   8.962  1.00  0.00     0.114 C 
ATOM     29  H   UNL     1      25.002  12.399  -0.144  1.00  0.00     0.348 HD
ENDROOT
BRANCH   6  30
ATOM     30  O   UNL     1      21.378  10.637   0.816  1.00  0.00    -0.384 OA
ATOM     31  H   UNL     1      21.375  11.488   0.304  1.00  0.00     0.211 HD
ENDBRANCH   6  30
BRANCH  22  32
ATOM     32  O   UNL     1      20.775  13.388   9.429  1.00  0.00    -0.393 OA
ATOM     33  H   UNL     1      20.077  12.837   8.989  1.00  0.00     0.210 HD
ENDBRANCH  22  32
BRANCH  28  34
ATOM     34  O   UNL     1      21.633  18.093   9.685  1.00  0.00    -0.393 OA
ATOM     35  H   UNL     1      21.785  18.875   9.092  1.00  0.00     0.210 HD
ENDBRANCH  28  34
TORSDOF 3
ENDMDL
MODEL 9
REMARK VINA RESULT:    -7.392      4.462      6.527
REMARK INTER + INTRA:          -8.040
REMARK INTER:                  -8.040
REMARK INTRA:                   0.000
REMARK UNBOUND:                 0.000
REMARK SMILES C[C@H]1CC[C@H]2[N@@H+](C1)C[C@H]1[C@H]3C[C@H]4[C@@H](C[C@H](O)[C@H]5C[C@H](O)CC[C@]54C)[C@H]3CC[C@@H]1[C@@]2(C)O
REMARK SMILES IDX 5 1 6 2 8 3 7 4 4 5 29 6 3 7 28 8 30 9 2 10 27 11 9 12 1 13
REMARK SMILES IDX 26 14 10 15 25 16 11 17 13 18 12 19 14 20 23 21 15 22 17 23
REMARK SMILES IDX 22 24 24 25 18 26 21 27 19 28 31 30 16 32 20 34
REMARK H PARENT 6 29 31 31 16 33 20 35
REMARK Flexibility Score: inf
ROOT
ATOM      1  C   UNL     1      23.994  13.906   5.101  1.00  0.00     0.216 C 
ATOM      2  N   UNL     1      23.835  15.291   4.580  1.00  0.00    -0.330 N 
ATOM      3  C   UNL     1      22.998  16.162   5.456  1.00  0.00     0.266 C 
ATOM      4  C   UNL     1      23.408  15.350   3.155  1.00  0.00     0.265 C 
ATOM      5  C   UNL     1      25.047  13.101   4.273  1.00  0.00     0.069 C 
ATOM      6  C   UNL     1      22.624  13.135   5.304  1.00  0.00     0.117 C 
ATOM      7  C   UNL     1      25.373  13.736   2.915  1.00  0.00     0.015 C 
ATOM      8  C   UNL     1      21.455  14.141   5.640  1.00  0.00     0.036 C 
ATOM      9  C   UNL     1      22.853  12.089   6.433  1.00  0.00     0.049 C 
ATOM     10  C   UNL     1      24.109  14.298   2.253  1.00  0.00     0.041 C 
ATOM     11  C   UNL     1      20.210  13.520   6.349  1.00  0.00     0.007 C 
ATOM     12  C   UNL     1      22.013  15.384   6.367  1.00  0.00     0.054 C 
ATOM     13  C   UNL     1      24.436  14.879   0.872  1.00  0.00     0.013 C 
ATOM     14  C   UNL     1      20.036  13.992   7.799  1.00  0.00     0.004 C 
ATOM     15  C   UNL     1      20.907  16.293   6.964  1.00  0.00     0.002 C 
ATOM     16  C   UNL     1      19.987  15.539   7.958  1.00  0.00    -0.004 C 
ATOM     17  C   UNL     1      19.987  16.988   5.926  1.00  0.00     0.009 C 
ATOM     18  C   UNL     1      18.616  16.213   7.762  1.00  0.00    -0.001 C 
ATOM     19  C   UNL     1      18.554  16.597   6.294  1.00  0.00    -0.001 C 
ATOM     20  C   UNL     1      17.347  15.457   8.155  1.00  0.00     0.036 C 
ATOM     21  C   UNL     1      17.379  17.579   5.951  1.00  0.00    -0.024 C 
ATOM     22  C   UNL     1      16.130  16.383   7.939  1.00  0.00     0.118 C 
ATOM     23  C   UNL     1      16.038  16.924   6.468  1.00  0.00     0.026 C 
ATOM     24  C   UNL     1      17.566  18.998   6.579  1.00  0.00     0.010 C 
ATOM     25  C   UNL     1      17.338  17.709   4.402  1.00  0.00     0.012 C 
ATOM     26  C   UNL     1      14.827  17.880   6.307  1.00  0.00     0.038 C 
ATOM     27  C   UNL     1      16.340  19.906   6.394  1.00  0.00     0.032 C 
ATOM     28  C   UNL     1      15.065  19.260   6.945  1.00  0.00     0.114 C 
ATOM     29  H   UNL     1      24.790  15.724   4.604  1.00  0.00     0.348 HD
ENDROOT
BRANCH   6  30
ATOM     30  O   UNL     1      22.298  12.452   4.115  1.00  0.00    -0.384 OA
ATOM     31  H   UNL     1      21.544  12.928   3.679  1.00  0.00     0.211 HD
ENDBRANCH   6  30
BRANCH  22  32
ATOM     32  O   UNL     1      14.951  15.707   8.304  1.00  0.00    -0.393 OA
ATOM     33  H   UNL     1      14.688  16.029   9.205  1.00  0.00     0.210 HD
ENDBRANCH  22  32
BRANCH  28  34
ATOM     34  O   UNL     1      13.976  20.101   6.669  1.00  0.00    -0.393 OA
ATOM     35  H   UNL     1      14.324  21.031   6.667  1.00  0.00     0.210 HD
ENDBRANCH  28  34
TORSDOF 3
ENDMDL
