MODEL 1
REMARK VINA RESULT:    -3.334      0.000      0.000
REMARK INTER + INTRA:         -11.748
REMARK INTER:                  -7.038
REMARK INTRA:                  -4.710
REMARK UNBOUND:                -4.710
REMARK SMILES CCC(=O)CCCCC[C@H]1NC(=O)[C@H]2CCCCN2C(=O)[C@@H]([C@@H](C)CC)NC(=O)[C@H](Cc2cn(OC)c3ccccc23)NC1=O
REMARK SMILES IDX 9 1 10 2 44 3 43 4 45 6 30 7 28 8 27 9 29 11 22 12 23 14
REMARK SMILES IDX 24 15 25 16 26 17 31 18 32 19 33 20 42 21 34 22 37 23 41 24
REMARK SMILES IDX 38 25 40 26 39 27 35 28 36 29 11 30 12 31 13 33 14 34 19 35
REMARK SMILES IDX 15 36 18 37 16 38 17 39 20 40 21 41 8 43 7 44 6 45 5 46 3 47
REMARK SMILES IDX 4 48 2 49 1 50
REMARK H PARENT 43 5 27 10 11 32
REMARK Flexibility Score: 80.00
ROOT
ATOM      1  C   UNL     1      61.863  32.302  52.180  1.00  0.00     0.035 C 
ENDROOT
BRANCH   1   2
ATOM      2  C   UNL     1      62.490  32.087  50.828  1.00  0.00     0.171 C 
BRANCH   2   3
ATOM      3  C   UNL     1      62.742  30.620  50.542  1.00  0.00     0.243 C 
ATOM      4  N   UNL     1      63.101  30.149  49.235  1.00  0.00    -0.342 N 
ATOM      5  H   UNL     1      62.888  30.728  48.316  1.00  0.00     0.164 HD
ATOM      6  O   UNL     1      62.518  29.757  51.449  1.00  0.00    -0.273 OA
BRANCH   4   7
ATOM      7  C   UNL     1      64.023  29.028  49.053  1.00  0.00     0.175 C 
BRANCH   7   8
ATOM      8  C   UNL     1      65.120  29.486  48.145  1.00  0.00     0.243 C 
ATOM      9  N   UNL     1      65.953  30.611  48.573  1.00  0.00    -0.342 N 
ATOM     10  H   UNL     1      65.973  30.866  49.628  1.00  0.00     0.164 HD
ATOM     11  O   UNL     1      65.176  29.062  46.935  1.00  0.00    -0.273 OA
BRANCH   9  12
ATOM     12  C   UNL     1      67.053  31.166  47.788  1.00  0.00     0.174 CG0
ATOM     13  G   UNL     1      67.074  32.640  47.924  1.00  0.00     0.000 G0
BRANCH  12  14
ATOM     14  C   UNL     1      68.431  30.477  48.037  1.00  0.00     0.018 C 
ATOM     15  C   UNL     1      68.612  29.887  49.480  1.00  0.00     0.010 C 
BRANCH  14  16
ATOM     16  C   UNL     1      68.767  29.363  46.991  1.00  0.00     0.002 C 
ATOM     17  C   UNL     1      68.372  29.874  45.592  1.00  0.00     0.004 C 
ENDBRANCH  14  16
ENDBRANCH  12  14
ENDBRANCH   9  12
ENDBRANCH   7   8
BRANCH   7  18
ATOM     18  C   UNL     1      63.271  27.876  48.407  1.00  0.00     0.073 C 
BRANCH  18  19
ATOM     19  C   UNL     1      62.590  26.993  49.412  1.00  0.00    -0.016 A 
ATOM     20  C   UNL     1      63.162  25.913  50.109  1.00  0.00     0.134 A 
ATOM     21  C   UNL     1      61.273  26.984  49.733  1.00  0.00     0.006 A 
ATOM     22  N   UNL     1      62.233  25.242  50.770  1.00  0.00    -0.191 N 
ATOM     23  C   UNL     1      61.048  25.890  50.578  1.00  0.00     0.087 A 
ATOM     24  C   UNL     1      60.231  27.797  49.263  1.00  0.00     0.011 A 
ATOM     25  C   UNL     1      59.737  25.562  50.952  1.00  0.00     0.030 A 
ATOM     26  C   UNL     1      58.954  27.537  49.721  1.00  0.00     0.001 A 
ATOM     27  C   UNL     1      58.699  26.424  50.547  1.00  0.00     0.002 A 
BRANCH  22  28
ATOM     28  O   UNL     1      62.516  24.029  51.454  1.00  0.00    -0.417 OA
ATOM     29  C   UNL     1      62.435  22.728  50.913  1.00  0.00     0.313 C 
ENDBRANCH  22  28
ENDBRANCH  18  19
ENDBRANCH   7  18
ENDBRANCH   4   7
ENDBRANCH   2   3
BRANCH   2  30
ATOM     30  N   UNL     1      63.759  32.887  50.729  1.00  0.00    -0.343 N 
ATOM     31  C   UNL     1      64.179  33.272  49.391  1.00  0.00     0.243 C 
ATOM     32  H   UNL     1      64.207  33.373  51.624  1.00  0.00     0.164 HD
ATOM     33  O   UNL     1      63.582  32.919  48.314  1.00  0.00    -0.273 OA
BRANCH  31  34
ATOM     34  C   UNL     1      65.402  34.077  49.157  1.00  0.00     0.174 C 
ATOM     35  N   UNL     1      66.623  33.261  49.185  1.00  0.00    -0.329 N 
ATOM     36  C   UNL     1      65.369  35.443  49.893  1.00  0.00     0.035 C 
ATOM     37  C   UNL     1      67.690  33.635  50.115  1.00  0.00     0.120 C 
ATOM     38  C   UNL     1      66.552  35.696  50.842  1.00  0.00     0.004 C 
ATOM     39  C   UNL     1      67.831  35.206  50.095  1.00  0.00     0.022 C 
BRANCH  35  40
ATOM     40  C   UNL     1      67.086  32.684  47.912  1.00  0.00     0.246 CG0
ATOM     41  O   UNL     1      67.159  33.375  46.822  1.00  0.00    -0.272 OA
ATOM     42  G   UNL     1      67.061  31.208  47.793  1.00  0.00     0.000 G0
ENDBRANCH  35  40
ENDBRANCH  31  34
ENDBRANCH   2  30
ENDBRANCH   1   2
BRANCH   1  43
ATOM     43  C   UNL     1      62.820  32.638  53.359  1.00  0.00     0.003 C 
BRANCH  43  44
ATOM     44  C   UNL     1      62.959  31.408  54.295  1.00  0.00     0.001 C 
BRANCH  44  45
ATOM     45  C   UNL     1      64.407  31.150  54.697  1.00  0.00     0.008 C 
BRANCH  45  46
ATOM     46  C   UNL     1      65.134  30.281  53.679  1.00  0.00     0.075 C 
BRANCH  46  47
ATOM     47  C   UNL     1      66.041  31.036  52.739  1.00  0.00     0.132 C 
ATOM     48  O   UNL     1      65.968  30.840  51.547  1.00  0.00    -0.300 OA
BRANCH  47  49
ATOM     49  C   UNL     1      67.065  32.019  53.243  1.00  0.00     0.072 C 
ATOM     50  C   UNL     1      66.437  33.319  53.763  1.00  0.00     0.012 C 
ENDBRANCH  47  49
ENDBRANCH  46  47
ENDBRANCH  45  46
ENDBRANCH  44  45
ENDBRANCH  43  44
ENDBRANCH   1  43
TORSDOF 12
ENDMDL
MODEL 2
REMARK VINA RESULT:    -3.329      9.951     14.387
REMARK INTER + INTRA:         -11.737
REMARK INTER:                  -8.415
REMARK INTRA:                  -3.322
REMARK UNBOUND:                -4.710
REMARK SMILES CCC(=O)CCCCC[C@H]1NC(=O)[C@H]2CCCCN2C(=O)[C@@H]([C@@H](C)CC)NC(=O)[C@H](Cc2cn(OC)c3ccccc23)NC1=O
REMARK SMILES IDX 9 1 10 2 44 3 43 4 45 6 30 7 28 8 27 9 29 11 22 12 23 14
REMARK SMILES IDX 24 15 25 16 26 17 31 18 32 19 33 20 42 21 34 22 37 23 41 24
REMARK SMILES IDX 38 25 40 26 39 27 35 28 36 29 11 30 12 31 13 33 14 34 19 35
REMARK SMILES IDX 15 36 18 37 16 38 17 39 20 40 21 41 8 43 7 44 6 45 5 46 3 47
REMARK SMILES IDX 4 48 2 49 1 50
REMARK H PARENT 43 5 27 10 11 32
REMARK Flexibility Score: 80.00
ROOT
ATOM      1  C   UNL     1      58.391  28.975  58.240  1.00  0.00     0.035 C 
ENDROOT
BRANCH   1   2
ATOM      2  C   UNL     1      58.403  28.345  59.607  1.00  0.00     0.171 C 
BRANCH   2   3
ATOM      3  C   UNL     1      59.735  27.695  59.925  1.00  0.00     0.243 C 
ATOM      4  N   UNL     1      60.078  27.270  61.251  1.00  0.00    -0.342 N 
ATOM      5  H   UNL     1      59.582  27.676  62.152  1.00  0.00     0.164 HD
ATOM      6  O   UNL     1      60.629  27.625  59.023  1.00  0.00    -0.273 OA
BRANCH   4   7
ATOM      7  C   UNL     1      60.887  26.073  61.485  1.00  0.00     0.175 C 
BRANCH   7   8
ATOM      8  C   UNL     1      60.094  25.153  62.358  1.00  0.00     0.243 C 
ATOM      9  N   UNL     1      58.943  24.460  61.775  1.00  0.00    -0.342 N 
ATOM     10  H   UNL     1      58.886  24.375  60.694  1.00  0.00     0.164 HD
ATOM     11  O   UNL     1      60.274  25.154  63.629  1.00  0.00    -0.273 OA
BRANCH   9  12
ATOM     12  C   UNL     1      58.078  23.539  62.508  1.00  0.00     0.174 CG0
ATOM     13  G   UNL     1      56.679  24.020  62.462  1.00  0.00     0.000 G0
BRANCH  12  14
ATOM     14  C   UNL     1      58.258  22.040  62.115  1.00  0.00     0.018 C 
ATOM     15  C   UNL     1      58.935  21.810  60.718  1.00  0.00     0.010 C 
BRANCH  14  16
ATOM     16  C   UNL     1      59.024  21.202  63.191  1.00  0.00     0.002 C 
ATOM     17  C   UNL     1      59.318  19.808  62.602  1.00  0.00     0.004 C 
ENDBRANCH  14  16
ENDBRANCH  12  14
ENDBRANCH   9  12
ENDBRANCH   7   8
BRANCH   7  18
ATOM     18  C   UNL     1      62.166  26.479  62.198  1.00  0.00     0.073 C 
BRANCH  18  19
ATOM     19  C   UNL     1      63.211  27.006  61.257  1.00  0.00    -0.016 A 
ATOM     20  C   UNL     1      64.151  26.250  60.533  1.00  0.00     0.134 A 
ATOM     21  C   UNL     1      63.531  28.304  61.035  1.00  0.00     0.006 A 
ATOM     22  N   UNL     1      65.036  27.043  59.951  1.00  0.00    -0.191 N 
ATOM     23  C   UNL     1      64.671  28.329  60.223  1.00  0.00     0.087 A 
ATOM     24  C   UNL     1      62.966  29.471  61.571  1.00  0.00     0.011 A 
ATOM     25  C   UNL     1      65.302  29.552  59.952  1.00  0.00     0.030 A 
ATOM     26  C   UNL     1      63.524  30.682  61.212  1.00  0.00     0.001 A 
ATOM     27  C   UNL     1      64.690  30.730  60.422  1.00  0.00     0.002 A 
BRANCH  22  28
ATOM     28  O   UNL     1      66.171  26.536  59.264  1.00  0.00    -0.417 OA
ATOM     29  C   UNL     1      66.326  25.227  58.760  1.00  0.00     0.313 C 
ENDBRANCH  22  28
ENDBRANCH  18  19
ENDBRANCH   7  18
ENDBRANCH   4   7
ENDBRANCH   2   3
BRANCH   2  30
ATOM     30  N   UNL     1      57.275  27.357  59.715  1.00  0.00    -0.343 N 
ATOM     31  C   UNL     1      56.853  27.000  61.059  1.00  0.00     0.243 C 
ATOM     32  H   UNL     1      56.636  27.111  58.838  1.00  0.00     0.164 HD
ATOM     33  O   UNL     1      57.417  27.418  62.131  1.00  0.00    -0.273 OA
BRANCH  31  34
ATOM     34  C   UNL     1      55.740  26.051  61.304  1.00  0.00     0.174 C 
ATOM     35  N   UNL     1      56.172  24.650  61.222  1.00  0.00    -0.329 N 
ATOM     36  C   UNL     1      54.417  26.492  60.625  1.00  0.00     0.035 C 
ATOM     37  C   UNL     1      55.478  23.760  60.288  1.00  0.00     0.120 C 
ATOM     38  C   UNL     1      53.805  25.458  59.666  1.00  0.00     0.004 C 
ATOM     39  C   UNL     1      53.934  24.072  60.369  1.00  0.00     0.022 C 
BRANCH  35  40
ATOM     40  C   UNL     1      56.635  24.005  62.462  1.00  0.00     0.246 CG0
ATOM     41  O   UNL     1      56.024  24.152  63.591  1.00  0.00    -0.272 OA
ATOM     42  G   UNL     1      58.039  23.538  62.494  1.00  0.00     0.000 G0
ENDBRANCH  35  40
ENDBRANCH  31  34
ENDBRANCH   2  30
ENDBRANCH   1   2
BRANCH   1  43
ATOM     43  C   UNL     1      58.913  30.436  58.128  1.00  0.00     0.003 C 
BRANCH  43  44
ATOM     44  C   UNL     1      59.814  30.582  56.873  1.00  0.00     0.001 C 
BRANCH  44  45
ATOM     45  C   UNL     1      60.692  31.827  56.935  1.00  0.00     0.008 C 
BRANCH  45  46
ATOM     46  C   UNL     1      61.373  31.978  58.289  1.00  0.00     0.075 C 
BRANCH  46  47
ATOM     47  C   UNL     1      61.230  33.343  58.917  1.00  0.00     0.132 C 
ATOM     48  O   UNL     1      60.832  34.271  58.251  1.00  0.00    -0.300 OA
BRANCH  47  49
ATOM     49  C   UNL     1      61.597  33.596  60.356  1.00  0.00     0.072 C 
ATOM     50  C   UNL     1      61.935  35.066  60.635  1.00  0.00     0.012 C 
ENDBRANCH  47  49
ENDBRANCH  46  47
ENDBRANCH  45  46
ENDBRANCH  44  45
ENDBRANCH  43  44
ENDBRANCH   1  43
TORSDOF 12
ENDMDL
MODEL 3
REMARK VINA RESULT:    -3.208      8.880     13.382
REMARK INTER + INTRA:         -11.482
REMARK INTER:                  -8.868
REMARK INTRA:                  -2.614
REMARK UNBOUND:                -4.710
REMARK SMILES CCC(=O)CCCCC[C@H]1NC(=O)[C@H]2CCCCN2C(=O)[C@@H]([C@@H](C)CC)NC(=O)[C@H](Cc2cn(OC)c3ccccc23)NC1=O
REMARK SMILES IDX 9 1 10 2 44 3 43 4 45 6 30 7 28 8 27 9 29 11 22 12 23 14
REMARK SMILES IDX 24 15 25 16 26 17 31 18 32 19 33 20 42 21 34 22 37 23 41 24
REMARK SMILES IDX 38 25 40 26 39 27 35 28 36 29 11 30 12 31 13 33 14 34 19 35
REMARK SMILES IDX 15 36 18 37 16 38 17 39 20 40 21 41 8 43 7 44 6 45 5 46 3 47
REMARK SMILES IDX 4 48 2 49 1 50
REMARK H PARENT 43 5 27 10 11 32
REMARK Flexibility Score: 80.00
ROOT
ATOM      1  C   UNL     1      57.797  28.944  54.997  1.00  0.00     0.035 C 
ENDROOT
BRANCH   1   2
ATOM      2  C   UNL     1      57.607  29.282  56.452  1.00  0.00     0.171 C 
BRANCH   2   3
ATOM      3  C   UNL     1      58.784  30.048  57.020  1.00  0.00     0.243 C 
ATOM      4  N   UNL     1      58.853  30.424  58.402  1.00  0.00    -0.342 N 
ATOM      5  H   UNL     1      57.955  30.495  59.044  1.00  0.00     0.164 HD
ATOM      6  O   UNL     1      59.688  30.480  56.235  1.00  0.00    -0.273 OA
BRANCH   4   7
ATOM      7  C   UNL     1      60.126  30.452  59.124  1.00  0.00     0.175 C 
BRANCH   7   8
ATOM      8  C   UNL     1      60.025  29.481  60.257  1.00  0.00     0.243 C 
ATOM      9  N   UNL     1      59.279  28.239  60.046  1.00  0.00    -0.342 N 
ATOM     10  H   UNL     1      59.102  27.912  59.026  1.00  0.00     0.164 HD
ATOM     11  O   UNL     1      60.378  29.831  61.441  1.00  0.00    -0.273 OA
BRANCH   9  12
ATOM     12  C   UNL     1      59.095  27.206  61.061  1.00  0.00     0.174 CG0
ATOM     13  G   UNL     1      57.722  26.657  60.977  1.00  0.00     0.000 G0
BRANCH  12  14
ATOM     14  C   UNL     1      60.221  26.125  61.089  1.00  0.00     0.018 C 
ATOM     15  C   UNL     1      60.900  25.859  59.700  1.00  0.00     0.010 C 
BRANCH  14  16
ATOM     16  C   UNL     1      61.335  26.414  62.149  1.00  0.00     0.002 C 
ATOM     17  C   UNL     1      62.581  26.942  61.411  1.00  0.00     0.004 C 
ENDBRANCH  14  16
ENDBRANCH  12  14
ENDBRANCH   9  12
ENDBRANCH   7   8
BRANCH   7  18
ATOM     18  C   UNL     1      60.348  31.853  59.668  1.00  0.00     0.073 C 
BRANCH  18  19
ATOM     19  C   UNL     1      61.792  32.265  59.637  1.00  0.00    -0.016 A 
ATOM     20  C   UNL     1      62.891  31.458  59.290  1.00  0.00     0.134 A 
ATOM     21  C   UNL     1      62.315  33.441  60.062  1.00  0.00     0.006 A 
ATOM     22  N   UNL     1      64.027  32.085  59.550  1.00  0.00    -0.191 N 
ATOM     23  C   UNL     1      63.710  33.329  60.012  1.00  0.00     0.087 A 
ATOM     24  C   UNL     1      61.672  34.570  60.590  1.00  0.00     0.011 A 
ATOM     25  C   UNL     1      64.507  34.359  60.532  1.00  0.00     0.030 A 
ATOM     26  C   UNL     1      62.459  35.628  61.000  1.00  0.00     0.001 A 
ATOM     27  C   UNL     1      63.864  35.526  60.987  1.00  0.00     0.002 A 
BRANCH  22  28
ATOM     28  O   UNL     1      65.290  31.449  59.417  1.00  0.00    -0.417 OA
ATOM     29  C   UNL     1      65.579  30.097  59.703  1.00  0.00     0.313 C 
ENDBRANCH  22  28
ENDBRANCH  18  19
ENDBRANCH   7  18
ENDBRANCH   4   7
ENDBRANCH   2   3
BRANCH   2  30
ATOM     30  N   UNL     1      57.351  28.022  57.231  1.00  0.00    -0.343 N 
ATOM     31  C   UNL     1      56.367  28.108  58.297  1.00  0.00     0.243 C 
ATOM     32  H   UNL     1      57.694  27.031  56.857  1.00  0.00     0.164 HD
ATOM     33  O   UNL     1      55.769  29.186  58.646  1.00  0.00    -0.273 OA
BRANCH  31  34
ATOM     34  C   UNL     1      56.009  26.933  59.129  1.00  0.00     0.174 C 
ATOM     35  N   UNL     1      57.191  26.248  59.666  1.00  0.00    -0.329 N 
ATOM     36  C   UNL     1      54.844  26.105  58.524  1.00  0.00     0.035 C 
ATOM     37  C   UNL     1      57.355  24.820  59.389  1.00  0.00     0.120 C 
ATOM     38  C   UNL     1      55.163  24.621  58.282  1.00  0.00     0.004 C 
ATOM     39  C   UNL     1      55.946  24.126  59.537  1.00  0.00     0.022 C 
BRANCH  35  40
ATOM     40  C   UNL     1      57.693  26.684  60.980  1.00  0.00     0.246 CG0
ATOM     41  O   UNL     1      56.906  26.970  61.964  1.00  0.00    -0.272 OA
ATOM     42  G   UNL     1      59.079  27.201  61.034  1.00  0.00     0.000 G0
ENDBRANCH  35  40
ENDBRANCH  31  34
ENDBRANCH   2  30
ENDBRANCH   1   2
BRANCH   1  43
ATOM     43  C   UNL     1      57.065  27.682  54.461  1.00  0.00     0.003 C 
BRANCH  43  44
ATOM     44  C   UNL     1      57.466  27.423  52.984  1.00  0.00     0.001 C 
BRANCH  44  45
ATOM     45  C   UNL     1      57.087  28.584  52.071  1.00  0.00     0.008 C 
BRANCH  45  46
ATOM     46  C   UNL     1      56.986  28.152  50.614  1.00  0.00     0.075 C 
BRANCH  46  47
ATOM     47  C   UNL     1      55.653  27.560  50.224  1.00  0.00     0.132 C 
ATOM     48  O   UNL     1      55.603  26.434  49.783  1.00  0.00    -0.300 OA
BRANCH  47  49
ATOM     49  C   UNL     1      54.372  28.344  50.341  1.00  0.00     0.072 C 
ATOM     50  C   UNL     1      53.630  28.078  51.657  1.00  0.00     0.012 C 
ENDBRANCH  47  49
ENDBRANCH  46  47
ENDBRANCH  45  46
ENDBRANCH  44  45
ENDBRANCH  43  44
ENDBRANCH   1  43
TORSDOF 12
ENDMDL
MODEL 4
REMARK VINA RESULT:    -3.199      1.921      4.015
REMARK INTER + INTRA:         -11.463
REMARK INTER:                  -8.156
REMARK INTRA:                  -3.306
REMARK UNBOUND:                -4.710
REMARK SMILES CCC(=O)CCCCC[C@H]1NC(=O)[C@H]2CCCCN2C(=O)[C@@H]([C@@H](C)CC)NC(=O)[C@H](Cc2cn(OC)c3ccccc23)NC1=O
REMARK SMILES IDX 9 1 10 2 44 3 43 4 45 6 30 7 28 8 27 9 29 11 22 12 23 14
REMARK SMILES IDX 24 15 25 16 26 17 31 18 32 19 33 20 42 21 34 22 37 23 41 24
REMARK SMILES IDX 38 25 40 26 39 27 35 28 36 29 11 30 12 31 13 33 14 34 19 35
REMARK SMILES IDX 15 36 18 37 16 38 17 39 20 40 21 41 8 43 7 44 6 45 5 46 3 47
REMARK SMILES IDX 4 48 2 49 1 50
REMARK H PARENT 43 5 27 10 11 32
REMARK Flexibility Score: 80.00
ROOT
ATOM      1  C   UNL     1      61.444  31.123  53.182  1.00  0.00     0.035 C 
ENDROOT
BRANCH   1   2
ATOM      2  C   UNL     1      61.934  31.233  51.763  1.00  0.00     0.171 C 
BRANCH   2   3
ATOM      3  C   UNL     1      62.516  29.929  51.256  1.00  0.00     0.243 C 
ATOM      4  N   UNL     1      62.841  29.726  49.874  1.00  0.00    -0.342 N 
ATOM      5  H   UNL     1      62.393  30.332  49.063  1.00  0.00     0.164 HD
ATOM      6  O   UNL     1      62.613  28.937  52.046  1.00  0.00    -0.273 OA
BRANCH   4   7
ATOM      7  C   UNL     1      63.991  28.917  49.469  1.00  0.00     0.175 C 
BRANCH   7   8
ATOM      8  C   UNL     1      64.866  29.771  48.608  1.00  0.00     0.243 C 
ATOM      9  N   UNL     1      65.509  30.940  49.212  1.00  0.00    -0.342 N 
ATOM     10  H   UNL     1      65.600  30.977  50.293  1.00  0.00     0.164 HD
ATOM     11  O   UNL     1      64.864  29.619  47.334  1.00  0.00    -0.273 OA
BRANCH   9  12
ATOM     12  C   UNL     1      66.383  31.862  48.492  1.00  0.00     0.174 CG0
ATOM     13  G   UNL     1      65.966  33.258  48.756  1.00  0.00     0.000 G0
BRANCH  12  14
ATOM     14  C   UNL     1      67.907  31.595  48.696  1.00  0.00     0.018 C 
ATOM     15  C   UNL     1      68.293  31.099  50.134  1.00  0.00     0.010 C 
BRANCH  14  16
ATOM     16  C   UNL     1      68.512  30.609  47.643  1.00  0.00     0.002 C 
ATOM     17  C   UNL     1      67.904  30.936  46.265  1.00  0.00     0.004 C 
ENDBRANCH  14  16
ENDBRANCH  12  14
ENDBRANCH   9  12
ENDBRANCH   7   8
BRANCH   7  18
ATOM     18  C   UNL     1      63.492  27.724  48.670  1.00  0.00     0.073 C 
BRANCH  18  19
ATOM     19  C   UNL     1      62.942  26.632  49.541  1.00  0.00    -0.016 A 
ATOM     20  C   UNL     1      63.669  25.587  50.141  1.00  0.00     0.134 A 
ATOM     21  C   UNL     1      61.638  26.372  49.800  1.00  0.00     0.006 A 
ATOM     22  N   UNL     1      62.847  24.702  50.683  1.00  0.00    -0.191 N 
ATOM     23  C   UNL     1      61.576  25.166  50.509  1.00  0.00     0.087 A 
ATOM     24  C   UNL     1      60.487  27.052  49.375  1.00  0.00     0.011 A 
ATOM     25  C   UNL     1      60.329  24.588  50.785  1.00  0.00     0.030 A 
ATOM     26  C   UNL     1      59.260  26.537  49.744  1.00  0.00     0.001 A 
ATOM     27  C   UNL     1      59.173  25.309  50.431  1.00  0.00     0.002 A 
BRANCH  22  28
ATOM     28  O   UNL     1      63.310  23.481  51.242  1.00  0.00    -0.417 OA
ATOM     29  C   UNL     1      64.653  23.148  51.524  1.00  0.00     0.313 C 
ENDBRANCH  22  28
ENDBRANCH  18  19
ENDBRANCH   7  18
ENDBRANCH   4   7
ENDBRANCH   2   3
BRANCH   2  30
ATOM     30  N   UNL     1      62.935  32.351  51.663  1.00  0.00    -0.343 N 
ATOM     31  C   UNL     1      63.091  32.965  50.354  1.00  0.00     0.243 C 
ATOM     32  H   UNL     1      63.339  32.849  52.573  1.00  0.00     0.164 HD
ATOM     33  O   UNL     1      62.489  32.573  49.293  1.00  0.00    -0.273 OA
BRANCH  31  34
ATOM     34  C   UNL     1      64.031  34.088  50.125  1.00  0.00     0.174 C 
ATOM     35  N   UNL     1      65.428  33.642  50.051  1.00  0.00    -0.329 N 
ATOM     36  C   UNL     1      63.666  35.352  50.948  1.00  0.00     0.035 C 
ATOM     37  C   UNL     1      66.402  34.249  50.961  1.00  0.00     0.120 C 
ATOM     38  C   UNL     1      64.785  35.874  51.864  1.00  0.00     0.004 C 
ATOM     39  C   UNL     1      66.106  35.797  51.037  1.00  0.00     0.022 C 
BRANCH  35  40
ATOM     40  C   UNL     1      65.961  33.282  48.727  1.00  0.00     0.246 CG0
ATOM     41  O   UNL     1      65.751  34.004  47.675  1.00  0.00    -0.272 OA
ATOM     42  G   UNL     1      66.373  31.875  48.526  1.00  0.00     0.000 G0
ENDBRANCH  35  40
ENDBRANCH  31  34
ENDBRANCH   2  30
ENDBRANCH   1   2
BRANCH   1  43
ATOM     43  C   UNL     1      59.961  30.703  53.389  1.00  0.00     0.003 C 
BRANCH  43  44
ATOM     44  C   UNL     1      59.403  30.072  52.086  1.00  0.00     0.001 C 
BRANCH  44  45
ATOM     45  C   UNL     1      57.902  30.292  51.935  1.00  0.00     0.008 C 
BRANCH  45  46
ATOM     46  C   UNL     1      57.099  29.088  52.409  1.00  0.00     0.075 C 
BRANCH  46  47
ATOM     47  C   UNL     1      56.332  28.373  51.323  1.00  0.00     0.132 C 
ATOM     48  O   UNL     1      56.541  28.647  50.162  1.00  0.00    -0.300 OA
BRANCH  47  49
ATOM     49  C   UNL     1      55.285  27.338  51.640  1.00  0.00     0.072 C 
ATOM     50  C   UNL     1      55.638  25.948  51.095  1.00  0.00     0.012 C 
ENDBRANCH  47  49
ENDBRANCH  46  47
ENDBRANCH  45  46
ENDBRANCH  44  45
ENDBRANCH  43  44
ENDBRANCH   1  43
TORSDOF 12
ENDMDL
MODEL 5
REMARK VINA RESULT:    -3.196      8.494     12.264
REMARK INTER + INTRA:         -11.456
REMARK INTER:                  -8.394
REMARK INTRA:                  -3.062
REMARK UNBOUND:                -4.710
REMARK SMILES CCC(=O)CCCCC[C@H]1NC(=O)[C@H]2CCCCN2C(=O)[C@@H]([C@@H](C)CC)NC(=O)[C@H](Cc2cn(OC)c3ccccc23)NC1=O
REMARK SMILES IDX 9 1 10 2 44 3 43 4 45 6 30 7 28 8 27 9 29 11 22 12 23 14
REMARK SMILES IDX 24 15 25 16 26 17 31 18 32 19 33 20 42 21 34 22 37 23 41 24
REMARK SMILES IDX 38 25 40 26 39 27 35 28 36 29 11 30 12 31 13 33 14 34 19 35
REMARK SMILES IDX 15 36 18 37 16 38 17 39 20 40 21 41 8 43 7 44 6 45 5 46 3 47
REMARK SMILES IDX 4 48 2 49 1 50
REMARK H PARENT 43 5 27 10 11 32
REMARK Flexibility Score: 80.00
ROOT
ATOM      1  C   UNL     1      62.115  30.349  61.869  1.00  0.00     0.035 C 
ENDROOT
BRANCH   1   2
ATOM      2  C   UNL     1      62.271  28.861  61.701  1.00  0.00     0.171 C 
BRANCH   2   3
ATOM      3  C   UNL     1      63.444  28.506  60.810  1.00  0.00     0.243 C 
ATOM      4  N   UNL     1      63.894  27.154  60.645  1.00  0.00    -0.342 N 
ATOM      5  H   UNL     1      63.667  26.359  61.380  1.00  0.00     0.164 HD
ATOM      6  O   UNL     1      64.132  29.435  60.280  1.00  0.00    -0.273 OA
BRANCH   4   7
ATOM      7  C   UNL     1      64.423  26.674  59.368  1.00  0.00     0.175 C 
BRANCH   7   8
ATOM      8  C   UNL     1      63.538  25.564  58.899  1.00  0.00     0.243 C 
ATOM      9  N   UNL     1      62.178  25.893  58.467  1.00  0.00    -0.342 N 
ATOM     10  H   UNL     1      61.957  26.921  58.197  1.00  0.00     0.164 HD
ATOM     11  O   UNL     1      63.878  24.341  59.091  1.00  0.00    -0.273 OA
BRANCH   9  12
ATOM     12  C   UNL     1      61.205  24.913  57.991  1.00  0.00     0.174 CG0
ATOM     13  G   UNL     1      60.097  24.790  58.965  1.00  0.00     0.000 G0
BRANCH  12  14
ATOM     14  C   UNL     1      60.746  25.129  56.515  1.00  0.00     0.018 C 
ATOM     15  C   UNL     1      61.280  26.448  55.854  1.00  0.00     0.010 C 
BRANCH  14  16
ATOM     16  C   UNL     1      61.080  23.923  55.576  1.00  0.00     0.002 C 
ATOM     17  C   UNL     1      62.613  23.816  55.450  1.00  0.00     0.004 C 
ENDBRANCH  14  16
ENDBRANCH  12  14
ENDBRANCH   9  12
ENDBRANCH   7   8
BRANCH   7  18
ATOM     18  C   UNL     1      65.831  26.148  59.589  1.00  0.00     0.073 C 
BRANCH  18  19
ATOM     19  C   UNL     1      66.862  27.240  59.603  1.00  0.00    -0.016 A 
ATOM     20  C   UNL     1      67.775  27.524  60.636  1.00  0.00     0.134 A 
ATOM     21  C   UNL     1      67.016  28.230  58.690  1.00  0.00     0.006 A 
ATOM     22  N   UNL     1      68.406  28.662  60.397  1.00  0.00    -0.191 N 
ATOM     23  C   UNL     1      67.976  29.120  59.185  1.00  0.00     0.087 A 
ATOM     24  C   UNL     1      66.307  28.473  57.504  1.00  0.00     0.011 A 
ATOM     25  C   UNL     1      68.229  30.318  58.501  1.00  0.00     0.030 A 
ATOM     26  C   UNL     1      66.637  29.599  56.776  1.00  0.00     0.001 A 
ATOM     27  C   UNL     1      67.578  30.525  57.270  1.00  0.00     0.002 A 
BRANCH  22  28
ATOM     28  O   UNL     1      69.288  29.252  61.341  1.00  0.00    -0.417 OA
ATOM     29  C   UNL     1      70.680  29.433  61.184  1.00  0.00     0.313 C 
ENDBRANCH  22  28
ENDBRANCH  18  19
ENDBRANCH   7  18
ENDBRANCH   4   7
ENDBRANCH   2   3
BRANCH   2  30
ATOM     30  N   UNL     1      60.990  28.277  61.174  1.00  0.00    -0.343 N 
ATOM     31  C   UNL     1      60.760  26.868  61.443  1.00  0.00     0.243 C 
ATOM     32  H   UNL     1      60.157  28.930  60.828  1.00  0.00     0.164 HD
ATOM     33  O   UNL     1      61.598  26.097  62.032  1.00  0.00    -0.273 OA
BRANCH  31  34
ATOM     34  C   UNL     1      59.528  26.175  60.994  1.00  0.00     0.174 C 
ATOM     35  N   UNL     1      59.481  26.009  59.536  1.00  0.00    -0.329 N 
ATOM     36  C   UNL     1      58.264  26.648  61.759  1.00  0.00     0.035 C 
ATOM     37  C   UNL     1      58.323  26.535  58.811  1.00  0.00     0.120 C 
ATOM     38  C   UNL     1      57.130  27.181  60.868  1.00  0.00     0.004 C 
ATOM     39  C   UNL     1      57.028  26.209  59.652  1.00  0.00     0.022 C 
BRANCH  35  40
ATOM     40  C   UNL     1      60.055  24.776  58.972  1.00  0.00     0.246 CG0
ATOM     41  O   UNL     1      59.884  23.617  59.518  1.00  0.00    -0.272 OA
ATOM     42  G   UNL     1      61.178  24.930  58.020  1.00  0.00     0.000 G0
ENDBRANCH  35  40
ENDBRANCH  31  34
ENDBRANCH   2  30
ENDBRANCH   1   2
BRANCH   1  43
ATOM     43  C   UNL     1      60.803  30.988  61.333  1.00  0.00     0.003 C 
BRANCH  43  44
ATOM     44  C   UNL     1      61.125  31.964  60.171  1.00  0.00     0.001 C 
BRANCH  44  45
ATOM     45  C   UNL     1      62.080  33.074  60.596  1.00  0.00     0.008 C 
BRANCH  45  46
ATOM     46  C   UNL     1      63.133  33.359  59.533  1.00  0.00     0.075 C 
BRANCH  46  47
ATOM     47  C   UNL     1      64.224  34.307  59.965  1.00  0.00     0.132 C 
ATOM     48  O   UNL     1      64.917  34.845  59.131  1.00  0.00    -0.300 OA
BRANCH  47  49
ATOM     49  C   UNL     1      64.500  34.589  61.419  1.00  0.00     0.072 C 
ATOM     50  C   UNL     1      64.485  36.088  61.748  1.00  0.00     0.012 C 
ENDBRANCH  47  49
ENDBRANCH  46  47
ENDBRANCH  45  46
ENDBRANCH  44  45
ENDBRANCH  43  44
ENDBRANCH   1  43
TORSDOF 12
ENDMDL
MODEL 6
REMARK VINA RESULT:    -3.063     10.431     15.109
REMARK INTER + INTRA:         -11.174
REMARK INTER:                  -7.268
REMARK INTRA:                  -3.907
REMARK UNBOUND:                -4.710
REMARK SMILES CCC(=O)CCCCC[C@H]1NC(=O)[C@H]2CCCCN2C(=O)[C@@H]([C@@H](C)CC)NC(=O)[C@H](Cc2cn(OC)c3ccccc23)NC1=O
REMARK SMILES IDX 9 1 10 2 44 3 43 4 45 6 30 7 28 8 27 9 29 11 22 12 23 14
REMARK SMILES IDX 24 15 25 16 26 17 31 18 32 19 33 20 42 21 34 22 37 23 41 24
REMARK SMILES IDX 38 25 40 26 39 27 35 28 36 29 11 30 12 31 13 33 14 34 19 35
REMARK SMILES IDX 15 36 18 37 16 38 17 39 20 40 21 41 8 43 7 44 6 45 5 46 3 47
REMARK SMILES IDX 4 48 2 49 1 50
REMARK H PARENT 43 5 27 10 11 32
REMARK Flexibility Score: 80.00
ROOT
ATOM      1  C   UNL     1      57.502  28.505  58.551  1.00  0.00     0.035 C 
ENDROOT
BRANCH   1   2
ATOM      2  C   UNL     1      57.631  27.937  59.939  1.00  0.00     0.171 C 
BRANCH   2   3
ATOM      3  C   UNL     1      59.067  27.606  60.290  1.00  0.00     0.243 C 
ATOM      4  N   UNL     1      59.456  27.206  61.611  1.00  0.00    -0.342 N 
ATOM      5  H   UNL     1      58.846  27.437  62.505  1.00  0.00     0.164 HD
ATOM      6  O   UNL     1      59.983  27.797  59.428  1.00  0.00    -0.273 OA
BRANCH   4   7
ATOM      7  C   UNL     1      60.519  26.225  61.833  1.00  0.00     0.175 C 
BRANCH   7   8
ATOM      8  C   UNL     1      59.983  25.175  62.753  1.00  0.00     0.243 C 
ATOM      9  N   UNL     1      58.684  24.575  62.443  1.00  0.00    -0.342 N 
ATOM     10  H   UNL     1      58.306  24.659  61.430  1.00  0.00     0.164 HD
ATOM     11  O   UNL     1      60.531  24.980  63.897  1.00  0.00    -0.273 OA
BRANCH   9  12
ATOM     12  C   UNL     1      58.038  23.546  63.254  1.00  0.00     0.174 CG0
ATOM     13  G   UNL     1      56.569  23.616  63.079  1.00  0.00     0.000 G0
BRANCH  12  14
ATOM     14  C   UNL     1      58.641  22.117  63.078  1.00  0.00     0.018 C 
ATOM     15  C   UNL     1      59.347  21.876  61.697  1.00  0.00     0.010 C 
BRANCH  14  16
ATOM     16  C   UNL     1      59.623  21.710  64.225  1.00  0.00     0.002 C 
ATOM     17  C   UNL     1      59.150  20.367  64.815  1.00  0.00     0.004 C 
ENDBRANCH  14  16
ENDBRANCH  12  14
ENDBRANCH   9  12
ENDBRANCH   7   8
BRANCH   7  18
ATOM     18  C   UNL     1      61.701  26.923  62.484  1.00  0.00     0.073 C 
BRANCH  18  19
ATOM     19  C   UNL     1      62.749  27.337  61.491  1.00  0.00    -0.016 A 
ATOM     20  C   UNL     1      63.643  26.491  60.809  1.00  0.00     0.134 A 
ATOM     21  C   UNL     1      63.117  28.601  61.171  1.00  0.00     0.006 A 
ATOM     22  N   UNL     1      64.549  27.203  60.158  1.00  0.00    -0.191 N 
ATOM     23  C   UNL     1      64.242  28.519  60.342  1.00  0.00     0.087 A 
ATOM     24  C   UNL     1      62.610  29.826  61.630  1.00  0.00     0.011 A 
ATOM     25  C   UNL     1      64.918  29.692  59.973  1.00  0.00     0.030 A 
ATOM     26  C   UNL     1      63.211  30.983  61.176  1.00  0.00     0.001 A 
ATOM     27  C   UNL     1      64.363  30.925  60.365  1.00  0.00     0.002 A 
BRANCH  22  28
ATOM     28  O   UNL     1      65.649  26.600  59.491  1.00  0.00    -0.417 OA
ATOM     29  C   UNL     1      67.004  26.674  59.882  1.00  0.00     0.313 C 
ENDBRANCH  22  28
ENDBRANCH  18  19
ENDBRANCH   7  18
ENDBRANCH   4   7
ENDBRANCH   2   3
BRANCH   2  30
ATOM     30  N   UNL     1      56.745  26.729  60.072  1.00  0.00    -0.343 N 
ATOM     31  C   UNL     1      56.222  26.453  61.400  1.00  0.00     0.243 C 
ATOM     32  H   UNL     1      56.309  26.230  59.178  1.00  0.00     0.164 HD
ATOM     33  O   UNL     1      56.519  27.124  62.450  1.00  0.00    -0.273 OA
BRANCH  31  34
ATOM     34  C   UNL     1      55.323  25.304  61.663  1.00  0.00     0.174 C 
ATOM     35  N   UNL     1      56.051  24.031  61.745  1.00  0.00    -0.329 N 
ATOM     36  C   UNL     1      53.998  25.384  60.859  1.00  0.00     0.035 C 
ATOM     37  C   UNL     1      55.647  22.937  60.860  1.00  0.00     0.120 C 
ATOM     38  C   UNL     1      53.706  24.166  59.968  1.00  0.00     0.004 C 
ATOM     39  C   UNL     1      54.070  22.904  60.810  1.00  0.00     0.022 C 
BRANCH  35  40
ATOM     40  C   UNL     1      56.536  23.607  63.069  1.00  0.00     0.246 CG0
ATOM     41  O   UNL     1      55.794  23.652  64.127  1.00  0.00    -0.272 OA
ATOM     42  G   UNL     1      58.002  23.534  63.259  1.00  0.00     0.000 G0
ENDBRANCH  35  40
ENDBRANCH  31  34
ENDBRANCH   2  30
ENDBRANCH   1   2
BRANCH   1  43
ATOM     43  C   UNL     1      56.929  27.566  57.451  1.00  0.00     0.003 C 
BRANCH  43  44
ATOM     44  C   UNL     1      57.465  27.992  56.059  1.00  0.00     0.001 C 
BRANCH  44  45
ATOM     45  C   UNL     1      58.590  27.085  55.571  1.00  0.00     0.008 C 
BRANCH  45  46
ATOM     46  C   UNL     1      58.396  25.644  56.023  1.00  0.00     0.075 C 
BRANCH  46  47
ATOM     47  C   UNL     1      59.560  25.061  56.787  1.00  0.00     0.132 C 
ATOM     48  O   UNL     1      60.634  24.939  56.244  1.00  0.00    -0.300 OA
BRANCH  47  49
ATOM     49  C   UNL     1      59.419  24.597  58.213  1.00  0.00     0.072 C 
ATOM     50  C   UNL     1      58.111  23.835  58.465  1.00  0.00     0.012 C 
ENDBRANCH  47  49
ENDBRANCH  46  47
ENDBRANCH  45  46
ENDBRANCH  44  45
ENDBRANCH  43  44
ENDBRANCH   1  43
TORSDOF 12
ENDMDL
MODEL 7
REMARK VINA RESULT:    -2.971      8.239     12.121
REMARK INTER + INTRA:         -10.981
REMARK INTER:                  -7.869
REMARK INTRA:                  -3.112
REMARK UNBOUND:                -4.710
REMARK SMILES CCC(=O)CCCCC[C@H]1NC(=O)[C@H]2CCCCN2C(=O)[C@@H]([C@@H](C)CC)NC(=O)[C@H](Cc2cn(OC)c3ccccc23)NC1=O
REMARK SMILES IDX 9 1 10 2 44 3 43 4 45 6 30 7 28 8 27 9 29 11 22 12 23 14
REMARK SMILES IDX 24 15 25 16 26 17 31 18 32 19 33 20 42 21 34 22 37 23 41 24
REMARK SMILES IDX 38 25 40 26 39 27 35 28 36 29 11 30 12 31 13 33 14 34 19 35
REMARK SMILES IDX 15 36 18 37 16 38 17 39 20 40 21 41 8 43 7 44 6 45 5 46 3 47
REMARK SMILES IDX 4 48 2 49 1 50
REMARK H PARENT 43 5 27 10 11 32
REMARK Flexibility Score: 80.00
ROOT
ATOM      1  C   UNL     1      62.305  30.960  61.597  1.00  0.00     0.035 C 
ENDROOT
BRANCH   1   2
ATOM      2  C   UNL     1      62.894  29.581  61.470  1.00  0.00     0.171 C 
BRANCH   2   3
ATOM      3  C   UNL     1      64.326  29.614  60.975  1.00  0.00     0.243 C 
ATOM      4  N   UNL     1      65.170  28.454  61.005  1.00  0.00    -0.342 N 
ATOM      5  H   UNL     1      64.975  27.595  61.674  1.00  0.00     0.164 HD
ATOM      6  O   UNL     1      64.845  30.723  60.631  1.00  0.00    -0.273 OA
BRANCH   4   7
ATOM      7  C   UNL     1      66.162  28.202  59.959  1.00  0.00     0.175 C 
BRANCH   7   8
ATOM      8  C   UNL     1      65.926  26.822  59.433  1.00  0.00     0.243 C 
ATOM      9  N   UNL     1      64.636  26.526  58.809  1.00  0.00    -0.342 N 
ATOM     10  H   UNL     1      64.029  27.355  58.460  1.00  0.00     0.164 HD
ATOM     11  O   UNL     1      66.736  25.872  59.731  1.00  0.00    -0.273 OA
BRANCH   9  12
ATOM     12  C   UNL     1      64.267  25.224  58.258  1.00  0.00     0.174 CG0
ATOM     13  G   UNL     1      62.831  24.962  58.507  1.00  0.00     0.000 G0
BRANCH  12  14
ATOM     14  C   UNL     1      64.717  25.001  56.781  1.00  0.00     0.018 C 
ATOM     15  C   UNL     1      64.472  26.228  55.834  1.00  0.00     0.010 C 
BRANCH  14  16
ATOM     16  C   UNL     1      66.209  24.550  56.646  1.00  0.00     0.002 C 
ATOM     17  C   UNL     1      66.986  25.657  55.906  1.00  0.00     0.004 C 
ENDBRANCH  14  16
ENDBRANCH  12  14
ENDBRANCH   9  12
ENDBRANCH   7   8
BRANCH   7  18
ATOM     18  C   UNL     1      67.550  28.288  60.571  1.00  0.00     0.073 C 
BRANCH  18  19
ATOM     19  C   UNL     1      68.424  29.299  59.886  1.00  0.00    -0.016 A 
ATOM     20  C   UNL     1      68.159  29.956  58.670  1.00  0.00     0.134 A 
ATOM     21  C   UNL     1      69.681  29.663  60.237  1.00  0.00     0.006 A 
ATOM     22  N   UNL     1      69.221  30.635  58.268  1.00  0.00    -0.191 N 
ATOM     23  C   UNL     1      70.182  30.494  59.227  1.00  0.00     0.087 A 
ATOM     24  C   UNL     1      70.466  29.243  61.321  1.00  0.00     0.011 A 
ATOM     25  C   UNL     1      71.522  30.905  59.268  1.00  0.00     0.030 A 
ATOM     26  C   UNL     1      71.752  29.738  61.416  1.00  0.00     0.001 A 
ATOM     27  C   UNL     1      72.287  30.551  60.396  1.00  0.00     0.002 A 
BRANCH  22  28
ATOM     28  O   UNL     1      69.272  31.286  57.007  1.00  0.00    -0.417 OA
ATOM     29  C   UNL     1      70.003  32.453  56.698  1.00  0.00     0.313 C 
ENDBRANCH  22  28
ENDBRANCH  18  19
ENDBRANCH   7  18
ENDBRANCH   4   7
ENDBRANCH   2   3
BRANCH   2  30
ATOM     30  N   UNL     1      62.027  28.745  60.571  1.00  0.00    -0.343 N 
ATOM     31  C   UNL     1      62.112  27.304  60.744  1.00  0.00     0.243 C 
ATOM     32  H   UNL     1      61.189  29.196  59.993  1.00  0.00     0.164 HD
ATOM     33  O   UNL     1      62.914  26.718  61.553  1.00  0.00    -0.273 OA
BRANCH  31  34
ATOM     34  C   UNL     1      61.296  26.368  59.933  1.00  0.00     0.174 C 
ATOM     35  N   UNL     1      61.903  26.084  58.627  1.00  0.00    -0.329 N 
ATOM     36  C   UNL     1      59.775  26.662  60.030  1.00  0.00     0.035 C 
ATOM     37  C   UNL     1      61.113  26.336  57.420  1.00  0.00     0.120 C 
ATOM     38  C   UNL     1      59.077  26.913  58.683  1.00  0.00     0.004 C 
ATOM     39  C   UNL     1      59.637  25.848  57.690  1.00  0.00     0.022 C 
BRANCH  35  40
ATOM     40  C   UNL     1      62.820  24.936  58.536  1.00  0.00     0.246 CG0
ATOM     41  O   UNL     1      62.530  23.776  59.029  1.00  0.00    -0.272 OA
ATOM     42  G   UNL     1      64.244  25.230  58.257  1.00  0.00     0.000 G0
ENDBRANCH  35  40
ENDBRANCH  31  34
ENDBRANCH   2  30
ENDBRANCH   1   2
BRANCH   1  43
ATOM     43  C   UNL     1      61.113  31.311  60.663  1.00  0.00     0.003 C 
BRANCH  43  44
ATOM     44  C   UNL     1      61.329  32.711  60.031  1.00  0.00     0.001 C 
BRANCH  44  45
ATOM     45  C   UNL     1      62.322  32.676  58.874  1.00  0.00     0.008 C 
BRANCH  45  46
ATOM     46  C   UNL     1      62.591  34.066  58.313  1.00  0.00     0.075 C 
BRANCH  46  47
ATOM     47  C   UNL     1      63.558  34.896  59.122  1.00  0.00     0.132 C 
ATOM     48  O   UNL     1      63.564  36.100  58.999  1.00  0.00    -0.300 OA
BRANCH  47  49
ATOM     49  C   UNL     1      64.546  34.265  60.068  1.00  0.00     0.072 C 
ATOM     50  C   UNL     1      64.496  34.875  61.475  1.00  0.00     0.012 C 
ENDBRANCH  47  49
ENDBRANCH  46  47
ENDBRANCH  45  46
ENDBRANCH  44  45
ENDBRANCH  43  44
ENDBRANCH   1  43
TORSDOF 12
ENDMDL
MODEL 8
REMARK VINA RESULT:    -2.837      5.314      9.818
REMARK INTER + INTRA:         -10.699
REMARK INTER:                  -7.639
REMARK INTRA:                  -3.060
REMARK UNBOUND:                -4.710
REMARK SMILES CCC(=O)CCCCC[C@H]1NC(=O)[C@H]2CCCCN2C(=O)[C@@H]([C@@H](C)CC)NC(=O)[C@H](Cc2cn(OC)c3ccccc23)NC1=O
REMARK SMILES IDX 9 1 10 2 44 3 43 4 45 6 30 7 28 8 27 9 29 11 22 12 23 14
REMARK SMILES IDX 24 15 25 16 26 17 31 18 32 19 33 20 42 21 34 22 37 23 41 24
REMARK SMILES IDX 38 25 40 26 39 27 35 28 36 29 11 30 12 31 13 33 14 34 19 35
REMARK SMILES IDX 15 36 18 37 16 38 17 39 20 40 21 41 8 43 7 44 6 45 5 46 3 47
REMARK SMILES IDX 4 48 2 49 1 50
REMARK H PARENT 43 5 27 10 11 32
REMARK Flexibility Score: 80.00
ROOT
ATOM      1  C   UNL     1      61.354  32.873  52.650  1.00  0.00     0.035 C 
ENDROOT
BRANCH   1   2
ATOM      2  C   UNL     1      60.127  32.081  53.013  1.00  0.00     0.171 C 
BRANCH   2   3
ATOM      3  C   UNL     1      60.102  31.705  54.481  1.00  0.00     0.243 C 
ATOM      4  N   UNL     1      58.935  31.156  55.107  1.00  0.00    -0.342 N 
ATOM      5  H   UNL     1      57.919  31.285  54.687  1.00  0.00     0.164 HD
ATOM      6  O   UNL     1      61.099  31.990  55.218  1.00  0.00    -0.273 OA
BRANCH   4   7
ATOM      7  C   UNL     1      59.036  30.151  56.166  1.00  0.00     0.175 C 
BRANCH   7   8
ATOM      8  C   UNL     1      58.150  29.006  55.792  1.00  0.00     0.243 C 
ATOM      9  N   UNL     1      58.427  28.290  54.545  1.00  0.00    -0.342 N 
ATOM     10  H   UNL     1      59.414  28.386  54.104  1.00  0.00     0.164 HD
ATOM     11  O   UNL     1      57.048  28.811  56.420  1.00  0.00    -0.273 OA
BRANCH   9  12
ATOM     12  C   UNL     1      57.643  27.160  54.053  1.00  0.00     0.174 CG0
ATOM     13  G   UNL     1      57.596  27.187  52.574  1.00  0.00     0.000 G0
BRANCH  12  14
ATOM     14  C   UNL     1      58.054  25.782  54.660  1.00  0.00     0.018 C 
ATOM     15  C   UNL     1      59.522  25.725  55.210  1.00  0.00     0.010 C 
BRANCH  14  16
ATOM     16  C   UNL     1      57.078  25.276  55.773  1.00  0.00     0.002 C 
ATOM     17  C   UNL     1      55.647  25.709  55.398  1.00  0.00     0.004 C 
ENDBRANCH  14  16
ENDBRANCH  12  14
ENDBRANCH   9  12
ENDBRANCH   7   8
BRANCH   7  18
ATOM     18  C   UNL     1      58.556  30.766  57.470  1.00  0.00     0.073 C 
BRANCH  18  19
ATOM     19  C   UNL     1      59.650  30.888  58.491  1.00  0.00    -0.016 A 
ATOM     20  C   UNL     1      60.071  29.898  59.398  1.00  0.00     0.134 A 
ATOM     21  C   UNL     1      60.340  32.008  58.820  1.00  0.00     0.006 A 
ATOM     22  N   UNL     1      60.924  30.403  60.274  1.00  0.00    -0.191 N 
ATOM     23  C   UNL     1      61.133  31.708  59.934  1.00  0.00     0.087 A 
ATOM     24  C   UNL     1      60.254  33.302  58.286  1.00  0.00     0.011 A 
ATOM     25  C   UNL     1      61.849  32.732  60.570  1.00  0.00     0.030 A 
ATOM     26  C   UNL     1      61.045  34.285  58.848  1.00  0.00     0.001 A 
ATOM     27  C   UNL     1      61.827  34.014  59.988  1.00  0.00     0.002 A 
BRANCH  22  28
ATOM     28  O   UNL     1      61.407  29.654  61.380  1.00  0.00    -0.417 OA
ATOM     29  C   UNL     1      62.751  29.300  61.626  1.00  0.00     0.313 C 
ENDBRANCH  22  28
ENDBRANCH  18  19
ENDBRANCH   7  18
ENDBRANCH   4   7
ENDBRANCH   2   3
BRANCH   2  30
ATOM     30  N   UNL     1      60.039  30.861  52.137  1.00  0.00    -0.343 N 
ATOM     31  C   UNL     1      58.723  30.264  51.988  1.00  0.00     0.243 C 
ATOM     32  H   UNL     1      60.867  30.585  51.446  1.00  0.00     0.164 HD
ATOM     33  O   UNL     1      57.670  30.668  52.598  1.00  0.00    -0.273 OA
BRANCH  31  34
ATOM     34  C   UNL     1      58.497  29.070  51.138  1.00  0.00     0.174 C 
ATOM     35  N   UNL     1      58.737  27.815  51.863  1.00  0.00    -0.329 N 
ATOM     36  C   UNL     1      59.046  29.248  49.698  1.00  0.00     0.035 C 
ATOM     37  C   UNL     1      59.703  26.864  51.309  1.00  0.00     0.120 C 
ATOM     38  C   UNL     1      60.056  28.177  49.254  1.00  0.00     0.004 C 
ATOM     39  C   UNL     1      59.494  26.808  49.746  1.00  0.00     0.022 C 
BRANCH  35  40
ATOM     40  C   UNL     1      57.594  27.201  52.559  1.00  0.00     0.246 CG0
ATOM     41  O   UNL     1      56.439  27.049  51.999  1.00  0.00    -0.272 OA
ATOM     42  G   UNL     1      57.655  27.149  54.037  1.00  0.00     0.000 G0
ENDBRANCH  35  40
ENDBRANCH  31  34
ENDBRANCH   2  30
ENDBRANCH   1   2
BRANCH   1  43
ATOM     43  C   UNL     1      62.710  32.112  52.633  1.00  0.00     0.003 C 
BRANCH  43  44
ATOM     44  C   UNL     1      63.876  33.112  52.412  1.00  0.00     0.001 C 
BRANCH  44  45
ATOM     45  C   UNL     1      63.379  34.526  52.135  1.00  0.00     0.008 C 
BRANCH  45  46
ATOM     46  C   UNL     1      63.848  35.040  50.780  1.00  0.00     0.075 C 
BRANCH  46  47
ATOM     47  C   UNL     1      63.394  34.213  49.602  1.00  0.00     0.132 C 
ATOM     48  O   UNL     1      62.212  34.024  49.422  1.00  0.00    -0.300 OA
BRANCH  47  49
ATOM     49  C   UNL     1      64.376  33.588  48.645  1.00  0.00     0.072 C 
ATOM     50  C   UNL     1      65.039  32.327  49.213  1.00  0.00     0.012 C 
ENDBRANCH  47  49
ENDBRANCH  46  47
ENDBRANCH  45  46
ENDBRANCH  44  45
ENDBRANCH  43  44
ENDBRANCH   1  43
TORSDOF 12
ENDMDL
MODEL 9
REMARK VINA RESULT:    -2.814      6.448      9.281
REMARK INTER + INTRA:         -10.650
REMARK INTER:                  -7.506
REMARK INTRA:                  -3.144
REMARK UNBOUND:                -4.710
REMARK SMILES CCC(=O)CCCCC[C@H]1NC(=O)[C@H]2CCCCN2C(=O)[C@@H]([C@@H](C)CC)NC(=O)[C@H](Cc2cn(OC)c3ccccc23)NC1=O
REMARK SMILES IDX 9 1 10 2 44 3 43 4 45 6 30 7 28 8 27 9 29 11 22 12 23 14
REMARK SMILES IDX 24 15 25 16 26 17 31 18 32 19 33 20 42 21 34 22 37 23 41 24
REMARK SMILES IDX 38 25 40 26 39 27 35 28 36 29 11 30 12 31 13 33 14 34 19 35
REMARK SMILES IDX 15 36 18 37 16 38 17 39 20 40 21 41 8 43 7 44 6 45 5 46 3 47
REMARK SMILES IDX 4 48 2 49 1 50
REMARK H PARENT 43 5 27 10 11 32
REMARK Flexibility Score: 80.00
ROOT
ATOM      1  C   UNL     1      57.750  28.424  58.827  1.00  0.00     0.035 C 
ENDROOT
BRANCH   1   2
ATOM      2  C   UNL     1      58.385  29.702  58.347  1.00  0.00     0.171 C 
BRANCH   2   3
ATOM      3  C   UNL     1      58.555  29.726  56.842  1.00  0.00     0.243 C 
ATOM      4  N   UNL     1      58.926  30.917  56.136  1.00  0.00    -0.342 N 
ATOM      5  H   UNL     1      58.780  31.929  56.559  1.00  0.00     0.164 HD
ATOM      6  O   UNL     1      58.247  28.696  56.160  1.00  0.00    -0.273 OA
BRANCH   4   7
ATOM      7  C   UNL     1      59.783  30.868  54.950  1.00  0.00     0.175 C 
BRANCH   7   8
ATOM      8  C   UNL     1      60.924  31.808  55.175  1.00  0.00     0.243 C 
ATOM      9  N   UNL     1      61.799  31.577  56.326  1.00  0.00    -0.342 N 
ATOM     10  H   UNL     1      61.803  30.592  56.781  1.00  0.00     0.164 HD
ATOM     11  O   UNL     1      60.991  32.910  54.521  1.00  0.00    -0.273 OA
BRANCH   9  12
ATOM     12  C   UNL     1      62.945  32.415  56.670  1.00  0.00     0.174 CG0
ATOM     13  G   UNL     1      63.054  32.536  58.142  1.00  0.00     0.000 G0
BRANCH  12  14
ATOM     14  C   UNL     1      64.273  32.011  55.957  1.00  0.00     0.018 C 
ATOM     15  C   UNL     1      64.207  30.647  55.184  1.00  0.00     0.010 C 
BRANCH  14  16
ATOM     16  C   UNL     1      64.819  33.113  54.989  1.00  0.00     0.002 C 
ATOM     17  C   UNL     1      64.476  32.703  53.543  1.00  0.00     0.004 C 
ENDBRANCH  14  16
ENDBRANCH  12  14
ENDBRANCH   9  12
ENDBRANCH   7   8
BRANCH   7  18
ATOM     18  C   UNL     1      58.975  31.322  53.745  1.00  0.00     0.073 C 
BRANCH  18  19
ATOM     19  C   UNL     1      59.014  30.333  52.615  1.00  0.00    -0.016 A 
ATOM     20  C   UNL     1      60.125  30.010  51.816  1.00  0.00     0.134 A 
ATOM     21  C   UNL     1      57.963  29.672  52.072  1.00  0.00     0.006 A 
ATOM     22  N   UNL     1      59.760  29.244  50.800  1.00  0.00    -0.191 N 
ATOM     23  C   UNL     1      58.426  28.995  50.938  1.00  0.00     0.087 A 
ATOM     24  C   UNL     1      56.607  29.697  52.430  1.00  0.00     0.011 A 
ATOM     25  C   UNL     1      57.511  28.339  50.101  1.00  0.00     0.030 A 
ATOM     26  C   UNL     1      55.724  28.959  51.665  1.00  0.00     0.001 A 
ATOM     27  C   UNL     1      56.163  28.295  50.502  1.00  0.00     0.002 A 
BRANCH  22  28
ATOM     28  O   UNL     1      60.661  28.878  49.765  1.00  0.00    -0.417 OA
ATOM     29  C   UNL     1      61.555  27.785  49.784  1.00  0.00     0.313 C 
ENDBRANCH  22  28
ENDBRANCH  18  19
ENDBRANCH   7  18
ENDBRANCH   4   7
ENDBRANCH   2   3
BRANCH   2  30
ATOM     30  N   UNL     1      59.700  29.903  59.047  1.00  0.00    -0.343 N 
ATOM     31  C   UNL     1      60.170  31.274  59.164  1.00  0.00     0.243 C 
ATOM     32  H   UNL     1      60.159  29.094  59.659  1.00  0.00     0.164 HD
ATOM     33  O   UNL     1      59.574  32.289  58.658  1.00  0.00    -0.273 OA
BRANCH  31  34
ATOM     34  C   UNL     1      61.442  31.610  59.847  1.00  0.00     0.174 C 
ATOM     35  N   UNL     1      62.612  31.405  58.983  1.00  0.00    -0.329 N 
ATOM     36  C   UNL     1      61.477  31.125  61.320  1.00  0.00     0.035 C 
ATOM     37  C   UNL     1      63.682  30.524  59.455  1.00  0.00     0.120 C 
ATOM     38  C   UNL     1      62.655  30.201  61.671  1.00  0.00     0.004 C 
ATOM     39  C   UNL     1      63.916  30.814  60.987  1.00  0.00     0.022 C 
BRANCH  35  40
ATOM     40  C   UNL     1      63.064  32.543  58.166  1.00  0.00     0.246 CG0
ATOM     41  O   UNL     1      63.192  33.736  58.648  1.00  0.00    -0.272 OA
ATOM     42  G   UNL     1      62.960  32.401  56.696  1.00  0.00     0.000 G0
ENDBRANCH  35  40
ENDBRANCH  31  34
ENDBRANCH   2  30
ENDBRANCH   1   2
BRANCH   1  43
ATOM     43  C   UNL     1      58.565  27.561  59.832  1.00  0.00     0.003 C 
BRANCH  43  44
ATOM     44  C   UNL     1      57.651  27.105  61.000  1.00  0.00     0.001 C 
BRANCH  44  45
ATOM     45  C   UNL     1      57.677  25.593  61.196  1.00  0.00     0.008 C 
BRANCH  45  46
ATOM     46  C   UNL     1      58.649  25.177  62.292  1.00  0.00     0.075 C 
BRANCH  46  47
ATOM     47  C   UNL     1      60.097  25.132  61.866  1.00  0.00     0.132 C 
ATOM     48  O   UNL     1      60.415  24.494  60.888  1.00  0.00    -0.300 OA
BRANCH  47  49
ATOM     49  C   UNL     1      61.174  25.843  62.643  1.00  0.00     0.072 C 
ATOM     50  C   UNL     1      62.035  26.760  61.764  1.00  0.00     0.012 C 
ENDBRANCH  47  49
ENDBRANCH  46  47
ENDBRANCH  45  46
ENDBRANCH  44  45
ENDBRANCH  43  44
ENDBRANCH   1  43
TORSDOF 12
ENDMDL
