MODEL 1
REMARK VINA RESULT:    -8.033      0.000      0.000
REMARK INTER + INTRA:         -12.290
REMARK INTER:                 -11.086
REMARK INTRA:                  -1.204
REMARK UNBOUND:                -1.204
REMARK SMILES CC[C@H](CC[C@@H](C)[C@@H]1CC[C@H]2[C@H]3CC=C4C[C@@H](O)CC[C@]4(C)[C@H]3CC[C@@]21C)C(C)C
REMARK SMILES IDX 5 1 4 2 3 3 2 4 1 5 28 6 29 7 30 8 6 9 7 10 8 11 9 12 26 13
REMARK SMILES IDX 10 14 11 15 25 16 27 17 12 18 24 19 23 20 13 21 21 22 14 23
REMARK SMILES IDX 15 24 20 25 22 26 16 27 19 28 17 29 18 30
REMARK H PARENT 18 31
REMARK Flexibility Score: inf
ROOT
ATOM      1  C   UNL     1      -4.493  20.070  47.806  1.00  0.00     0.004 C 
ENDROOT
BRANCH   1   2
ATOM      2  C   UNL     1      -4.224  18.668  48.398  1.00  0.00     0.004 C 
BRANCH   2   3
ATOM      3  C   UNL     1      -3.410  17.689  47.493  1.00  0.00    -0.009 C 
BRANCH   3   4
ATOM      4  C   UNL     1      -3.252  18.167  46.023  1.00  0.00     0.000 C 
ATOM      5  C   UNL     1      -3.238  17.002  45.030  1.00  0.00     0.004 C 
ENDBRANCH   3   4
BRANCH   3   6
ATOM      6  C   UNL     1      -2.070  17.226  48.161  1.00  0.00    -0.014 C 
ATOM      7  C   UNL     1      -0.871  18.088  47.728  1.00  0.00     0.007 C 
ATOM      8  C   UNL     1      -2.125  17.132  49.693  1.00  0.00     0.007 C 
ENDBRANCH   3   6
ENDBRANCH   2   3
ENDBRANCH   1   2
BRANCH   1   9
ATOM      9  C   UNL     1      -4.031  21.265  48.687  1.00  0.00    -0.011 C 
ATOM     10  C   UNL     1      -2.503  21.245  48.903  1.00  0.00     0.008 C 
BRANCH   9  11
ATOM     11  C   UNL     1      -4.660  22.644  48.247  1.00  0.00    -0.002 C 
ATOM     12  C   UNL     1      -4.042  23.300  46.970  1.00  0.00     0.005 C 
ATOM     13  C   UNL     1      -4.683  23.805  49.315  1.00  0.00    -0.026 C 
ATOM     14  C   UNL     1      -3.543  24.700  47.352  1.00  0.00     0.005 C 
ATOM     15  C   UNL     1      -3.477  24.647  48.863  1.00  0.00    -0.001 C 
ATOM     16  C   UNL     1      -4.462  23.452  50.812  1.00  0.00     0.007 C 
ATOM     17  C   UNL     1      -6.073  24.512  49.167  1.00  0.00     0.012 C 
ATOM     18  C   UNL     1      -3.163  25.931  49.665  1.00  0.00     0.000 C 
ATOM     19  C   UNL     1      -4.201  24.713  51.682  1.00  0.00     0.005 C 
ATOM     20  C   UNL     1      -3.000  25.577  51.170  1.00  0.00     0.003 C 
ATOM     21  C   UNL     1      -4.140  27.098  49.483  1.00  0.00     0.031 C 
ATOM     22  C   UNL     1      -2.606  26.855  52.048  1.00  0.00    -0.008 C 
ATOM     23  C   UNL     1      -3.637  28.295  50.217  1.00  0.00    -0.027 C 
ATOM     24  C   UNL     1      -2.989  28.203  51.396  1.00  0.00    -0.065 C 
ATOM     25  C   UNL     1      -1.051  26.859  52.205  1.00  0.00     0.014 C 
ATOM     26  C   UNL     1      -3.249  26.790  53.460  1.00  0.00     0.016 C 
ATOM     27  C   UNL     1      -2.447  29.474  52.020  1.00  0.00     0.063 C 
ATOM     28  C   UNL     1      -0.477  28.133  52.857  1.00  0.00     0.033 C 
ATOM     29  C   UNL     1      -0.918  29.398  52.107  1.00  0.00     0.118 C 
BRANCH  29  30
ATOM     30  O   UNL     1      -0.423  30.526  52.781  1.00  0.00    -0.393 OA
ATOM     31  H   UNL     1      -1.110  31.237  52.692  1.00  0.00     0.210 HD
ENDBRANCH  29  30
ENDBRANCH   9  11
ENDBRANCH   1   9
TORSDOF 7
ENDMDL
MODEL 2
REMARK VINA RESULT:    -7.984      3.354      8.476
REMARK INTER + INTRA:         -12.223
REMARK INTER:                  -9.961
REMARK INTRA:                  -2.262
REMARK UNBOUND:                -1.204
REMARK SMILES CC[C@H](CC[C@@H](C)[C@@H]1CC[C@H]2[C@H]3CC=C4C[C@@H](O)CC[C@]4(C)[C@H]3CC[C@@]21C)C(C)C
REMARK SMILES IDX 5 1 4 2 3 3 2 4 1 5 28 6 29 7 30 8 6 9 7 10 8 11 9 12 26 13
REMARK SMILES IDX 10 14 11 15 25 16 27 17 12 18 24 19 23 20 13 21 21 22 14 23
REMARK SMILES IDX 15 24 20 25 22 26 16 27 19 28 17 29 18 30
REMARK H PARENT 18 31
REMARK Flexibility Score: inf
ROOT
ATOM      1  C   UNL     1      -3.916  28.398  49.162  1.00  0.00     0.004 C 
ENDROOT
BRANCH   1   2
ATOM      2  C   UNL     1      -5.460  28.465  49.156  1.00  0.00     0.004 C 
BRANCH   2   3
ATOM      3  C   UNL     1      -6.142  28.383  47.753  1.00  0.00    -0.009 C 
BRANCH   3   4
ATOM      4  C   UNL     1      -5.193  27.920  46.613  1.00  0.00     0.000 C 
ATOM      5  C   UNL     1      -5.797  26.790  45.775  1.00  0.00     0.004 C 
ENDBRANCH   3   4
BRANCH   3   6
ATOM      6  C   UNL     1      -7.511  27.622  47.793  1.00  0.00    -0.014 C 
ATOM      7  C   UNL     1      -7.828  27.061  49.191  1.00  0.00     0.007 C 
ATOM      8  C   UNL     1      -8.704  28.434  47.268  1.00  0.00     0.007 C 
ENDBRANCH   3   6
ENDBRANCH   2   3
ENDBRANCH   1   2
BRANCH   1   9
ATOM      9  C   UNL     1      -3.306  27.125  49.812  1.00  0.00    -0.011 C 
ATOM     10  C   UNL     1      -2.476  27.477  51.065  1.00  0.00     0.008 C 
BRANCH   9  11
ATOM     11  C   UNL     1      -4.343  25.945  49.965  1.00  0.00    -0.002 C 
ATOM     12  C   UNL     1      -4.387  25.252  51.364  1.00  0.00     0.005 C 
ATOM     13  C   UNL     1      -4.244  24.753  48.937  1.00  0.00    -0.026 C 
ATOM     14  C   UNL     1      -4.113  23.756  51.160  1.00  0.00     0.005 C 
ATOM     15  C   UNL     1      -3.501  23.699  49.777  1.00  0.00    -0.001 C 
ATOM     16  C   UNL     1      -3.429  24.956  47.629  1.00  0.00     0.007 C 
ATOM     17  C   UNL     1      -5.715  24.374  48.556  1.00  0.00     0.012 C 
ATOM     18  C   UNL     1      -3.218  22.330  49.117  1.00  0.00     0.000 C 
ATOM     19  C   UNL     1      -3.164  23.616  46.886  1.00  0.00     0.005 C 
ATOM     20  C   UNL     1      -2.453  22.546  47.781  1.00  0.00     0.003 C 
ATOM     21  C   UNL     1      -4.431  21.417  48.908  1.00  0.00     0.031 C 
ATOM     22  C   UNL     1      -2.069  21.161  47.078  1.00  0.00    -0.008 C 
ATOM     23  C   UNL     1      -3.982  20.096  48.381  1.00  0.00    -0.027 C 
ATOM     24  C   UNL     1      -2.952  19.971  47.519  1.00  0.00    -0.065 C 
ATOM     25  C   UNL     1      -0.604  20.810  47.495  1.00  0.00     0.014 C 
ATOM     26  C   UNL     1      -2.132  21.276  45.531  1.00  0.00     0.016 C 
ATOM     27  C   UNL     1      -2.523  18.576  47.106  1.00  0.00     0.063 C 
ATOM     28  C   UNL     1      -0.137  19.404  47.069  1.00  0.00     0.033 C 
ATOM     29  C   UNL     1      -1.089  18.314  47.581  1.00  0.00     0.118 C 
BRANCH  29  30
ATOM     30  O   UNL     1      -0.653  17.065  47.108  1.00  0.00    -0.393 OA
ATOM     31  H   UNL     1      -0.775  16.420  47.851  1.00  0.00     0.210 HD
ENDBRANCH  29  30
ENDBRANCH   9  11
ENDBRANCH   1   9
TORSDOF 7
ENDMDL
MODEL 3
REMARK VINA RESULT:    -7.947      2.170      3.584
REMARK INTER + INTRA:         -12.171
REMARK INTER:                 -10.238
REMARK INTRA:                  -1.933
REMARK UNBOUND:                -1.204
REMARK SMILES CC[C@H](CC[C@@H](C)[C@@H]1CC[C@H]2[C@H]3CC=C4C[C@@H](O)CC[C@]4(C)[C@H]3CC[C@@]21C)C(C)C
REMARK SMILES IDX 5 1 4 2 3 3 2 4 1 5 28 6 29 7 30 8 6 9 7 10 8 11 9 12 26 13
REMARK SMILES IDX 10 14 11 15 25 16 27 17 12 18 24 19 23 20 13 21 21 22 14 23
REMARK SMILES IDX 15 24 20 25 22 26 16 27 19 28 17 29 18 30
REMARK H PARENT 18 31
REMARK Flexibility Score: inf
ROOT
ATOM      1  C   UNL     1      -0.405  19.123  47.260  1.00  0.00     0.004 C 
ENDROOT
BRANCH   1   2
ATOM      2  C   UNL     1      -1.123  17.950  47.967  1.00  0.00     0.004 C 
BRANCH   2   3
ATOM      3  C   UNL     1      -2.268  17.263  47.158  1.00  0.00    -0.009 C 
BRANCH   3   4
ATOM      4  C   UNL     1      -3.697  17.716  47.569  1.00  0.00     0.000 C 
ATOM      5  C   UNL     1      -3.714  18.433  48.921  1.00  0.00     0.004 C 
ENDBRANCH   3   4
BRANCH   3   6
ATOM      6  C   UNL     1      -2.011  17.288  45.612  1.00  0.00    -0.014 C 
ATOM      7  C   UNL     1      -0.936  16.273  45.182  1.00  0.00     0.007 C 
ATOM      8  C   UNL     1      -3.274  17.113  44.756  1.00  0.00     0.007 C 
ENDBRANCH   3   6
ENDBRANCH   2   3
ENDBRANCH   1   2
BRANCH   1   9
ATOM      9  C   UNL     1      -0.902  20.542  47.651  1.00  0.00    -0.011 C 
ATOM     10  C   UNL     1       0.276  21.529  47.797  1.00  0.00     0.008 C 
BRANCH   9  11
ATOM     11  C   UNL     1      -2.127  21.034  46.787  1.00  0.00    -0.002 C 
ATOM     12  C   UNL     1      -1.772  21.759  45.450  1.00  0.00     0.005 C 
ATOM     13  C   UNL     1      -3.174  21.985  47.486  1.00  0.00    -0.026 C 
ATOM     14  C   UNL     1      -2.418  23.152  45.481  1.00  0.00     0.005 C 
ATOM     15  C   UNL     1      -2.733  23.358  46.946  1.00  0.00    -0.001 C 
ATOM     16  C   UNL     1      -3.181  22.082  49.037  1.00  0.00     0.007 C 
ATOM     17  C   UNL     1      -4.588  21.513  47.008  1.00  0.00     0.012 C 
ATOM     18  C   UNL     1      -3.547  24.594  47.392  1.00  0.00     0.000 C 
ATOM     19  C   UNL     1      -4.035  23.275  49.549  1.00  0.00     0.005 C 
ATOM     20  C   UNL     1      -3.597  24.651  48.945  1.00  0.00     0.003 C 
ATOM     21  C   UNL     1      -4.953  24.729  46.797  1.00  0.00     0.031 C 
ATOM     22  C   UNL     1      -4.369  25.949  49.473  1.00  0.00    -0.008 C 
ATOM     23  C   UNL     1      -5.558  26.024  47.221  1.00  0.00    -0.027 C 
ATOM     24  C   UNL     1      -5.343  26.560  48.440  1.00  0.00    -0.065 C 
ATOM     25  C   UNL     1      -3.298  27.044  49.782  1.00  0.00     0.014 C 
ATOM     26  C   UNL     1      -5.160  25.644  50.775  1.00  0.00     0.016 C 
ATOM     27  C   UNL     1      -5.938  27.922  48.743  1.00  0.00     0.063 C 
ATOM     28  C   UNL     1      -3.879  28.433  50.113  1.00  0.00     0.033 C 
ATOM     29  C   UNL     1      -4.815  28.933  49.004  1.00  0.00     0.118 C 
BRANCH  29  30
ATOM     30  O   UNL     1      -5.365  30.166  49.388  1.00  0.00    -0.393 OA
ATOM     31  H   UNL     1      -4.604  30.778  49.560  1.00  0.00     0.210 HD
ENDBRANCH  29  30
ENDBRANCH   9  11
ENDBRANCH   1   9
TORSDOF 7
ENDMDL
MODEL 4
REMARK VINA RESULT:    -7.933      3.126      4.567
REMARK INTER + INTRA:         -12.151
REMARK INTER:                 -10.806
REMARK INTRA:                  -1.345
REMARK UNBOUND:                -1.204
REMARK SMILES CC[C@H](CC[C@@H](C)[C@@H]1CC[C@H]2[C@H]3CC=C4C[C@@H](O)CC[C@]4(C)[C@H]3CC[C@@]21C)C(C)C
REMARK SMILES IDX 5 1 4 2 3 3 2 4 1 5 28 6 29 7 30 8 6 9 7 10 8 11 9 12 26 13
REMARK SMILES IDX 10 14 11 15 25 16 27 17 12 18 24 19 23 20 13 21 21 22 14 23
REMARK SMILES IDX 15 24 20 25 22 26 16 27 19 28 17 29 18 30
REMARK H PARENT 18 31
REMARK Flexibility Score: inf
ROOT
ATOM      1  C   UNL     1      -1.032  19.822  47.287  1.00  0.00     0.004 C 
ENDROOT
BRANCH   1   2
ATOM      2  C   UNL     1      -1.761  18.576  47.840  1.00  0.00     0.004 C 
BRANCH   2   3
ATOM      3  C   UNL     1      -1.525  17.244  47.061  1.00  0.00    -0.009 C 
BRANCH   3   4
ATOM      4  C   UNL     1      -2.099  15.985  47.767  1.00  0.00     0.000 C 
ATOM      5  C   UNL     1      -2.413  16.237  49.244  1.00  0.00     0.004 C 
ENDBRANCH   3   4
BRANCH   3   6
ATOM      6  C   UNL     1      -1.909  17.357  45.546  1.00  0.00    -0.014 C 
ATOM      7  C   UNL     1      -1.243  16.265  44.690  1.00  0.00     0.007 C 
ATOM      8  C   UNL     1      -3.420  17.390  45.276  1.00  0.00     0.007 C 
ENDBRANCH   3   6
ENDBRANCH   2   3
ENDBRANCH   1   2
BRANCH   1   9
ATOM      9  C   UNL     1      -1.943  21.041  46.968  1.00  0.00    -0.011 C 
ATOM     10  C   UNL     1      -2.399  21.030  45.493  1.00  0.00     0.008 C 
BRANCH   9  11
ATOM     11  C   UNL     1      -3.068  21.279  48.049  1.00  0.00    -0.002 C 
ATOM     12  C   UNL     1      -4.473  20.685  47.714  1.00  0.00     0.005 C 
ATOM     13  C   UNL     1      -3.360  22.769  48.476  1.00  0.00    -0.026 C 
ATOM     14  C   UNL     1      -5.492  21.833  47.742  1.00  0.00     0.005 C 
ATOM     15  C   UNL     1      -4.625  23.070  47.651  1.00  0.00    -0.001 C 
ATOM     16  C   UNL     1      -2.316  23.867  48.134  1.00  0.00     0.007 C 
ATOM     17  C   UNL     1      -3.576  22.749  50.027  1.00  0.00     0.012 C 
ATOM     18  C   UNL     1      -5.262  24.470  47.808  1.00  0.00     0.000 C 
ATOM     19  C   UNL     1      -2.882  25.301  48.331  1.00  0.00     0.005 C 
ATOM     20  C   UNL     1      -4.194  25.562  47.520  1.00  0.00     0.003 C 
ATOM     21  C   UNL     1      -5.975  24.743  49.138  1.00  0.00     0.031 C 
ATOM     22  C   UNL     1      -4.809  27.038  47.599  1.00  0.00    -0.008 C 
ATOM     23  C   UNL     1      -6.639  26.077  49.088  1.00  0.00    -0.027 C 
ATOM     24  C   UNL     1      -6.102  27.131  48.441  1.00  0.00    -0.065 C 
ATOM     25  C   UNL     1      -5.188  27.471  46.147  1.00  0.00     0.014 C 
ATOM     26  C   UNL     1      -3.776  28.049  48.167  1.00  0.00     0.016 C 
ATOM     27  C   UNL     1      -6.897  28.422  48.382  1.00  0.00     0.063 C 
ATOM     28  C   UNL     1      -5.979  28.791  46.058  1.00  0.00     0.033 C 
ATOM     29  C   UNL     1      -7.245  28.750  46.925  1.00  0.00     0.118 C 
BRANCH  29  30
ATOM     30  O   UNL     1      -7.888  29.996  46.859  1.00  0.00    -0.393 OA
ATOM     31  H   UNL     1      -7.811  30.406  47.759  1.00  0.00     0.210 HD
ENDBRANCH  29  30
ENDBRANCH   9  11
ENDBRANCH   1   9
TORSDOF 7
ENDMDL
MODEL 5
REMARK VINA RESULT:    -7.932      3.242      8.584
REMARK INTER + INTRA:         -12.150
REMARK INTER:                 -10.435
REMARK INTRA:                  -1.715
REMARK UNBOUND:                -1.204
REMARK SMILES CC[C@H](CC[C@@H](C)[C@@H]1CC[C@H]2[C@H]3CC=C4C[C@@H](O)CC[C@]4(C)[C@H]3CC[C@@]21C)C(C)C
REMARK SMILES IDX 5 1 4 2 3 3 2 4 1 5 28 6 29 7 30 8 6 9 7 10 8 11 9 12 26 13
REMARK SMILES IDX 10 14 11 15 25 16 27 17 12 18 24 19 23 20 13 21 21 22 14 23
REMARK SMILES IDX 15 24 20 25 22 26 16 27 19 28 17 29 18 30
REMARK H PARENT 18 31
REMARK Flexibility Score: inf
ROOT
ATOM      1  C   UNL     1      -5.472  26.749  50.808  1.00  0.00     0.004 C 
ENDROOT
BRANCH   1   2
ATOM      2  C   UNL     1      -4.209  27.622  50.618  1.00  0.00     0.004 C 
BRANCH   2   3
ATOM      3  C   UNL     1      -3.007  27.298  51.561  1.00  0.00    -0.009 C 
BRANCH   3   4
ATOM      4  C   UNL     1      -2.366  28.548  52.224  1.00  0.00     0.000 C 
ATOM      5  C   UNL     1      -2.618  29.827  51.422  1.00  0.00     0.004 C 
ENDBRANCH   3   4
BRANCH   3   6
ATOM      6  C   UNL     1      -3.325  26.136  52.564  1.00  0.00    -0.014 C 
ATOM      7  C   UNL     1      -2.239  25.045  52.560  1.00  0.00     0.007 C 
ATOM      8  C   UNL     1      -3.603  26.598  54.002  1.00  0.00     0.007 C 
ENDBRANCH   3   6
ENDBRANCH   2   3
ENDBRANCH   1   2
BRANCH   1   9
ATOM      9  C   UNL     1      -6.015  26.074  49.517  1.00  0.00    -0.011 C 
ATOM     10  C   UNL     1      -7.380  26.666  49.107  1.00  0.00     0.008 C 
BRANCH   9  11
ATOM     11  C   UNL     1      -4.933  25.947  48.376  1.00  0.00    -0.002 C 
ATOM     12  C   UNL     1      -5.474  26.007  46.912  1.00  0.00     0.005 C 
ATOM     13  C   UNL     1      -3.999  24.676  48.400  1.00  0.00    -0.026 C 
ATOM     14  C   UNL     1      -5.043  24.721  46.194  1.00  0.00     0.005 C 
ATOM     15  C   UNL     1      -4.673  23.794  47.332  1.00  0.00    -0.001 C 
ATOM     16  C   UNL     1      -3.911  23.833  49.702  1.00  0.00     0.007 C 
ATOM     17  C   UNL     1      -2.562  25.176  48.029  1.00  0.00     0.012 C 
ATOM     18  C   UNL     1      -4.027  22.423  47.028  1.00  0.00     0.000 C 
ATOM     19  C   UNL     1      -3.215  22.462  49.472  1.00  0.00     0.005 C 
ATOM     20  C   UNL     1      -3.890  21.610  48.346  1.00  0.00     0.003 C 
ATOM     21  C   UNL     1      -2.696  22.456  46.268  1.00  0.00     0.031 C 
ATOM     22  C   UNL     1      -3.289  20.149  48.090  1.00  0.00    -0.008 C 
ATOM     23  C   UNL     1      -2.267  21.065  45.944  1.00  0.00    -0.027 C 
ATOM     24  C   UNL     1      -2.484  20.026  46.777  1.00  0.00    -0.065 C 
ATOM     25  C   UNL     1      -4.491  19.157  47.973  1.00  0.00     0.014 C 
ATOM     26  C   UNL     1      -2.384  19.697  49.268  1.00  0.00     0.016 C 
ATOM     27  C   UNL     1      -2.081  18.638  46.317  1.00  0.00     0.063 C 
ATOM     28  C   UNL     1      -4.105  17.733  47.527  1.00  0.00     0.033 C 
ATOM     29  C   UNL     1      -3.324  17.748  46.205  1.00  0.00     0.118 C 
BRANCH  29  30
ATOM     30  O   UNL     1      -2.942  16.436  45.883  1.00  0.00    -0.393 OA
ATOM     31  H   UNL     1      -2.812  16.409  44.900  1.00  0.00     0.210 HD
ENDBRANCH  29  30
ENDBRANCH   9  11
ENDBRANCH   1   9
TORSDOF 7
ENDMDL
MODEL 6
REMARK VINA RESULT:    -7.616      3.066      7.853
REMARK INTER + INTRA:         -11.715
REMARK INTER:                 -10.054
REMARK INTRA:                  -1.660
REMARK UNBOUND:                -1.204
REMARK SMILES CC[C@H](CC[C@@H](C)[C@@H]1CC[C@H]2[C@H]3CC=C4C[C@@H](O)CC[C@]4(C)[C@H]3CC[C@@]21C)C(C)C
REMARK SMILES IDX 5 1 4 2 3 3 2 4 1 5 28 6 29 7 30 8 6 9 7 10 8 11 9 12 26 13
REMARK SMILES IDX 10 14 11 15 25 16 27 17 12 18 24 19 23 20 13 21 21 22 14 23
REMARK SMILES IDX 15 24 20 25 22 26 16 27 19 28 17 29 18 30
REMARK H PARENT 18 31
REMARK Flexibility Score: inf
ROOT
ATOM      1  C   UNL     1      -3.728  26.032  52.485  1.00  0.00     0.004 C 
ENDROOT
BRANCH   1   2
ATOM      2  C   UNL     1      -2.688  26.231  53.612  1.00  0.00     0.004 C 
BRANCH   2   3
ATOM      3  C   UNL     1      -1.437  25.298  53.560  1.00  0.00    -0.009 C 
BRANCH   3   4
ATOM      4  C   UNL     1      -1.583  24.094  52.589  1.00  0.00     0.000 C 
ATOM      5  C   UNL     1      -0.793  22.869  53.057  1.00  0.00     0.004 C 
ENDBRANCH   3   4
BRANCH   3   6
ATOM      6  C   UNL     1      -0.098  26.096  53.391  1.00  0.00    -0.014 C 
ATOM      7  C   UNL     1       0.321  26.231  51.917  1.00  0.00     0.007 C 
ATOM      8  C   UNL     1      -0.092  27.474  54.069  1.00  0.00     0.007 C 
ENDBRANCH   3   6
ENDBRANCH   2   3
ENDBRANCH   1   2
BRANCH   1   9
ATOM      9  C   UNL     1      -4.010  27.284  51.609  1.00  0.00    -0.011 C 
ATOM     10  C   UNL     1      -2.763  28.187  51.502  1.00  0.00     0.008 C 
BRANCH   9  11
ATOM     11  C   UNL     1      -4.751  26.946  50.258  1.00  0.00    -0.002 C 
ATOM     12  C   UNL     1      -6.243  26.501  50.390  1.00  0.00     0.005 C 
ATOM     13  C   UNL     1      -4.095  25.858  49.323  1.00  0.00    -0.026 C 
ATOM     14  C   UNL     1      -6.383  25.117  49.741  1.00  0.00     0.005 C 
ATOM     15  C   UNL     1      -4.954  24.625  49.657  1.00  0.00    -0.001 C 
ATOM     16  C   UNL     1      -2.612  25.462  49.558  1.00  0.00     0.007 C 
ATOM     17  C   UNL     1      -4.246  26.387  47.856  1.00  0.00     0.012 C 
ATOM     18  C   UNL     1      -4.636  23.310  48.909  1.00  0.00     0.000 C 
ATOM     19  C   UNL     1      -2.214  24.175  48.781  1.00  0.00     0.005 C 
ATOM     20  C   UNL     1      -3.136  22.952  49.103  1.00  0.00     0.003 C 
ATOM     21  C   UNL     1      -5.019  23.266  47.425  1.00  0.00     0.031 C 
ATOM     22  C   UNL     1      -2.756  21.561  48.408  1.00  0.00    -0.008 C 
ATOM     23  C   UNL     1      -4.766  21.902  46.880  1.00  0.00    -0.027 C 
ATOM     24  C   UNL     1      -3.723  21.143  47.277  1.00  0.00    -0.065 C 
ATOM     25  C   UNL     1      -2.837  20.448  49.501  1.00  0.00     0.014 C 
ATOM     26  C   UNL     1      -1.312  21.592  47.835  1.00  0.00     0.016 C 
ATOM     27  C   UNL     1      -3.602  19.738  46.721  1.00  0.00     0.063 C 
ATOM     28  C   UNL     1      -2.696  19.010  48.963  1.00  0.00     0.033 C 
ATOM     29  C   UNL     1      -3.721  18.717  47.859  1.00  0.00     0.118 C 
BRANCH  29  30
ATOM     30  O   UNL     1      -3.503  17.423  47.362  1.00  0.00    -0.393 OA
ATOM     31  H   UNL     1      -3.899  16.793  48.018  1.00  0.00     0.210 HD
ENDBRANCH  29  30
ENDBRANCH   9  11
ENDBRANCH   1   9
TORSDOF 7
ENDMDL
MODEL 7
REMARK VINA RESULT:    -7.522      3.135      7.436
REMARK INTER + INTRA:         -11.585
REMARK INTER:                  -9.127
REMARK INTRA:                  -2.458
REMARK UNBOUND:                -1.204
REMARK SMILES CC[C@H](CC[C@@H](C)[C@@H]1CC[C@H]2[C@H]3CC=C4C[C@@H](O)CC[C@]4(C)[C@H]3CC[C@@]21C)C(C)C
REMARK SMILES IDX 5 1 4 2 3 3 2 4 1 5 28 6 29 7 30 8 6 9 7 10 8 11 9 12 26 13
REMARK SMILES IDX 10 14 11 15 25 16 27 17 12 18 24 19 23 20 13 21 21 22 14 23
REMARK SMILES IDX 15 24 20 25 22 26 16 27 19 28 17 29 18 30
REMARK H PARENT 18 31
REMARK Flexibility Score: inf
ROOT
ATOM      1  C   UNL     1      -0.224  26.115  54.066  1.00  0.00     0.004 C 
ENDROOT
BRANCH   1   2
ATOM      2  C   UNL     1       1.084  25.592  53.428  1.00  0.00     0.004 C 
BRANCH   2   3
ATOM      3  C   UNL     1       1.021  24.155  52.820  1.00  0.00    -0.009 C 
BRANCH   3   4
ATOM      4  C   UNL     1      -0.400  23.525  52.826  1.00  0.00     0.000 C 
ATOM      5  C   UNL     1      -0.574  22.491  53.941  1.00  0.00     0.004 C 
ENDBRANCH   3   4
BRANCH   3   6
ATOM      6  C   UNL     1       1.759  24.053  51.441  1.00  0.00    -0.014 C 
ATOM      7  C   UNL     1       0.902  23.358  50.369  1.00  0.00     0.007 C 
ATOM      8  C   UNL     1       2.290  25.391  50.906  1.00  0.00     0.007 C 
ENDBRANCH   3   6
ENDBRANCH   2   3
ENDBRANCH   1   2
BRANCH   1   9
ATOM      9  C   UNL     1      -0.640  27.554  53.651  1.00  0.00    -0.011 C 
ATOM     10  C   UNL     1       0.426  28.206  52.745  1.00  0.00     0.008 C 
BRANCH   9  11
ATOM     11  C   UNL     1      -2.136  27.654  53.159  1.00  0.00    -0.002 C 
ATOM     12  C   UNL     1      -3.212  27.064  54.125  1.00  0.00     0.005 C 
ATOM     13  C   UNL     1      -2.481  27.029  51.753  1.00  0.00    -0.026 C 
ATOM     14  C   UNL     1      -4.001  25.993  53.357  1.00  0.00     0.005 C 
ATOM     15  C   UNL     1      -3.111  25.688  52.172  1.00  0.00    -0.001 C 
ATOM     16  C   UNL     1      -1.322  26.705  50.770  1.00  0.00     0.007 C 
ATOM     17  C   UNL     1      -3.465  28.028  51.055  1.00  0.00     0.012 C 
ATOM     18  C   UNL     1      -3.619  24.756  51.048  1.00  0.00     0.000 C 
ATOM     19  C   UNL     1      -1.787  25.817  49.582  1.00  0.00     0.005 C 
ATOM     20  C   UNL     1      -2.469  24.484  50.039  1.00  0.00     0.003 C 
ATOM     21  C   UNL     1      -4.889  25.208  50.317  1.00  0.00     0.031 C 
ATOM     22  C   UNL     1      -2.911  23.468  48.884  1.00  0.00    -0.008 C 
ATOM     23  C   UNL     1      -5.319  24.153  49.356  1.00  0.00    -0.027 C 
ATOM     24  C   UNL     1      -4.440  23.396  48.667  1.00  0.00    -0.065 C 
ATOM     25  C   UNL     1      -2.451  22.037  49.311  1.00  0.00     0.014 C 
ATOM     26  C   UNL     1      -2.238  23.825  47.530  1.00  0.00     0.016 C 
ATOM     27  C   UNL     1      -4.981  22.295  47.776  1.00  0.00     0.063 C 
ATOM     28  C   UNL     1      -2.972  20.902  48.407  1.00  0.00     0.033 C 
ATOM     29  C   UNL     1      -4.501  20.932  48.287  1.00  0.00     0.118 C 
BRANCH  29  30
ATOM     30  O   UNL     1      -4.912  19.921  47.403  1.00  0.00    -0.393 OA
ATOM     31  H   UNL     1      -4.348  20.004  46.591  1.00  0.00     0.210 HD
ENDBRANCH  29  30
ENDBRANCH   9  11
ENDBRANCH   1   9
TORSDOF 7
ENDMDL
MODEL 8
REMARK VINA RESULT:    -7.498      3.035      7.737
REMARK INTER + INTRA:         -11.552
REMARK INTER:                  -9.660
REMARK INTRA:                  -1.891
REMARK UNBOUND:                -1.204
REMARK SMILES CC[C@H](CC[C@@H](C)[C@@H]1CC[C@H]2[C@H]3CC=C4C[C@@H](O)CC[C@]4(C)[C@H]3CC[C@@]21C)C(C)C
REMARK SMILES IDX 5 1 4 2 3 3 2 4 1 5 28 6 29 7 30 8 6 9 7 10 8 11 9 12 26 13
REMARK SMILES IDX 10 14 11 15 25 16 27 17 12 18 24 19 23 20 13 21 21 22 14 23
REMARK SMILES IDX 15 24 20 25 22 26 16 27 19 28 17 29 18 30
REMARK H PARENT 18 31
REMARK Flexibility Score: inf
ROOT
ATOM      1  C   UNL     1      -3.178  28.004  50.741  1.00  0.00     0.004 C 
ENDROOT
BRANCH   1   2
ATOM      2  C   UNL     1      -2.010  26.997  50.854  1.00  0.00     0.004 C 
BRANCH   2   3
ATOM      3  C   UNL     1      -2.135  25.932  51.989  1.00  0.00    -0.009 C 
BRANCH   3   4
ATOM      4  C   UNL     1      -3.462  26.013  52.792  1.00  0.00     0.000 C 
ATOM      5  C   UNL     1      -3.292  26.747  54.125  1.00  0.00     0.004 C 
ENDBRANCH   3   4
BRANCH   3   6
ATOM      6  C   UNL     1      -1.771  24.488  51.500  1.00  0.00    -0.014 C 
ATOM      7  C   UNL     1      -0.931  24.500  50.211  1.00  0.00     0.007 C 
ATOM      8  C   UNL     1      -1.093  23.611  52.563  1.00  0.00     0.007 C 
ENDBRANCH   3   6
ENDBRANCH   2   3
ENDBRANCH   1   2
BRANCH   1   9
ATOM      9  C   UNL     1      -3.708  28.251  49.300  1.00  0.00    -0.011 C 
ATOM     10  C   UNL     1      -2.552  28.314  48.280  1.00  0.00     0.008 C 
BRANCH   9  11
ATOM     11  C   UNL     1      -4.932  27.330  48.920  1.00  0.00    -0.002 C 
ATOM     12  C   UNL     1      -5.770  26.781  50.118  1.00  0.00     0.005 C 
ATOM     13  C   UNL     1      -4.637  26.062  48.030  1.00  0.00    -0.026 C 
ATOM     14  C   UNL     1      -5.774  25.248  50.030  1.00  0.00     0.005 C 
ATOM     15  C   UNL     1      -4.622  24.950  49.094  1.00  0.00    -0.001 C 
ATOM     16  C   UNL     1      -3.288  25.981  47.262  1.00  0.00     0.007 C 
ATOM     17  C   UNL     1      -5.808  25.967  46.995  1.00  0.00     0.012 C 
ATOM     18  C   UNL     1      -4.379  23.502  48.610  1.00  0.00     0.000 C 
ATOM     19  C   UNL     1      -3.016  24.558  46.698  1.00  0.00     0.005 C 
ATOM     20  C   UNL     1      -3.057  23.442  47.794  1.00  0.00     0.003 C 
ATOM     21  C   UNL     1      -5.527  22.847  47.834  1.00  0.00     0.031 C 
ATOM     22  C   UNL     1      -2.711  21.953  47.321  1.00  0.00    -0.008 C 
ATOM     23  C   UNL     1      -5.193  21.422  47.547  1.00  0.00    -0.027 C 
ATOM     24  C   UNL     1      -3.938  21.015  47.266  1.00  0.00    -0.065 C 
ATOM     25  C   UNL     1      -1.725  21.341  48.366  1.00  0.00     0.014 C 
ATOM     26  C   UNL     1      -2.025  21.950  45.927  1.00  0.00     0.016 C 
ATOM     27  C   UNL     1      -3.690  19.531  47.069  1.00  0.00     0.063 C 
ATOM     28  C   UNL     1      -1.440  19.838  48.175  1.00  0.00     0.033 C 
ATOM     29  C   UNL     1      -2.736  19.017  48.154  1.00  0.00     0.118 C 
BRANCH  29  30
ATOM     30  O   UNL     1      -2.422  17.670  47.910  1.00  0.00    -0.393 OA
ATOM     31  H   UNL     1      -1.488  17.535  48.213  1.00  0.00     0.210 HD
ENDBRANCH  29  30
ENDBRANCH   9  11
ENDBRANCH   1   9
TORSDOF 7
ENDMDL
MODEL 9
REMARK VINA RESULT:    -7.466      3.225      7.726
REMARK INTER + INTRA:         -11.508
REMARK INTER:                  -9.386
REMARK INTRA:                  -2.122
REMARK UNBOUND:                -1.204
REMARK SMILES CC[C@H](CC[C@@H](C)[C@@H]1CC[C@H]2[C@H]3CC=C4C[C@@H](O)CC[C@]4(C)[C@H]3CC[C@@]21C)C(C)C
REMARK SMILES IDX 5 1 4 2 3 3 2 4 1 5 28 6 29 7 30 8 6 9 7 10 8 11 9 12 26 13
REMARK SMILES IDX 10 14 11 15 25 16 27 17 12 18 24 19 23 20 13 21 21 22 14 23
REMARK SMILES IDX 15 24 20 25 22 26 16 27 19 28 17 29 18 30
REMARK H PARENT 18 31
REMARK Flexibility Score: inf
ROOT
ATOM      1  C   UNL     1      -1.781  26.691  49.783  1.00  0.00     0.004 C 
ENDROOT
BRANCH   1   2
ATOM      2  C   UNL     1      -0.942  26.455  51.060  1.00  0.00     0.004 C 
BRANCH   2   3
ATOM      3  C   UNL     1      -0.477  24.985  51.310  1.00  0.00    -0.009 C 
BRANCH   3   4
ATOM      4  C   UNL     1       0.868  24.620  50.623  1.00  0.00     0.000 C 
ATOM      5  C   UNL     1       0.754  23.369  49.747  1.00  0.00     0.004 C 
ENDBRANCH   3   4
BRANCH   3   6
ATOM      6  C   UNL     1      -0.552  24.579  52.822  1.00  0.00    -0.014 C 
ATOM      7  C   UNL     1      -1.474  25.508  53.632  1.00  0.00     0.007 C 
ATOM      8  C   UNL     1      -0.935  23.112  53.066  1.00  0.00     0.007 C 
ENDBRANCH   3   6
ENDBRANCH   2   3
ENDBRANCH   1   2
BRANCH   1   9
ATOM      9  C   UNL     1      -3.234  27.187  50.022  1.00  0.00    -0.011 C 
ATOM     10  C   UNL     1      -3.588  28.360  49.084  1.00  0.00     0.008 C 
BRANCH   9  11
ATOM     11  C   UNL     1      -4.287  26.014  50.108  1.00  0.00    -0.002 C 
ATOM     12  C   UNL     1      -4.367  25.268  51.478  1.00  0.00     0.005 C 
ATOM     13  C   UNL     1      -4.180  24.862  49.037  1.00  0.00    -0.026 C 
ATOM     14  C   UNL     1      -4.105  23.778  51.222  1.00  0.00     0.005 C 
ATOM     15  C   UNL     1      -3.465  23.767  49.850  1.00  0.00    -0.001 C 
ATOM     16  C   UNL     1      -3.336  25.105  47.755  1.00  0.00     0.007 C 
ATOM     17  C   UNL     1      -5.647  24.515  48.612  1.00  0.00     0.012 C 
ATOM     18  C   UNL     1      -3.184  22.422  49.143  1.00  0.00     0.000 C 
ATOM     19  C   UNL     1      -3.070  23.792  46.966  1.00  0.00     0.005 C 
ATOM     20  C   UNL     1      -2.390  22.680  47.832  1.00  0.00     0.003 C 
ATOM     21  C   UNL     1      -4.402  21.531  48.875  1.00  0.00     0.031 C 
ATOM     22  C   UNL     1      -2.006  21.318  47.085  1.00  0.00    -0.008 C 
ATOM     23  C   UNL     1      -3.957  20.226  48.306  1.00  0.00    -0.027 C 
ATOM     24  C   UNL     1      -2.910  20.123  47.460  1.00  0.00    -0.065 C 
ATOM     25  C   UNL     1      -0.554  20.934  47.516  1.00  0.00     0.014 C 
ATOM     26  C   UNL     1      -2.036  21.494  45.542  1.00  0.00     0.016 C 
ATOM     27  C   UNL     1      -2.488  18.740  47.003  1.00  0.00     0.063 C 
ATOM     28  C   UNL     1      -0.093  19.541  47.046  1.00  0.00     0.033 C 
ATOM     29  C   UNL     1      -1.067  18.443  47.496  1.00  0.00     0.118 C 
BRANCH  29  30
ATOM     30  O   UNL     1      -0.635  17.208  46.984  1.00  0.00    -0.393 OA
ATOM     31  H   UNL     1      -0.327  17.375  46.056  1.00  0.00     0.210 HD
ENDBRANCH  29  30
ENDBRANCH   9  11
ENDBRANCH   1   9
TORSDOF 7
ENDMDL
