MODEL 1
REMARK VINA RESULT:     2.338      0.000      0.000
REMARK INTER + INTRA:          10.983
REMARK INTER:                   4.935
REMARK INTRA:                   6.048
REMARK UNBOUND:                 6.048
REMARK SMILES CCC(=O)CCCCC[C@H]1NC(=O)[C@@H]2CCCCN2C(=O)[C@H]([C@H](C)CC)NC(=O)[C@@H](Cc2cn(OC)c3ccccc23)NC1=O
REMARK SMILES IDX 9 1 10 2 44 3 43 4 45 6 30 7 28 8 27 9 29 11 22 12 23 14
REMARK SMILES IDX 24 15 25 16 26 17 31 18 32 19 33 20 42 21 34 22 37 23 41 24
REMARK SMILES IDX 38 25 40 26 39 27 35 28 36 29 11 30 12 31 13 33 14 34 19 35
REMARK SMILES IDX 15 36 18 37 16 38 17 39 20 40 21 41 8 43 7 44 6 45 5 46 3 47
REMARK SMILES IDX 4 48 2 49 1 50
REMARK H PARENT 43 5 27 10 11 32
REMARK Flexibility Score: 80.00
ROOT
ATOM      1  C   UNL     1      40.432  -4.104   9.251  1.00  0.00     0.035 C 
ENDROOT
BRANCH   1   2
ATOM      2  C   UNL     1      40.570  -5.560   9.816  1.00  0.00     0.171 C 
BRANCH   2   3
ATOM      3  C   UNL     1      41.178  -6.560   8.848  1.00  0.00     0.243 C 
ATOM      4  N   UNL     1      41.536  -6.209   7.499  1.00  0.00    -0.342 N 
ATOM      5  H   UNL     1      41.867  -5.237   7.309  1.00  0.00     0.164 HD
ATOM      6  O   UNL     1      41.250  -7.762   9.207  1.00  0.00    -0.273 OA
BRANCH   4   7
ATOM      7  C   UNL     1      41.367  -7.144   6.382  1.00  0.00     0.175 C 
BRANCH   7   8
ATOM      8  C   UNL     1      41.449  -8.570   6.900  1.00  0.00     0.243 C 
ATOM      9  N   UNL     1      40.639  -8.935   8.023  1.00  0.00    -0.342 N 
ATOM     10  H   UNL     1      40.420  -8.146   8.669  1.00  0.00     0.164 HD
ATOM     11  O   UNL     1      42.140  -9.437   6.300  1.00  0.00    -0.273 OA
BRANCH   9  12
ATOM     12  C   UNL     1      40.100 -10.280   8.340  1.00  0.00     0.174 CG0
ATOM     13  G   UNL     1      38.701 -10.185   9.010  1.00  0.00     0.000 G0
BRANCH  12  14
ATOM     14  C   UNL     1      41.233 -11.115   9.038  1.00  0.00     0.018 C 
ATOM     15  C   UNL     1      41.511 -10.636  10.486  1.00  0.00     0.010 C 
BRANCH  14  16
ATOM     16  C   UNL     1      42.531 -11.125   8.171  1.00  0.00     0.002 C 
ATOM     17  C   UNL     1      43.810 -11.085   9.000  1.00  0.00     0.004 C 
ENDBRANCH  14  16
ENDBRANCH  12  14
ENDBRANCH   9  12
ENDBRANCH   7   8
BRANCH   7  18
ATOM     18  C   UNL     1      40.041  -6.891   5.631  1.00  0.00     0.073 C 
BRANCH  18  19
ATOM     19  C   UNL     1      40.237  -6.157   4.320  1.00  0.00    -0.016 A 
ATOM     20  C   UNL     1      39.701  -4.918   3.959  1.00  0.00     0.134 A 
ATOM     21  C   UNL     1      41.074  -6.512   3.269  1.00  0.00     0.006 A 
ATOM     22  N   UNL     1      40.167  -4.537   2.756  1.00  0.00    -0.191 N 
ATOM     23  C   UNL     1      41.001  -5.505   2.330  1.00  0.00     0.087 A 
ATOM     24  C   UNL     1      41.911  -7.613   3.084  1.00  0.00     0.011 A 
ATOM     25  C   UNL     1      41.701  -5.569   1.130  1.00  0.00     0.030 A 
ATOM     26  C   UNL     1      42.634  -7.701   1.883  1.00  0.00     0.001 A 
ATOM     27  C   UNL     1      42.532  -6.685   0.908  1.00  0.00     0.002 A 
BRANCH  22  28
ATOM     28  O   UNL     1      39.841  -3.363   2.103  1.00  0.00    -0.417 OA
ATOM     29  C   UNL     1      38.864  -2.481   2.628  1.00  0.00     0.313 C 
ENDBRANCH  22  28
ENDBRANCH  18  19
ENDBRANCH   7  18
ENDBRANCH   4   7
ENDBRANCH   2   3
BRANCH   2  30
ATOM     30  N   UNL     1      39.246  -6.093  10.235  1.00  0.00    -0.343 N 
ATOM     31  C   UNL     1      38.630  -7.297   9.717  1.00  0.00     0.243 C 
ATOM     32  H   UNL     1      38.820  -5.686  11.104  1.00  0.00     0.164 HD
ATOM     33  O   UNL     1      38.489  -7.437   8.474  1.00  0.00    -0.273 OA
BRANCH  31  34
ATOM     34  C   UNL     1      37.951  -8.330  10.593  1.00  0.00     0.174 C 
ATOM     35  N   UNL     1      38.293  -9.766  10.340  1.00  0.00    -0.329 N 
ATOM     36  C   UNL     1      38.145  -8.024  12.084  1.00  0.00     0.035 C 
ATOM     37  C   UNL     1      37.696 -10.739  11.277  1.00  0.00     0.120 C 
ATOM     38  C   UNL     1      37.249  -8.912  12.980  1.00  0.00     0.004 C 
ATOM     39  C   UNL     1      36.673 -10.136  12.243  1.00  0.00     0.022 C 
BRANCH  35  40
ATOM     40  C   UNL     1      38.671 -10.212   9.005  1.00  0.00     0.246 CG0
ATOM     41  O   UNL     1      37.768 -10.735   8.298  1.00  0.00    -0.272 OA
ATOM     42  G   UNL     1      40.101 -10.228   8.396  1.00  0.00     0.000 G0
ENDBRANCH  35  40
ENDBRANCH  31  34
ENDBRANCH   2  30
ENDBRANCH   1   2
BRANCH   1  43
ATOM     43  C   UNL     1      40.346  -2.909  10.224  1.00  0.00     0.003 C 
BRANCH  43  44
ATOM     44  C   UNL     1      40.624  -1.551   9.558  1.00  0.00     0.001 C 
BRANCH  44  45
ATOM     45  C   UNL     1      40.783  -0.434  10.601  1.00  0.00     0.008 C 
BRANCH  45  46
ATOM     46  C   UNL     1      39.589   0.538  10.614  1.00  0.00     0.075 C 
BRANCH  46  47
ATOM     47  C   UNL     1      39.822   1.788  11.432  1.00  0.00     0.132 C 
ATOM     48  O   UNL     1      40.761   1.854  12.221  1.00  0.00    -0.300 OA
BRANCH  47  49
ATOM     49  C   UNL     1      38.943   2.990  11.238  1.00  0.00     0.072 C 
ATOM     50  C   UNL     1      39.719   4.277  11.492  1.00  0.00     0.012 C 
ENDBRANCH  47  49
ENDBRANCH  46  47
ENDBRANCH  45  46
ENDBRANCH  44  45
ENDBRANCH  43  44
ENDBRANCH   1  43
TORSDOF 12
ENDMDL
MODEL 2
REMARK VINA RESULT:     3.512      1.543      2.145
REMARK INTER + INTRA:          13.461
REMARK INTER:                   6.532
REMARK INTRA:                   6.929
REMARK UNBOUND:                 6.048
REMARK SMILES CCC(=O)CCCCC[C@H]1NC(=O)[C@@H]2CCCCN2C(=O)[C@H]([C@H](C)CC)NC(=O)[C@@H](Cc2cn(OC)c3ccccc23)NC1=O
REMARK SMILES IDX 9 1 10 2 44 3 43 4 45 6 30 7 28 8 27 9 29 11 22 12 23 14
REMARK SMILES IDX 24 15 25 16 26 17 31 18 32 19 33 20 42 21 34 22 37 23 41 24
REMARK SMILES IDX 38 25 40 26 39 27 35 28 36 29 11 30 12 31 13 33 14 34 19 35
REMARK SMILES IDX 15 36 18 37 16 38 17 39 20 40 21 41 8 43 7 44 6 45 5 46 3 47
REMARK SMILES IDX 4 48 2 49 1 50
REMARK H PARENT 43 5 27 10 11 32
REMARK Flexibility Score: 80.00
ROOT
ATOM      1  C   UNL     1      40.209  -3.933   9.319  1.00  0.00     0.035 C 
ENDROOT
BRANCH   1   2
ATOM      2  C   UNL     1      40.273  -5.275  10.127  1.00  0.00     0.171 C 
BRANCH   2   3
ATOM      3  C   UNL     1      40.867  -6.446   9.363  1.00  0.00     0.243 C 
ATOM      4  N   UNL     1      41.557  -6.281   8.111  1.00  0.00    -0.342 N 
ATOM      5  H   UNL     1      42.099  -5.402   7.953  1.00  0.00     0.164 HD
ATOM      6  O   UNL     1      40.633  -7.607   9.784  1.00  0.00    -0.273 OA
BRANCH   4   7
ATOM      7  C   UNL     1      41.447  -7.265   7.028  1.00  0.00     0.175 C 
BRANCH   7   8
ATOM      8  C   UNL     1      41.234  -8.647   7.621  1.00  0.00     0.243 C 
ATOM      9  N   UNL     1      40.186  -8.823   8.581  1.00  0.00    -0.342 N 
ATOM     10  H   UNL     1      39.960  -7.966   9.132  1.00  0.00     0.164 HD
ATOM     11  O   UNL     1      41.899  -9.636   7.210  1.00  0.00    -0.273 OA
BRANCH   9  12
ATOM     12  C   UNL     1      39.417 -10.062   8.851  1.00  0.00     0.174 CG0
ATOM     13  G   UNL     1      38.029  -9.741   9.471  1.00  0.00     0.000 G0
BRANCH  12  14
ATOM     14  C   UNL     1      40.365 -11.084   9.573  1.00  0.00     0.018 C 
ATOM     15  C   UNL     1      40.448 -10.834  11.101  1.00  0.00     0.010 C 
BRANCH  14  16
ATOM     16  C   UNL     1      41.778 -11.097   8.911  1.00  0.00     0.002 C 
ATOM     17  C   UNL     1      42.917 -10.944   9.913  1.00  0.00     0.004 C 
ENDBRANCH  14  16
ENDBRANCH  12  14
ENDBRANCH   9  12
ENDBRANCH   7   8
BRANCH   7  18
ATOM     18  C   UNL     1      40.320  -6.893   6.040  1.00  0.00     0.073 C 
BRANCH  18  19
ATOM     19  C   UNL     1      40.598  -7.357   4.625  1.00  0.00    -0.016 A 
ATOM     20  C   UNL     1      40.582  -8.672   4.151  1.00  0.00     0.134 A 
ATOM     21  C   UNL     1      40.811  -6.568   3.502  1.00  0.00     0.006 A 
ATOM     22  N   UNL     1      40.784  -8.693   2.821  1.00  0.00    -0.191 N 
ATOM     23  C   UNL     1      40.928  -7.415   2.421  1.00  0.00     0.087 A 
ATOM     24  C   UNL     1      40.876  -5.182   3.344  1.00  0.00     0.011 A 
ATOM     25  C   UNL     1      41.181  -6.940   1.139  1.00  0.00     0.030 A 
ATOM     26  C   UNL     1      41.126  -4.673   2.058  1.00  0.00     0.001 A 
ATOM     27  C   UNL     1      41.278  -5.545   0.959  1.00  0.00     0.002 A 
BRANCH  22  28
ATOM     28  O   UNL     1      40.826  -9.829   2.033  1.00  0.00    -0.417 OA
ATOM     29  C   UNL     1      40.975 -11.114   2.610  1.00  0.00     0.313 C 
ENDBRANCH  22  28
ENDBRANCH  18  19
ENDBRANCH   7  18
ENDBRANCH   4   7
ENDBRANCH   2   3
BRANCH   2  30
ATOM     30  N   UNL     1      38.918  -5.683  10.585  1.00  0.00    -0.343 N 
ATOM     31  C   UNL     1      38.189  -6.839  10.107  1.00  0.00     0.243 C 
ATOM     32  H   UNL     1      38.549  -5.222  11.454  1.00  0.00     0.164 HD
ATOM     33  O   UNL     1      38.008  -6.991   8.872  1.00  0.00    -0.273 OA
BRANCH  31  34
ATOM     34  C   UNL     1      37.444  -7.792  11.021  1.00  0.00     0.174 C 
ATOM     35  N   UNL     1      37.679  -9.256  10.813  1.00  0.00    -0.329 N 
ATOM     36  C   UNL     1      37.672  -7.452  12.499  1.00  0.00     0.035 C 
ATOM     37  C   UNL     1      37.021 -10.153  11.785  1.00  0.00     0.120 C 
ATOM     38  C   UNL     1      36.722  -8.244  13.429  1.00  0.00     0.004 C 
ATOM     39  C   UNL     1      36.052  -9.445  12.736  1.00  0.00     0.022 C 
BRANCH  35  40
ATOM     40  C   UNL     1      38.012  -9.771   9.490  1.00  0.00     0.246 CG0
ATOM     41  O   UNL     1      37.057 -10.181   8.777  1.00  0.00    -0.272 OA
ATOM     42  G   UNL     1      39.436  -9.987   8.905  1.00  0.00     0.000 G0
ENDBRANCH  35  40
ENDBRANCH  31  34
ENDBRANCH   2  30
ENDBRANCH   1   2
BRANCH   1  43
ATOM     43  C   UNL     1      40.019  -2.596  10.066  1.00  0.00     0.003 C 
BRANCH  43  44
ATOM     44  C   UNL     1      41.275  -1.710  10.072  1.00  0.00     0.001 C 
BRANCH  44  45
ATOM     45  C   UNL     1      40.925  -0.235   9.818  1.00  0.00     0.008 C 
BRANCH  45  46
ATOM     46  C   UNL     1      40.781   0.573  11.121  1.00  0.00     0.075 C 
BRANCH  46  47
ATOM     47  C   UNL     1      39.768   1.693  11.043  1.00  0.00     0.132 C 
ATOM     48  O   UNL     1      38.565   1.452  11.086  1.00  0.00    -0.300 OA
BRANCH  47  49
ATOM     49  C   UNL     1      40.227   3.120  10.979  1.00  0.00     0.072 C 
ATOM     50  C   UNL     1      39.251   4.038  11.706  1.00  0.00     0.012 C 
ENDBRANCH  47  49
ENDBRANCH  46  47
ENDBRANCH  45  46
ENDBRANCH  44  45
ENDBRANCH  43  44
ENDBRANCH   1  43
TORSDOF 12
ENDMDL
MODEL 3
REMARK VINA RESULT:     3.644      4.197      8.732
REMARK INTER + INTRA:          13.740
REMARK INTER:                   8.776
REMARK INTRA:                   4.964
REMARK UNBOUND:                 6.048
REMARK SMILES CCC(=O)CCCCC[C@H]1NC(=O)[C@@H]2CCCCN2C(=O)[C@H]([C@H](C)CC)NC(=O)[C@@H](Cc2cn(OC)c3ccccc23)NC1=O
REMARK SMILES IDX 9 1 10 2 44 3 43 4 45 6 30 7 28 8 27 9 29 11 22 12 23 14
REMARK SMILES IDX 24 15 25 16 26 17 31 18 32 19 33 20 42 21 34 22 37 23 41 24
REMARK SMILES IDX 38 25 40 26 39 27 35 28 36 29 11 30 12 31 13 33 14 34 19 35
REMARK SMILES IDX 15 36 18 37 16 38 17 39 20 40 21 41 8 43 7 44 6 45 5 46 3 47
REMARK SMILES IDX 4 48 2 49 1 50
REMARK H PARENT 43 5 27 10 11 32
REMARK Flexibility Score: 80.00
ROOT
ATOM      1  C   UNL     1      40.248  -7.949   5.090  1.00  0.00     0.035 C 
ENDROOT
BRANCH   1   2
ATOM      2  C   UNL     1      40.130  -9.495   5.325  1.00  0.00     0.171 C 
BRANCH   2   3
ATOM      3  C   UNL     1      39.834  -9.897   6.759  1.00  0.00     0.243 C 
ATOM      4  N   UNL     1      39.253  -8.988   7.712  1.00  0.00    -0.342 N 
ATOM      5  H   UNL     1      38.581  -8.268   7.366  1.00  0.00     0.164 HD
ATOM      6  O   UNL     1      40.228 -11.024   7.152  1.00  0.00    -0.273 OA
BRANCH   4   7
ATOM      7  C   UNL     1      39.643  -8.991   9.126  1.00  0.00     0.175 C 
BRANCH   7   8
ATOM      8  C   UNL     1      41.153  -8.862   9.233  1.00  0.00     0.243 C 
ATOM      9  N   UNL     1      41.932  -8.957   8.036  1.00  0.00    -0.342 N 
ATOM     10  H   UNL     1      41.500  -9.539   7.287  1.00  0.00     0.164 HD
ATOM     11  O   UNL     1      41.701  -8.584  10.334  1.00  0.00    -0.273 OA
BRANCH   9  12
ATOM     12  C   UNL     1      43.247  -8.323   7.770  1.00  0.00     0.174 CG0
ATOM     13  G   UNL     1      43.546  -8.261   6.246  1.00  0.00     0.000 G0
BRANCH  12  14
ATOM     14  C   UNL     1      44.308  -8.959   8.737  1.00  0.00     0.018 C 
ATOM     15  C   UNL     1      45.761  -8.579   8.351  1.00  0.00     0.010 C 
BRANCH  14  16
ATOM     16  C   UNL     1      44.120 -10.507   8.828  1.00  0.00     0.002 C 
ATOM     17  C   UNL     1      43.550 -11.122   7.555  1.00  0.00     0.004 C 
ENDBRANCH  14  16
ENDBRANCH  12  14
ENDBRANCH   9  12
ENDBRANCH   7   8
BRANCH   7  18
ATOM     18  C   UNL     1      38.923  -7.873   9.912  1.00  0.00     0.073 C 
BRANCH  18  19
ATOM     19  C   UNL     1      37.841  -8.402  10.831  1.00  0.00    -0.016 A 
ATOM     20  C   UNL     1      37.178  -9.628  10.735  1.00  0.00     0.134 A 
ATOM     21  C   UNL     1      37.377  -7.828  12.009  1.00  0.00     0.006 A 
ATOM     22  N   UNL     1      36.348  -9.796  11.780  1.00  0.00    -0.191 N 
ATOM     23  C   UNL     1      36.462  -8.702  12.557  1.00  0.00     0.087 A 
ATOM     24  C   UNL     1      37.710  -6.634  12.650  1.00  0.00     0.011 A 
ATOM     25  C   UNL     1      35.781  -8.408  13.733  1.00  0.00     0.030 A 
ATOM     26  C   UNL     1      37.041  -6.315  13.844  1.00  0.00     0.001 A 
ATOM     27  C   UNL     1      36.081  -7.196  14.386  1.00  0.00     0.002 A 
BRANCH  22  28
ATOM     28  O   UNL     1      35.542 -10.899  11.997  1.00  0.00    -0.417 OA
ATOM     29  C   UNL     1      34.233 -10.758  12.518  1.00  0.00     0.313 C 
ENDBRANCH  22  28
ENDBRANCH  18  19
ENDBRANCH   7  18
ENDBRANCH   4   7
ENDBRANCH   2   3
BRANCH   2  30
ATOM     30  N   UNL     1      41.380 -10.191   4.916  1.00  0.00    -0.343 N 
ATOM     31  C   UNL     1      42.331  -9.694   3.945  1.00  0.00     0.243 C 
ATOM     32  H   UNL     1      41.697 -10.994   5.515  1.00  0.00     0.164 HD
ATOM     33  O   UNL     1      41.933  -9.365   2.798  1.00  0.00    -0.273 OA
BRANCH  31  34
ATOM     34  C   UNL     1      43.832  -9.731   4.153  1.00  0.00     0.174 C 
ATOM     35  N   UNL     1      44.346  -9.257   5.477  1.00  0.00    -0.329 N 
ATOM     36  C   UNL     1      44.411 -11.120   3.858  1.00  0.00     0.035 C 
ATOM     37  C   UNL     1      45.801  -9.403   5.686  1.00  0.00     0.120 C 
ATOM     38  C   UNL     1      45.957 -11.107   3.813  1.00  0.00     0.004 C 
ATOM     39  C   UNL     1      46.574  -9.842   4.440  1.00  0.00     0.022 C 
BRANCH  35  40
ATOM     40  C   UNL     1      43.623  -8.240   6.231  1.00  0.00     0.246 CG0
ATOM     41  O   UNL     1      43.389  -7.150   5.643  1.00  0.00    -0.272 OA
ATOM     42  G   UNL     1      43.214  -8.304   7.729  1.00  0.00     0.000 G0
ENDBRANCH  35  40
ENDBRANCH  31  34
ENDBRANCH   2  30
ENDBRANCH   1   2
BRANCH   1  43
ATOM     43  C   UNL     1      40.701  -7.415   3.716  1.00  0.00     0.003 C 
BRANCH  43  44
ATOM     44  C   UNL     1      40.743  -5.880   3.635  1.00  0.00     0.001 C 
BRANCH  44  45
ATOM     45  C   UNL     1      39.493  -5.317   2.941  1.00  0.00     0.008 C 
BRANCH  45  46
ATOM     46  C   UNL     1      39.815  -4.646   1.594  1.00  0.00     0.075 C 
BRANCH  46  47
ATOM     47  C   UNL     1      39.987  -3.147   1.677  1.00  0.00     0.132 C 
ATOM     48  O   UNL     1      39.136  -2.392   1.214  1.00  0.00    -0.300 OA
BRANCH  47  49
ATOM     49  C   UNL     1      41.173  -2.563   2.389  1.00  0.00     0.072 C 
ATOM     50  C   UNL     1      42.260  -2.165   1.396  1.00  0.00     0.012 C 
ENDBRANCH  47  49
ENDBRANCH  46  47
ENDBRANCH  45  46
ENDBRANCH  44  45
ENDBRANCH  43  44
ENDBRANCH   1  43
TORSDOF 12
ENDMDL
MODEL 4
REMARK VINA RESULT:     3.897      3.688      8.243
REMARK INTER + INTRA:          14.275
REMARK INTER:                  11.330
REMARK INTRA:                   2.944
REMARK UNBOUND:                 6.048
REMARK SMILES CCC(=O)CCCCC[C@H]1NC(=O)[C@@H]2CCCCN2C(=O)[C@H]([C@H](C)CC)NC(=O)[C@@H](Cc2cn(OC)c3ccccc23)NC1=O
REMARK SMILES IDX 9 1 10 2 44 3 43 4 45 6 30 7 28 8 27 9 29 11 22 12 23 14
REMARK SMILES IDX 24 15 25 16 26 17 31 18 32 19 33 20 42 21 34 22 37 23 41 24
REMARK SMILES IDX 38 25 40 26 39 27 35 28 36 29 11 30 12 31 13 33 14 34 19 35
REMARK SMILES IDX 15 36 18 37 16 38 17 39 20 40 21 41 8 43 7 44 6 45 5 46 3 47
REMARK SMILES IDX 4 48 2 49 1 50
REMARK H PARENT 43 5 27 10 11 32
REMARK Flexibility Score: 80.00
ROOT
ATOM      1  C   UNL     1      40.145  -5.703   5.244  1.00  0.00     0.035 C 
ENDROOT
BRANCH   1   2
ATOM      2  C   UNL     1      39.605  -7.168   5.392  1.00  0.00     0.171 C 
BRANCH   2   3
ATOM      3  C   UNL     1      38.983  -7.479   6.743  1.00  0.00     0.243 C 
ATOM      4  N   UNL     1      39.166  -6.631   7.891  1.00  0.00    -0.342 N 
ATOM      5  H   UNL     1      39.267  -5.603   7.740  1.00  0.00     0.164 HD
ATOM      6  O   UNL     1      38.395  -8.581   6.884  1.00  0.00    -0.273 OA
BRANCH   4   7
ATOM      7  C   UNL     1      39.303  -7.178   9.246  1.00  0.00     0.175 C 
BRANCH   7   8
ATOM      8  C   UNL     1      40.715  -7.703   9.438  1.00  0.00     0.243 C 
ATOM      9  N   UNL     1      41.169  -8.766   8.593  1.00  0.00    -0.342 N 
ATOM     10  H   UNL     1      40.411  -9.392   8.246  1.00  0.00     0.164 HD
ATOM     11  O   UNL     1      41.503  -7.156  10.257  1.00  0.00    -0.273 OA
BRANCH   9  12
ATOM     12  C   UNL     1      42.564  -9.045   8.175  1.00  0.00     0.174 CG0
ATOM     13  G   UNL     1      42.916  -8.311   6.852  1.00  0.00     0.000 G0
BRANCH  12  14
ATOM     14  C   UNL     1      42.813 -10.592   8.287  1.00  0.00     0.018 C 
ATOM     15  C   UNL     1      42.580 -11.125   9.724  1.00  0.00     0.010 C 
BRANCH  14  16
ATOM     16  C   UNL     1      44.232 -10.967   7.754  1.00  0.00     0.002 C 
ATOM     17  C   UNL     1      45.359 -10.224   8.463  1.00  0.00     0.004 C 
ENDBRANCH  14  16
ENDBRANCH  12  14
ENDBRANCH   9  12
ENDBRANCH   7   8
BRANCH   7  18
ATOM     18  C   UNL     1      38.940  -6.126  10.318  1.00  0.00     0.073 C 
BRANCH  18  19
ATOM     19  C   UNL     1      38.131  -6.705  11.460  1.00  0.00    -0.016 A 
ATOM     20  C   UNL     1      37.129  -6.063  12.194  1.00  0.00     0.134 A 
ATOM     21  C   UNL     1      38.142  -8.013  11.928  1.00  0.00     0.006 A 
ATOM     22  N   UNL     1      36.567  -6.917  13.068  1.00  0.00    -0.191 N 
ATOM     23  C   UNL     1      37.182  -8.105  12.912  1.00  0.00     0.087 A 
ATOM     24  C   UNL     1      38.892  -9.126  11.543  1.00  0.00     0.011 A 
ATOM     25  C   UNL     1      36.959  -9.286  13.613  1.00  0.00     0.030 A 
ATOM     26  C   UNL     1      38.685 -10.334  12.231  1.00  0.00     0.001 A 
ATOM     27  C   UNL     1      37.723 -10.417  13.261  1.00  0.00     0.002 A 
BRANCH  22  28
ATOM     28  O   UNL     1      35.544  -6.610  13.946  1.00  0.00    -0.417 OA
ATOM     29  C   UNL     1      35.745  -6.652  15.347  1.00  0.00     0.313 C 
ENDBRANCH  22  28
ENDBRANCH  18  19
ENDBRANCH   7  18
ENDBRANCH   4   7
ENDBRANCH   2   3
BRANCH   2  30
ATOM     30  N   UNL     1      40.690  -8.159   5.163  1.00  0.00    -0.343 N 
ATOM     31  C   UNL     1      41.649  -8.110   4.079  1.00  0.00     0.243 C 
ATOM     32  H   UNL     1      40.903  -8.824   5.948  1.00  0.00     0.164 HD
ATOM     33  O   UNL     1      41.241  -8.022   2.893  1.00  0.00    -0.273 OA
BRANCH  31  34
ATOM     34  C   UNL     1      43.132  -8.363   4.266  1.00  0.00     0.174 C 
ATOM     35  N   UNL     1      43.590  -8.739   5.640  1.00  0.00    -0.329 N 
ATOM     36  C   UNL     1      43.662  -9.394   3.261  1.00  0.00     0.035 C 
ATOM     37  C   UNL     1      45.022  -9.079   5.766  1.00  0.00     0.120 C 
ATOM     38  C   UNL     1      45.207  -9.468   3.265  1.00  0.00     0.004 C 
ATOM     39  C   UNL     1      45.845  -8.809   4.503  1.00  0.00     0.022 C 
BRANCH  35  40
ATOM     40  C   UNL     1      42.872  -8.261   6.816  1.00  0.00     0.246 CG0
ATOM     41  O   UNL     1      42.535  -7.046   6.827  1.00  0.00    -0.272 OA
ATOM     42  G   UNL     1      42.584  -9.055   8.120  1.00  0.00     0.000 G0
ENDBRANCH  35  40
ENDBRANCH  31  34
ENDBRANCH   2  30
ENDBRANCH   1   2
BRANCH   1  43
ATOM     43  C   UNL     1      40.531  -5.167   3.850  1.00  0.00     0.003 C 
BRANCH  43  44
ATOM     44  C   UNL     1      39.582  -4.078   3.324  1.00  0.00     0.001 C 
BRANCH  44  45
ATOM     45  C   UNL     1      39.057  -4.418   1.920  1.00  0.00     0.008 C 
BRANCH  45  46
ATOM     46  C   UNL     1      39.389  -3.329   0.884  1.00  0.00     0.075 C 
BRANCH  46  47
ATOM     47  C   UNL     1      40.399  -2.310   1.362  1.00  0.00     0.132 C 
ATOM     48  O   UNL     1      41.385  -2.661   2.005  1.00  0.00    -0.300 OA
BRANCH  47  49
ATOM     49  C   UNL     1      40.241  -0.863   0.996  1.00  0.00     0.072 C 
ATOM     50  C   UNL     1      39.034  -0.253   1.701  1.00  0.00     0.012 C 
ENDBRANCH  47  49
ENDBRANCH  46  47
ENDBRANCH  45  46
ENDBRANCH  44  45
ENDBRANCH  43  44
ENDBRANCH   1  43
TORSDOF 12
ENDMDL
