MODEL 1
REMARK VINA RESULT:    -5.492      0.000      0.000
REMARK INTER + INTRA:          -9.430
REMARK INTER:                  -7.579
REMARK INTRA:                  -1.851
REMARK UNBOUND:                -1.851
REMARK SMILES CC[C@@H](CC[C@H](C)[C@@H]1CC[C@H]2[C@@H]3CC=C4C[C@H](O)CC[C@@]4(C)[C@@H]3CC[C@]21C)C(C)C
REMARK SMILES IDX 5 1 4 2 3 3 2 4 1 5 28 6 29 7 30 8 6 9 7 10 8 11 9 12 26 13
REMARK SMILES IDX 10 14 11 15 25 16 27 17 12 18 24 19 23 20 13 21 21 22 14 23
REMARK SMILES IDX 15 24 20 25 22 26 16 27 19 28 17 29 18 30
REMARK H PARENT 18 31
REMARK Flexibility Score: inf
ROOT
ATOM      1  C   UNL     1       5.839 110.402 183.983  1.00  0.00     0.004 C 
ENDROOT
BRANCH   1   2
ATOM      2  C   UNL     1       6.290 111.886 183.986  1.00  0.00     0.004 C 
BRANCH   2   3
ATOM      3  C   UNL     1       5.142 112.901 183.687  1.00  0.00    -0.009 C 
BRANCH   3   4
ATOM      4  C   UNL     1       3.734 112.360 184.079  1.00  0.00     0.000 C 
ATOM      5  C   UNL     1       2.824 113.343 184.832  1.00  0.00     0.004 C 
ENDBRANCH   3   4
BRANCH   3   6
ATOM      6  C   UNL     1       5.161 113.515 182.242  1.00  0.00    -0.014 C 
ATOM      7  C   UNL     1       4.606 112.593 181.143  1.00  0.00     0.007 C 
ATOM      8  C   UNL     1       6.550 114.034 181.840  1.00  0.00     0.007 C 
ENDBRANCH   3   6
ENDBRANCH   2   3
ENDBRANCH   1   2
BRANCH   1   9
ATOM      9  C   UNL     1       6.509 109.546 182.878  1.00  0.00    -0.011 C 
ATOM     10  C   UNL     1       7.505 110.367 182.028  1.00  0.00     0.008 C 
BRANCH   9  11
ATOM     11  C   UNL     1       5.463 108.686 182.077  1.00  0.00    -0.002 C 
ATOM     12  C   UNL     1       4.008 109.129 182.338  1.00  0.00     0.005 C 
ATOM     13  C   UNL     1       5.479 107.108 182.127  1.00  0.00    -0.026 C 
ATOM     14  C   UNL     1       3.216 107.868 182.636  1.00  0.00     0.005 C 
ATOM     15  C   UNL     1       3.973 106.732 181.938  1.00  0.00    -0.001 C 
ATOM     16  C   UNL     1       6.437 106.486 181.047  1.00  0.00     0.007 C 
ATOM     17  C   UNL     1       5.930 106.557 183.508  1.00  0.00     0.012 C 
ATOM     18  C   UNL     1       3.455 106.550 180.458  1.00  0.00     0.000 C 
ATOM     19  C   UNL     1       5.782 105.914 179.783  1.00  0.00     0.005 C 
ATOM     20  C   UNL     1       4.540 106.727 179.369  1.00  0.00     0.003 C 
ATOM     21  C   UNL     1       2.771 105.177 180.325  1.00  0.00     0.031 C 
ATOM     22  C   UNL     1       3.974 106.482 177.900  1.00  0.00    -0.008 C 
ATOM     23  C   UNL     1       2.281 104.912 178.940  1.00  0.00    -0.027 C 
ATOM     24  C   UNL     1       2.852 105.435 177.838  1.00  0.00    -0.065 C 
ATOM     25  C   UNL     1       3.355 107.822 177.379  1.00  0.00     0.014 C 
ATOM     26  C   UNL     1       5.115 106.061 176.934  1.00  0.00     0.016 C 
ATOM     27  C   UNL     1       2.145 105.248 176.510  1.00  0.00     0.063 C 
ATOM     28  C   UNL     1       2.597 107.697 176.040  1.00  0.00     0.033 C 
ATOM     29  C   UNL     1       1.532 106.584 176.076  1.00  0.00     0.118 C 
BRANCH  29  30
ATOM     30  O   UNL     1       0.955 106.432 174.806  1.00  0.00    -0.393 OA
ATOM     31  H   UNL     1       0.029 106.101 174.949  1.00  0.00     0.210 HD
ENDBRANCH  29  30
ENDBRANCH   9  11
ENDBRANCH   1   9
TORSDOF 7
ENDMDL
MODEL 2
REMARK VINA RESULT:    -5.437      4.082      8.627
REMARK INTER + INTRA:          -9.353
REMARK INTER:                  -7.332
REMARK INTRA:                  -2.021
REMARK UNBOUND:                -1.851
REMARK SMILES CC[C@@H](CC[C@H](C)[C@@H]1CC[C@H]2[C@@H]3CC=C4C[C@H](O)CC[C@@]4(C)[C@@H]3CC[C@]21C)C(C)C
REMARK SMILES IDX 5 1 4 2 3 3 2 4 1 5 28 6 29 7 30 8 6 9 7 10 8 11 9 12 26 13
REMARK SMILES IDX 10 14 11 15 25 16 27 17 12 18 24 19 23 20 13 21 21 22 14 23
REMARK SMILES IDX 15 24 20 25 22 26 16 27 19 28 17 29 18 30
REMARK H PARENT 18 31
REMARK Flexibility Score: inf
ROOT
ATOM      1  C   UNL     1       3.625 104.423 175.801  1.00  0.00     0.004 C 
ENDROOT
BRANCH   1   2
ATOM      2  C   UNL     1       4.882 103.899 175.059  1.00  0.00     0.004 C 
BRANCH   2   3
ATOM      3  C   UNL     1       5.912 103.176 175.983  1.00  0.00    -0.009 C 
BRANCH   3   4
ATOM      4  C   UNL     1       7.166 104.048 176.297  1.00  0.00     0.000 C 
ATOM      5  C   UNL     1       7.424 104.343 177.782  1.00  0.00     0.004 C 
ENDBRANCH   3   4
BRANCH   3   6
ATOM      6  C   UNL     1       6.296 101.722 175.537  1.00  0.00    -0.014 C 
ATOM      7  C   UNL     1       7.509 101.636 174.594  1.00  0.00     0.007 C 
ATOM      8  C   UNL     1       5.109 100.956 174.934  1.00  0.00     0.007 C 
ENDBRANCH   3   6
ENDBRANCH   2   3
ENDBRANCH   1   2
BRANCH   1   9
ATOM      9  C   UNL     1       3.788 105.854 176.373  1.00  0.00    -0.011 C 
ATOM     10  C   UNL     1       4.654 106.752 175.461  1.00  0.00     0.008 C 
BRANCH   9  11
ATOM     11  C   UNL     1       4.173 105.843 177.898  1.00  0.00    -0.002 C 
ATOM     12  C   UNL     1       3.587 104.629 178.650  1.00  0.00     0.005 C 
ATOM     13  C   UNL     1       3.944 107.106 178.818  1.00  0.00    -0.026 C 
ATOM     14  C   UNL     1       2.942 105.169 179.914  1.00  0.00     0.005 C 
ATOM     15  C   UNL     1       3.679 106.477 180.225  1.00  0.00    -0.001 C 
ATOM     16  C   UNL     1       5.161 108.101 178.779  1.00  0.00     0.007 C 
ATOM     17  C   UNL     1       2.679 107.915 178.420  1.00  0.00     0.012 C 
ATOM     18  C   UNL     1       4.934 106.200 181.141  1.00  0.00     0.000 C 
ATOM     19  C   UNL     1       6.127 108.066 179.970  1.00  0.00     0.005 C 
ATOM     20  C   UNL     1       6.286 106.639 180.530  1.00  0.00     0.003 C 
ATOM     21  C   UNL     1       4.717 106.863 182.513  1.00  0.00     0.031 C 
ATOM     22  C   UNL     1       7.512 106.384 181.517  1.00  0.00    -0.008 C 
ATOM     23  C   UNL     1       5.880 106.675 183.431  1.00  0.00    -0.027 C 
ATOM     24  C   UNL     1       7.147 106.528 183.002  1.00  0.00    -0.065 C 
ATOM     25  C   UNL     1       8.001 104.909 181.325  1.00  0.00     0.014 C 
ATOM     26  C   UNL     1       8.692 107.339 181.187  1.00  0.00     0.016 C 
ATOM     27  C   UNL     1       8.207 106.152 184.019  1.00  0.00     0.063 C 
ATOM     28  C   UNL     1       9.065 104.452 182.346  1.00  0.00     0.033 C 
ATOM     29  C   UNL     1       8.615 104.690 183.800  1.00  0.00     0.118 C 
BRANCH  29  30
ATOM     30  O   UNL     1       9.658 104.369 184.683  1.00  0.00    -0.393 OA
ATOM     31  H   UNL     1      10.161 103.618 184.271  1.00  0.00     0.210 HD
ENDBRANCH  29  30
ENDBRANCH   9  11
ENDBRANCH   1   9
TORSDOF 7
ENDMDL
MODEL 3
REMARK VINA RESULT:    -5.386      1.698      2.490
REMARK INTER + INTRA:          -9.284
REMARK INTER:                  -7.371
REMARK INTRA:                  -1.912
REMARK UNBOUND:                -1.851
REMARK SMILES CC[C@@H](CC[C@H](C)[C@@H]1CC[C@H]2[C@@H]3CC=C4C[C@H](O)CC[C@@]4(C)[C@@H]3CC[C@]21C)C(C)C
REMARK SMILES IDX 5 1 4 2 3 3 2 4 1 5 28 6 29 7 30 8 6 9 7 10 8 11 9 12 26 13
REMARK SMILES IDX 10 14 11 15 25 16 27 17 12 18 24 19 23 20 13 21 21 22 14 23
REMARK SMILES IDX 15 24 20 25 22 26 16 27 19 28 17 29 18 30
REMARK H PARENT 18 31
REMARK Flexibility Score: inf
ROOT
ATOM      1  C   UNL     1       6.599 110.796 185.046  1.00  0.00     0.004 C 
ENDROOT
BRANCH   1   2
ATOM      2  C   UNL     1       6.305 112.258 184.621  1.00  0.00     0.004 C 
BRANCH   2   3
ATOM      3  C   UNL     1       4.969 112.435 183.832  1.00  0.00    -0.009 C 
BRANCH   3   4
ATOM      4  C   UNL     1       3.756 112.763 184.754  1.00  0.00     0.000 C 
ATOM      5  C   UNL     1       3.089 114.128 184.526  1.00  0.00     0.004 C 
ENDBRANCH   3   4
BRANCH   3   6
ATOM      6  C   UNL     1       4.647 111.288 182.811  1.00  0.00    -0.014 C 
ATOM      7  C   UNL     1       4.732 111.700 181.331  1.00  0.00     0.007 C 
ATOM      8  C   UNL     1       3.296 110.611 183.091  1.00  0.00     0.007 C 
ENDBRANCH   3   6
ENDBRANCH   2   3
ENDBRANCH   1   2
BRANCH   1   9
ATOM      9  C   UNL     1       7.521 110.032 184.062  1.00  0.00    -0.011 C 
ATOM     10  C   UNL     1       8.490 110.978 183.316  1.00  0.00     0.008 C 
BRANCH   9  11
ATOM     11  C   UNL     1       6.720 109.018 183.165  1.00  0.00    -0.002 C 
ATOM     12  C   UNL     1       5.939 107.978 183.997  1.00  0.00     0.005 C 
ATOM     13  C   UNL     1       7.414 108.232 181.984  1.00  0.00    -0.026 C 
ATOM     14  C   UNL     1       6.247 106.619 183.395  1.00  0.00     0.005 C 
ATOM     15  C   UNL     1       6.613 106.890 181.931  1.00  0.00    -0.001 C 
ATOM     16  C   UNL     1       7.399 109.042 180.637  1.00  0.00     0.007 C 
ATOM     17  C   UNL     1       8.897 107.881 182.288  1.00  0.00     0.012 C 
ATOM     18  C   UNL     1       5.323 106.854 181.023  1.00  0.00     0.000 C 
ATOM     19  C   UNL     1       6.353 108.633 179.591  1.00  0.00     0.005 C 
ATOM     20  C   UNL     1       5.041 108.166 180.253  1.00  0.00     0.003 C 
ATOM     21  C   UNL     1       5.419 105.664 180.051  1.00  0.00     0.031 C 
ATOM     22  C   UNL     1       3.759 108.057 179.312  1.00  0.00    -0.008 C 
ATOM     23  C   UNL     1       4.247 105.580 179.130  1.00  0.00    -0.027 C 
ATOM     24  C   UNL     1       3.536 106.652 178.735  1.00  0.00    -0.065 C 
ATOM     25  C   UNL     1       2.491 108.389 180.168  1.00  0.00     0.014 C 
ATOM     26  C   UNL     1       3.843 109.079 178.146  1.00  0.00     0.016 C 
ATOM     27  C   UNL     1       2.257 106.414 177.957  1.00  0.00     0.063 C 
ATOM     28  C   UNL     1       1.150 108.143 179.443  1.00  0.00     0.033 C 
ATOM     29  C   UNL     1       1.056 106.720 178.861  1.00  0.00     0.118 C 
BRANCH  29  30
ATOM     30  O   UNL     1      -0.125 106.585 178.114  1.00  0.00    -0.393 OA
ATOM     31  H   UNL     1       0.123 106.134 177.264  1.00  0.00     0.210 HD
ENDBRANCH  29  30
ENDBRANCH   9  11
ENDBRANCH   1   9
TORSDOF 7
ENDMDL
MODEL 4
REMARK VINA RESULT:    -5.288      3.188      8.557
REMARK INTER + INTRA:          -9.148
REMARK INTER:                  -7.531
REMARK INTRA:                  -1.617
REMARK UNBOUND:                -1.851
REMARK SMILES CC[C@@H](CC[C@H](C)[C@@H]1CC[C@H]2[C@@H]3CC=C4C[C@H](O)CC[C@@]4(C)[C@@H]3CC[C@]21C)C(C)C
REMARK SMILES IDX 5 1 4 2 3 3 2 4 1 5 28 6 29 7 30 8 6 9 7 10 8 11 9 12 26 13
REMARK SMILES IDX 10 14 11 15 25 16 27 17 12 18 24 19 23 20 13 21 21 22 14 23
REMARK SMILES IDX 15 24 20 25 22 26 16 27 19 28 17 29 18 30
REMARK H PARENT 18 31
REMARK Flexibility Score: inf
ROOT
ATOM      1  C   UNL     1       4.352 105.875 176.215  1.00  0.00     0.004 C 
ENDROOT
BRANCH   1   2
ATOM      2  C   UNL     1       3.967 104.373 176.207  1.00  0.00     0.004 C 
BRANCH   2   3
ATOM      3  C   UNL     1       5.179 103.406 176.019  1.00  0.00    -0.009 C 
BRANCH   3   4
ATOM      4  C   UNL     1       6.556 104.113 176.201  1.00  0.00     0.000 C 
ATOM      5  C   UNL     1       7.497 103.491 177.244  1.00  0.00     0.004 C 
ENDBRANCH   3   4
BRANCH   3   6
ATOM      6  C   UNL     1       5.129 102.527 174.720  1.00  0.00    -0.014 C 
ATOM      7  C   UNL     1       5.231 101.012 174.963  1.00  0.00     0.007 C 
ATOM      8  C   UNL     1       6.166 102.962 173.673  1.00  0.00     0.007 C 
ENDBRANCH   3   6
ENDBRANCH   2   3
ENDBRANCH   1   2
BRANCH   1   9
ATOM      9  C   UNL     1       3.470 106.742 177.148  1.00  0.00    -0.011 C 
ATOM     10  C   UNL     1       2.893 107.979 176.423  1.00  0.00     0.008 C 
BRANCH   9  11
ATOM     11  C   UNL     1       4.163 107.016 178.534  1.00  0.00    -0.002 C 
ATOM     12  C   UNL     1       5.668 106.673 178.523  1.00  0.00     0.005 C 
ATOM     13  C   UNL     1       3.572 106.443 179.881  1.00  0.00    -0.026 C 
ATOM     14  C   UNL     1       5.933 105.838 179.763  1.00  0.00     0.005 C 
ATOM     15  C   UNL     1       4.843 106.233 180.766  1.00  0.00    -0.001 C 
ATOM     16  C   UNL     1       2.497 107.399 180.516  1.00  0.00     0.007 C 
ATOM     17  C   UNL     1       2.895 105.056 179.697  1.00  0.00     0.012 C 
ATOM     18  C   UNL     1       5.320 107.454 181.647  1.00  0.00     0.000 C 
ATOM     19  C   UNL     1       2.951 108.265 181.699  1.00  0.00     0.005 C 
ATOM     20  C   UNL     1       4.419 108.708 181.550  1.00  0.00     0.003 C 
ATOM     21  C   UNL     1       5.461 106.999 183.111  1.00  0.00     0.031 C 
ATOM     22  C   UNL     1       4.916 109.890 182.497  1.00  0.00    -0.008 C 
ATOM     23  C   UNL     1       5.878 108.109 184.018  1.00  0.00    -0.027 C 
ATOM     24  C   UNL     1       5.581 109.403 183.792  1.00  0.00    -0.065 C 
ATOM     25  C   UNL     1       6.001 110.715 181.728  1.00  0.00     0.014 C 
ATOM     26  C   UNL     1       3.740 110.840 182.855  1.00  0.00     0.016 C 
ATOM     27  C   UNL     1       6.225 110.449 184.681  1.00  0.00     0.063 C 
ATOM     28  C   UNL     1       6.715 111.784 182.583  1.00  0.00     0.033 C 
ATOM     29  C   UNL     1       7.300 111.194 183.881  1.00  0.00     0.118 C 
BRANCH  29  30
ATOM     30  O   UNL     1       7.833 112.220 184.676  1.00  0.00    -0.393 OA
ATOM     31  H   UNL     1       7.130 112.468 185.333  1.00  0.00     0.210 HD
ENDBRANCH  29  30
ENDBRANCH   9  11
ENDBRANCH   1   9
TORSDOF 7
ENDMDL
MODEL 5
REMARK VINA RESULT:    -5.122      3.240      8.662
REMARK INTER + INTRA:          -8.920
REMARK INTER:                  -6.630
REMARK INTRA:                  -2.290
REMARK UNBOUND:                -1.851
REMARK SMILES CC[C@@H](CC[C@H](C)[C@@H]1CC[C@H]2[C@@H]3CC=C4C[C@H](O)CC[C@@]4(C)[C@@H]3CC[C@]21C)C(C)C
REMARK SMILES IDX 5 1 4 2 3 3 2 4 1 5 28 6 29 7 30 8 6 9 7 10 8 11 9 12 26 13
REMARK SMILES IDX 10 14 11 15 25 16 27 17 12 18 24 19 23 20 13 21 21 22 14 23
REMARK SMILES IDX 15 24 20 25 22 26 16 27 19 28 17 29 18 30
REMARK H PARENT 18 31
REMARK Flexibility Score: inf
ROOT
ATOM      1  C   UNL     1       5.389 106.205 174.280  1.00  0.00     0.004 C 
ENDROOT
BRANCH   1   2
ATOM      2  C   UNL     1       6.072 105.101 173.432  1.00  0.00     0.004 C 
BRANCH   2   3
ATOM      3  C   UNL     1       6.259 103.745 174.184  1.00  0.00    -0.009 C 
BRANCH   3   4
ATOM      4  C   UNL     1       7.749 103.436 174.521  1.00  0.00     0.000 C 
ATOM      5  C   UNL     1       8.063 103.184 176.004  1.00  0.00     0.004 C 
ENDBRANCH   3   4
BRANCH   3   6
ATOM      6  C   UNL     1       5.531 102.518 173.528  1.00  0.00    -0.014 C 
ATOM      7  C   UNL     1       4.427 102.887 172.523  1.00  0.00     0.007 C 
ATOM      8  C   UNL     1       4.986 101.530 174.569  1.00  0.00     0.007 C 
ENDBRANCH   3   6
ENDBRANCH   2   3
ENDBRANCH   1   2
BRANCH   1   9
ATOM      9  C   UNL     1       4.387 105.658 175.329  1.00  0.00    -0.011 C 
ATOM     10  C   UNL     1       2.919 105.934 174.933  1.00  0.00     0.008 C 
BRANCH   9  11
ATOM     11  C   UNL     1       4.792 106.051 176.797  1.00  0.00    -0.002 C 
ATOM     12  C   UNL     1       6.245 106.563 176.896  1.00  0.00     0.005 C 
ATOM     13  C   UNL     1       4.570 105.063 178.009  1.00  0.00    -0.026 C 
ATOM     14  C   UNL     1       6.888 105.824 178.055  1.00  0.00     0.005 C 
ATOM     15  C   UNL     1       5.734 105.431 178.985  1.00  0.00    -0.001 C 
ATOM     16  C   UNL     1       3.136 105.201 178.638  1.00  0.00     0.007 C 
ATOM     17  C   UNL     1       4.750 103.573 177.606  1.00  0.00     0.012 C 
ATOM     18  C   UNL     1       5.459 106.575 180.038  1.00  0.00     0.000 C 
ATOM     19  C   UNL     1       3.025 105.992 179.948  1.00  0.00     0.005 C 
ATOM     20  C   UNL     1       4.028 107.161 179.992  1.00  0.00     0.003 C 
ATOM     21  C   UNL     1       5.789 106.056 181.449  1.00  0.00     0.031 C 
ATOM     22  C   UNL     1       3.790 108.274 181.109  1.00  0.00    -0.008 C 
ATOM     23  C   UNL     1       5.522 107.072 182.510  1.00  0.00    -0.027 C 
ATOM     24  C   UNL     1       4.583 108.029 182.401  1.00  0.00    -0.065 C 
ATOM     25  C   UNL     1       4.279 109.650 180.546  1.00  0.00     0.014 C 
ATOM     26  C   UNL     1       2.280 108.394 181.453  1.00  0.00     0.016 C 
ATOM     27  C   UNL     1       4.542 109.114 183.459  1.00  0.00     0.063 C 
ATOM     28  C   UNL     1       4.286 110.796 181.580  1.00  0.00     0.033 C 
ATOM     29  C   UNL     1       5.066 110.423 182.856  1.00  0.00     0.118 C 
BRANCH  29  30
ATOM     30  O   UNL     1       4.945 111.447 183.808  1.00  0.00    -0.393 OA
ATOM     31  H   UNL     1       4.057 111.335 184.238  1.00  0.00     0.210 HD
ENDBRANCH  29  30
ENDBRANCH   9  11
ENDBRANCH   1   9
TORSDOF 7
ENDMDL
MODEL 6
REMARK VINA RESULT:    -5.092      1.442      2.714
REMARK INTER + INTRA:          -8.878
REMARK INTER:                  -6.710
REMARK INTRA:                  -2.168
REMARK UNBOUND:                -1.851
REMARK SMILES CC[C@@H](CC[C@H](C)[C@@H]1CC[C@H]2[C@@H]3CC=C4C[C@H](O)CC[C@@]4(C)[C@@H]3CC[C@]21C)C(C)C
REMARK SMILES IDX 5 1 4 2 3 3 2 4 1 5 28 6 29 7 30 8 6 9 7 10 8 11 9 12 26 13
REMARK SMILES IDX 10 14 11 15 25 16 27 17 12 18 24 19 23 20 13 21 21 22 14 23
REMARK SMILES IDX 15 24 20 25 22 26 16 27 19 28 17 29 18 30
REMARK H PARENT 18 31
REMARK Flexibility Score: inf
ROOT
ATOM      1  C   UNL     1       6.167 113.530 181.646  1.00  0.00     0.004 C 
ENDROOT
BRANCH   1   2
ATOM      2  C   UNL     1       6.479 114.527 182.793  1.00  0.00     0.004 C 
BRANCH   2   3
ATOM      3  C   UNL     1       5.568 114.357 184.049  1.00  0.00    -0.009 C 
BRANCH   3   4
ATOM      4  C   UNL     1       6.183 113.411 185.124  1.00  0.00     0.000 C 
ATOM      5  C   UNL     1       7.715 113.302 185.125  1.00  0.00     0.004 C 
ENDBRANCH   3   4
BRANCH   3   6
ATOM      6  C   UNL     1       4.069 114.008 183.738  1.00  0.00    -0.014 C 
ATOM      7  C   UNL     1       3.156 115.227 183.524  1.00  0.00     0.007 C 
ATOM      8  C   UNL     1       3.453 113.067 184.784  1.00  0.00     0.007 C 
ENDBRANCH   3   6
ENDBRANCH   2   3
ENDBRANCH   1   2
BRANCH   1   9
ATOM      9  C   UNL     1       6.961 112.203 181.737  1.00  0.00    -0.011 C 
ATOM     10  C   UNL     1       8.286 112.260 180.944  1.00  0.00     0.008 C 
BRANCH   9  11
ATOM     11  C   UNL     1       6.051 110.947 181.471  1.00  0.00    -0.002 C 
ATOM     12  C   UNL     1       4.561 111.317 181.311  1.00  0.00     0.005 C 
ATOM     13  C   UNL     1       6.110 109.672 182.400  1.00  0.00    -0.026 C 
ATOM     14  C   UNL     1       3.779 110.365 182.197  1.00  0.00     0.005 C 
ATOM     15  C   UNL     1       4.652 109.111 182.326  1.00  0.00    -0.001 C 
ATOM     16  C   UNL     1       7.215 108.651 181.944  1.00  0.00     0.007 C 
ATOM     17  C   UNL     1       6.401 110.026 183.885  1.00  0.00     0.012 C 
ATOM     18  C   UNL     1       4.329 108.091 181.166  1.00  0.00     0.000 C 
ATOM     19  C   UNL     1       6.741 107.414 181.169  1.00  0.00     0.005 C 
ATOM     20  C   UNL     1       5.536 107.738 180.265  1.00  0.00     0.003 C 
ATOM     21  C   UNL     1       3.711 106.816 181.770  1.00  0.00     0.031 C 
ATOM     22  C   UNL     1       5.166 106.665 179.145  1.00  0.00    -0.008 C 
ATOM     23  C   UNL     1       3.406 105.782 180.737  1.00  0.00    -0.027 C 
ATOM     24  C   UNL     1       4.094 105.658 179.586  1.00  0.00    -0.065 C 
ATOM     25  C   UNL     1       4.576 107.425 177.910  1.00  0.00     0.014 C 
ATOM     26  C   UNL     1       6.432 105.892 178.685  1.00  0.00     0.016 C 
ATOM     27  C   UNL     1       3.566 104.699 178.538  1.00  0.00     0.063 C 
ATOM     28  C   UNL     1       3.996 106.506 176.813  1.00  0.00     0.033 C 
ATOM     29  C   UNL     1       2.970 105.504 177.377  1.00  0.00     0.118 C 
BRANCH  29  30
ATOM     30  O   UNL     1       2.562 104.618 176.368  1.00  0.00    -0.393 OA
ATOM     31  H   UNL     1       3.032 104.894 175.537  1.00  0.00     0.210 HD
ENDBRANCH  29  30
ENDBRANCH   9  11
ENDBRANCH   1   9
TORSDOF 7
ENDMDL
MODEL 7
REMARK VINA RESULT:    -5.083      1.460      2.278
REMARK INTER + INTRA:          -8.865
REMARK INTER:                  -7.061
REMARK INTRA:                  -1.804
REMARK UNBOUND:                -1.851
REMARK SMILES CC[C@@H](CC[C@H](C)[C@@H]1CC[C@H]2[C@@H]3CC=C4C[C@H](O)CC[C@@]4(C)[C@@H]3CC[C@]21C)C(C)C
REMARK SMILES IDX 5 1 4 2 3 3 2 4 1 5 28 6 29 7 30 8 6 9 7 10 8 11 9 12 26 13
REMARK SMILES IDX 10 14 11 15 25 16 27 17 12 18 24 19 23 20 13 21 21 22 14 23
REMARK SMILES IDX 15 24 20 25 22 26 16 27 19 28 17 29 18 30
REMARK H PARENT 18 31
REMARK Flexibility Score: inf
ROOT
ATOM      1  C   UNL     1       7.510 110.493 182.167  1.00  0.00     0.004 C 
ENDROOT
BRANCH   1   2
ATOM      2  C   UNL     1       7.179 110.963 183.607  1.00  0.00     0.004 C 
BRANCH   2   3
ATOM      3  C   UNL     1       6.499 112.367 183.678  1.00  0.00    -0.009 C 
BRANCH   3   4
ATOM      4  C   UNL     1       6.702 113.073 185.053  1.00  0.00     0.000 C 
ATOM      5  C   UNL     1       7.859 114.082 185.125  1.00  0.00     0.004 C 
ENDBRANCH   3   4
BRANCH   3   6
ATOM      6  C   UNL     1       5.003 112.403 183.207  1.00  0.00    -0.014 C 
ATOM      7  C   UNL     1       4.694 113.449 182.123  1.00  0.00     0.007 C 
ATOM      8  C   UNL     1       4.019 112.553 184.377  1.00  0.00     0.007 C 
ENDBRANCH   3   6
ENDBRANCH   2   3
ENDBRANCH   1   2
BRANCH   1   9
ATOM      9  C   UNL     1       7.253 108.984 181.927  1.00  0.00    -0.011 C 
ATOM     10  C   UNL     1       8.502 108.259 181.377  1.00  0.00     0.008 C 
BRANCH   9  11
ATOM     11  C   UNL     1       5.908 108.726 181.152  1.00  0.00    -0.002 C 
ATOM     12  C   UNL     1       5.456 109.949 180.325  1.00  0.00     0.005 C 
ATOM     13  C   UNL     1       4.625 108.169 181.884  1.00  0.00    -0.026 C 
ATOM     14  C   UNL     1       3.988 110.170 180.640  1.00  0.00     0.005 C 
ATOM     15  C   UNL     1       3.449 108.801 181.070  1.00  0.00    -0.001 C 
ATOM     16  C   UNL     1       4.601 106.598 181.934  1.00  0.00     0.007 C 
ATOM     17  C   UNL     1       4.505 108.674 183.349  1.00  0.00     0.012 C 
ATOM     18  C   UNL     1       2.924 107.996 179.818  1.00  0.00     0.000 C 
ATOM     19  C   UNL     1       3.689 105.884 180.927  1.00  0.00     0.005 C 
ATOM     20  C   UNL     1       3.627 106.638 179.584  1.00  0.00     0.003 C 
ATOM     21  C   UNL     1       1.400 107.805 179.940  1.00  0.00     0.031 C 
ATOM     22  C   UNL     1       3.023 105.845 178.340  1.00  0.00    -0.008 C 
ATOM     23  C   UNL     1       0.829 107.020 178.806  1.00  0.00    -0.027 C 
ATOM     24  C   UNL     1       1.522 106.089 178.124  1.00  0.00    -0.065 C 
ATOM     25  C   UNL     1       3.741 106.343 177.042  1.00  0.00     0.014 C 
ATOM     26  C   UNL     1       3.275 104.319 178.485  1.00  0.00     0.016 C 
ATOM     27  C   UNL     1       0.894 105.503 176.875  1.00  0.00     0.063 C 
ATOM     28  C   UNL     1       3.135 105.802 175.729  1.00  0.00     0.033 C 
ATOM     29  C   UNL     1       1.617 106.057 175.642  1.00  0.00     0.118 C 
BRANCH  29  30
ATOM     30  O   UNL     1       1.094 105.447 174.492  1.00  0.00    -0.393 OA
ATOM     31  H   UNL     1       1.485 105.923 173.712  1.00  0.00     0.210 HD
ENDBRANCH  29  30
ENDBRANCH   9  11
ENDBRANCH   1   9
TORSDOF 7
ENDMDL
MODEL 8
REMARK VINA RESULT:    -5.075      2.998      8.387
REMARK INTER + INTRA:          -8.854
REMARK INTER:                  -7.097
REMARK INTRA:                  -1.757
REMARK UNBOUND:                -1.851
REMARK SMILES CC[C@@H](CC[C@H](C)[C@@H]1CC[C@H]2[C@@H]3CC=C4C[C@H](O)CC[C@@]4(C)[C@@H]3CC[C@]21C)C(C)C
REMARK SMILES IDX 5 1 4 2 3 3 2 4 1 5 28 6 29 7 30 8 6 9 7 10 8 11 9 12 26 13
REMARK SMILES IDX 10 14 11 15 25 16 27 17 12 18 24 19 23 20 13 21 21 22 14 23
REMARK SMILES IDX 15 24 20 25 22 26 16 27 19 28 17 29 18 30
REMARK H PARENT 18 31
REMARK Flexibility Score: inf
ROOT
ATOM      1  C   UNL     1       2.689 108.466 177.058  1.00  0.00     0.004 C 
ENDROOT
BRANCH   1   2
ATOM      2  C   UNL     1       2.592 107.256 176.092  1.00  0.00     0.004 C 
BRANCH   2   3
ATOM      3  C   UNL     1       3.680 106.162 176.332  1.00  0.00    -0.009 C 
BRANCH   3   4
ATOM      4  C   UNL     1       4.565 105.897 175.077  1.00  0.00     0.000 C 
ATOM      5  C   UNL     1       4.654 104.435 174.614  1.00  0.00     0.004 C 
ENDBRANCH   3   4
BRANCH   3   6
ATOM      6  C   UNL     1       3.151 104.832 176.977  1.00  0.00    -0.014 C 
ATOM      7  C   UNL     1       1.627 104.774 177.174  1.00  0.00     0.007 C 
ATOM      8  C   UNL     1       3.864 104.490 178.294  1.00  0.00     0.007 C 
ENDBRANCH   3   6
ENDBRANCH   2   3
ENDBRANCH   1   2
BRANCH   1   9
ATOM      9  C   UNL     1       2.173 108.167 178.488  1.00  0.00    -0.011 C 
ATOM     10  C   UNL     1       0.693 108.573 178.672  1.00  0.00     0.008 C 
BRANCH   9  11
ATOM     11  C   UNL     1       3.170 108.673 179.596  1.00  0.00    -0.002 C 
ATOM     12  C   UNL     1       4.621 108.785 179.082  1.00  0.00     0.005 C 
ATOM     13  C   UNL     1       3.239 107.993 181.019  1.00  0.00    -0.026 C 
ATOM     14  C   UNL     1       5.502 108.102 180.112  1.00  0.00     0.005 C 
ATOM     15  C   UNL     1       4.733 108.191 181.435  1.00  0.00    -0.001 C 
ATOM     16  C   UNL     1       2.204 108.611 182.027  1.00  0.00     0.007 C 
ATOM     17  C   UNL     1       2.966 106.464 180.966  1.00  0.00     0.012 C 
ATOM     18  C   UNL     1       5.100 109.523 182.198  1.00  0.00     0.000 C 
ATOM     19  C   UNL     1       2.749 109.607 183.060  1.00  0.00     0.005 C 
ATOM     20  C   UNL     1       3.897 110.456 182.480  1.00  0.00     0.003 C 
ATOM     21  C   UNL     1       5.833 109.174 183.506  1.00  0.00     0.031 C 
ATOM     22  C   UNL     1       4.315 111.759 183.297  1.00  0.00    -0.008 C 
ATOM     23  C   UNL     1       6.186 110.384 184.307  1.00  0.00    -0.027 C 
ATOM     24  C   UNL     1       5.475 111.526 184.276  1.00  0.00    -0.065 C 
ATOM     25  C   UNL     1       4.807 112.842 182.280  1.00  0.00     0.014 C 
ATOM     26  C   UNL     1       3.100 112.333 184.075  1.00  0.00     0.016 C 
ATOM     27  C   UNL     1       6.045 112.741 184.982  1.00  0.00     0.063 C 
ATOM     28  C   UNL     1       5.423 114.098 182.934  1.00  0.00     0.033 C 
ATOM     29  C   UNL     1       6.541 113.744 183.934  1.00  0.00     0.118 C 
BRANCH  29  30
ATOM     30  O   UNL     1       6.986 114.905 184.585  1.00  0.00    -0.393 OA
ATOM     31  H   UNL     1       7.426 115.469 183.896  1.00  0.00     0.210 HD
ENDBRANCH  29  30
ENDBRANCH   9  11
ENDBRANCH   1   9
TORSDOF 7
ENDMDL
MODEL 9
REMARK VINA RESULT:    -5.040      1.642      2.212
REMARK INTER + INTRA:          -8.806
REMARK INTER:                  -7.637
REMARK INTRA:                  -1.169
REMARK UNBOUND:                -1.851
REMARK SMILES CC[C@@H](CC[C@H](C)[C@@H]1CC[C@H]2[C@@H]3CC=C4C[C@H](O)CC[C@@]4(C)[C@@H]3CC[C@]21C)C(C)C
REMARK SMILES IDX 5 1 4 2 3 3 2 4 1 5 28 6 29 7 30 8 6 9 7 10 8 11 9 12 26 13
REMARK SMILES IDX 10 14 11 15 25 16 27 17 12 18 24 19 23 20 13 21 21 22 14 23
REMARK SMILES IDX 15 24 20 25 22 26 16 27 19 28 17 29 18 30
REMARK H PARENT 18 31
REMARK Flexibility Score: inf
ROOT
ATOM      1  C   UNL     1       5.335 111.671 182.012  1.00  0.00     0.004 C 
ENDROOT
BRANCH   1   2
ATOM      2  C   UNL     1       4.406 112.147 183.159  1.00  0.00     0.004 C 
BRANCH   2   3
ATOM      3  C   UNL     1       4.993 113.319 184.008  1.00  0.00    -0.009 C 
BRANCH   3   4
ATOM      4  C   UNL     1       5.966 112.835 185.125  1.00  0.00     0.000 C 
ATOM      5  C   UNL     1       7.447 113.192 184.927  1.00  0.00     0.004 C 
ENDBRANCH   3   4
BRANCH   3   6
ATOM      6  C   UNL     1       3.932 114.342 184.546  1.00  0.00    -0.014 C 
ATOM      7  C   UNL     1       2.541 113.744 184.819  1.00  0.00     0.007 C 
ATOM      8  C   UNL     1       3.802 115.584 183.652  1.00  0.00     0.007 C 
ENDBRANCH   3   6
ENDBRANCH   2   3
ENDBRANCH   1   2
BRANCH   1   9
ATOM      9  C   UNL     1       5.962 110.274 182.253  1.00  0.00    -0.011 C 
ATOM     10  C   UNL     1       7.505 110.307 182.186  1.00  0.00     0.008 C 
BRANCH   9  11
ATOM     11  C   UNL     1       5.258 109.153 181.402  1.00  0.00    -0.002 C 
ATOM     12  C   UNL     1       3.886 109.598 180.853  1.00  0.00     0.005 C 
ATOM     13  C   UNL     1       5.075 107.686 181.958  1.00  0.00    -0.026 C 
ATOM     14  C   UNL     1       2.907 108.482 181.167  1.00  0.00     0.005 C 
ATOM     15  C   UNL     1       3.755 107.208 181.270  1.00  0.00    -0.001 C 
ATOM     16  C   UNL     1       6.321 106.775 181.660  1.00  0.00     0.007 C 
ATOM     17  C   UNL     1       4.842 107.652 183.494  1.00  0.00     0.012 C 
ATOM     18  C   UNL     1       3.886 106.517 179.857  1.00  0.00     0.000 C 
ATOM     19  C   UNL     1       6.195 105.784 180.495  1.00  0.00     0.005 C 
ATOM     20  C   UNL     1       5.339 106.359 179.350  1.00  0.00     0.003 C 
ATOM     21  C   UNL     1       3.172 105.153 179.891  1.00  0.00     0.031 C 
ATOM     22  C   UNL     1       5.416 105.610 177.945  1.00  0.00    -0.008 C 
ATOM     23  C   UNL     1       3.280 104.417 178.596  1.00  0.00    -0.027 C 
ATOM     24  C   UNL     1       4.314 104.559 177.746  1.00  0.00    -0.065 C 
ATOM     25  C   UNL     1       5.226 106.669 176.809  1.00  0.00     0.014 C 
ATOM     26  C   UNL     1       6.802 104.934 177.758  1.00  0.00     0.016 C 
ATOM     27  C   UNL     1       4.212 103.907 176.382  1.00  0.00     0.063 C 
ATOM     28  C   UNL     1       5.089 106.070 175.393  1.00  0.00     0.033 C 
ATOM     29  C   UNL     1       3.989 104.992 175.322  1.00  0.00     0.118 C 
BRANCH  29  30
ATOM     30  O   UNL     1       3.984 104.398 174.051  1.00  0.00    -0.393 OA
ATOM     31  H   UNL     1       4.298 105.088 173.410  1.00  0.00     0.210 HD
ENDBRANCH  29  30
ENDBRANCH   9  11
ENDBRANCH   1   9
TORSDOF 7
ENDMDL
