MODEL 1
REMARK VINA RESULT:    54.155      0.000      0.000
REMARK INTER + INTRA:          78.010
REMARK INTER:                  74.733
REMARK INTRA:                   3.276
REMARK UNBOUND:                 3.276
REMARK SMILES CC[C@H](CC[C@@H](C)[C@@H]1CC[C@@H]2[C@@H]3CC=C4C[C@H](O)CC[C@@]4(C)[C@@H]3CC[C@]21C)C(C)C
REMARK SMILES IDX 5 1 4 2 3 3 2 4 1 5 28 6 29 7 30 8 6 9 7 10 8 11 9 12 26 13
REMARK SMILES IDX 10 14 11 15 25 16 27 17 12 18 24 19 23 20 13 21 21 22 14 23
REMARK SMILES IDX 15 24 20 25 22 26 16 27 19 28 17 29 18 30
REMARK H PARENT 18 31
REMARK Flexibility Score: inf
ROOT
ATOM      1  C   UNL     1     -41.359  23.052   4.928  1.00  0.00     0.004 C 
ENDROOT
BRANCH   1   2
ATOM      2  C   UNL     1     -42.114  24.389   5.093  1.00  0.00     0.004 C 
BRANCH   2   3
ATOM      3  C   UNL     1     -41.259  25.651   4.765  1.00  0.00    -0.009 C 
BRANCH   3   4
ATOM      4  C   UNL     1     -40.315  25.432   3.546  1.00  0.00     0.000 C 
ATOM      5  C   UNL     1     -39.766  24.008   3.423  1.00  0.00     0.004 C 
ENDBRANCH   3   4
BRANCH   3   6
ATOM      6  C   UNL     1     -42.125  26.948   4.589  1.00  0.00    -0.014 C 
ATOM      7  C   UNL     1     -41.763  28.035   5.619  1.00  0.00     0.007 C 
ATOM      8  C   UNL     1     -41.987  27.545   3.175  1.00  0.00     0.007 C 
ENDBRANCH   3   6
ENDBRANCH   2   3
ENDBRANCH   1   2
BRANCH   1   9
ATOM      9  C   UNL     1     -41.489  22.124   6.165  1.00  0.00    -0.011 C 
ATOM     10  C   UNL     1     -42.046  20.746   5.741  1.00  0.00     0.008 C 
BRANCH   9  11
ATOM     11  C   UNL     1     -40.125  22.061   6.949  1.00  0.00    -0.002 C 
ATOM     12  C   UNL     1     -40.195  21.720   8.466  1.00  0.00     0.005 C 
ATOM     13  C   UNL     1     -39.185  23.302   6.873  1.00  0.00    -0.026 C 
ATOM     14  C   UNL     1     -38.951  22.362   9.117  1.00  0.00     0.005 C 
ATOM     15  C   UNL     1     -38.149  22.878   7.932  1.00  0.00    -0.001 C 
ATOM     16  C   UNL     1     -38.435  23.477   5.530  1.00  0.00     0.007 C 
ATOM     17  C   UNL     1     -39.980  24.600   7.210  1.00  0.00     0.012 C 
ATOM     18  C   UNL     1     -36.927  23.798   8.144  1.00  0.00     0.000 C 
ATOM     19  C   UNL     1     -37.230  24.450   5.664  1.00  0.00     0.005 C 
ATOM     20  C   UNL     1     -36.213  24.036   6.782  1.00  0.00     0.003 C 
ATOM     21  C   UNL     1     -37.191  25.128   8.857  1.00  0.00     0.031 C 
ATOM     22  C   UNL     1     -34.905  24.948   6.937  1.00  0.00    -0.008 C 
ATOM     23  C   UNL     1     -35.892  25.813   9.120  1.00  0.00    -0.027 C 
ATOM     24  C   UNL     1     -34.865  25.769   8.246  1.00  0.00    -0.065 C 
ATOM     25  C   UNL     1     -33.668  23.993   6.964  1.00  0.00     0.014 C 
ATOM     26  C   UNL     1     -34.749  25.930   5.743  1.00  0.00     0.016 C 
ATOM     27  C   UNL     1     -33.564  26.453   8.626  1.00  0.00     0.063 C 
ATOM     28  C   UNL     1     -32.335  24.681   7.313  1.00  0.00     0.033 C 
ATOM     29  C   UNL     1     -32.421  25.430   8.648  1.00  0.00     0.118 C 
BRANCH  29  30
ATOM     30  O   UNL     1     -31.201  26.080   8.887  1.00  0.00    -0.393 OA
ATOM     31  H   UNL     1     -31.070  26.728   8.146  1.00  0.00     0.210 HD
ENDBRANCH  29  30
ENDBRANCH   9  11
ENDBRANCH   1   9
TORSDOF 7
ENDMDL
MODEL 2
REMARK VINA RESULT:    56.714      1.907      4.429
REMARK INTER + INTRA:          81.541
REMARK INTER:                  81.219
REMARK INTRA:                   0.322
REMARK UNBOUND:                 3.276
REMARK SMILES CC[C@H](CC[C@@H](C)[C@@H]1CC[C@@H]2[C@@H]3CC=C4C[C@H](O)CC[C@@]4(C)[C@@H]3CC[C@]21C)C(C)C
REMARK SMILES IDX 5 1 4 2 3 3 2 4 1 5 28 6 29 7 30 8 6 9 7 10 8 11 9 12 26 13
REMARK SMILES IDX 10 14 11 15 25 16 27 17 12 18 24 19 23 20 13 21 21 22 14 23
REMARK SMILES IDX 15 24 20 25 22 26 16 27 19 28 17 29 18 30
REMARK H PARENT 18 31
REMARK Flexibility Score: inf
ROOT
ATOM      1  C   UNL     1     -39.913  24.895   7.915  1.00  0.00     0.004 C 
ENDROOT
BRANCH   1   2
ATOM      2  C   UNL     1     -40.726  23.615   7.623  1.00  0.00     0.004 C 
BRANCH   2   3
ATOM      3  C   UNL     1     -41.865  23.805   6.575  1.00  0.00    -0.009 C 
BRANCH   3   4
ATOM      4  C   UNL     1     -42.123  25.303   6.239  1.00  0.00     0.000 C 
ATOM      5  C   UNL     1     -41.576  25.746   4.879  1.00  0.00     0.004 C 
ENDBRANCH   3   4
BRANCH   3   6
ATOM      6  C   UNL     1     -41.645  22.959   5.272  1.00  0.00    -0.014 C 
ATOM      7  C   UNL     1     -40.272  23.227   4.627  1.00  0.00     0.007 C 
ATOM      8  C   UNL     1     -41.775  21.447   5.540  1.00  0.00     0.007 C 
ENDBRANCH   3   6
ENDBRANCH   2   3
ENDBRANCH   1   2
BRANCH   1   9
ATOM      9  C   UNL     1     -38.521  24.603   8.536  1.00  0.00    -0.011 C 
ATOM     10  C   UNL     1     -38.475  23.156   9.079  1.00  0.00     0.008 C 
BRANCH   9  11
ATOM     11  C   UNL     1     -37.379  24.951   7.510  1.00  0.00    -0.002 C 
ATOM     12  C   UNL     1     -37.373  24.167   6.166  1.00  0.00     0.005 C 
ATOM     13  C   UNL     1     -35.905  24.876   8.010  1.00  0.00    -0.026 C 
ATOM     14  C   UNL     1     -35.908  24.147   5.678  1.00  0.00     0.005 C 
ATOM     15  C   UNL     1     -35.188  25.059   6.659  1.00  0.00    -0.001 C 
ATOM     16  C   UNL     1     -35.464  26.037   8.933  1.00  0.00     0.007 C 
ATOM     17  C   UNL     1     -35.645  23.509   8.716  1.00  0.00     0.012 C 
ATOM     18  C   UNL     1     -33.646  25.144   6.674  1.00  0.00     0.000 C 
ATOM     19  C   UNL     1     -33.917  26.132   9.044  1.00  0.00     0.005 C 
ATOM     20  C   UNL     1     -33.197  26.263   7.658  1.00  0.00     0.003 C 
ATOM     21  C   UNL     1     -32.894  23.840   6.957  1.00  0.00     0.031 C 
ATOM     22  C   UNL     1     -31.605  26.438   7.688  1.00  0.00    -0.008 C 
ATOM     23  C   UNL     1     -31.430  24.066   6.778  1.00  0.00    -0.027 C 
ATOM     24  C   UNL     1     -30.830  25.220   7.136  1.00  0.00    -0.065 C 
ATOM     25  C   UNL     1     -31.249  27.654   6.772  1.00  0.00     0.014 C 
ATOM     26  C   UNL     1     -31.091  26.730   9.124  1.00  0.00     0.016 C 
ATOM     27  C   UNL     1     -29.345  25.376   6.865  1.00  0.00     0.063 C 
ATOM     28  C   UNL     1     -29.742  27.845   6.519  1.00  0.00     0.033 C 
ATOM     29  C   UNL     1     -29.103  26.577   5.941  1.00  0.00     0.118 C 
BRANCH  29  30
ATOM     30  O   UNL     1     -27.726  26.790   5.782  1.00  0.00    -0.393 OA
ATOM     31  H   UNL     1     -27.332  25.923   5.499  1.00  0.00     0.210 HD
ENDBRANCH  29  30
ENDBRANCH   9  11
ENDBRANCH   1   9
TORSDOF 7
ENDMDL
