MODEL 1
REMARK VINA RESULT:    -5.789      0.000      0.000
REMARK INTER + INTRA:          -9.895
REMARK INTER:                  -7.989
REMARK INTRA:                  -1.906
REMARK UNBOUND:                -1.906
REMARK SMILES CC[C@@H](CC[C@H](C)[C@@H]1CC[C@H]2[C@@H]3CC=C4C[C@@H](O)CC[C@@]4(C)[C@H]3CC[C@]21C)C(C)C
REMARK SMILES IDX 5 1 4 2 3 3 2 4 1 5 28 6 29 7 30 8 6 9 7 10 8 11 9 12 26 13
REMARK SMILES IDX 10 14 11 15 25 16 27 17 12 18 24 19 23 20 13 21 21 22 14 23
REMARK SMILES IDX 15 24 20 25 22 26 16 27 19 28 17 29 18 30
REMARK H PARENT 18 31
REMARK Flexibility Score: inf
ROOT
ATOM      1  C   UNL     1     173.885 160.891 187.932  1.00  0.00     0.004 C 
ENDROOT
BRANCH   1   2
ATOM      2  C   UNL     1     175.272 161.318 188.499  1.00  0.00     0.004 C 
BRANCH   2   3
ATOM      3  C   UNL     1     175.783 162.742 188.119  1.00  0.00    -0.009 C 
BRANCH   3   4
ATOM      4  C   UNL     1     177.122 162.689 187.323  1.00  0.00     0.000 C 
ATOM      5  C   UNL     1     177.207 163.619 186.106  1.00  0.00     0.004 C 
ENDBRANCH   3   4
BRANCH   3   6
ATOM      6  C   UNL     1     175.774 163.780 189.291  1.00  0.00    -0.014 C 
ATOM      7  C   UNL     1     177.122 163.945 190.003  1.00  0.00     0.007 C 
ATOM      8  C   UNL     1     175.248 165.141 188.824  1.00  0.00     0.007 C 
ENDBRANCH   3   6
ENDBRANCH   2   3
ENDBRANCH   1   2
BRANCH   1   9
ATOM      9  C   UNL     1     173.181 161.854 186.907  1.00  0.00    -0.011 C 
ATOM     10  C   UNL     1     171.888 162.390 187.562  1.00  0.00     0.008 C 
BRANCH   9  11
ATOM     11  C   UNL     1     173.096 161.230 185.443  1.00  0.00    -0.002 C 
ATOM     12  C   UNL     1     173.862 159.885 185.449  1.00  0.00     0.005 C 
ATOM     13  C   UNL     1     173.732 161.948 184.183  1.00  0.00    -0.026 C 
ATOM     14  C   UNL     1     175.291 160.232 185.081  1.00  0.00     0.005 C 
ATOM     15  C   UNL     1     175.222 161.463 184.159  1.00  0.00    -0.001 C 
ATOM     16  C   UNL     1     172.987 161.452 182.894  1.00  0.00     0.007 C 
ATOM     17  C   UNL     1     173.616 163.499 184.197  1.00  0.00     0.012 C 
ATOM     18  C   UNL     1     175.774 161.110 182.746  1.00  0.00     0.000 C 
ATOM     19  C   UNL     1     173.670 161.803 181.547  1.00  0.00     0.005 C 
ATOM     20  C   UNL     1     175.202 162.051 181.658  1.00  0.00     0.003 C 
ATOM     21  C   UNL     1     177.307 161.142 182.728  1.00  0.00     0.031 C 
ATOM     22  C   UNL     1     176.046 162.061 180.286  1.00  0.00    -0.008 C 
ATOM     23  C   UNL     1     177.772 160.625 181.409  1.00  0.00    -0.027 C 
ATOM     24  C   UNL     1     177.153 160.994 180.273  1.00  0.00    -0.065 C 
ATOM     25  C   UNL     1     175.156 161.818 179.028  1.00  0.00     0.014 C 
ATOM     26  C   UNL     1     176.736 163.451 180.145  1.00  0.00     0.016 C 
ATOM     27  C   UNL     1     177.502 160.268 178.985  1.00  0.00     0.063 C 
ATOM     28  C   UNL     1     175.937 161.851 177.699  1.00  0.00     0.033 C 
ATOM     29  C   UNL     1     177.324 161.165 177.758  1.00  0.00     0.118 C 
BRANCH  29  30
ATOM     30  O   UNL     1     177.519 160.394 176.602  1.00  0.00    -0.393 OA
ATOM     31  H   UNL     1     177.884 159.515 176.884  1.00  0.00     0.210 HD
ENDBRANCH  29  30
ENDBRANCH   9  11
ENDBRANCH   1   9
TORSDOF 7
ENDMDL
MODEL 2
REMARK VINA RESULT:    -5.725      5.675      9.609
REMARK INTER + INTRA:          -9.807
REMARK INTER:                  -8.516
REMARK INTRA:                  -1.291
REMARK UNBOUND:                -1.906
REMARK SMILES CC[C@@H](CC[C@H](C)[C@@H]1CC[C@H]2[C@@H]3CC=C4C[C@@H](O)CC[C@@]4(C)[C@H]3CC[C@]21C)C(C)C
REMARK SMILES IDX 5 1 4 2 3 3 2 4 1 5 28 6 29 7 30 8 6 9 7 10 8 11 9 12 26 13
REMARK SMILES IDX 10 14 11 15 25 16 27 17 12 18 24 19 23 20 13 21 21 22 14 23
REMARK SMILES IDX 15 24 20 25 22 26 16 27 19 28 17 29 18 30
REMARK H PARENT 18 31
REMARK Flexibility Score: inf
ROOT
ATOM      1  C   UNL     1     165.671 162.325 186.852  1.00  0.00     0.004 C 
ENDROOT
BRANCH   1   2
ATOM      2  C   UNL     1     164.182 161.872 186.914  1.00  0.00     0.004 C 
BRANCH   2   3
ATOM      3  C   UNL     1     163.610 161.513 188.320  1.00  0.00    -0.009 C 
BRANCH   3   4
ATOM      4  C   UNL     1     164.001 160.069 188.758  1.00  0.00     0.000 C 
ATOM      5  C   UNL     1     165.166 159.971 189.751  1.00  0.00     0.004 C 
ENDBRANCH   3   4
BRANCH   3   6
ATOM      6  C   UNL     1     162.096 161.857 188.523  1.00  0.00    -0.014 C 
ATOM      7  C   UNL     1     161.819 163.328 188.856  1.00  0.00     0.007 C 
ATOM      8  C   UNL     1     161.260 161.417 187.317  1.00  0.00     0.007 C 
ENDBRANCH   3   6
ENDBRANCH   2   3
ENDBRANCH   1   2
BRANCH   1   9
ATOM      9  C   UNL     1     166.721 161.321 186.251  1.00  0.00    -0.011 C 
ATOM     10  C   UNL     1     165.950 160.165 185.576  1.00  0.00     0.008 C 
BRANCH   9  11
ATOM     11  C   UNL     1     167.885 160.966 187.281  1.00  0.00    -0.002 C 
ATOM     12  C   UNL     1     167.870 162.028 188.406  1.00  0.00     0.005 C 
ATOM     13  C   UNL     1     169.412 160.974 186.863  1.00  0.00    -0.026 C 
ATOM     14  C   UNL     1     168.798 163.131 187.934  1.00  0.00     0.005 C 
ATOM     15  C   UNL     1     169.871 162.459 187.060  1.00  0.00    -0.001 C 
ATOM     16  C   UNL     1     170.204 160.034 187.839  1.00  0.00     0.007 C 
ATOM     17  C   UNL     1     169.689 160.456 185.423  1.00  0.00     0.012 C 
ATOM     18  C   UNL     1     171.278 162.629 187.708  1.00  0.00     0.000 C 
ATOM     19  C   UNL     1     171.749 160.155 187.783  1.00  0.00     0.005 C 
ATOM     20  C   UNL     1     172.258 161.524 187.244  1.00  0.00     0.003 C 
ATOM     21  C   UNL     1     171.858 164.017 187.410  1.00  0.00     0.031 C 
ATOM     22  C   UNL     1     173.810 161.877 187.487  1.00  0.00    -0.008 C 
ATOM     23  C   UNL     1     173.113 164.180 188.199  1.00  0.00    -0.027 C 
ATOM     24  C   UNL     1     173.997 163.171 188.295  1.00  0.00    -0.065 C 
ATOM     25  C   UNL     1     174.576 160.747 188.242  1.00  0.00     0.014 C 
ATOM     26  C   UNL     1     174.486 162.092 186.099  1.00  0.00     0.016 C 
ATOM     27  C   UNL     1     175.136 163.294 189.293  1.00  0.00     0.063 C 
ATOM     28  C   UNL     1     176.072 161.049 188.461  1.00  0.00     0.033 C 
ATOM     29  C   UNL     1     176.375 162.519 188.841  1.00  0.00     0.118 C 
BRANCH  29  30
ATOM     30  O   UNL     1     177.330 162.552 189.869  1.00  0.00    -0.393 OA
ATOM     31  H   UNL     1     176.967 162.035 190.635  1.00  0.00     0.210 HD
ENDBRANCH  29  30
ENDBRANCH   9  11
ENDBRANCH   1   9
TORSDOF 7
ENDMDL
MODEL 3
REMARK VINA RESULT:    -5.700     10.240     12.771
REMARK INTER + INTRA:          -9.772
REMARK INTER:                  -8.418
REMARK INTRA:                  -1.354
REMARK UNBOUND:                -1.906
REMARK SMILES CC[C@@H](CC[C@H](C)[C@@H]1CC[C@H]2[C@@H]3CC=C4C[C@@H](O)CC[C@@]4(C)[C@H]3CC[C@]21C)C(C)C
REMARK SMILES IDX 5 1 4 2 3 3 2 4 1 5 28 6 29 7 30 8 6 9 7 10 8 11 9 12 26 13
REMARK SMILES IDX 10 14 11 15 25 16 27 17 12 18 24 19 23 20 13 21 21 22 14 23
REMARK SMILES IDX 15 24 20 25 22 26 16 27 19 28 17 29 18 30
REMARK H PARENT 18 31
REMARK Flexibility Score: inf
ROOT
ATOM      1  C   UNL     1     162.650 163.450 187.452  1.00  0.00     0.004 C 
ENDROOT
BRANCH   1   2
ATOM      2  C   UNL     1     163.609 162.862 188.530  1.00  0.00     0.004 C 
BRANCH   2   3
ATOM      3  C   UNL     1     164.991 162.334 188.034  1.00  0.00    -0.009 C 
BRANCH   3   4
ATOM      4  C   UNL     1     165.267 162.724 186.551  1.00  0.00     0.000 C 
ATOM      5  C   UNL     1     166.593 163.450 186.292  1.00  0.00     0.004 C 
ENDBRANCH   3   4
BRANCH   3   6
ATOM      6  C   UNL     1     165.279 160.831 188.366  1.00  0.00    -0.014 C 
ATOM      7  C   UNL     1     166.420 160.610 189.368  1.00  0.00     0.007 C 
ATOM      8  C   UNL     1     164.011 160.113 188.838  1.00  0.00     0.007 C 
ENDBRANCH   3   6
ENDBRANCH   2   3
ENDBRANCH   1   2
BRANCH   1   9
ATOM      9  C   UNL     1     161.128 163.061 187.532  1.00  0.00    -0.011 C 
ATOM     10  C   UNL     1     160.890 162.321 188.867  1.00  0.00     0.008 C 
BRANCH   9  11
ATOM     11  C   UNL     1     160.597 162.396 186.184  1.00  0.00    -0.002 C 
ATOM     12  C   UNL     1     160.986 160.899 186.201  1.00  0.00     0.005 C 
ATOM     13  C   UNL     1     161.127 162.841 184.759  1.00  0.00    -0.026 C 
ATOM     14  C   UNL     1     162.352 160.828 185.548  1.00  0.00     0.005 C 
ATOM     15  C   UNL     1     162.411 161.975 184.524  1.00  0.00    -0.001 C 
ATOM     16  C   UNL     1     160.038 162.487 183.686  1.00  0.00     0.007 C 
ATOM     17  C   UNL     1     161.409 164.365 184.622  1.00  0.00     0.012 C 
ATOM     18  C   UNL     1     162.561 161.403 183.082  1.00  0.00     0.000 C 
ATOM     19  C   UNL     1     160.501 162.561 182.208  1.00  0.00     0.005 C 
ATOM     20  C   UNL     1     162.037 162.397 182.017  1.00  0.00     0.003 C 
ATOM     21  C   UNL     1     164.017 161.023 182.788  1.00  0.00     0.031 C 
ATOM     22  C   UNL     1     162.563 162.098 180.524  1.00  0.00    -0.008 C 
ATOM     23  C   UNL     1     164.062 160.323 181.472  1.00  0.00    -0.027 C 
ATOM     24  C   UNL     1     163.341 160.776 180.431  1.00  0.00    -0.065 C 
ATOM     25  C   UNL     1     161.407 162.028 179.479  1.00  0.00     0.014 C 
ATOM     26  C   UNL     1     163.537 163.242 180.110  1.00  0.00     0.016 C 
ATOM     27  C   UNL     1     163.230 159.908 179.190  1.00  0.00     0.063 C 
ATOM     28  C   UNL     1     161.888 161.772 178.037  1.00  0.00     0.033 C 
ATOM     29  C   UNL     1     163.041 160.745 177.923  1.00  0.00     0.118 C 
BRANCH  29  30
ATOM     30  O   UNL     1     162.799 159.882 176.842  1.00  0.00    -0.393 OA
ATOM     31  H   UNL     1     163.476 159.156 176.879  1.00  0.00     0.210 HD
ENDBRANCH  29  30
ENDBRANCH   9  11
ENDBRANCH   1   9
TORSDOF 7
ENDMDL
MODEL 4
REMARK VINA RESULT:    -5.659      6.505     10.501
REMARK INTER + INTRA:          -9.715
REMARK INTER:                  -8.719
REMARK INTRA:                  -0.996
REMARK UNBOUND:                -1.906
REMARK SMILES CC[C@@H](CC[C@H](C)[C@@H]1CC[C@H]2[C@@H]3CC=C4C[C@@H](O)CC[C@@]4(C)[C@H]3CC[C@]21C)C(C)C
REMARK SMILES IDX 5 1 4 2 3 3 2 4 1 5 28 6 29 7 30 8 6 9 7 10 8 11 9 12 26 13
REMARK SMILES IDX 10 14 11 15 25 16 27 17 12 18 24 19 23 20 13 21 21 22 14 23
REMARK SMILES IDX 15 24 20 25 22 26 16 27 19 28 17 29 18 30
REMARK H PARENT 18 31
REMARK Flexibility Score: inf
ROOT
ATOM      1  C   UNL     1     172.385 162.994 187.900  1.00  0.00     0.004 C 
ENDROOT
BRANCH   1   2
ATOM      2  C   UNL     1     173.434 162.909 189.050  1.00  0.00     0.004 C 
BRANCH   2   3
ATOM      3  C   UNL     1     174.927 163.145 188.665  1.00  0.00    -0.009 C 
BRANCH   3   4
ATOM      4  C   UNL     1     175.717 161.807 188.546  1.00  0.00     0.000 C 
ATOM      5  C   UNL     1     176.121 161.400 187.124  1.00  0.00     0.004 C 
ENDBRANCH   3   4
BRANCH   3   6
ATOM      6  C   UNL     1     175.657 164.249 189.501  1.00  0.00    -0.014 C 
ATOM      7  C   UNL     1     174.827 164.823 190.656  1.00  0.00     0.007 C 
ATOM      8  C   UNL     1     177.012 163.752 190.015  1.00  0.00     0.007 C 
ENDBRANCH   3   6
ENDBRANCH   2   3
ENDBRANCH   1   2
BRANCH   1   9
ATOM      9  C   UNL     1     171.526 161.714 187.592  1.00  0.00    -0.011 C 
ATOM     10  C   UNL     1     172.467 160.627 187.027  1.00  0.00     0.008 C 
BRANCH   9  11
ATOM     11  C   UNL     1     170.186 162.055 186.799  1.00  0.00    -0.002 C 
ATOM     12  C   UNL     1     169.858 163.550 187.030  1.00  0.00     0.005 C 
ATOM     13  C   UNL     1     168.801 161.372 187.151  1.00  0.00    -0.026 C 
ATOM     14  C   UNL     1     168.984 163.586 188.268  1.00  0.00     0.005 C 
ATOM     15  C   UNL     1     168.197 162.264 188.289  1.00  0.00    -0.001 C 
ATOM     16  C   UNL     1     167.879 161.426 185.882  1.00  0.00     0.007 C 
ATOM     17  C   UNL     1     168.906 159.877 187.564  1.00  0.00     0.012 C 
ATOM     18  C   UNL     1     166.669 162.544 188.161  1.00  0.00     0.000 C 
ATOM     19  C   UNL     1     166.385 161.090 186.123  1.00  0.00     0.005 C 
ATOM     20  C   UNL     1     165.911 161.322 187.587  1.00  0.00     0.003 C 
ATOM     21  C   UNL     1     166.069 162.960 189.509  1.00  0.00     0.031 C 
ATOM     22  C   UNL     1     164.322 161.352 187.849  1.00  0.00    -0.008 C 
ATOM     23  C   UNL     1     164.657 163.383 189.284  1.00  0.00    -0.027 C 
ATOM     24  C   UNL     1     163.855 162.681 188.464  1.00  0.00    -0.065 C 
ATOM     25  C   UNL     1     163.491 161.128 186.548  1.00  0.00     0.014 C 
ATOM     26  C   UNL     1     163.972 160.220 188.862  1.00  0.00     0.016 C 
ATOM     27  C   UNL     1     162.510 163.272 188.079  1.00  0.00     0.063 C 
ATOM     28  C   UNL     1     161.967 161.124 186.777  1.00  0.00     0.033 C 
ATOM     29  C   UNL     1     161.472 162.187 187.788  1.00  0.00     0.118 C 
BRANCH  29  30
ATOM     30  O   UNL     1     160.305 162.795 187.300  1.00  0.00    -0.393 OA
ATOM     31  H   UNL     1     159.530 162.279 187.643  1.00  0.00     0.210 HD
ENDBRANCH  29  30
ENDBRANCH   9  11
ENDBRANCH   1   9
TORSDOF 7
ENDMDL
MODEL 5
REMARK VINA RESULT:    -5.640      5.806      9.634
REMARK INTER + INTRA:          -9.689
REMARK INTER:                  -7.880
REMARK INTRA:                  -1.809
REMARK UNBOUND:                -1.906
REMARK SMILES CC[C@@H](CC[C@H](C)[C@@H]1CC[C@H]2[C@@H]3CC=C4C[C@@H](O)CC[C@@]4(C)[C@H]3CC[C@]21C)C(C)C
REMARK SMILES IDX 5 1 4 2 3 3 2 4 1 5 28 6 29 7 30 8 6 9 7 10 8 11 9 12 26 13
REMARK SMILES IDX 10 14 11 15 25 16 27 17 12 18 24 19 23 20 13 21 21 22 14 23
REMARK SMILES IDX 15 24 20 25 22 26 16 27 19 28 17 29 18 30
REMARK H PARENT 18 31
REMARK Flexibility Score: inf
ROOT
ATOM      1  C   UNL     1     177.701 171.917 185.862  1.00  0.00     0.004 C 
ENDROOT
BRANCH   1   2
ATOM      2  C   UNL     1     176.996 172.860 186.882  1.00  0.00     0.004 C 
BRANCH   2   3
ATOM      3  C   UNL     1     177.298 172.619 188.394  1.00  0.00    -0.009 C 
BRANCH   3   4
ATOM      4  C   UNL     1     176.110 171.923 189.123  1.00  0.00     0.000 C 
ATOM      5  C   UNL     1     174.746 172.043 188.432  1.00  0.00     0.004 C 
ENDBRANCH   3   4
BRANCH   3   6
ATOM      6  C   UNL     1     177.881 173.857 189.154  1.00  0.00    -0.014 C 
ATOM      7  C   UNL     1     179.364 174.133 188.876  1.00  0.00     0.007 C 
ATOM      8  C   UNL     1     177.048 175.115 188.889  1.00  0.00     0.007 C 
ENDBRANCH   3   6
ENDBRANCH   2   3
ENDBRANCH   1   2
BRANCH   1   9
ATOM      9  C   UNL     1     178.671 170.816 186.426  1.00  0.00    -0.011 C 
ATOM     10  C   UNL     1     180.120 171.329 186.277  1.00  0.00     0.008 C 
BRANCH   9  11
ATOM     11  C   UNL     1     178.316 169.358 185.891  1.00  0.00    -0.002 C 
ATOM     12  C   UNL     1     176.854 169.374 185.385  1.00  0.00     0.005 C 
ATOM     13  C   UNL     1     178.305 168.090 186.840  1.00  0.00    -0.026 C 
ATOM     14  C   UNL     1     176.006 169.001 186.585  1.00  0.00     0.005 C 
ATOM     15  C   UNL     1     176.866 168.069 187.458  1.00  0.00    -0.001 C 
ATOM     16  C   UNL     1     178.532 166.807 185.966  1.00  0.00     0.007 C 
ATOM     17  C   UNL     1     179.416 168.090 187.929  1.00  0.00     0.012 C 
ATOM     18  C   UNL     1     176.211 166.658 187.546  1.00  0.00     0.000 C 
ATOM     19  C   UNL     1     178.244 165.455 186.670  1.00  0.00     0.005 C 
ATOM     20  C   UNL     1     177.257 165.562 187.868  1.00  0.00     0.003 C 
ATOM     21  C   UNL     1     175.080 166.637 188.581  1.00  0.00     0.031 C 
ATOM     22  C   UNL     1     176.622 164.190 188.422  1.00  0.00    -0.008 C 
ATOM     23  C   UNL     1     174.383 165.322 188.489  1.00  0.00    -0.027 C 
ATOM     24  C   UNL     1     175.086 164.184 188.350  1.00  0.00    -0.065 C 
ATOM     25  C   UNL     1     177.124 162.934 187.643  1.00  0.00     0.014 C 
ATOM     26  C   UNL     1     177.020 164.035 189.920  1.00  0.00     0.016 C 
ATOM     27  C   UNL     1     174.339 162.903 188.024  1.00  0.00     0.063 C 
ATOM     28  C   UNL     1     176.553 161.605 188.172  1.00  0.00     0.033 C 
ATOM     29  C   UNL     1     175.058 161.668 188.572  1.00  0.00     0.118 C 
BRANCH  29  30
ATOM     30  O   UNL     1     174.398 160.518 188.113  1.00  0.00    -0.393 OA
ATOM     31  H   UNL     1     174.353 159.874 188.868  1.00  0.00     0.210 HD
ENDBRANCH  29  30
ENDBRANCH   9  11
ENDBRANCH   1   9
TORSDOF 7
ENDMDL
MODEL 6
REMARK VINA RESULT:    -5.555      2.083      4.427
REMARK INTER + INTRA:          -9.571
REMARK INTER:                  -8.649
REMARK INTRA:                  -0.922
REMARK UNBOUND:                -1.906
REMARK SMILES CC[C@@H](CC[C@H](C)[C@@H]1CC[C@H]2[C@@H]3CC=C4C[C@@H](O)CC[C@@]4(C)[C@H]3CC[C@]21C)C(C)C
REMARK SMILES IDX 5 1 4 2 3 3 2 4 1 5 28 6 29 7 30 8 6 9 7 10 8 11 9 12 26 13
REMARK SMILES IDX 10 14 11 15 25 16 27 17 12 18 24 19 23 20 13 21 21 22 14 23
REMARK SMILES IDX 15 24 20 25 22 26 16 27 19 28 17 29 18 30
REMARK H PARENT 18 31
REMARK Flexibility Score: inf
ROOT
ATOM      1  C   UNL     1     176.556 162.551 184.548  1.00  0.00     0.004 C 
ENDROOT
BRANCH   1   2
ATOM      2  C   UNL     1     175.905 162.577 185.964  1.00  0.00     0.004 C 
BRANCH   2   3
ATOM      3  C   UNL     1     176.872 162.684 187.184  1.00  0.00    -0.009 C 
BRANCH   3   4
ATOM      4  C   UNL     1     176.737 161.464 188.144  1.00  0.00     0.000 C 
ATOM      5  C   UNL     1     175.424 160.678 188.036  1.00  0.00     0.004 C 
ENDBRANCH   3   4
BRANCH   3   6
ATOM      6  C   UNL     1     176.868 164.073 187.906  1.00  0.00    -0.014 C 
ATOM      7  C   UNL     1     177.158 164.006 189.411  1.00  0.00     0.007 C 
ATOM      8  C   UNL     1     177.824 165.057 187.224  1.00  0.00     0.007 C 
ENDBRANCH   3   6
ENDBRANCH   2   3
ENDBRANCH   1   2
BRANCH   1   9
ATOM      9  C   UNL     1     175.948 161.574 183.476  1.00  0.00    -0.011 C 
ATOM     10  C   UNL     1     175.360 160.353 184.218  1.00  0.00     0.008 C 
BRANCH   9  11
ATOM     11  C   UNL     1     176.934 161.323 182.250  1.00  0.00    -0.002 C 
ATOM     12  C   UNL     1     177.824 162.578 182.085  1.00  0.00     0.005 C 
ATOM     13  C   UNL     1     176.405 161.117 180.771  1.00  0.00    -0.026 C 
ATOM     14  C   UNL     1     177.072 163.484 181.130  1.00  0.00     0.005 C 
ATOM     15  C   UNL     1     176.268 162.566 180.193  1.00  0.00    -0.001 C 
ATOM     16  C   UNL     1     177.483 160.316 179.960  1.00  0.00     0.007 C 
ATOM     17  C   UNL     1     175.078 160.311 180.667  1.00  0.00     0.012 C 
ATOM     18  C   UNL     1     176.757 162.735 178.723  1.00  0.00     0.000 C 
ATOM     19  C   UNL     1     177.284 160.289 178.422  1.00  0.00     0.005 C 
ATOM     20  C   UNL     1     176.447 161.480 177.871  1.00  0.00     0.003 C 
ATOM     21  C   UNL     1     176.146 163.984 178.077  1.00  0.00     0.031 C 
ATOM     22  C   UNL     1     176.493 161.736 176.282  1.00  0.00    -0.008 C 
ATOM     23  C   UNL     1     176.788 164.185 176.746  1.00  0.00    -0.027 C 
ATOM     24  C   UNL     1     177.013 163.140 175.930  1.00  0.00    -0.065 C 
ATOM     25  C   UNL     1     177.396 160.709 175.530  1.00  0.00     0.014 C 
ATOM     26  C   UNL     1     175.043 161.623 175.725  1.00  0.00     0.016 C 
ATOM     27  C   UNL     1     177.875 163.351 174.697  1.00  0.00     0.063 C 
ATOM     28  C   UNL     1     177.434 160.916 174.003  1.00  0.00     0.033 C 
ATOM     29  C   UNL     1     177.490 162.399 173.563  1.00  0.00     0.118 C 
BRANCH  29  30
ATOM     30  O   UNL     1     178.414 162.546 172.516  1.00  0.00    -0.393 OA
ATOM     31  H   UNL     1     178.827 163.444 172.603  1.00  0.00     0.210 HD
ENDBRANCH  29  30
ENDBRANCH   9  11
ENDBRANCH   1   9
TORSDOF 7
ENDMDL
MODEL 7
REMARK VINA RESULT:    -5.547      5.529      9.431
REMARK INTER + INTRA:          -9.561
REMARK INTER:                  -8.039
REMARK INTRA:                  -1.522
REMARK UNBOUND:                -1.906
REMARK SMILES CC[C@@H](CC[C@H](C)[C@@H]1CC[C@H]2[C@@H]3CC=C4C[C@@H](O)CC[C@@]4(C)[C@H]3CC[C@]21C)C(C)C
REMARK SMILES IDX 5 1 4 2 3 3 2 4 1 5 28 6 29 7 30 8 6 9 7 10 8 11 9 12 26 13
REMARK SMILES IDX 10 14 11 15 25 16 27 17 12 18 24 19 23 20 13 21 21 22 14 23
REMARK SMILES IDX 15 24 20 25 22 26 16 27 19 28 17 29 18 30
REMARK H PARENT 18 31
REMARK Flexibility Score: inf
ROOT
ATOM      1  C   UNL     1     174.229 163.001 185.964  1.00  0.00     0.004 C 
ENDROOT
BRANCH   1   2
ATOM      2  C   UNL     1     174.984 163.871 187.014  1.00  0.00     0.004 C 
BRANCH   2   3
ATOM      3  C   UNL     1     175.207 163.242 188.424  1.00  0.00    -0.009 C 
BRANCH   3   4
ATOM      4  C   UNL     1     174.336 163.935 189.516  1.00  0.00     0.000 C 
ATOM      5  C   UNL     1     173.626 165.222 189.078  1.00  0.00     0.004 C 
ENDBRANCH   3   4
BRANCH   3   6
ATOM      6  C   UNL     1     176.706 163.045 188.829  1.00  0.00    -0.014 C 
ATOM      7  C   UNL     1     177.086 163.664 190.180  1.00  0.00     0.007 C 
ATOM      8  C   UNL     1     177.102 161.565 188.791  1.00  0.00     0.007 C 
ENDBRANCH   3   6
ENDBRANCH   2   3
ENDBRANCH   1   2
BRANCH   1   9
ATOM      9  C   UNL     1     173.494 161.708 186.473  1.00  0.00    -0.011 C 
ATOM     10  C   UNL     1     174.450 160.508 186.292  1.00  0.00     0.008 C 
BRANCH   9  11
ATOM     11  C   UNL     1     172.005 161.592 185.915  1.00  0.00    -0.002 C 
ATOM     12  C   UNL     1     171.507 163.017 185.576  1.00  0.00     0.005 C 
ATOM     13  C   UNL     1     170.812 161.045 186.802  1.00  0.00    -0.026 C 
ATOM     14  C   UNL     1     170.856 163.530 186.845  1.00  0.00     0.005 C 
ATOM     15  C   UNL     1     170.283 162.302 187.574  1.00  0.00    -0.001 C 
ATOM     16  C   UNL     1     169.694 160.491 185.851  1.00  0.00     0.007 C 
ATOM     17  C   UNL     1     171.200 159.883 187.759  1.00  0.00     0.012 C 
ATOM     18  C   UNL     1     168.732 162.407 187.670  1.00  0.00     0.000 C 
ATOM     19  C   UNL     1     168.325 160.203 186.520  1.00  0.00     0.005 C 
ATOM     20  C   UNL     1     168.074 161.014 187.824  1.00  0.00     0.003 C 
ATOM     21  C   UNL     1     168.311 163.327 188.823  1.00  0.00     0.031 C 
ATOM     22  C   UNL     1     166.564 161.058 188.382  1.00  0.00    -0.008 C 
ATOM     23  C   UNL     1     166.835 163.525 188.749  1.00  0.00    -0.027 C 
ATOM     24  C   UNL     1     166.018 162.492 188.482  1.00  0.00    -0.065 C 
ATOM     25  C   UNL     1     165.568 160.246 187.496  1.00  0.00     0.014 C 
ATOM     26  C   UNL     1     166.555 160.454 189.818  1.00  0.00     0.016 C 
ATOM     27  C   UNL     1     164.556 162.777 188.183  1.00  0.00     0.063 C 
ATOM     28  C   UNL     1     164.121 160.249 188.026  1.00  0.00     0.033 C 
ATOM     29  C   UNL     1     163.652 161.612 188.591  1.00  0.00     0.118 C 
BRANCH  29  30
ATOM     30  O   UNL     1     162.345 161.879 188.157  1.00  0.00    -0.393 OA
ATOM     31  H   UNL     1     161.750 161.842 188.951  1.00  0.00     0.210 HD
ENDBRANCH  29  30
ENDBRANCH   9  11
ENDBRANCH   1   9
TORSDOF 7
ENDMDL
MODEL 8
REMARK VINA RESULT:    -5.546     14.859     18.203
REMARK INTER + INTRA:          -9.560
REMARK INTER:                  -8.992
REMARK INTRA:                  -0.568
REMARK UNBOUND:                -1.906
REMARK SMILES CC[C@@H](CC[C@H](C)[C@@H]1CC[C@H]2[C@@H]3CC=C4C[C@@H](O)CC[C@@]4(C)[C@H]3CC[C@]21C)C(C)C
REMARK SMILES IDX 5 1 4 2 3 3 2 4 1 5 28 6 29 7 30 8 6 9 7 10 8 11 9 12 26 13
REMARK SMILES IDX 10 14 11 15 25 16 27 17 12 18 24 19 23 20 13 21 21 22 14 23
REMARK SMILES IDX 15 24 20 25 22 26 16 27 19 28 17 29 18 30
REMARK H PARENT 18 31
REMARK Flexibility Score: inf
ROOT
ATOM      1  C   UNL     1     162.087 166.568 186.988  1.00  0.00     0.004 C 
ENDROOT
BRANCH   1   2
ATOM      2  C   UNL     1     162.538 165.217 187.622  1.00  0.00     0.004 C 
BRANCH   2   3
ATOM      3  C   UNL     1     161.668 163.962 187.305  1.00  0.00    -0.009 C 
BRANCH   3   4
ATOM      4  C   UNL     1     160.273 164.350 186.729  1.00  0.00     0.000 C 
ATOM      5  C   UNL     1     160.051 164.017 185.248  1.00  0.00     0.004 C 
ENDBRANCH   3   4
BRANCH   3   6
ATOM      6  C   UNL     1     161.616 162.891 188.445  1.00  0.00    -0.014 C 
ATOM      7  C   UNL     1     160.294 162.853 189.221  1.00  0.00     0.007 C 
ATOM      8  C   UNL     1     161.961 161.496 187.913  1.00  0.00     0.007 C 
ENDBRANCH   3   6
ENDBRANCH   2   3
ENDBRANCH   1   2
BRANCH   1   9
ATOM      9  C   UNL     1     161.404 167.628 187.927  1.00  0.00    -0.011 C 
ATOM     10  C   UNL     1     159.931 167.782 187.488  1.00  0.00     0.008 C 
BRANCH   9  11
ATOM     11  C   UNL     1     162.289 168.941 188.109  1.00  0.00    -0.002 C 
ATOM     12  C   UNL     1     162.074 169.470 189.547  1.00  0.00     0.005 C 
ATOM     13  C   UNL     1     162.042 170.250 187.253  1.00  0.00    -0.026 C 
ATOM     14  C   UNL     1     160.902 170.427 189.455  1.00  0.00     0.005 C 
ATOM     15  C   UNL     1     160.944 171.041 188.044  1.00  0.00    -0.001 C 
ATOM     16  C   UNL     1     163.372 171.080 187.209  1.00  0.00     0.007 C 
ATOM     17  C   UNL     1     161.631 169.988 185.776  1.00  0.00     0.012 C 
ATOM     18  C   UNL     1     161.180 172.579 188.133  1.00  0.00     0.000 C 
ATOM     19  C   UNL     1     163.241 172.534 186.685  1.00  0.00     0.005 C 
ATOM     20  C   UNL     1     161.813 173.135 186.834  1.00  0.00     0.003 C 
ATOM     21  C   UNL     1     159.875 173.319 188.450  1.00  0.00     0.031 C 
ATOM     22  C   UNL     1     161.665 174.729 186.660  1.00  0.00    -0.008 C 
ATOM     23  C   UNL     1     160.199 174.754 188.697  1.00  0.00    -0.027 C 
ATOM     24  C   UNL     1     161.078 175.402 187.911  1.00  0.00    -0.065 C 
ATOM     25  C   UNL     1     163.024 175.432 186.354  1.00  0.00     0.014 C 
ATOM     26  C   UNL     1     160.688 175.004 185.479  1.00  0.00     0.016 C 
ATOM     27  C   UNL     1     161.554 176.780 188.335  1.00  0.00     0.063 C 
ATOM     28  C   UNL     1     162.905 176.955 186.155  1.00  0.00     0.033 C 
ATOM     29  C   UNL     1     161.925 177.651 187.133  1.00  0.00     0.118 C 
BRANCH  29  30
ATOM     30  O   UNL     1     162.492 178.847 187.598  1.00  0.00    -0.393 OA
ATOM     31  H   UNL     1     161.996 179.598 187.179  1.00  0.00     0.210 HD
ENDBRANCH  29  30
ENDBRANCH   9  11
ENDBRANCH   1   9
TORSDOF 7
ENDMDL
MODEL 9
REMARK VINA RESULT:    -5.457     10.800     12.821
REMARK INTER + INTRA:          -9.437
REMARK INTER:                  -7.330
REMARK INTRA:                  -2.107
REMARK UNBOUND:                -1.906
REMARK SMILES CC[C@@H](CC[C@H](C)[C@@H]1CC[C@H]2[C@@H]3CC=C4C[C@@H](O)CC[C@@]4(C)[C@H]3CC[C@]21C)C(C)C
REMARK SMILES IDX 5 1 4 2 3 3 2 4 1 5 28 6 29 7 30 8 6 9 7 10 8 11 9 12 26 13
REMARK SMILES IDX 10 14 11 15 25 16 27 17 12 18 24 19 23 20 13 21 21 22 14 23
REMARK SMILES IDX 15 24 20 25 22 26 16 27 19 28 17 29 18 30
REMARK H PARENT 18 31
REMARK Flexibility Score: inf
ROOT
ATOM      1  C   UNL     1     163.821 162.925 187.856  1.00  0.00     0.004 C 
ENDROOT
BRANCH   1   2
ATOM      2  C   UNL     1     162.616 163.914 187.854  1.00  0.00     0.004 C 
BRANCH   2   3
ATOM      3  C   UNL     1     161.340 163.472 187.073  1.00  0.00    -0.009 C 
BRANCH   3   4
ATOM      4  C   UNL     1     160.885 164.548 186.042  1.00  0.00     0.000 C 
ATOM      5  C   UNL     1     160.311 164.006 184.727  1.00  0.00     0.004 C 
ENDBRANCH   3   4
BRANCH   3   6
ATOM      6  C   UNL     1     160.184 162.908 187.966  1.00  0.00    -0.014 C 
ATOM      7  C   UNL     1     159.875 161.423 187.741  1.00  0.00     0.007 C 
ATOM      8  C   UNL     1     160.446 163.178 189.451  1.00  0.00     0.007 C 
ENDBRANCH   3   6
ENDBRANCH   2   3
ENDBRANCH   1   2
BRANCH   1   9
ATOM      9  C   UNL     1     163.537 161.418 187.508  1.00  0.00    -0.011 C 
ATOM     10  C   UNL     1     163.798 160.574 188.775  1.00  0.00     0.008 C 
BRANCH   9  11
ATOM     11  C   UNL     1     164.214 160.971 186.136  1.00  0.00    -0.002 C 
ATOM     12  C   UNL     1     165.388 161.935 185.843  1.00  0.00     0.005 C 
ATOM     13  C   UNL     1     163.431 161.002 184.760  1.00  0.00    -0.026 C 
ATOM     14  C   UNL     1     164.789 163.067 185.031  1.00  0.00     0.005 C 
ATOM     15  C   UNL     1     163.626 162.462 184.225  1.00  0.00    -0.001 C 
ATOM     16  C   UNL     1     164.103 159.979 183.778  1.00  0.00     0.007 C 
ATOM     17  C   UNL     1     161.931 160.605 184.861  1.00  0.00     0.012 C 
ATOM     18  C   UNL     1     163.915 162.568 182.698  1.00  0.00     0.000 C 
ATOM     19  C   UNL     1     163.675 160.094 182.292  1.00  0.00     0.005 C 
ATOM     20  C   UNL     1     163.137 161.499 181.894  1.00  0.00     0.003 C 
ATOM     21  C   UNL     1     163.593 163.972 182.171  1.00  0.00     0.031 C 
ATOM     22  C   UNL     1     163.014 161.820 180.320  1.00  0.00    -0.008 C 
ATOM     23  C   UNL     1     164.057 164.060 180.757  1.00  0.00    -0.027 C 
ATOM     24  C   UNL     1     163.850 163.040 179.905  1.00  0.00    -0.065 C 
ATOM     25  C   UNL     1     163.463 160.625 179.423  1.00  0.00     0.014 C 
ATOM     26  C   UNL     1     161.524 162.145 180.002  1.00  0.00     0.016 C 
ATOM     27  C   UNL     1     164.540 163.071 178.552  1.00  0.00     0.063 C 
ATOM     28  C   UNL     1     163.328 160.897 177.912  1.00  0.00     0.033 C 
ATOM     29  C   UNL     1     163.735 162.328 177.484  1.00  0.00     0.118 C 
BRANCH  29  30
ATOM     30  O   UNL     1     164.494 162.269 176.304  1.00  0.00    -0.393 OA
ATOM     31  H   UNL     1     164.643 161.311 176.090  1.00  0.00     0.210 HD
ENDBRANCH  29  30
ENDBRANCH   9  11
ENDBRANCH   1   9
TORSDOF 7
ENDMDL
