MODEL 1
REMARK VINA RESULT:    -8.090      0.000      0.000
REMARK INTER + INTRA:         -11.217
REMARK INTER:                 -11.163
REMARK INTRA:                  -0.054
REMARK UNBOUND:                -0.054
REMARK SMILES CC[C@H](CC[C@@H](C)[C@@H]1CC[C@H]2[C@H]3CC=C4C[C@H](O)CC[C@@]4(C)[C@H]3CC[C@]21C)C(C)C
REMARK SMILES IDX 5 1 4 2 3 3 2 4 1 5 28 6 29 7 30 8 6 9 7 10 8 11 9 12 26 13
REMARK SMILES IDX 10 14 11 15 25 16 27 17 12 18 24 19 23 20 13 21 21 22 14 23
REMARK SMILES IDX 15 24 20 25 22 26 16 27 19 28 17 29 18 30
REMARK H PARENT 18 31
REMARK Flexibility Score: inf
ROOT
ATOM      1  C   UNL     1     120.171 129.740 130.488  1.00  0.00     0.004 C 
ENDROOT
BRANCH   1   2
ATOM      2  C   UNL     1     120.398 131.167 131.023  1.00  0.00     0.004 C 
BRANCH   2   3
ATOM      3  C   UNL     1     120.226 132.242 129.915  1.00  0.00    -0.009 C 
BRANCH   3   4
ATOM      4  C   UNL     1     118.854 132.989 129.966  1.00  0.00     0.000 C 
ATOM      5  C   UNL     1     118.621 134.070 128.899  1.00  0.00     0.004 C 
ENDBRANCH   3   4
BRANCH   3   6
ATOM      6  C   UNL     1     121.481 133.173 129.808  1.00  0.00    -0.014 C 
ATOM      7  C   UNL     1     121.570 134.168 130.979  1.00  0.00     0.007 C 
ATOM      8  C   UNL     1     122.812 132.426 129.650  1.00  0.00     0.007 C 
ENDBRANCH   3   6
ENDBRANCH   2   3
ENDBRANCH   1   2
BRANCH   1   9
ATOM      9  C   UNL     1     118.994 128.960 131.134  1.00  0.00    -0.011 C 
ATOM     10  C   UNL     1     117.715 129.816 131.210  1.00  0.00     0.008 C 
BRANCH   9  11
ATOM     11  C   UNL     1     118.800 127.509 130.538  1.00  0.00    -0.002 C 
ATOM     12  C   UNL     1     118.962 127.440 129.011  1.00  0.00     0.005 C 
ATOM     13  C   UNL     1     117.438 126.761 130.827  1.00  0.00    -0.026 C 
ATOM     14  C   UNL     1     117.562 127.443 128.427  1.00  0.00     0.005 C 
ATOM     15  C   UNL     1     116.653 126.778 129.470  1.00  0.00    -0.001 C 
ATOM     16  C   UNL     1     117.761 125.303 131.264  1.00  0.00     0.007 C 
ATOM     17  C   UNL     1     116.588 127.410 131.956  1.00  0.00     0.012 C 
ATOM     18  C   UNL     1     116.037 125.407 129.014  1.00  0.00     0.000 C 
ATOM     19  C   UNL     1     116.544 124.359 131.291  1.00  0.00     0.005 C 
ATOM     20  C   UNL     1     115.442 124.647 130.226  1.00  0.00     0.003 C 
ATOM     21  C   UNL     1     116.966 124.487 128.174  1.00  0.00     0.031 C 
ATOM     22  C   UNL     1     114.669 123.352 129.767  1.00  0.00    -0.008 C 
ATOM     23  C   UNL     1     116.555 123.031 128.135  1.00  0.00    -0.027 C 
ATOM     24  C   UNL     1     115.589 122.482 128.906  1.00  0.00    -0.065 C 
ATOM     25  C   UNL     1     114.146 122.561 131.020  1.00  0.00     0.014 C 
ATOM     26  C   UNL     1     113.434 123.736 128.906  1.00  0.00     0.016 C 
ATOM     27  C   UNL     1     115.258 121.014 128.713  1.00  0.00     0.063 C 
ATOM     28  C   UNL     1     113.732 121.113 130.718  1.00  0.00     0.033 C 
ATOM     29  C   UNL     1     114.890 120.360 130.048  1.00  0.00     0.118 C 
BRANCH  29  30
ATOM     30  O   UNL     1     114.578 119.004 129.864  1.00  0.00    -0.393 OA
ATOM     31  H   UNL     1     113.772 118.951 129.284  1.00  0.00     0.210 HD
ENDBRANCH  29  30
ENDBRANCH   9  11
ENDBRANCH   1   9
TORSDOF 7
ENDMDL
MODEL 2
REMARK VINA RESULT:    -7.952      4.308      8.112
REMARK INTER + INTRA:         -11.028
REMARK INTER:                  -9.316
REMARK INTRA:                  -1.712
REMARK UNBOUND:                -0.054
REMARK SMILES CC[C@H](CC[C@@H](C)[C@@H]1CC[C@H]2[C@H]3CC=C4C[C@H](O)CC[C@@]4(C)[C@H]3CC[C@]21C)C(C)C
REMARK SMILES IDX 5 1 4 2 3 3 2 4 1 5 28 6 29 7 30 8 6 9 7 10 8 11 9 12 26 13
REMARK SMILES IDX 10 14 11 15 25 16 27 17 12 18 24 19 23 20 13 21 21 22 14 23
REMARK SMILES IDX 15 24 20 25 22 26 16 27 19 28 17 29 18 30
REMARK H PARENT 18 31
REMARK Flexibility Score: inf
ROOT
ATOM      1  C   UNL     1     115.252 124.876 131.598  1.00  0.00     0.004 C 
ENDROOT
BRANCH   1   2
ATOM      2  C   UNL     1     115.562 123.400 131.918  1.00  0.00     0.004 C 
BRANCH   2   3
ATOM      3  C   UNL     1     114.302 122.499 131.801  1.00  0.00    -0.009 C 
BRANCH   3   4
ATOM      4  C   UNL     1     113.271 122.990 130.735  1.00  0.00     0.000 C 
ATOM      5  C   UNL     1     111.877 123.376 131.256  1.00  0.00     0.004 C 
ENDBRANCH   3   4
BRANCH   3   6
ATOM      6  C   UNL     1     114.680 120.982 131.704  1.00  0.00    -0.014 C 
ATOM      7  C   UNL     1     113.946 120.130 132.754  1.00  0.00     0.007 C 
ATOM      8  C   UNL     1     114.496 120.372 130.307  1.00  0.00     0.007 C 
ENDBRANCH   3   6
ENDBRANCH   2   3
ENDBRANCH   1   2
BRANCH   1   9
ATOM      9  C   UNL     1     115.991 125.465 130.366  1.00  0.00    -0.011 C 
ATOM     10  C   UNL     1     116.010 127.006 130.393  1.00  0.00     0.008 C 
BRANCH   9  11
ATOM     11  C   UNL     1     117.386 124.778 130.083  1.00  0.00    -0.002 C 
ATOM     12  C   UNL     1     118.520 125.773 129.794  1.00  0.00     0.005 C 
ATOM     13  C   UNL     1     117.472 123.725 128.907  1.00  0.00    -0.026 C 
ATOM     14  C   UNL     1     118.679 125.823 128.286  1.00  0.00     0.005 C 
ATOM     15  C   UNL     1     118.264 124.441 127.759  1.00  0.00    -0.001 C 
ATOM     16  C   UNL     1     118.246 122.477 129.420  1.00  0.00     0.007 C 
ATOM     17  C   UNL     1     116.088 123.238 128.392  1.00  0.00     0.012 C 
ATOM     18  C   UNL     1     119.433 123.617 127.110  1.00  0.00     0.000 C 
ATOM     19  C   UNL     1     118.677 121.492 128.317  1.00  0.00     0.005 C 
ATOM     20  C   UNL     1     119.022 122.133 126.938  1.00  0.00     0.003 C 
ATOM     21  C   UNL     1     120.820 123.740 127.800  1.00  0.00     0.031 C 
ATOM     22  C   UNL     1     120.111 121.326 126.133  1.00  0.00    -0.008 C 
ATOM     23  C   UNL     1     121.794 122.629 127.472  1.00  0.00    -0.027 C 
ATOM     24  C   UNL     1     121.477 121.496 126.805  1.00  0.00    -0.065 C 
ATOM     25  C   UNL     1     119.707 119.811 126.043  1.00  0.00     0.014 C 
ATOM     26  C   UNL     1     120.225 121.868 124.682  1.00  0.00     0.016 C 
ATOM     27  C   UNL     1     122.580 120.497 126.511  1.00  0.00     0.063 C 
ATOM     28  C   UNL     1     120.857 118.878 125.636  1.00  0.00     0.033 C 
ATOM     29  C   UNL     1     122.049 119.063 126.585  1.00  0.00     0.118 C 
BRANCH  29  30
ATOM     30  O   UNL     1     123.071 118.144 126.305  1.00  0.00    -0.393 OA
ATOM     31  H   UNL     1     122.838 117.672 125.462  1.00  0.00     0.210 HD
ENDBRANCH  29  30
ENDBRANCH   9  11
ENDBRANCH   1   9
TORSDOF 7
ENDMDL
MODEL 3
REMARK VINA RESULT:    -7.891      1.375      2.304
REMARK INTER + INTRA:         -10.943
REMARK INTER:                 -10.111
REMARK INTRA:                  -0.833
REMARK UNBOUND:                -0.054
REMARK SMILES CC[C@H](CC[C@@H](C)[C@@H]1CC[C@H]2[C@H]3CC=C4C[C@H](O)CC[C@@]4(C)[C@H]3CC[C@]21C)C(C)C
REMARK SMILES IDX 5 1 4 2 3 3 2 4 1 5 28 6 29 7 30 8 6 9 7 10 8 11 9 12 26 13
REMARK SMILES IDX 10 14 11 15 25 16 27 17 12 18 24 19 23 20 13 21 21 22 14 23
REMARK SMILES IDX 15 24 20 25 22 26 16 27 19 28 17 29 18 30
REMARK H PARENT 18 31
REMARK Flexibility Score: inf
ROOT
ATOM      1  C   UNL     1     119.632 129.478 129.825  1.00  0.00     0.004 C 
ENDROOT
BRANCH   1   2
ATOM      2  C   UNL     1     120.509 130.620 130.375  1.00  0.00     0.004 C 
BRANCH   2   3
ATOM      3  C   UNL     1     120.258 131.960 129.632  1.00  0.00    -0.009 C 
BRANCH   3   4
ATOM      4  C   UNL     1     118.823 132.541 129.844  1.00  0.00     0.000 C 
ATOM      5  C   UNL     1     118.513 133.876 129.148  1.00  0.00     0.004 C 
ENDBRANCH   3   4
BRANCH   3   6
ATOM      6  C   UNL     1     121.424 132.981 129.865  1.00  0.00    -0.014 C 
ATOM      7  C   UNL     1     121.338 133.660 131.243  1.00  0.00     0.007 C 
ATOM      8  C   UNL     1     122.828 132.397 129.652  1.00  0.00     0.007 C 
ENDBRANCH   3   6
ENDBRANCH   2   3
ENDBRANCH   1   2
BRANCH   1   9
ATOM      9  C   UNL     1     118.789 128.711 130.880  1.00  0.00    -0.011 C 
ATOM     10  C   UNL     1     118.090 129.672 131.861  1.00  0.00     0.008 C 
BRANCH   9  11
ATOM     11  C   UNL     1     117.862 127.596 130.252  1.00  0.00    -0.002 C 
ATOM     12  C   UNL     1     116.374 127.757 130.601  1.00  0.00     0.005 C 
ATOM     13  C   UNL     1     118.186 126.084 130.582  1.00  0.00    -0.026 C 
ATOM     14  C   UNL     1     116.091 126.798 131.742  1.00  0.00     0.005 C 
ATOM     15  C   UNL     1     117.063 125.621 131.572  1.00  0.00    -0.001 C 
ATOM     16  C   UNL     1     118.131 125.269 129.258  1.00  0.00     0.007 C 
ATOM     17  C   UNL     1     119.591 125.862 131.210  1.00  0.00     0.012 C 
ATOM     18  C   UNL     1     116.369 124.252 131.235  1.00  0.00     0.000 C 
ATOM     19  C   UNL     1     118.126 123.741 129.448  1.00  0.00     0.005 C 
ATOM     20  C   UNL     1     117.413 123.222 130.734  1.00  0.00     0.003 C 
ATOM     21  C   UNL     1     115.146 124.324 130.279  1.00  0.00     0.031 C 
ATOM     22  C   UNL     1     116.769 121.795 130.554  1.00  0.00    -0.008 C 
ATOM     23  C   UNL     1     114.784 123.015 129.610  1.00  0.00    -0.027 C 
ATOM     24  C   UNL     1     115.542 121.895 129.644  1.00  0.00    -0.065 C 
ATOM     25  C   UNL     1     117.828 120.791 129.971  1.00  0.00     0.014 C 
ATOM     26  C   UNL     1     116.300 121.236 131.925  1.00  0.00     0.016 C 
ATOM     27  C   UNL     1     115.016 120.646 128.964  1.00  0.00     0.063 C 
ATOM     28  C   UNL     1     117.221 119.504 129.396  1.00  0.00     0.033 C 
ATOM     29  C   UNL     1     116.161 119.844 128.339  1.00  0.00     0.118 C 
BRANCH  29  30
ATOM     30  O   UNL     1     115.671 118.686 127.717  1.00  0.00    -0.393 OA
ATOM     31  H   UNL     1     116.314 117.948 127.890  1.00  0.00     0.210 HD
ENDBRANCH  29  30
ENDBRANCH   9  11
ENDBRANCH   1   9
TORSDOF 7
ENDMDL
MODEL 4
REMARK VINA RESULT:    -7.799      5.733      9.181
REMARK INTER + INTRA:         -10.817
REMARK INTER:                  -8.823
REMARK INTRA:                  -1.994
REMARK UNBOUND:                -0.054
REMARK SMILES CC[C@H](CC[C@@H](C)[C@@H]1CC[C@H]2[C@H]3CC=C4C[C@H](O)CC[C@@]4(C)[C@H]3CC[C@]21C)C(C)C
REMARK SMILES IDX 5 1 4 2 3 3 2 4 1 5 28 6 29 7 30 8 6 9 7 10 8 11 9 12 26 13
REMARK SMILES IDX 10 14 11 15 25 16 27 17 12 18 24 19 23 20 13 21 21 22 14 23
REMARK SMILES IDX 15 24 20 25 22 26 16 27 19 28 17 29 18 30
REMARK H PARENT 18 31
REMARK Flexibility Score: inf
ROOT
ATOM      1  C   UNL     1     113.814 120.995 132.238  1.00  0.00     0.004 C 
ENDROOT
BRANCH   1   2
ATOM      2  C   UNL     1     113.489 121.908 131.039  1.00  0.00     0.004 C 
BRANCH   2   3
ATOM      3  C   UNL     1     114.270 121.496 129.761  1.00  0.00    -0.009 C 
BRANCH   3   4
ATOM      4  C   UNL     1     114.090 119.995 129.367  1.00  0.00     0.000 C 
ATOM      5  C   UNL     1     115.361 119.237 128.951  1.00  0.00     0.004 C 
ENDBRANCH   3   4
BRANCH   3   6
ATOM      6  C   UNL     1     114.051 122.516 128.592  1.00  0.00    -0.014 C 
ATOM      7  C   UNL     1     112.840 123.433 128.838  1.00  0.00     0.007 C 
ATOM      8  C   UNL     1     115.287 123.356 128.244  1.00  0.00     0.007 C 
ENDBRANCH   3   6
ENDBRANCH   2   3
ENDBRANCH   1   2
BRANCH   1   9
ATOM      9  C   UNL     1     115.078 121.381 133.052  1.00  0.00    -0.011 C 
ATOM     10  C   UNL     1     114.922 121.039 134.547  1.00  0.00     0.008 C 
BRANCH   9  11
ATOM     11  C   UNL     1     116.426 120.893 132.387  1.00  0.00    -0.002 C 
ATOM     12  C   UNL     1     117.337 120.102 133.339  1.00  0.00     0.005 C 
ATOM     13  C   UNL     1     117.374 121.980 131.740  1.00  0.00    -0.026 C 
ATOM     14  C   UNL     1     118.391 121.074 133.835  1.00  0.00     0.005 C 
ATOM     15  C   UNL     1     118.596 122.104 132.715  1.00  0.00    -0.001 C 
ATOM     16  C   UNL     1     117.828 121.469 130.343  1.00  0.00     0.007 C 
ATOM     17  C   UNL     1     116.699 123.365 131.535  1.00  0.00     0.012 C 
ATOM     18  C   UNL     1     120.017 122.062 132.047  1.00  0.00     0.000 C 
ATOM     19  C   UNL     1     118.986 122.267 129.715  1.00  0.00     0.005 C 
ATOM     20  C   UNL     1     120.019 122.863 130.721  1.00  0.00     0.003 C 
ATOM     21  C   UNL     1     120.638 120.651 131.853  1.00  0.00     0.031 C 
ATOM     22  C   UNL     1     121.473 122.977 130.122  1.00  0.00    -0.008 C 
ATOM     23  C   UNL     1     121.750 120.580 130.829  1.00  0.00    -0.027 C 
ATOM     24  C   UNL     1     122.082 121.580 129.980  1.00  0.00    -0.065 C 
ATOM     25  C   UNL     1     121.433 123.724 128.740  1.00  0.00     0.014 C 
ATOM     26  C   UNL     1     122.386 123.799 131.073  1.00  0.00     0.016 C 
ATOM     27  C   UNL     1     123.257 121.372 129.043  1.00  0.00     0.063 C 
ATOM     28  C   UNL     1     122.705 123.549 127.897  1.00  0.00     0.033 C 
ATOM     29  C   UNL     1     123.006 122.057 127.697  1.00  0.00     0.118 C 
BRANCH  29  30
ATOM     30  O   UNL     1     124.098 121.868 126.836  1.00  0.00    -0.393 OA
ATOM     31  H   UNL     1     124.094 120.920 126.539  1.00  0.00     0.210 HD
ENDBRANCH  29  30
ENDBRANCH   9  11
ENDBRANCH   1   9
TORSDOF 7
ENDMDL
MODEL 5
REMARK VINA RESULT:    -7.703      4.264      7.686
REMARK INTER + INTRA:         -10.684
REMARK INTER:                  -8.322
REMARK INTRA:                  -2.362
REMARK UNBOUND:                -0.054
REMARK SMILES CC[C@H](CC[C@@H](C)[C@@H]1CC[C@H]2[C@H]3CC=C4C[C@H](O)CC[C@@]4(C)[C@H]3CC[C@]21C)C(C)C
REMARK SMILES IDX 5 1 4 2 3 3 2 4 1 5 28 6 29 7 30 8 6 9 7 10 8 11 9 12 26 13
REMARK SMILES IDX 10 14 11 15 25 16 27 17 12 18 24 19 23 20 13 21 21 22 14 23
REMARK SMILES IDX 15 24 20 25 22 26 16 27 19 28 17 29 18 30
REMARK H PARENT 18 31
REMARK Flexibility Score: inf
ROOT
ATOM      1  C   UNL     1     115.150 124.130 131.178  1.00  0.00     0.004 C 
ENDROOT
BRANCH   1   2
ATOM      2  C   UNL     1     115.666 124.875 129.932  1.00  0.00     0.004 C 
BRANCH   2   3
ATOM      3  C   UNL     1     117.171 125.242 130.051  1.00  0.00    -0.009 C 
BRANCH   3   4
ATOM      4  C   UNL     1     117.905 124.527 131.230  1.00  0.00     0.000 C 
ATOM      5  C   UNL     1     119.212 123.796 130.883  1.00  0.00     0.004 C 
ENDBRANCH   3   4
BRANCH   3   6
ATOM      6  C   UNL     1     117.902 125.153 128.668  1.00  0.00    -0.014 C 
ATOM      7  C   UNL     1     117.012 124.530 127.577  1.00  0.00     0.007 C 
ATOM      8  C   UNL     1     118.486 126.484 128.174  1.00  0.00     0.007 C 
ENDBRANCH   3   6
ENDBRANCH   2   3
ENDBRANCH   1   2
BRANCH   1   9
ATOM      9  C   UNL     1     114.566 122.714 130.921  1.00  0.00    -0.011 C 
ATOM     10  C   UNL     1     113.027 122.709 130.989  1.00  0.00     0.008 C 
BRANCH   9  11
ATOM     11  C   UNL     1     115.187 122.000 129.654  1.00  0.00    -0.002 C 
ATOM     12  C   UNL     1     114.147 121.310 128.759  1.00  0.00     0.005 C 
ATOM     13  C   UNL     1     116.300 120.903 129.889  1.00  0.00    -0.026 C 
ATOM     14  C   UNL     1     114.176 119.837 129.118  1.00  0.00     0.005 C 
ATOM     15  C   UNL     1     115.608 119.530 129.583  1.00  0.00    -0.001 C 
ATOM     16  C   UNL     1     117.470 121.168 128.898  1.00  0.00     0.007 C 
ATOM     17  C   UNL     1     116.895 120.904 131.326  1.00  0.00     0.012 C 
ATOM     18  C   UNL     1     116.400 118.553 128.641  1.00  0.00     0.000 C 
ATOM     19  C   UNL     1     118.490 120.020 128.791  1.00  0.00     0.005 C 
ATOM     20  C   UNL     1     117.912 118.583 128.976  1.00  0.00     0.003 C 
ATOM     21  C   UNL     1     116.157 118.729 127.117  1.00  0.00     0.031 C 
ATOM     22  C   UNL     1     118.701 117.487 128.162  1.00  0.00    -0.008 C 
ATOM     23  C   UNL     1     117.227 118.131 126.229  1.00  0.00    -0.027 C 
ATOM     24  C   UNL     1     118.414 117.651 126.667  1.00  0.00    -0.065 C 
ATOM     25  C   UNL     1     120.240 117.593 128.461  1.00  0.00     0.014 C 
ATOM     26  C   UNL     1     118.239 116.065 128.582  1.00  0.00     0.016 C 
ATOM     27  C   UNL     1     119.363 117.037 125.656  1.00  0.00     0.063 C 
ATOM     28  C   UNL     1     121.126 116.854 127.447  1.00  0.00     0.033 C 
ATOM     29  C   UNL     1     120.818 117.337 126.024  1.00  0.00     0.118 C 
BRANCH  29  30
ATOM     30  O   UNL     1     121.692 116.761 125.089  1.00  0.00    -0.393 OA
ATOM     31  H   UNL     1     122.582 117.192 125.194  1.00  0.00     0.210 HD
ENDBRANCH  29  30
ENDBRANCH   9  11
ENDBRANCH   1   9
TORSDOF 7
ENDMDL
MODEL 6
REMARK VINA RESULT:    -7.654      4.815      7.327
REMARK INTER + INTRA:         -10.616
REMARK INTER:                  -8.566
REMARK INTRA:                  -2.050
REMARK UNBOUND:                -0.054
REMARK SMILES CC[C@H](CC[C@@H](C)[C@@H]1CC[C@H]2[C@H]3CC=C4C[C@H](O)CC[C@@]4(C)[C@H]3CC[C@]21C)C(C)C
REMARK SMILES IDX 5 1 4 2 3 3 2 4 1 5 28 6 29 7 30 8 6 9 7 10 8 11 9 12 26 13
REMARK SMILES IDX 10 14 11 15 25 16 27 17 12 18 24 19 23 20 13 21 21 22 14 23
REMARK SMILES IDX 15 24 20 25 22 26 16 27 19 28 17 29 18 30
REMARK H PARENT 18 31
REMARK Flexibility Score: inf
ROOT
ATOM      1  C   UNL     1     121.979 121.630 134.091  1.00  0.00     0.004 C 
ENDROOT
BRANCH   1   2
ATOM      2  C   UNL     1     121.630 123.061 133.634  1.00  0.00     0.004 C 
BRANCH   2   3
ATOM      3  C   UNL     1     122.285 123.416 132.271  1.00  0.00    -0.009 C 
BRANCH   3   4
ATOM      4  C   UNL     1     123.343 122.374 131.787  1.00  0.00     0.000 C 
ATOM      5  C   UNL     1     124.797 122.863 131.698  1.00  0.00     0.004 C 
ENDBRANCH   3   4
BRANCH   3   6
ATOM      6  C   UNL     1     121.214 123.816 131.200  1.00  0.00    -0.014 C 
ATOM      7  C   UNL     1     120.856 125.312 131.263  1.00  0.00     0.007 C 
ATOM      8  C   UNL     1     121.579 123.422 129.762  1.00  0.00     0.007 C 
ENDBRANCH   3   6
ENDBRANCH   2   3
ENDBRANCH   1   2
BRANCH   1   9
ATOM      9  C   UNL     1     120.772 120.673 134.283  1.00  0.00    -0.011 C 
ATOM     10  C   UNL     1     120.863 119.898 135.612  1.00  0.00     0.008 C 
BRANCH   9  11
ATOM     11  C   UNL     1     119.377 121.358 133.997  1.00  0.00    -0.002 C 
ATOM     12  C   UNL     1     118.294 121.017 135.032  1.00  0.00     0.005 C 
ATOM     13  C   UNL     1     118.689 121.091 132.599  1.00  0.00    -0.026 C 
ATOM     14  C   UNL     1     117.441 119.921 134.420  1.00  0.00     0.005 C 
ATOM     15  C   UNL     1     117.485 120.133 132.899  1.00  0.00    -0.001 C 
ATOM     16  C   UNL     1     118.189 122.449 132.028  1.00  0.00     0.007 C 
ATOM     17  C   UNL     1     119.636 120.459 131.539  1.00  0.00     0.012 C 
ATOM     18  C   UNL     1     116.108 120.535 132.260  1.00  0.00     0.000 C 
ATOM     19  C   UNL     1     117.237 122.325 130.824  1.00  0.00     0.005 C 
ATOM     20  C   UNL     1     116.312 121.070 130.821  1.00  0.00     0.003 C 
ATOM     21  C   UNL     1     115.223 121.499 133.098  1.00  0.00     0.031 C 
ATOM     22  C   UNL     1     114.931 121.318 130.100  1.00  0.00    -0.008 C 
ATOM     23  C   UNL     1     114.154 122.228 132.312  1.00  0.00    -0.027 C 
ATOM     24  C   UNL     1     114.059 122.234 130.962  1.00  0.00    -0.065 C 
ATOM     25  C   UNL     1     115.167 121.933 128.674  1.00  0.00     0.014 C 
ATOM     26  C   UNL     1     114.171 119.976 129.912  1.00  0.00     0.016 C 
ATOM     27  C   UNL     1     112.899 122.973 130.323  1.00  0.00     0.063 C 
ATOM     28  C   UNL     1     113.915 122.569 128.052  1.00  0.00     0.033 C 
ATOM     29  C   UNL     1     113.327 123.620 129.004  1.00  0.00     0.118 C 
BRANCH  29  30
ATOM     30  O   UNL     1     112.249 124.297 128.413  1.00  0.00    -0.393 OA
ATOM     31  H   UNL     1     111.465 124.213 129.018  1.00  0.00     0.210 HD
ENDBRANCH  29  30
ENDBRANCH   9  11
ENDBRANCH   1   9
TORSDOF 7
ENDMDL
MODEL 7
REMARK VINA RESULT:    -7.591      3.739      6.350
REMARK INTER + INTRA:         -10.530
REMARK INTER:                  -9.427
REMARK INTRA:                  -1.103
REMARK UNBOUND:                -0.054
REMARK SMILES CC[C@H](CC[C@@H](C)[C@@H]1CC[C@H]2[C@H]3CC=C4C[C@H](O)CC[C@@]4(C)[C@H]3CC[C@]21C)C(C)C
REMARK SMILES IDX 5 1 4 2 3 3 2 4 1 5 28 6 29 7 30 8 6 9 7 10 8 11 9 12 26 13
REMARK SMILES IDX 10 14 11 15 25 16 27 17 12 18 24 19 23 20 13 21 21 22 14 23
REMARK SMILES IDX 15 24 20 25 22 26 16 27 19 28 17 29 18 30
REMARK H PARENT 18 31
REMARK Flexibility Score: inf
ROOT
ATOM      1  C   UNL     1     115.508 125.488 129.275  1.00  0.00     0.004 C 
ENDROOT
BRANCH   1   2
ATOM      2  C   UNL     1     116.366 126.708 128.889  1.00  0.00     0.004 C 
BRANCH   2   3
ATOM      3  C   UNL     1     116.944 127.436 130.134  1.00  0.00    -0.009 C 
BRANCH   3   4
ATOM      4  C   UNL     1     116.415 126.878 131.494  1.00  0.00     0.000 C 
ATOM      5  C   UNL     1     116.419 127.851 132.684  1.00  0.00     0.004 C 
ENDBRANCH   3   4
BRANCH   3   6
ATOM      6  C   UNL     1     118.500 127.592 130.045  1.00  0.00    -0.014 C 
ATOM      7  C   UNL     1     119.050 127.183 128.667  1.00  0.00     0.007 C 
ATOM      8  C   UNL     1     119.019 128.985 130.427  1.00  0.00     0.007 C 
ENDBRANCH   3   6
ENDBRANCH   2   3
ENDBRANCH   1   2
BRANCH   1   9
ATOM      9  C   UNL     1     115.840 124.169 128.526  1.00  0.00    -0.011 C 
ATOM     10  C   UNL     1     117.079 124.321 127.623  1.00  0.00     0.008 C 
BRANCH   9  11
ATOM     11  C   UNL     1     115.843 122.898 129.466  1.00  0.00    -0.002 C 
ATOM     12  C   UNL     1     114.540 122.710 130.258  1.00  0.00     0.005 C 
ATOM     13  C   UNL     1     116.988 122.775 130.549  1.00  0.00    -0.026 C 
ATOM     14  C   UNL     1     114.797 123.255 131.650  1.00  0.00     0.005 C 
ATOM     15  C   UNL     1     116.295 123.054 131.927  1.00  0.00    -0.001 C 
ATOM     16  C   UNL     1     117.560 121.329 130.498  1.00  0.00     0.007 C 
ATOM     17  C   UNL     1     118.175 123.755 130.328  1.00  0.00     0.012 C 
ATOM     18  C   UNL     1     116.610 122.032 133.077  1.00  0.00     0.000 C 
ATOM     19  C   UNL     1     118.468 120.958 131.685  1.00  0.00     0.005 C 
ATOM     20  C   UNL     1     118.105 121.624 133.047  1.00  0.00     0.003 C 
ATOM     21  C   UNL     1     115.688 120.784 133.152  1.00  0.00     0.031 C 
ATOM     22  C   UNL     1     118.481 120.735 134.294  1.00  0.00    -0.008 C 
ATOM     23  C   UNL     1     116.257 119.618 133.931  1.00  0.00    -0.027 C 
ATOM     24  C   UNL     1     117.533 119.535 134.373  1.00  0.00    -0.065 C 
ATOM     25  C   UNL     1     119.979 120.271 134.197  1.00  0.00     0.014 C 
ATOM     26  C   UNL     1     118.327 121.551 135.606  1.00  0.00     0.016 C 
ATOM     27  C   UNL     1     117.939 118.319 135.185  1.00  0.00     0.063 C 
ATOM     28  C   UNL     1     120.334 119.103 135.128  1.00  0.00     0.033 C 
ATOM     29  C   UNL     1     119.386 117.922 134.881  1.00  0.00     0.118 C 
BRANCH  29  30
ATOM     30  O   UNL     1     119.760 116.801 135.639  1.00  0.00    -0.393 OA
ATOM     31  H   UNL     1     119.018 116.595 136.268  1.00  0.00     0.210 HD
ENDBRANCH  29  30
ENDBRANCH   9  11
ENDBRANCH   1   9
TORSDOF 7
ENDMDL
MODEL 8
REMARK VINA RESULT:    -7.582      4.350      7.488
REMARK INTER + INTRA:         -10.517
REMARK INTER:                  -9.030
REMARK INTRA:                  -1.487
REMARK UNBOUND:                -0.054
REMARK SMILES CC[C@H](CC[C@@H](C)[C@@H]1CC[C@H]2[C@H]3CC=C4C[C@H](O)CC[C@@]4(C)[C@H]3CC[C@]21C)C(C)C
REMARK SMILES IDX 5 1 4 2 3 3 2 4 1 5 28 6 29 7 30 8 6 9 7 10 8 11 9 12 26 13
REMARK SMILES IDX 10 14 11 15 25 16 27 17 12 18 24 19 23 20 13 21 21 22 14 23
REMARK SMILES IDX 15 24 20 25 22 26 16 27 19 28 17 29 18 30
REMARK H PARENT 18 31
REMARK Flexibility Score: inf
ROOT
ATOM      1  C   UNL     1     116.434 123.704 127.864  1.00  0.00     0.004 C 
ENDROOT
BRANCH   1   2
ATOM      2  C   UNL     1     117.053 125.108 127.723  1.00  0.00     0.004 C 
BRANCH   2   3
ATOM      3  C   UNL     1     118.553 125.049 127.325  1.00  0.00    -0.009 C 
BRANCH   3   4
ATOM      4  C   UNL     1     119.399 126.245 127.869  1.00  0.00     0.000 C 
ATOM      5  C   UNL     1     118.730 127.133 128.930  1.00  0.00     0.004 C 
ENDBRANCH   3   4
BRANCH   3   6
ATOM      6  C   UNL     1     119.168 123.632 127.588  1.00  0.00    -0.014 C 
ATOM      7  C   UNL     1     119.385 122.840 126.286  1.00  0.00     0.007 C 
ATOM      8  C   UNL     1     120.460 123.647 128.417  1.00  0.00     0.007 C 
ENDBRANCH   3   6
ENDBRANCH   2   3
ENDBRANCH   1   2
BRANCH   1   9
ATOM      9  C   UNL     1     115.514 123.497 129.098  1.00  0.00    -0.011 C 
ATOM     10  C   UNL     1     114.022 123.580 128.720  1.00  0.00     0.008 C 
BRANCH   9  11
ATOM     11  C   UNL     1     115.918 122.249 129.979  1.00  0.00    -0.002 C 
ATOM     12  C   UNL     1     114.736 121.606 130.722  1.00  0.00     0.005 C 
ATOM     13  C   UNL     1     117.025 122.447 131.089  1.00  0.00    -0.026 C 
ATOM     14  C   UNL     1     114.782 122.132 132.145  1.00  0.00     0.005 C 
ATOM     15  C   UNL     1     116.260 122.414 132.457  1.00  0.00    -0.001 C 
ATOM     16  C   UNL     1     118.038 121.270 130.991  1.00  0.00     0.007 C 
ATOM     17  C   UNL     1     117.830 123.770 130.949  1.00  0.00     0.012 C 
ATOM     18  C   UNL     1     116.875 121.491 133.569  1.00  0.00     0.000 C 
ATOM     19  C   UNL     1     119.000 121.153 132.187  1.00  0.00     0.005 C 
ATOM     20  C   UNL     1     118.421 121.593 133.566  1.00  0.00     0.003 C 
ATOM     21  C   UNL     1     116.409 120.009 133.560  1.00  0.00     0.031 C 
ATOM     22  C   UNL     1     119.049 120.810 134.782  1.00  0.00    -0.008 C 
ATOM     23  C   UNL     1     117.317 119.052 134.303  1.00  0.00    -0.027 C 
ATOM     24  C   UNL     1     118.544 119.365 134.779  1.00  0.00    -0.065 C 
ATOM     25  C   UNL     1     120.618 120.864 134.709  1.00  0.00     0.014 C 
ATOM     26  C   UNL     1     118.620 121.462 136.125  1.00  0.00     0.016 C 
ATOM     27  C   UNL     1     119.312 118.306 135.547  1.00  0.00     0.063 C 
ATOM     28  C   UNL     1     121.321 119.827 135.598  1.00  0.00     0.033 C 
ATOM     29  C   UNL     1     120.814 118.417 135.269  1.00  0.00     0.118 C 
BRANCH  29  30
ATOM     30  O   UNL     1     121.521 117.440 135.987  1.00  0.00    -0.393 OA
ATOM     31  H   UNL     1     122.246 117.093 135.402  1.00  0.00     0.210 HD
ENDBRANCH  29  30
ENDBRANCH   9  11
ENDBRANCH   1   9
TORSDOF 7
ENDMDL
MODEL 9
REMARK VINA RESULT:    -7.563      4.122      6.823
REMARK INTER + INTRA:         -10.490
REMARK INTER:                  -8.410
REMARK INTRA:                  -2.081
REMARK UNBOUND:                -0.054
REMARK SMILES CC[C@H](CC[C@@H](C)[C@@H]1CC[C@H]2[C@H]3CC=C4C[C@H](O)CC[C@@]4(C)[C@H]3CC[C@]21C)C(C)C
REMARK SMILES IDX 5 1 4 2 3 3 2 4 1 5 28 6 29 7 30 8 6 9 7 10 8 11 9 12 26 13
REMARK SMILES IDX 10 14 11 15 25 16 27 17 12 18 24 19 23 20 13 21 21 22 14 23
REMARK SMILES IDX 15 24 20 25 22 26 16 27 19 28 17 29 18 30
REMARK H PARENT 18 31
REMARK Flexibility Score: inf
ROOT
ATOM      1  C   UNL     1     115.282 125.181 128.670  1.00  0.00     0.004 C 
ENDROOT
BRANCH   1   2
ATOM      2  C   UNL     1     116.760 125.595 128.537  1.00  0.00     0.004 C 
BRANCH   2   3
ATOM      3  C   UNL     1     117.103 126.830 129.415  1.00  0.00    -0.009 C 
BRANCH   3   4
ATOM      4  C   UNL     1     116.023 127.158 130.495  1.00  0.00     0.000 C 
ATOM      5  C   UNL     1     116.454 127.011 131.963  1.00  0.00     0.004 C 
ENDBRANCH   3   4
BRANCH   3   6
ATOM      6  C   UNL     1     118.575 126.772 129.950  1.00  0.00    -0.014 C 
ATOM      7  C   UNL     1     119.368 125.598 129.347  1.00  0.00     0.007 C 
ATOM      8  C   UNL     1     119.362 128.079 129.783  1.00  0.00     0.007 C 
ENDBRANCH   3   6
ENDBRANCH   2   3
ENDBRANCH   1   2
BRANCH   1   9
ATOM      9  C   UNL     1     115.032 123.689 129.020  1.00  0.00    -0.011 C 
ATOM     10  C   UNL     1     114.186 122.983 127.943  1.00  0.00     0.008 C 
BRANCH   9  11
ATOM     11  C   UNL     1     116.340 122.920 129.460  1.00  0.00    -0.002 C 
ATOM     12  C   UNL     1     116.540 121.575 128.744  1.00  0.00     0.005 C 
ATOM     13  C   UNL     1     116.527 122.585 130.994  1.00  0.00    -0.026 C 
ATOM     14  C   UNL     1     116.057 120.500 129.700  1.00  0.00     0.005 C 
ATOM     15  C   UNL     1     116.293 121.040 131.118  1.00  0.00    -0.001 C 
ATOM     16  C   UNL     1     117.979 122.962 131.407  1.00  0.00     0.007 C 
ATOM     17  C   UNL     1     115.558 123.359 131.932  1.00  0.00     0.012 C 
ATOM     18  C   UNL     1     117.368 120.244 131.944  1.00  0.00     0.000 C 
ATOM     19  C   UNL     1     118.413 122.423 132.782  1.00  0.00     0.005 C 
ATOM     20  C   UNL     1     117.798 121.050 133.195  1.00  0.00     0.003 C 
ATOM     21  C   UNL     1     118.602 119.739 131.148  1.00  0.00     0.031 C 
ATOM     22  C   UNL     1     118.744 120.201 134.126  1.00  0.00    -0.008 C 
ATOM     23  C   UNL     1     119.809 119.397 131.995  1.00  0.00    -0.027 C 
ATOM     24  C   UNL     1     119.931 119.677 133.313  1.00  0.00    -0.065 C 
ATOM     25  C   UNL     1     119.228 121.068 135.344  1.00  0.00     0.014 C 
ATOM     26  C   UNL     1     117.981 118.974 134.698  1.00  0.00     0.016 C 
ATOM     27  C   UNL     1     121.186 119.223 134.035  1.00  0.00     0.063 C 
ATOM     28  C   UNL     1     120.439 120.484 136.086  1.00  0.00     0.033 C 
ATOM     29  C   UNL     1     121.594 120.240 135.105  1.00  0.00     0.118 C 
BRANCH  29  30
ATOM     30  O   UNL     1     122.751 119.813 135.775  1.00  0.00    -0.393 OA
ATOM     31  H   UNL     1     122.489 119.530 136.690  1.00  0.00     0.210 HD
ENDBRANCH  29  30
ENDBRANCH   9  11
ENDBRANCH   1   9
TORSDOF 7
ENDMDL
