MODEL 1
REMARK VINA RESULT:    17.008      0.000      0.000
REMARK INTER + INTRA:          22.592
REMARK INTER:                  23.471
REMARK INTRA:                  -0.878
REMARK UNBOUND:                -0.878
REMARK SMILES CC[C@H](CC[C@@H](C)[C@@H]1CC[C@@H]2[C@@H]3CC=C4C[C@@H](O)CC[C@]4(C)[C@H]3CC[C@@]21C)C(C)C
REMARK SMILES IDX 5 1 4 2 3 3 2 4 1 5 28 6 29 7 30 8 6 9 7 10 8 11 9 12 26 13
REMARK SMILES IDX 10 14 11 15 25 16 27 17 12 18 24 19 23 20 13 21 21 22 14 23
REMARK SMILES IDX 15 24 20 25 22 26 16 27 19 28 17 29 18 30
REMARK H PARENT 18 31
REMARK Flexibility Score: inf
ROOT
ATOM      1  C   UNL     1       4.257  14.325  16.454  1.00  0.00     0.004 C 
ENDROOT
BRANCH   1   2
ATOM      2  C   UNL     1       2.825  14.014  15.941  1.00  0.00     0.004 C 
BRANCH   2   3
ATOM      3  C   UNL     1       2.756  13.322  14.547  1.00  0.00    -0.009 C 
BRANCH   3   4
ATOM      4  C   UNL     1       1.303  12.944  14.130  1.00  0.00     0.000 C 
ATOM      5  C   UNL     1       0.208  13.647  14.939  1.00  0.00     0.004 C 
ENDBRANCH   3   4
BRANCH   3   6
ATOM      6  C   UNL     1       3.502  14.150  13.437  1.00  0.00    -0.014 C 
ATOM      7  C   UNL     1       3.572  13.365  12.109  1.00  0.00     0.007 C 
ATOM      8  C   UNL     1       2.843  15.515  13.162  1.00  0.00     0.007 C 
ENDBRANCH   3   6
ENDBRANCH   2   3
ENDBRANCH   1   2
BRANCH   1   9
ATOM      9  C   UNL     1       4.379  14.336  18.003  1.00  0.00    -0.011 C 
ATOM     10  C   UNL     1       4.411  12.875  18.509  1.00  0.00     0.008 C 
BRANCH   9  11
ATOM     11  C   UNL     1       5.584  15.245  18.461  1.00  0.00    -0.002 C 
ATOM     12  C   UNL     1       6.901  14.523  18.788  1.00  0.00     0.005 C 
ATOM     13  C   UNL     1       5.369  16.252  19.627  1.00  0.00    -0.026 C 
ATOM     14  C   UNL     1       7.696  15.478  19.683  1.00  0.00     0.005 C 
ATOM     15  C   UNL     1       6.819  16.731  19.883  1.00  0.00    -0.001 C 
ATOM     16  C   UNL     1       4.792  15.563  20.901  1.00  0.00     0.007 C 
ATOM     17  C   UNL     1       4.468  17.434  19.181  1.00  0.00     0.012 C 
ATOM     18  C   UNL     1       7.026  17.501  21.225  1.00  0.00     0.000 C 
ATOM     19  C   UNL     1       4.951  16.402  22.172  1.00  0.00     0.005 C 
ATOM     20  C   UNL     1       6.433  16.760  22.447  1.00  0.00     0.003 C 
ATOM     21  C   UNL     1       8.513  17.822  21.445  1.00  0.00     0.031 C 
ATOM     22  C   UNL     1       6.633  17.571  23.793  1.00  0.00    -0.008 C 
ATOM     23  C   UNL     1       8.800  18.407  22.796  1.00  0.00    -0.027 C 
ATOM     24  C   UNL     1       8.054  18.151  23.890  1.00  0.00    -0.065 C 
ATOM     25  C   UNL     1       6.416  16.602  24.999  1.00  0.00     0.014 C 
ATOM     26  C   UNL     1       5.628  18.753  23.900  1.00  0.00     0.016 C 
ATOM     27  C   UNL     1       8.545  18.667  25.232  1.00  0.00     0.063 C 
ATOM     28  C   UNL     1       6.832  17.197  26.357  1.00  0.00     0.033 C 
ATOM     29  C   UNL     1       8.299  17.642  26.344  1.00  0.00     0.118 C 
BRANCH  29  30
ATOM     30  O   UNL     1       8.611  18.210  27.589  1.00  0.00    -0.393 OA
ATOM     31  H   UNL     1       8.359  19.169  27.542  1.00  0.00     0.210 HD
ENDBRANCH  29  30
ENDBRANCH   9  11
ENDBRANCH   1   9
TORSDOF 7
ENDMDL
