MODEL 1
REMARK VINA RESULT:   -10.316      0.000      0.000
REMARK INTER + INTRA:         -14.989
REMARK INTER:                 -14.236
REMARK INTRA:                  -0.753
REMARK UNBOUND:                -0.753
REMARK SMILES CC[C@H](CC[C@@H](C)[C@H]1CC[C@@H]2[C@@H]3CC=C4C[C@@H](O)CC[C@]4(C)[C@H]3CC[C@]21C)C(C)C
REMARK SMILES IDX 5 1 4 2 3 3 2 4 1 5 28 6 29 7 30 8 6 9 7 10 8 11 9 12 26 13
REMARK SMILES IDX 10 14 11 15 25 16 27 17 12 18 24 19 23 20 13 21 21 22 14 23
REMARK SMILES IDX 15 24 20 25 22 26 16 27 19 28 17 29 18 30
REMARK H PARENT 18 31
REMARK Flexibility Score: inf
ROOT
ATOM      1  C   UNL     1     -23.078 -45.137  24.742  1.00  0.00     0.004 C 
ENDROOT
BRANCH   1   2
ATOM      2  C   UNL     1     -22.609 -46.603  24.930  1.00  0.00     0.004 C 
BRANCH   2   3
ATOM      3  C   UNL     1     -22.362 -47.342  23.582  1.00  0.00    -0.009 C 
BRANCH   3   4
ATOM      4  C   UNL     1     -22.990 -46.508  22.424  1.00  0.00     0.000 C 
ATOM      5  C   UNL     1     -24.055 -47.252  21.618  1.00  0.00     0.004 C 
ENDBRANCH   3   4
BRANCH   3   6
ATOM      6  C   UNL     1     -20.843 -47.695  23.393  1.00  0.00    -0.014 C 
ATOM      7  C   UNL     1     -20.196 -48.375  24.612  1.00  0.00     0.007 C 
ATOM      8  C   UNL     1     -20.003 -46.493  22.929  1.00  0.00     0.007 C 
ENDBRANCH   3   6
ENDBRANCH   2   3
ENDBRANCH   1   2
BRANCH   1   9
ATOM      9  C   UNL     1     -21.994 -44.053  25.031  1.00  0.00    -0.011 C 
ATOM     10  C   UNL     1     -21.009 -44.609  26.094  1.00  0.00     0.008 C 
BRANCH   9  11
ATOM     11  C   UNL     1     -21.221 -43.475  23.784  1.00  0.00    -0.002 C 
ATOM     12  C   UNL     1     -22.098 -42.608  22.819  1.00  0.00     0.005 C 
ATOM     13  C   UNL     1     -19.972 -42.551  24.094  1.00  0.00    -0.026 C 
ATOM     14  C   UNL     1     -21.507 -41.197  22.763  1.00  0.00     0.005 C 
ATOM     15  C   UNL     1     -20.586 -41.147  23.965  1.00  0.00    -0.001 C 
ATOM     16  C   UNL     1     -19.269 -42.653  25.505  1.00  0.00     0.007 C 
ATOM     17  C   UNL     1     -18.925 -42.860  22.976  1.00  0.00     0.012 C 
ATOM     18  C   UNL     1     -19.615 -39.938  24.113  1.00  0.00     0.000 C 
ATOM     19  C   UNL     1     -18.781 -41.299  26.103  1.00  0.00     0.005 C 
ATOM     20  C   UNL     1     -18.397 -40.267  25.016  1.00  0.00     0.003 C 
ATOM     21  C   UNL     1     -19.098 -39.301  22.820  1.00  0.00     0.031 C 
ATOM     22  C   UNL     1     -17.700 -38.946  25.507  1.00  0.00    -0.008 C 
ATOM     23  C   UNL     1     -18.177 -38.140  23.132  1.00  0.00    -0.027 C 
ATOM     24  C   UNL     1     -17.507 -37.995  24.306  1.00  0.00    -0.065 C 
ATOM     25  C   UNL     1     -16.294 -39.296  26.097  1.00  0.00     0.014 C 
ATOM     26  C   UNL     1     -18.542 -38.230  26.597  1.00  0.00     0.016 C 
ATOM     27  C   UNL     1     -16.590 -36.803  24.480  1.00  0.00     0.063 C 
ATOM     28  C   UNL     1     -15.384 -38.073  26.310  1.00  0.00     0.033 C 
ATOM     29  C   UNL     1     -15.226 -37.262  25.013  1.00  0.00     0.118 C 
BRANCH  29  30
ATOM     30  O   UNL     1     -14.377 -36.160  25.216  1.00  0.00    -0.393 OA
ATOM     31  H   UNL     1     -14.200 -35.746  24.331  1.00  0.00     0.210 HD
ENDBRANCH  29  30
ENDBRANCH   9  11
ENDBRANCH   1   9
TORSDOF 7
ENDMDL
MODEL 2
REMARK VINA RESULT:   -10.006      0.956      1.113
REMARK INTER + INTRA:         -14.562
REMARK INTER:                 -13.983
REMARK INTRA:                  -0.578
REMARK UNBOUND:                -0.753
REMARK SMILES CC[C@H](CC[C@@H](C)[C@H]1CC[C@@H]2[C@@H]3CC=C4C[C@@H](O)CC[C@]4(C)[C@H]3CC[C@]21C)C(C)C
REMARK SMILES IDX 5 1 4 2 3 3 2 4 1 5 28 6 29 7 30 8 6 9 7 10 8 11 9 12 26 13
REMARK SMILES IDX 10 14 11 15 25 16 27 17 12 18 24 19 23 20 13 21 21 22 14 23
REMARK SMILES IDX 15 24 20 25 22 26 16 27 19 28 17 29 18 30
REMARK H PARENT 18 31
REMARK Flexibility Score: inf
ROOT
ATOM      1  C   UNL     1     -22.866 -43.904  24.168  1.00  0.00     0.004 C 
ENDROOT
BRANCH   1   2
ATOM      2  C   UNL     1     -22.508 -44.979  23.110  1.00  0.00     0.004 C 
BRANCH   2   3
ATOM      3  C   UNL     1     -22.554 -46.430  23.675  1.00  0.00    -0.009 C 
BRANCH   3   4
ATOM      4  C   UNL     1     -23.774 -47.176  23.054  1.00  0.00     0.000 C 
ATOM      5  C   UNL     1     -23.775 -47.218  21.525  1.00  0.00     0.004 C 
ENDBRANCH   3   4
BRANCH   3   6
ATOM      6  C   UNL     1     -21.173 -47.158  23.496  1.00  0.00    -0.014 C 
ATOM      7  C   UNL     1     -20.752 -48.019  24.699  1.00  0.00     0.007 C 
ATOM      8  C   UNL     1     -20.041 -46.200  23.088  1.00  0.00     0.007 C 
ENDBRANCH   3   6
ENDBRANCH   2   3
ENDBRANCH   1   2
BRANCH   1   9
ATOM      9  C   UNL     1     -21.679 -42.996  24.616  1.00  0.00    -0.011 C 
ATOM     10  C   UNL     1     -20.861 -43.750  25.698  1.00  0.00     0.008 C 
BRANCH   9  11
ATOM     11  C   UNL     1     -20.743 -42.441  23.476  1.00  0.00    -0.002 C 
ATOM     12  C   UNL     1     -21.448 -41.475  22.466  1.00  0.00     0.005 C 
ATOM     13  C   UNL     1     -19.464 -41.630  23.944  1.00  0.00    -0.026 C 
ATOM     14  C   UNL     1     -20.749 -40.115  22.525  1.00  0.00     0.005 C 
ATOM     15  C   UNL     1     -19.953 -40.178  23.812  1.00  0.00    -0.001 C 
ATOM     16  C   UNL     1     -18.917 -41.835  25.411  1.00  0.00     0.007 C 
ATOM     17  C   UNL     1     -18.337 -41.985  22.922  1.00  0.00     0.012 C 
ATOM     18  C   UNL     1     -18.912 -39.056  24.104  1.00  0.00     0.000 C 
ATOM     19  C   UNL     1     -18.389 -40.545  26.109  1.00  0.00     0.005 C 
ATOM     20  C   UNL     1     -17.821 -39.512  25.108  1.00  0.00     0.003 C 
ATOM     21  C   UNL     1     -18.220 -38.421  22.895  1.00  0.00     0.031 C 
ATOM     22  C   UNL     1     -17.078 -38.268  25.718  1.00  0.00    -0.008 C 
ATOM     23  C   UNL     1     -17.250 -37.348  23.343  1.00  0.00    -0.027 C 
ATOM     24  C   UNL     1     -16.693 -37.295  24.581  1.00  0.00    -0.065 C 
ATOM     25  C   UNL     1     -15.770 -38.748  26.428  1.00  0.00     0.014 C 
ATOM     26  C   UNL     1     -17.968 -37.522  26.749  1.00  0.00     0.016 C 
ATOM     27  C   UNL     1     -15.709 -36.187  24.893  1.00  0.00     0.063 C 
ATOM     28  C   UNL     1     -14.794 -37.610  26.779  1.00  0.00     0.033 C 
ATOM     29  C   UNL     1     -14.445 -36.771  25.538  1.00  0.00     0.118 C 
BRANCH  29  30
ATOM     30  O   UNL     1     -13.540 -35.748  25.868  1.00  0.00    -0.393 OA
ATOM     31  H   UNL     1     -13.908 -34.893  25.521  1.00  0.00     0.210 HD
ENDBRANCH  29  30
ENDBRANCH   9  11
ENDBRANCH   1   9
TORSDOF 7
ENDMDL
MODEL 3
REMARK VINA RESULT:    -9.678      3.080      9.258
REMARK INTER + INTRA:         -14.108
REMARK INTER:                 -13.111
REMARK INTRA:                  -0.997
REMARK UNBOUND:                -0.753
REMARK SMILES CC[C@H](CC[C@@H](C)[C@H]1CC[C@@H]2[C@@H]3CC=C4C[C@@H](O)CC[C@]4(C)[C@H]3CC[C@]21C)C(C)C
REMARK SMILES IDX 5 1 4 2 3 3 2 4 1 5 28 6 29 7 30 8 6 9 7 10 8 11 9 12 26 13
REMARK SMILES IDX 10 14 11 15 25 16 27 17 12 18 24 19 23 20 13 21 21 22 14 23
REMARK SMILES IDX 15 24 20 25 22 26 16 27 19 28 17 29 18 30
REMARK H PARENT 18 31
REMARK Flexibility Score: inf
ROOT
ATOM      1  C   UNL     1     -15.081 -38.265  24.973  1.00  0.00     0.004 C 
ENDROOT
BRANCH   1   2
ATOM      2  C   UNL     1     -14.024 -37.610  25.899  1.00  0.00     0.004 C 
BRANCH   2   3
ATOM      3  C   UNL     1     -14.002 -36.056  25.796  1.00  0.00    -0.009 C 
BRANCH   3   4
ATOM      4  C   UNL     1     -15.196 -35.477  26.615  1.00  0.00     0.000 C 
ATOM      5  C   UNL     1     -16.480 -35.286  25.807  1.00  0.00     0.004 C 
ENDBRANCH   3   4
BRANCH   3   6
ATOM      6  C   UNL     1     -12.594 -35.477  26.182  1.00  0.00    -0.014 C 
ATOM      7  C   UNL     1     -11.415 -36.409  25.852  1.00  0.00     0.007 C 
ATOM      8  C   UNL     1     -12.522 -35.003  27.643  1.00  0.00     0.007 C 
ENDBRANCH   3   6
ENDBRANCH   2   3
ENDBRANCH   1   2
BRANCH   1   9
ATOM      9  C   UNL     1     -16.230 -39.019  25.711  1.00  0.00    -0.011 C 
ATOM     10  C   UNL     1     -16.034 -38.846  27.241  1.00  0.00     0.008 C 
BRANCH   9  11
ATOM     11  C   UNL     1     -17.704 -38.659  25.281  1.00  0.00    -0.002 C 
ATOM     12  C   UNL     1     -17.852 -38.184  23.797  1.00  0.00     0.005 C 
ATOM     13  C   UNL     1     -18.782 -39.813  25.418  1.00  0.00    -0.026 C 
ATOM     14  C   UNL     1     -18.786 -39.152  23.068  1.00  0.00     0.005 C 
ATOM     15  C   UNL     1     -18.834 -40.359  23.981  1.00  0.00    -0.001 C 
ATOM     16  C   UNL     1     -18.497 -41.021  26.395  1.00  0.00     0.007 C 
ATOM     17  C   UNL     1     -20.108 -39.108  25.847  1.00  0.00     0.012 C 
ATOM     18  C   UNL     1     -19.881 -41.475  23.691  1.00  0.00     0.000 C 
ATOM     19  C   UNL     1     -18.970 -42.414  25.881  1.00  0.00     0.005 C 
ATOM     20  C   UNL     1     -20.201 -42.324  24.950  1.00  0.00     0.003 C 
ATOM     21  C   UNL     1     -21.204 -41.038  23.056  1.00  0.00     0.031 C 
ATOM     22  C   UNL     1     -20.883 -43.681  24.542  1.00  0.00    -0.008 C 
ATOM     23  C   UNL     1     -22.105 -42.233  22.830  1.00  0.00    -0.027 C 
ATOM     24  C   UNL     1     -22.007 -43.401  23.521  1.00  0.00    -0.065 C 
ATOM     25  C   UNL     1     -21.516 -44.340  25.811  1.00  0.00     0.014 C 
ATOM     26  C   UNL     1     -19.859 -44.667  23.917  1.00  0.00     0.016 C 
ATOM     27  C   UNL     1     -22.993 -44.511  23.222  1.00  0.00     0.063 C 
ATOM     28  C   UNL     1     -22.484 -45.495  25.500  1.00  0.00     0.033 C 
ATOM     29  C   UNL     1     -23.591 -45.050  24.529  1.00  0.00     0.118 C 
BRANCH  29  30
ATOM     30  O   UNL     1     -24.478 -46.108  24.267  1.00  0.00    -0.393 OA
ATOM     31  H   UNL     1     -25.398 -45.733  24.242  1.00  0.00     0.210 HD
ENDBRANCH  29  30
ENDBRANCH   9  11
ENDBRANCH   1   9
TORSDOF 7
ENDMDL
MODEL 4
REMARK VINA RESULT:    -9.653      1.074      1.976
REMARK INTER + INTRA:         -14.074
REMARK INTER:                 -13.969
REMARK INTRA:                  -0.105
REMARK UNBOUND:                -0.753
REMARK SMILES CC[C@H](CC[C@@H](C)[C@H]1CC[C@@H]2[C@@H]3CC=C4C[C@@H](O)CC[C@]4(C)[C@H]3CC[C@]21C)C(C)C
REMARK SMILES IDX 5 1 4 2 3 3 2 4 1 5 28 6 29 7 30 8 6 9 7 10 8 11 9 12 26 13
REMARK SMILES IDX 10 14 11 15 25 16 27 17 12 18 24 19 23 20 13 21 21 22 14 23
REMARK SMILES IDX 15 24 20 25 22 26 16 27 19 28 17 29 18 30
REMARK H PARENT 18 31
REMARK Flexibility Score: inf
ROOT
ATOM      1  C   UNL     1     -22.770 -43.847  23.980  1.00  0.00     0.004 C 
ENDROOT
BRANCH   1   2
ATOM      2  C   UNL     1     -22.868 -45.222  24.689  1.00  0.00     0.004 C 
BRANCH   2   3
ATOM      3  C   UNL     1     -22.330 -46.397  23.820  1.00  0.00    -0.009 C 
BRANCH   3   4
ATOM      4  C   UNL     1     -21.306 -47.220  24.660  1.00  0.00     0.000 C 
ATOM      5  C   UNL     1     -20.411 -48.144  23.832  1.00  0.00     0.004 C 
ENDBRANCH   3   4
BRANCH   3   6
ATOM      6  C   UNL     1     -23.505 -47.237  23.203  1.00  0.00    -0.014 C 
ATOM      7  C   UNL     1     -23.542 -47.238  21.664  1.00  0.00     0.007 C 
ATOM      8  C   UNL     1     -24.879 -46.858  23.781  1.00  0.00     0.007 C 
ENDBRANCH   3   6
ENDBRANCH   2   3
ENDBRANCH   1   2
BRANCH   1   9
ATOM      9  C   UNL     1     -21.595 -42.939  24.456  1.00  0.00    -0.011 C 
ATOM     10  C   UNL     1     -20.780 -43.708  25.531  1.00  0.00     0.008 C 
BRANCH   9  11
ATOM     11  C   UNL     1     -20.652 -42.355  23.335  1.00  0.00    -0.002 C 
ATOM     12  C   UNL     1     -21.356 -41.373  22.339  1.00  0.00     0.005 C 
ATOM     13  C   UNL     1     -19.383 -41.546  23.831  1.00  0.00    -0.026 C 
ATOM     14  C   UNL     1     -20.666 -40.010  22.433  1.00  0.00     0.005 C 
ATOM     15  C   UNL     1     -19.880 -40.094  23.725  1.00  0.00    -0.001 C 
ATOM     16  C   UNL     1     -18.847 -41.778  25.299  1.00  0.00     0.007 C 
ATOM     17  C   UNL     1     -18.245 -41.873  22.812  1.00  0.00     0.012 C 
ATOM     18  C   UNL     1     -18.849 -38.972  24.048  1.00  0.00     0.000 C 
ATOM     19  C   UNL     1     -18.333 -40.499  26.026  1.00  0.00     0.005 C 
ATOM     20  C   UNL     1     -17.763 -39.442  25.052  1.00  0.00     0.003 C 
ATOM     21  C   UNL     1     -18.151 -38.308  22.858  1.00  0.00     0.031 C 
ATOM     22  C   UNL     1     -17.033 -38.206  25.694  1.00  0.00    -0.008 C 
ATOM     23  C   UNL     1     -17.192 -37.239  23.336  1.00  0.00    -0.027 C 
ATOM     24  C   UNL     1     -16.645 -37.208  24.580  1.00  0.00    -0.065 C 
ATOM     25  C   UNL     1     -15.728 -38.692  26.405  1.00  0.00     0.014 C 
ATOM     26  C   UNL     1     -17.937 -37.487  26.732  1.00  0.00     0.016 C 
ATOM     27  C   UNL     1     -15.671 -36.100  24.923  1.00  0.00     0.063 C 
ATOM     28  C   UNL     1     -14.763 -37.556  26.787  1.00  0.00     0.033 C 
ATOM     29  C   UNL     1     -14.408 -36.690  25.567  1.00  0.00     0.118 C 
BRANCH  29  30
ATOM     30  O   UNL     1     -13.512 -35.668  25.925  1.00  0.00    -0.393 OA
ATOM     31  H   UNL     1     -12.642 -35.858  25.486  1.00  0.00     0.210 HD
ENDBRANCH  29  30
ENDBRANCH   9  11
ENDBRANCH   1   9
TORSDOF 7
ENDMDL
MODEL 5
REMARK VINA RESULT:    -9.538      3.040      9.230
REMARK INTER + INTRA:         -13.915
REMARK INTER:                 -14.663
REMARK INTRA:                   0.749
REMARK UNBOUND:                -0.753
REMARK SMILES CC[C@H](CC[C@@H](C)[C@H]1CC[C@@H]2[C@@H]3CC=C4C[C@@H](O)CC[C@]4(C)[C@H]3CC[C@]21C)C(C)C
REMARK SMILES IDX 5 1 4 2 3 3 2 4 1 5 28 6 29 7 30 8 6 9 7 10 8 11 9 12 26 13
REMARK SMILES IDX 10 14 11 15 25 16 27 17 12 18 24 19 23 20 13 21 21 22 14 23
REMARK SMILES IDX 15 24 20 25 22 26 16 27 19 28 17 29 18 30
REMARK H PARENT 18 31
REMARK Flexibility Score: inf
ROOT
ATOM      1  C   UNL     1     -15.917 -38.172  26.771  1.00  0.00     0.004 C 
ENDROOT
BRANCH   1   2
ATOM      2  C   UNL     1     -14.454 -37.780  26.445  1.00  0.00     0.004 C 
BRANCH   2   3
ATOM      3  C   UNL     1     -14.218 -36.240  26.451  1.00  0.00    -0.009 C 
BRANCH   3   4
ATOM      4  C   UNL     1     -12.686 -35.962  26.388  1.00  0.00     0.000 C 
ATOM      5  C   UNL     1     -12.194 -34.913  27.385  1.00  0.00     0.004 C 
ENDBRANCH   3   4
BRANCH   3   6
ATOM      6  C   UNL     1     -15.066 -35.528  25.337  1.00  0.00    -0.014 C 
ATOM      7  C   UNL     1     -16.539 -35.295  25.715  1.00  0.00     0.007 C 
ATOM      8  C   UNL     1     -14.957 -36.222  23.968  1.00  0.00     0.007 C 
ENDBRANCH   3   6
ENDBRANCH   2   3
ENDBRANCH   1   2
BRANCH   1   9
ATOM      9  C   UNL     1     -16.572 -39.175  25.772  1.00  0.00    -0.011 C 
ATOM     10  C   UNL     1     -16.463 -40.606  26.364  1.00  0.00     0.008 C 
BRANCH   9  11
ATOM     11  C   UNL     1     -18.048 -38.858  25.315  1.00  0.00    -0.002 C 
ATOM     12  C   UNL     1     -18.181 -38.380  23.830  1.00  0.00     0.005 C 
ATOM     13  C   UNL     1     -19.092 -40.046  25.425  1.00  0.00    -0.026 C 
ATOM     14  C   UNL     1     -19.071 -39.372  23.079  1.00  0.00     0.005 C 
ATOM     15  C   UNL     1     -19.099 -40.585  23.985  1.00  0.00    -0.001 C 
ATOM     16  C   UNL     1     -18.788 -41.250  26.401  1.00  0.00     0.007 C 
ATOM     17  C   UNL     1     -20.447 -39.385  25.832  1.00  0.00     0.012 C 
ATOM     18  C   UNL     1     -20.105 -41.732  23.669  1.00  0.00     0.000 C 
ATOM     19  C   UNL     1     -19.208 -42.655  25.872  1.00  0.00     0.005 C 
ATOM     20  C   UNL     1     -20.423 -42.598  24.917  1.00  0.00     0.003 C 
ATOM     21  C   UNL     1     -21.428 -41.332  23.010  1.00  0.00     0.031 C 
ATOM     22  C   UNL     1     -21.054 -43.973  24.489  1.00  0.00    -0.008 C 
ATOM     23  C   UNL     1     -22.287 -42.554  22.761  1.00  0.00    -0.027 C 
ATOM     24  C   UNL     1     -22.166 -43.721  23.447  1.00  0.00    -0.065 C 
ATOM     25  C   UNL     1     -21.690 -44.658  25.743  1.00  0.00     0.014 C 
ATOM     26  C   UNL     1     -19.988 -44.923  23.879  1.00  0.00     0.016 C 
ATOM     27  C   UNL     1     -23.111 -44.860  23.123  1.00  0.00     0.063 C 
ATOM     28  C   UNL     1     -22.616 -45.841  25.406  1.00  0.00     0.033 C 
ATOM     29  C   UNL     1     -23.717 -45.425  24.416  1.00  0.00     0.118 C 
BRANCH  29  30
ATOM     30  O   UNL     1     -24.566 -46.508  24.132  1.00  0.00    -0.393 OA
ATOM     31  H   UNL     1     -24.828 -46.446  23.176  1.00  0.00     0.210 HD
ENDBRANCH  29  30
ENDBRANCH   9  11
ENDBRANCH   1   9
TORSDOF 7
ENDMDL
MODEL 6
REMARK VINA RESULT:    -7.865      1.490      2.919
REMARK INTER + INTRA:         -11.606
REMARK INTER:                 -10.781
REMARK INTRA:                  -0.825
REMARK UNBOUND:                -0.753
REMARK SMILES CC[C@H](CC[C@@H](C)[C@H]1CC[C@@H]2[C@@H]3CC=C4C[C@@H](O)CC[C@]4(C)[C@H]3CC[C@]21C)C(C)C
REMARK SMILES IDX 5 1 4 2 3 3 2 4 1 5 28 6 29 7 30 8 6 9 7 10 8 11 9 12 26 13
REMARK SMILES IDX 10 14 11 15 25 16 27 17 12 18 24 19 23 20 13 21 21 22 14 23
REMARK SMILES IDX 15 24 20 25 22 26 16 27 19 28 17 29 18 30
REMARK H PARENT 18 31
REMARK Flexibility Score: inf
ROOT
ATOM      1  C   UNL     1     -23.044 -43.883  23.108  1.00  0.00     0.004 C 
ENDROOT
BRANCH   1   2
ATOM      2  C   UNL     1     -24.132 -44.574  23.970  1.00  0.00     0.004 C 
BRANCH   2   3
ATOM      3  C   UNL     1     -23.843 -46.084  24.223  1.00  0.00    -0.009 C 
BRANCH   3   4
ATOM      4  C   UNL     1     -25.190 -46.867  24.204  1.00  0.00     0.000 C 
ATOM      5  C   UNL     1     -26.182 -46.441  25.287  1.00  0.00     0.004 C 
ENDBRANCH   3   4
BRANCH   3   6
ATOM      6  C   UNL     1     -22.748 -46.629  23.237  1.00  0.00    -0.014 C 
ATOM      7  C   UNL     1     -23.312 -47.269  21.956  1.00  0.00     0.007 C 
ATOM      8  C   UNL     1     -21.744 -47.572  23.922  1.00  0.00     0.007 C 
ENDBRANCH   3   6
ENDBRANCH   2   3
ENDBRANCH   1   2
BRANCH   1   9
ATOM      9  C   UNL     1     -22.500 -42.539  23.683  1.00  0.00    -0.011 C 
ATOM     10  C   UNL     1     -23.693 -41.565  23.877  1.00  0.00     0.008 C 
BRANCH   9  11
ATOM     11  C   UNL     1     -21.621 -42.631  24.989  1.00  0.00    -0.002 C 
ATOM     12  C   UNL     1     -20.570 -43.792  24.986  1.00  0.00     0.005 C 
ATOM     13  C   UNL     1     -20.766 -41.349  25.357  1.00  0.00    -0.026 C 
ATOM     14  C   UNL     1     -19.173 -43.182  25.115  1.00  0.00     0.005 C 
ATOM     15  C   UNL     1     -19.388 -41.720  24.784  1.00  0.00    -0.001 C 
ATOM     16  C   UNL     1     -21.186 -39.947  24.762  1.00  0.00     0.007 C 
ATOM     17  C   UNL     1     -20.772 -41.266  26.917  1.00  0.00     0.012 C 
ATOM     18  C   UNL     1     -18.225 -40.716  25.041  1.00  0.00     0.000 C 
ATOM     19  C   UNL     1     -20.002 -39.021  24.349  1.00  0.00     0.005 C 
ATOM     20  C   UNL     1     -18.731 -39.257  25.197  1.00  0.00     0.003 C 
ATOM     21  C   UNL     1     -17.285 -41.027  26.209  1.00  0.00     0.031 C 
ATOM     22  C   UNL     1     -17.549 -38.239  25.002  1.00  0.00    -0.008 C 
ATOM     23  C   UNL     1     -16.210 -39.968  26.321  1.00  0.00    -0.027 C 
ATOM     24  C   UNL     1     -16.332 -38.705  25.833  1.00  0.00    -0.065 C 
ATOM     25  C   UNL     1     -17.993 -36.830  25.516  1.00  0.00     0.014 C 
ATOM     26  C   UNL     1     -17.135 -38.126  23.510  1.00  0.00     0.016 C 
ATOM     27  C   UNL     1     -15.194 -37.728  26.040  1.00  0.00     0.063 C 
ATOM     28  C   UNL     1     -16.835 -35.831  25.683  1.00  0.00     0.033 C 
ATOM     29  C   UNL     1     -15.733 -36.401  26.592  1.00  0.00     0.118 C 
BRANCH  29  30
ATOM     30  O   UNL     1     -14.690 -35.472  26.752  1.00  0.00    -0.393 OA
ATOM     31  H   UNL     1     -14.548 -35.021  25.878  1.00  0.00     0.210 HD
ENDBRANCH  29  30
ENDBRANCH   9  11
ENDBRANCH   1   9
TORSDOF 7
ENDMDL
MODEL 7
REMARK VINA RESULT:    -7.616      1.310      3.114
REMARK INTER + INTRA:         -11.263
REMARK INTER:                 -10.547
REMARK INTRA:                  -0.717
REMARK UNBOUND:                -0.753
REMARK SMILES CC[C@H](CC[C@@H](C)[C@H]1CC[C@@H]2[C@@H]3CC=C4C[C@@H](O)CC[C@]4(C)[C@H]3CC[C@]21C)C(C)C
REMARK SMILES IDX 5 1 4 2 3 3 2 4 1 5 28 6 29 7 30 8 6 9 7 10 8 11 9 12 26 13
REMARK SMILES IDX 10 14 11 15 25 16 27 17 12 18 24 19 23 20 13 21 21 22 14 23
REMARK SMILES IDX 15 24 20 25 22 26 16 27 19 28 17 29 18 30
REMARK H PARENT 18 31
REMARK Flexibility Score: inf
ROOT
ATOM      1  C   UNL     1     -22.116 -43.371  22.718  1.00  0.00     0.004 C 
ENDROOT
BRANCH   1   2
ATOM      2  C   UNL     1     -22.551 -44.688  23.411  1.00  0.00     0.004 C 
BRANCH   2   3
ATOM      3  C   UNL     1     -22.067 -45.962  22.656  1.00  0.00    -0.009 C 
BRANCH   3   4
ATOM      4  C   UNL     1     -20.641 -46.338  23.160  1.00  0.00     0.000 C 
ATOM      5  C   UNL     1     -20.493 -47.794  23.604  1.00  0.00     0.004 C 
ENDBRANCH   3   4
BRANCH   3   6
ATOM      6  C   UNL     1     -23.127 -47.118  22.749  1.00  0.00    -0.014 C 
ATOM      7  C   UNL     1     -23.769 -47.498  21.403  1.00  0.00     0.007 C 
ATOM      8  C   UNL     1     -24.206 -46.856  23.813  1.00  0.00     0.007 C 
ENDBRANCH   3   6
ENDBRANCH   2   3
ENDBRANCH   1   2
BRANCH   1   9
ATOM      9  C   UNL     1     -22.135 -42.106  23.632  1.00  0.00    -0.011 C 
ATOM     10  C   UNL     1     -23.611 -41.703  23.887  1.00  0.00     0.008 C 
BRANCH   9  11
ATOM     11  C   UNL     1     -21.326 -42.196  24.982  1.00  0.00    -0.002 C 
ATOM     12  C   UNL     1     -20.323 -43.396  25.062  1.00  0.00     0.005 C 
ATOM     13  C   UNL     1     -20.440 -40.937  25.361  1.00  0.00    -0.026 C 
ATOM     14  C   UNL     1     -18.911 -42.836  25.247  1.00  0.00     0.005 C 
ATOM     15  C   UNL     1     -19.051 -41.377  24.868  1.00  0.00    -0.001 C 
ATOM     16  C   UNL     1     -20.775 -39.537  24.710  1.00  0.00     0.007 C 
ATOM     17  C   UNL     1     -20.521 -40.812  26.916  1.00  0.00     0.012 C 
ATOM     18  C   UNL     1     -17.864 -40.411  25.158  1.00  0.00     0.000 C 
ATOM     19  C   UNL     1     -19.536 -38.669  24.334  1.00  0.00     0.005 C 
ATOM     20  C   UNL     1     -18.319 -38.930  25.251  1.00  0.00     0.003 C 
ATOM     21  C   UNL     1     -16.996 -40.726  26.380  1.00  0.00     0.031 C 
ATOM     22  C   UNL     1     -17.089 -37.964  25.091  1.00  0.00    -0.008 C 
ATOM     23  C   UNL     1     -15.887 -39.705  26.519  1.00  0.00    -0.027 C 
ATOM     24  C   UNL     1     -15.935 -38.452  25.994  1.00  0.00    -0.065 C 
ATOM     25  C   UNL     1     -17.503 -36.525  25.545  1.00  0.00     0.014 C 
ATOM     26  C   UNL     1     -16.598 -37.907  23.619  1.00  0.00     0.016 C 
ATOM     27  C   UNL     1     -14.771 -37.514  26.233  1.00  0.00     0.063 C 
ATOM     28  C   UNL     1     -16.316 -35.567  25.746  1.00  0.00     0.033 C 
ATOM     29  C   UNL     1     -15.284 -36.153  26.723  1.00  0.00     0.118 C 
BRANCH  29  30
ATOM     30  O   UNL     1     -14.215 -35.260  26.912  1.00  0.00    -0.393 OA
ATOM     31  H   UNL     1     -14.577 -34.439  27.339  1.00  0.00     0.210 HD
ENDBRANCH  29  30
ENDBRANCH   9  11
ENDBRANCH   1   9
TORSDOF 7
ENDMDL
