MODEL 1
REMARK VINA RESULT:    -3.749      0.000      0.000
REMARK INTER + INTRA:          -6.233
REMARK INTER:                  -5.174
REMARK INTRA:                  -1.059
REMARK UNBOUND:                -1.059
REMARK SMILES CC[C@@H](CC[C@H](C)[C@H]1CC[C@H]2[C@@H]3CC=C4C[C@@H](O)CC[C@@]4(C)[C@@H]3CC[C@@]12C)C(C)C
REMARK SMILES IDX 5 1 4 2 3 3 2 4 1 5 28 6 29 7 30 8 6 9 7 10 8 11 9 12 26 13
REMARK SMILES IDX 10 14 11 15 25 16 27 17 12 18 24 19 23 20 13 21 21 22 14 23
REMARK SMILES IDX 15 24 20 25 22 26 16 27 19 28 17 29 18 30
REMARK H PARENT 18 31
REMARK Flexibility Score: inf
ROOT
ATOM      1  C   UNL     1       3.772  41.013  12.859  1.00  0.00     0.004 C 
ENDROOT
BRANCH   1   2
ATOM      2  C   UNL     1       2.929  39.905  12.199  1.00  0.00     0.004 C 
BRANCH   2   3
ATOM      3  C   UNL     1       1.919  39.258  13.187  1.00  0.00    -0.009 C 
BRANCH   3   4
ATOM      4  C   UNL     1       1.530  37.790  12.822  1.00  0.00     0.000 C 
ATOM      5  C   UNL     1       2.397  37.104  11.758  1.00  0.00     0.004 C 
ENDBRANCH   3   4
BRANCH   3   6
ATOM      6  C   UNL     1       0.704  40.204  13.469  1.00  0.00    -0.014 C 
ATOM      7  C   UNL     1      -0.667  39.554  13.248  1.00  0.00     0.007 C 
ATOM      8  C   UNL     1       0.771  40.835  14.870  1.00  0.00     0.007 C 
ENDBRANCH   3   6
ENDBRANCH   2   3
ENDBRANCH   1   2
BRANCH   1   9
ATOM      9  C   UNL     1       3.839  42.300  11.988  1.00  0.00    -0.011 C 
ATOM     10  C   UNL     1       4.474  43.460  12.772  1.00  0.00     0.008 C 
BRANCH   9  11
ATOM     11  C   UNL     1       2.509  42.726  11.265  1.00  0.00    -0.002 C 
ATOM     12  C   UNL     1       1.469  43.335  12.228  1.00  0.00     0.005 C 
ATOM     13  C   UNL     1       2.518  43.623   9.970  1.00  0.00    -0.026 C 
ATOM     14  C   UNL     1       0.819  44.496  11.495  1.00  0.00     0.005 C 
ATOM     15  C   UNL     1       1.107  44.269  10.010  1.00  0.00    -0.001 C 
ATOM     16  C   UNL     1       3.612  44.722   9.998  1.00  0.00     0.007 C 
ATOM     17  C   UNL     1       2.678  42.732   8.709  1.00  0.00     0.012 C 
ATOM     18  C   UNL     1       0.876  45.570   9.174  1.00  0.00     0.000 C 
ATOM     19  C   UNL     1       3.400  45.824   8.955  1.00  0.00     0.005 C 
ATOM     20  C   UNL     1       2.062  46.570   9.179  1.00  0.00     0.003 C 
ATOM     21  C   UNL     1       0.449  45.283   7.728  1.00  0.00     0.031 C 
ATOM     22  C   UNL     1       1.810  47.845   8.227  1.00  0.00    -0.008 C 
ATOM     23  C   UNL     1      -0.059  46.548   7.118  1.00  0.00    -0.027 C 
ATOM     24  C   UNL     1       0.512  47.738   7.396  1.00  0.00    -0.065 C 
ATOM     25  C   UNL     1       1.700  49.103   9.146  1.00  0.00     0.014 C 
ATOM     26  C   UNL     1       2.968  48.065   7.214  1.00  0.00     0.016 C 
ATOM     27  C   UNL     1      -0.066  48.985   6.752  1.00  0.00     0.063 C 
ATOM     28  C   UNL     1       1.206  50.373   8.432  1.00  0.00     0.033 C 
ATOM     29  C   UNL     1      -0.150  50.142   7.756  1.00  0.00     0.118 C 
BRANCH  29  30
ATOM     30  O   UNL     1      -1.125  49.872   8.733  1.00  0.00    -0.393 OA
ATOM     31  H   UNL     1      -0.905  48.985   9.123  1.00  0.00     0.210 HD
ENDBRANCH  29  30
ENDBRANCH   9  11
ENDBRANCH   1   9
TORSDOF 7
ENDMDL
MODEL 2
REMARK VINA RESULT:    -2.700      1.310      2.422
REMARK INTER + INTRA:          -4.784
REMARK INTER:                  -4.260
REMARK INTRA:                  -0.525
REMARK UNBOUND:                -1.059
REMARK SMILES CC[C@@H](CC[C@H](C)[C@H]1CC[C@H]2[C@@H]3CC=C4C[C@@H](O)CC[C@@]4(C)[C@@H]3CC[C@@]12C)C(C)C
REMARK SMILES IDX 5 1 4 2 3 3 2 4 1 5 28 6 29 7 30 8 6 9 7 10 8 11 9 12 26 13
REMARK SMILES IDX 10 14 11 15 25 16 27 17 12 18 24 19 23 20 13 21 21 22 14 23
REMARK SMILES IDX 15 24 20 25 22 26 16 27 19 28 17 29 18 30
REMARK H PARENT 18 31
REMARK Flexibility Score: inf
ROOT
ATOM      1  C   UNL     1       3.204  39.709  11.876  1.00  0.00     0.004 C 
ENDROOT
BRANCH   1   2
ATOM      2  C   UNL     1       2.687  39.043  13.166  1.00  0.00     0.004 C 
BRANCH   2   3
ATOM      3  C   UNL     1       1.502  38.073  12.901  1.00  0.00    -0.009 C 
BRANCH   3   4
ATOM      4  C   UNL     1       1.732  37.108  11.696  1.00  0.00     0.000 C 
ATOM      5  C   UNL     1       0.880  35.831  11.678  1.00  0.00     0.004 C 
ENDBRANCH   3   4
BRANCH   3   6
ATOM      6  C   UNL     1       0.133  38.832  12.878  1.00  0.00    -0.014 C 
ATOM      7  C   UNL     1      -1.093  37.918  12.770  1.00  0.00     0.007 C 
ATOM      8  C   UNL     1      -0.023  39.790  14.071  1.00  0.00     0.007 C 
ENDBRANCH   3   6
ENDBRANCH   2   3
ENDBRANCH   1   2
BRANCH   1   9
ATOM      9  C   UNL     1       4.132  40.922  12.172  1.00  0.00    -0.011 C 
ATOM     10  C   UNL     1       5.243  40.532  13.160  1.00  0.00     0.008 C 
BRANCH   9  11
ATOM     11  C   UNL     1       3.423  42.266  12.572  1.00  0.00    -0.002 C 
ATOM     12  C   UNL     1       4.418  43.407  12.868  1.00  0.00     0.005 C 
ATOM     13  C   UNL     1       2.260  42.883  11.706  1.00  0.00    -0.026 C 
ATOM     14  C   UNL     1       3.822  44.673  12.277  1.00  0.00     0.005 C 
ATOM     15  C   UNL     1       2.332  44.387  12.084  1.00  0.00    -0.001 C 
ATOM     16  C   UNL     1       2.476  42.703  10.181  1.00  0.00     0.007 C 
ATOM     17  C   UNL     1       0.898  42.274  12.135  1.00  0.00     0.012 C 
ATOM     18  C   UNL     1       1.669  45.416  11.111  1.00  0.00     0.000 C 
ATOM     19  C   UNL     1       1.582  43.605   9.325  1.00  0.00     0.005 C 
ATOM     20  C   UNL     1       1.853  45.104   9.604  1.00  0.00     0.003 C 
ATOM     21  C   UNL     1       0.182  45.650  11.413  1.00  0.00     0.031 C 
ATOM     22  C   UNL     1       1.070  46.140   8.650  1.00  0.00    -0.008 C 
ATOM     23  C   UNL     1      -0.272  46.863  10.669  1.00  0.00    -0.027 C 
ATOM     24  C   UNL     1       0.184  47.136   9.430  1.00  0.00    -0.065 C 
ATOM     25  C   UNL     1       2.144  46.955   7.861  1.00  0.00     0.014 C 
ATOM     26  C   UNL     1       0.141  45.422   7.633  1.00  0.00     0.016 C 
ATOM     27  C   UNL     1      -0.310  48.394   8.740  1.00  0.00     0.063 C 
ATOM     28  C   UNL     1       1.588  48.166   7.092  1.00  0.00     0.033 C 
ATOM     29  C   UNL     1       0.836  49.122   8.024  1.00  0.00     0.118 C 
BRANCH  29  30
ATOM     30  O   UNL     1       1.730  49.668   8.962  1.00  0.00    -0.393 OA
ATOM     31  H   UNL     1       1.413  50.588   9.161  1.00  0.00     0.210 HD
ENDBRANCH  29  30
ENDBRANCH   9  11
ENDBRANCH   1   9
TORSDOF 7
ENDMDL
MODEL 3
REMARK VINA RESULT:    -1.887      2.650      8.298
REMARK INTER + INTRA:          -3.663
REMARK INTER:                  -2.690
REMARK INTRA:                  -0.973
REMARK UNBOUND:                -1.059
REMARK SMILES CC[C@@H](CC[C@H](C)[C@H]1CC[C@H]2[C@@H]3CC=C4C[C@@H](O)CC[C@@]4(C)[C@@H]3CC[C@@]12C)C(C)C
REMARK SMILES IDX 5 1 4 2 3 3 2 4 1 5 28 6 29 7 30 8 6 9 7 10 8 11 9 12 26 13
REMARK SMILES IDX 10 14 11 15 25 16 27 17 12 18 24 19 23 20 13 21 21 22 14 23
REMARK SMILES IDX 15 24 20 25 22 26 16 27 19 28 17 29 18 30
REMARK H PARENT 18 31
REMARK Flexibility Score: inf
ROOT
ATOM      1  C   UNL     1       3.323  46.591   8.545  1.00  0.00     0.004 C 
ENDROOT
BRANCH   1   2
ATOM      2  C   UNL     1       3.200  47.995   7.922  1.00  0.00     0.004 C 
BRANCH   2   3
ATOM      3  C   UNL     1       1.724  48.394   7.641  1.00  0.00    -0.009 C 
BRANCH   3   4
ATOM      4  C   UNL     1       1.404  49.891   7.950  1.00  0.00     0.000 C 
ATOM      5  C   UNL     1       2.233  50.932   7.185  1.00  0.00     0.004 C 
ENDBRANCH   3   4
BRANCH   3   6
ATOM      6  C   UNL     1       0.722  47.368   8.270  1.00  0.00    -0.014 C 
ATOM      7  C   UNL     1      -0.272  47.985   9.262  1.00  0.00     0.007 C 
ATOM      8  C   UNL     1      -0.030  46.558   7.201  1.00  0.00     0.007 C 
ENDBRANCH   3   6
ENDBRANCH   2   3
ENDBRANCH   1   2
BRANCH   1   9
ATOM      9  C   UNL     1       4.258  46.580   9.789  1.00  0.00    -0.011 C 
ATOM     10  C   UNL     1       5.589  47.285   9.479  1.00  0.00     0.008 C 
BRANCH   9  11
ATOM     11  C   UNL     1       4.468  45.191  10.495  1.00  0.00    -0.002 C 
ATOM     12  C   UNL     1       5.099  45.319  11.897  1.00  0.00     0.005 C 
ATOM     13  C   UNL     1       3.308  44.131  10.607  1.00  0.00    -0.026 C 
ATOM     14  C   UNL     1       4.400  44.304  12.786  1.00  0.00     0.005 C 
ATOM     15  C   UNL     1       3.745  43.297  11.841  1.00  0.00    -0.001 C 
ATOM     16  C   UNL     1       1.919  44.774  10.859  1.00  0.00     0.007 C 
ATOM     17  C   UNL     1       3.272  43.248   9.331  1.00  0.00     0.012 C 
ATOM     18  C   UNL     1       2.654  42.447  12.571  1.00  0.00     0.000 C 
ATOM     19  C   UNL     1       0.862  43.777  11.344  1.00  0.00     0.005 C 
ATOM     20  C   UNL     1       1.267  43.130  12.691  1.00  0.00     0.003 C 
ATOM     21  C   UNL     1       2.489  41.044  11.970  1.00  0.00     0.031 C 
ATOM     22  C   UNL     1       0.157  42.176  13.365  1.00  0.00    -0.008 C 
ATOM     23  C   UNL     1       1.686  40.211  12.915  1.00  0.00    -0.027 C 
ATOM     24  C   UNL     1       0.660  40.736  13.614  1.00  0.00    -0.065 C 
ATOM     25  C   UNL     1      -0.231  42.804  14.741  1.00  0.00     0.014 C 
ATOM     26  C   UNL     1      -1.124  42.053  12.493  1.00  0.00     0.016 C 
ATOM     27  C   UNL     1      -0.103  39.834  14.567  1.00  0.00     0.063 C 
ATOM     28  C   UNL     1      -1.089  41.895  15.638  1.00  0.00     0.033 C 
ATOM     29  C   UNL     1      -0.401  40.550  15.891  1.00  0.00     0.118 C 
BRANCH  29  30
ATOM     30  O   UNL     1       0.787  40.755  16.614  1.00  0.00    -0.393 OA
ATOM     31  H   UNL     1       1.031  39.883  17.023  1.00  0.00     0.210 HD
ENDBRANCH  29  30
ENDBRANCH   9  11
ENDBRANCH   1   9
TORSDOF 7
ENDMDL
