MODEL 1
REMARK VINA RESULT:    -8.317      0.000      0.000
REMARK INTER + INTRA:         -12.625
REMARK INTER:                 -11.478
REMARK INTRA:                  -1.147
REMARK UNBOUND:                -1.147
REMARK SMILES CC[C@@H](CC[C@@H](C)[C@H]1CC[C@H]2[C@@H]3CC=C4C[C@H](O)CC[C@@]4(C)[C@@H]3CC[C@@]12C)C(C)C
REMARK SMILES IDX 5 1 4 2 3 3 2 4 1 5 28 6 29 7 30 8 6 9 7 10 8 11 9 12 26 13
REMARK SMILES IDX 10 14 11 15 25 16 27 17 12 18 24 19 23 20 13 21 21 22 14 23
REMARK SMILES IDX 15 24 20 25 22 26 16 27 19 28 17 29 18 30
REMARK H PARENT 18 31
REMARK Flexibility Score: inf
ROOT
ATOM      1  C   UNL     1      12.090  35.490  28.012  1.00  0.00     0.004 C 
ENDROOT
BRANCH   1   2
ATOM      2  C   UNL     1      11.632  34.030  28.266  1.00  0.00     0.004 C 
BRANCH   2   3
ATOM      3  C   UNL     1      11.983  32.997  27.153  1.00  0.00    -0.009 C 
BRANCH   3   4
ATOM      4  C   UNL     1      10.693  32.255  26.669  1.00  0.00     0.000 C 
ATOM      5  C   UNL     1       9.450  33.149  26.623  1.00  0.00     0.004 C 
ENDBRANCH   3   4
BRANCH   3   6
ATOM      6  C   UNL     1      13.044  31.939  27.623  1.00  0.00    -0.014 C 
ATOM      7  C   UNL     1      12.620  30.474  27.397  1.00  0.00     0.007 C 
ATOM      8  C   UNL     1      13.384  32.131  29.117  1.00  0.00     0.007 C 
ENDBRANCH   3   6
ENDBRANCH   2   3
ENDBRANCH   1   2
BRANCH   1   9
ATOM      9  C   UNL     1      11.079  36.361  27.210  1.00  0.00    -0.011 C 
ATOM     10  C   UNL     1       9.825  36.700  28.053  1.00  0.00     0.008 C 
BRANCH   9  11
ATOM     11  C   UNL     1      11.748  37.565  26.430  1.00  0.00    -0.002 C 
ATOM     12  C   UNL     1      13.110  37.206  25.839  1.00  0.00     0.005 C 
ATOM     13  C   UNL     1      11.018  38.400  25.302  1.00  0.00    -0.026 C 
ATOM     14  C   UNL     1      13.476  38.390  24.978  1.00  0.00     0.005 C 
ATOM     15  C   UNL     1      12.165  38.841  24.314  1.00  0.00    -0.001 C 
ATOM     16  C   UNL     1       9.928  37.585  24.558  1.00  0.00     0.007 C 
ATOM     17  C   UNL     1      10.395  39.692  25.911  1.00  0.00     0.012 C 
ATOM     18  C   UNL     1      12.047  38.279  22.852  1.00  0.00     0.000 C 
ATOM     19  C   UNL     1       9.462  38.288  23.282  1.00  0.00     0.005 C 
ATOM     20  C   UNL     1      10.607  38.426  22.243  1.00  0.00     0.003 C 
ATOM     21  C   UNL     1      13.163  38.859  21.929  1.00  0.00     0.031 C 
ATOM     22  C   UNL     1      10.451  39.635  21.250  1.00  0.00    -0.008 C 
ATOM     23  C   UNL     1      12.740  39.019  20.494  1.00  0.00    -0.027 C 
ATOM     24  C   UNL     1      11.507  39.443  20.158  1.00  0.00    -0.065 C 
ATOM     25  C   UNL     1       9.032  39.606  20.606  1.00  0.00     0.014 C 
ATOM     26  C   UNL     1      10.668  41.004  21.952  1.00  0.00     0.016 C 
ATOM     27  C   UNL     1      11.100  39.426  18.703  1.00  0.00     0.063 C 
ATOM     28  C   UNL     1       8.875  40.559  19.401  1.00  0.00     0.033 C 
ATOM     29  C   UNL     1      10.037  40.495  18.377  1.00  0.00     0.118 C 
BRANCH  29  30
ATOM     30  O   UNL     1      10.631  41.762  18.225  1.00  0.00    -0.393 OA
ATOM     31  H   UNL     1      10.521  42.251  19.080  1.00  0.00     0.210 HD
ENDBRANCH  29  30
ENDBRANCH   9  11
ENDBRANCH   1   9
TORSDOF 7
ENDMDL
MODEL 2
REMARK VINA RESULT:    -7.239      3.496      9.447
REMARK INTER + INTRA:         -11.138
REMARK INTER:                 -10.146
REMARK INTRA:                  -0.992
REMARK UNBOUND:                -1.147
REMARK SMILES CC[C@@H](CC[C@@H](C)[C@H]1CC[C@H]2[C@@H]3CC=C4C[C@H](O)CC[C@@]4(C)[C@@H]3CC[C@@]12C)C(C)C
REMARK SMILES IDX 5 1 4 2 3 3 2 4 1 5 28 6 29 7 30 8 6 9 7 10 8 11 9 12 26 13
REMARK SMILES IDX 10 14 11 15 25 16 27 17 12 18 24 19 23 20 13 21 21 22 14 23
REMARK SMILES IDX 15 24 20 25 22 26 16 27 19 28 17 29 18 30
REMARK H PARENT 18 31
REMARK Flexibility Score: inf
ROOT
ATOM      1  C   UNL     1      11.231  37.936  24.825  1.00  0.00     0.004 C 
ENDROOT
BRANCH   1   2
ATOM      2  C   UNL     1      10.319  38.861  23.978  1.00  0.00     0.004 C 
BRANCH   2   3
ATOM      3  C   UNL     1      10.568  38.849  22.439  1.00  0.00    -0.009 C 
BRANCH   3   4
ATOM      4  C   UNL     1      12.102  38.921  22.134  1.00  0.00     0.000 C 
ATOM      5  C   UNL     1      12.630  37.717  21.347  1.00  0.00     0.004 C 
ENDBRANCH   3   4
BRANCH   3   6
ATOM      6  C   UNL     1       9.837  40.026  21.700  1.00  0.00    -0.014 C 
ATOM      7  C   UNL     1       8.875  39.572  20.584  1.00  0.00     0.007 C 
ATOM      8  C   UNL     1      10.858  41.016  21.100  1.00  0.00     0.007 C 
ENDBRANCH   3   6
ENDBRANCH   2   3
ENDBRANCH   1   2
BRANCH   1   9
ATOM      9  C   UNL     1      11.116  38.138  26.365  1.00  0.00    -0.011 C 
ATOM     10  C   UNL     1      10.420  39.476  26.714  1.00  0.00     0.008 C 
BRANCH   9  11
ATOM     11  C   UNL     1      10.608  36.856  27.142  1.00  0.00    -0.002 C 
ATOM     12  C   UNL     1       9.660  35.994  26.312  1.00  0.00     0.005 C 
ATOM     13  C   UNL     1      11.564  35.829  27.872  1.00  0.00    -0.026 C 
ATOM     14  C   UNL     1       9.460  34.744  27.134  1.00  0.00     0.005 C 
ATOM     15  C   UNL     1      10.830  34.438  27.761  1.00  0.00    -0.001 C 
ATOM     16  C   UNL     1      12.977  35.763  27.235  1.00  0.00     0.007 C 
ATOM     17  C   UNL     1      11.678  36.185  29.386  1.00  0.00     0.012 C 
ATOM     18  C   UNL     1      11.595  33.338  26.942  1.00  0.00     0.000 C 
ATOM     19  C   UNL     1      13.774  34.558  27.737  1.00  0.00     0.005 C 
ATOM     20  C   UNL     1      13.112  33.214  27.331  1.00  0.00     0.003 C 
ATOM     21  C   UNL     1      10.841  31.972  26.984  1.00  0.00     0.031 C 
ATOM     22  C   UNL     1      13.433  32.008  28.288  1.00  0.00    -0.008 C 
ATOM     23  C   UNL     1      11.750  30.775  26.931  1.00  0.00    -0.027 C 
ATOM     24  C   UNL     1      12.927  30.745  27.584  1.00  0.00    -0.065 C 
ATOM     25  C   UNL     1      14.973  31.899  28.497  1.00  0.00     0.014 C 
ATOM     26  C   UNL     1      12.736  32.151  29.668  1.00  0.00     0.016 C 
ATOM     27  C   UNL     1      13.860  29.578  27.355  1.00  0.00     0.063 C 
ATOM     28  C   UNL     1      15.420  30.582  29.167  1.00  0.00     0.033 C 
ATOM     29  C   UNL     1      14.770  29.307  28.570  1.00  0.00     0.118 C 
BRANCH  29  30
ATOM     30  O   UNL     1      14.078  28.594  29.566  1.00  0.00    -0.393 OA
ATOM     31  H   UNL     1      14.272  27.631  29.438  1.00  0.00     0.210 HD
ENDBRANCH  29  30
ENDBRANCH   9  11
ENDBRANCH   1   9
TORSDOF 7
ENDMDL
MODEL 3
REMARK VINA RESULT:    -6.030      3.467      9.050
REMARK INTER + INTRA:          -9.469
REMARK INTER:                  -8.039
REMARK INTRA:                  -1.430
REMARK UNBOUND:                -1.147
REMARK SMILES CC[C@@H](CC[C@@H](C)[C@H]1CC[C@H]2[C@@H]3CC=C4C[C@H](O)CC[C@@]4(C)[C@@H]3CC[C@@]12C)C(C)C
REMARK SMILES IDX 5 1 4 2 3 3 2 4 1 5 28 6 29 7 30 8 6 9 7 10 8 11 9 12 26 13
REMARK SMILES IDX 10 14 11 15 25 16 27 17 12 18 24 19 23 20 13 21 21 22 14 23
REMARK SMILES IDX 15 24 20 25 22 26 16 27 19 28 17 29 18 30
REMARK H PARENT 18 31
REMARK Flexibility Score: inf
ROOT
ATOM      1  C   UNL     1      12.342  42.197  19.277  1.00  0.00     0.004 C 
ENDROOT
BRANCH   1   2
ATOM      2  C   UNL     1      12.558  42.949  20.616  1.00  0.00     0.004 C 
BRANCH   2   3
ATOM      3  C   UNL     1      12.264  44.480  20.598  1.00  0.00    -0.009 C 
BRANCH   3   4
ATOM      4  C   UNL     1      12.984  45.188  21.794  1.00  0.00     0.000 C 
ATOM      5  C   UNL     1      14.342  44.573  22.146  1.00  0.00     0.004 C 
ENDBRANCH   3   4
BRANCH   3   6
ATOM      6  C   UNL     1      10.728  44.800  20.654  1.00  0.00    -0.014 C 
ATOM      7  C   UNL     1      10.400  46.281  20.933  1.00  0.00     0.007 C 
ATOM      8  C   UNL     1      10.024  43.929  21.718  1.00  0.00     0.007 C 
ENDBRANCH   3   6
ENDBRANCH   2   3
ENDBRANCH   1   2
BRANCH   1   9
ATOM      9  C   UNL     1      11.088  41.274  19.241  1.00  0.00    -0.011 C 
ATOM     10  C   UNL     1      10.377  41.331  17.867  1.00  0.00     0.008 C 
BRANCH   9  11
ATOM     11  C   UNL     1      11.336  39.832  19.845  1.00  0.00    -0.002 C 
ATOM     12  C   UNL     1      12.809  39.554  20.135  1.00  0.00     0.005 C 
ATOM     13  C   UNL     1      10.555  39.251  21.092  1.00  0.00    -0.026 C 
ATOM     14  C   UNL     1      12.810  38.243  20.883  1.00  0.00     0.005 C 
ATOM     15  C   UNL     1      11.582  38.291  21.806  1.00  0.00    -0.001 C 
ATOM     16  C   UNL     1      10.061  40.356  22.063  1.00  0.00     0.007 C 
ATOM     17  C   UNL     1       9.350  38.384  20.614  1.00  0.00     0.012 C 
ATOM     18  C   UNL     1      11.986  38.705  23.266  1.00  0.00     0.000 C 
ATOM     19  C   UNL     1       9.598  39.775  23.400  1.00  0.00     0.005 C 
ATOM     20  C   UNL     1      10.758  39.087  24.168  1.00  0.00     0.003 C 
ATOM     21  C   UNL     1      12.917  37.638  23.922  1.00  0.00     0.031 C 
ATOM     22  C   UNL     1      10.309  37.949  25.155  1.00  0.00    -0.008 C 
ATOM     23  C   UNL     1      12.746  37.518  25.412  1.00  0.00    -0.027 C 
ATOM     24  C   UNL     1      11.536  37.592  25.998  1.00  0.00    -0.065 C 
ATOM     25  C   UNL     1       9.180  38.479  26.089  1.00  0.00     0.014 C 
ATOM     26  C   UNL     1       9.804  36.686  24.406  1.00  0.00     0.016 C 
ATOM     27  C   UNL     1      11.458  37.625  27.507  1.00  0.00     0.063 C 
ATOM     28  C   UNL     1       8.875  37.554  27.287  1.00  0.00     0.033 C 
ATOM     29  C   UNL     1      10.131  37.045  28.039  1.00  0.00     0.118 C 
BRANCH  29  30
ATOM     30  O   UNL     1      10.166  35.638  28.044  1.00  0.00    -0.393 OA
ATOM     31  H   UNL     1      10.301  35.343  28.980  1.00  0.00     0.210 HD
ENDBRANCH  29  30
ENDBRANCH   9  11
ENDBRANCH   1   9
TORSDOF 7
ENDMDL
MODEL 4
REMARK VINA RESULT:    -5.866      4.986      7.716
REMARK INTER + INTRA:          -9.242
REMARK INTER:                  -7.900
REMARK INTRA:                  -1.342
REMARK UNBOUND:                -1.147
REMARK SMILES CC[C@@H](CC[C@@H](C)[C@H]1CC[C@H]2[C@@H]3CC=C4C[C@H](O)CC[C@@]4(C)[C@@H]3CC[C@@]12C)C(C)C
REMARK SMILES IDX 5 1 4 2 3 3 2 4 1 5 28 6 29 7 30 8 6 9 7 10 8 11 9 12 26 13
REMARK SMILES IDX 10 14 11 15 25 16 27 17 12 18 24 19 23 20 13 21 21 22 14 23
REMARK SMILES IDX 15 24 20 25 22 26 16 27 19 28 17 29 18 30
REMARK H PARENT 18 31
REMARK Flexibility Score: inf
ROOT
ATOM      1  C   UNL     1      10.626  39.393  22.307  1.00  0.00     0.004 C 
ENDROOT
BRANCH   1   2
ATOM      2  C   UNL     1      10.284  38.322  23.374  1.00  0.00     0.004 C 
BRANCH   2   3
ATOM      3  C   UNL     1      10.693  38.659  24.840  1.00  0.00    -0.009 C 
BRANCH   3   4
ATOM      4  C   UNL     1      11.994  37.884  25.236  1.00  0.00     0.000 C 
ATOM      5  C   UNL     1      13.261  38.745  25.191  1.00  0.00     0.004 C 
ENDBRANCH   3   4
BRANCH   3   6
ATOM      6  C   UNL     1       9.559  38.330  25.875  1.00  0.00    -0.014 C 
ATOM      7  C   UNL     1      10.020  38.342  27.346  1.00  0.00     0.007 C 
ATOM      8  C   UNL     1       8.918  36.958  25.568  1.00  0.00     0.007 C 
ENDBRANCH   3   6
ENDBRANCH   2   3
ENDBRANCH   1   2
BRANCH   1   9
ATOM      9  C   UNL     1      12.101  39.372  21.809  1.00  0.00    -0.011 C 
ATOM     10  C   UNL     1      12.479  37.997  21.206  1.00  0.00     0.008 C 
BRANCH   9  11
ATOM     11  C   UNL     1      12.512  40.646  20.965  1.00  0.00    -0.002 C 
ATOM     12  C   UNL     1      11.423  41.717  20.937  1.00  0.00     0.005 C 
ATOM     13  C   UNL     1      13.864  41.441  21.169  1.00  0.00    -0.026 C 
ATOM     14  C   UNL     1      12.074  42.907  20.276  1.00  0.00     0.005 C 
ATOM     15  C   UNL     1      13.518  42.936  20.805  1.00  0.00    -0.001 C 
ATOM     16  C   UNL     1      14.415  41.336  22.615  1.00  0.00     0.007 C 
ATOM     17  C   UNL     1      14.937  40.944  20.152  1.00  0.00     0.012 C 
ATOM     18  C   UNL     1      13.670  43.966  21.980  1.00  0.00     0.000 C 
ATOM     19  C   UNL     1      15.528  42.351  22.877  1.00  0.00     0.005 C 
ATOM     20  C   UNL     1      15.018  43.813  22.772  1.00  0.00     0.003 C 
ATOM     21  C   UNL     1      13.412  45.426  21.493  1.00  0.00     0.031 C 
ATOM     22  C   UNL     1      16.118  44.865  22.378  1.00  0.00    -0.008 C 
ATOM     23  C   UNL     1      14.215  46.463  22.229  1.00  0.00    -0.027 C 
ATOM     24  C   UNL     1      15.495  46.248  22.589  1.00  0.00    -0.065 C 
ATOM     25  C   UNL     1      17.354  44.709  23.312  1.00  0.00     0.014 C 
ATOM     26  C   UNL     1      16.570  44.717  20.899  1.00  0.00     0.016 C 
ATOM     27  C   UNL     1      16.187  47.267  23.466  1.00  0.00     0.063 C 
ATOM     28  C   UNL     1      18.361  45.876  23.217  1.00  0.00     0.033 C 
ATOM     29  C   UNL     1      17.714  47.284  23.252  1.00  0.00     0.118 C 
BRANCH  29  30
ATOM     30  O   UNL     1      18.051  48.011  22.094  1.00  0.00    -0.393 OA
ATOM     31  H   UNL     1      19.011  48.245  22.154  1.00  0.00     0.210 HD
ENDBRANCH  29  30
ENDBRANCH   9  11
ENDBRANCH   1   9
TORSDOF 7
ENDMDL
