MODEL 1
REMARK VINA RESULT:    -5.697      0.000      0.000
REMARK INTER + INTRA:         -10.215
REMARK INTER:                  -7.862
REMARK INTRA:                  -2.353
REMARK UNBOUND:                -2.353
REMARK SMILES CC[C@@H](CC[C@@H](C)[C@@H]1CC[C@H]2[C@@H]3CC=C4C[C@H](O)CC[C@]4(C)[C@H]3CC[C@]21C)C(C)C
REMARK SMILES IDX 5 1 4 2 3 3 2 4 1 5 28 6 29 7 30 8 6 9 7 10 8 11 9 12 26 13
REMARK SMILES IDX 10 14 11 15 25 16 27 17 12 18 24 19 23 20 13 21 21 22 14 23
REMARK SMILES IDX 15 24 20 25 22 26 16 27 19 28 17 29 18 30
REMARK H PARENT 18 31
REMARK Flexibility Score: inf
ROOT
ATOM      1  C   UNL     1      -1.303  41.235   2.057  1.00  0.00     0.004 C 
ENDROOT
BRANCH   1   2
ATOM      2  C   UNL     1      -2.011  41.726   0.773  1.00  0.00     0.004 C 
BRANCH   2   3
ATOM      3  C   UNL     1      -1.614  40.953  -0.519  1.00  0.00    -0.009 C 
BRANCH   3   4
ATOM      4  C   UNL     1      -0.187  41.356  -0.995  1.00  0.00     0.000 C 
ATOM      5  C   UNL     1      -0.118  41.724  -2.475  1.00  0.00     0.004 C 
ENDBRANCH   3   4
BRANCH   3   6
ATOM      6  C   UNL     1      -2.749  41.004  -1.612  1.00  0.00    -0.014 C 
ATOM      7  C   UNL     1      -2.914  39.718  -2.443  1.00  0.00     0.007 C 
ATOM      8  C   UNL     1      -4.102  41.415  -1.003  1.00  0.00     0.007 C 
ENDBRANCH   3   6
ENDBRANCH   2   3
ENDBRANCH   1   2
BRANCH   1   9
ATOM      9  C   UNL     1      -2.290  40.821   3.188  1.00  0.00    -0.011 C 
ATOM     10  C   UNL     1      -2.224  41.860   4.341  1.00  0.00     0.008 C 
BRANCH   9  11
ATOM     11  C   UNL     1      -3.724  40.575   2.574  1.00  0.00    -0.002 C 
ATOM     12  C   UNL     1      -4.790  41.583   2.999  1.00  0.00     0.005 C 
ATOM     13  C   UNL     1      -4.409  39.177   2.697  1.00  0.00    -0.026 C 
ATOM     14  C   UNL     1      -6.072  41.039   2.406  1.00  0.00     0.005 C 
ATOM     15  C   UNL     1      -5.935  39.494   2.400  1.00  0.00    -0.001 C 
ATOM     16  C   UNL     1      -3.740  38.132   1.745  1.00  0.00     0.007 C 
ATOM     17  C   UNL     1      -4.306  38.612   4.137  1.00  0.00     0.012 C 
ATOM     18  C   UNL     1      -6.605  38.889   1.103  1.00  0.00     0.000 C 
ATOM     19  C   UNL     1      -4.381  38.031   0.370  1.00  0.00     0.005 C 
ATOM     20  C   UNL     1      -5.873  37.675   0.506  1.00  0.00     0.003 C 
ATOM     21  C   UNL     1      -8.066  38.506   1.393  1.00  0.00     0.031 C 
ATOM     22  C   UNL     1      -6.536  37.193  -0.849  1.00  0.00    -0.008 C 
ATOM     23  C   UNL     1      -8.736  37.835   0.231  1.00  0.00    -0.027 C 
ATOM     24  C   UNL     1      -8.067  37.137  -0.709  1.00  0.00    -0.065 C 
ATOM     25  C   UNL     1      -6.004  35.762  -1.191  1.00  0.00     0.014 C 
ATOM     26  C   UNL     1      -6.203  38.155  -2.021  1.00  0.00     0.016 C 
ATOM     27  C   UNL     1      -8.863  36.394  -1.762  1.00  0.00     0.063 C 
ATOM     28  C   UNL     1      -6.809  35.033  -2.287  1.00  0.00     0.033 C 
ATOM     29  C   UNL     1      -8.309  34.980  -1.952  1.00  0.00     0.118 C 
BRANCH  29  30
ATOM     30  O   UNL     1      -8.520  34.229  -0.777  1.00  0.00    -0.393 OA
ATOM     31  H   UNL     1      -8.965  34.836  -0.123  1.00  0.00     0.210 HD
ENDBRANCH  29  30
ENDBRANCH   9  11
ENDBRANCH   1   9
TORSDOF 7
ENDMDL
MODEL 2
REMARK VINA RESULT:    -4.293      1.829      2.917
REMARK INTER + INTRA:          -8.278
REMARK INTER:                  -7.989
REMARK INTRA:                  -0.289
REMARK UNBOUND:                -2.353
REMARK SMILES CC[C@@H](CC[C@@H](C)[C@@H]1CC[C@H]2[C@@H]3CC=C4C[C@H](O)CC[C@]4(C)[C@H]3CC[C@]21C)C(C)C
REMARK SMILES IDX 5 1 4 2 3 3 2 4 1 5 28 6 29 7 30 8 6 9 7 10 8 11 9 12 26 13
REMARK SMILES IDX 10 14 11 15 25 16 27 17 12 18 24 19 23 20 13 21 21 22 14 23
REMARK SMILES IDX 15 24 20 25 22 26 16 27 19 28 17 29 18 30
REMARK H PARENT 18 31
REMARK Flexibility Score: inf
ROOT
ATOM      1  C   UNL     1      -3.891  41.559   0.579  1.00  0.00     0.004 C 
ENDROOT
BRANCH   1   2
ATOM      2  C   UNL     1      -2.809  41.964  -0.449  1.00  0.00     0.004 C 
BRANCH   2   3
ATOM      3  C   UNL     1      -1.650  40.935  -0.605  1.00  0.00    -0.009 C 
BRANCH   3   4
ATOM      4  C   UNL     1      -0.407  41.361   0.231  1.00  0.00     0.000 C 
ATOM      5  C   UNL     1      -0.501  40.972   1.705  1.00  0.00     0.004 C 
ENDBRANCH   3   4
BRANCH   3   6
ATOM      6  C   UNL     1      -1.378  40.575  -2.115  1.00  0.00    -0.014 C 
ATOM      7  C   UNL     1      -2.598  40.041  -2.890  1.00  0.00     0.007 C 
ATOM      8  C   UNL     1      -0.749  41.757  -2.875  1.00  0.00     0.007 C 
ENDBRANCH   3   6
ENDBRANCH   2   3
ENDBRANCH   1   2
BRANCH   1   9
ATOM      9  C   UNL     1      -5.344  41.797   0.073  1.00  0.00    -0.011 C 
ATOM     10  C   UNL     1      -5.327  42.024  -1.465  1.00  0.00     0.008 C 
BRANCH   9  11
ATOM     11  C   UNL     1      -6.278  40.628   0.578  1.00  0.00    -0.002 C 
ATOM     12  C   UNL     1      -7.248  41.014   1.693  1.00  0.00     0.005 C 
ATOM     13  C   UNL     1      -5.667  39.262   1.022  1.00  0.00    -0.026 C 
ATOM     14  C   UNL     1      -7.899  39.706   2.087  1.00  0.00     0.005 C 
ATOM     15  C   UNL     1      -6.836  38.600   1.866  1.00  0.00    -0.001 C 
ATOM     16  C   UNL     1      -5.174  38.435  -0.210  1.00  0.00     0.007 C 
ATOM     17  C   UNL     1      -4.446  39.455   1.958  1.00  0.00     0.012 C 
ATOM     18  C   UNL     1      -7.519  37.281   1.326  1.00  0.00     0.000 C 
ATOM     19  C   UNL     1      -6.211  37.484  -0.787  1.00  0.00     0.005 C 
ATOM     20  C   UNL     1      -6.686  36.499   0.297  1.00  0.00     0.003 C 
ATOM     21  C   UNL     1      -7.875  36.352   2.499  1.00  0.00     0.031 C 
ATOM     22  C   UNL     1      -7.478  35.254  -0.281  1.00  0.00    -0.008 C 
ATOM     23  C   UNL     1      -8.441  35.038   2.052  1.00  0.00    -0.027 C 
ATOM     24  C   UNL     1      -8.165  34.479   0.856  1.00  0.00    -0.065 C 
ATOM     25  C   UNL     1      -6.468  34.305  -1.005  1.00  0.00     0.014 C 
ATOM     26  C   UNL     1      -8.577  35.694  -1.286  1.00  0.00     0.016 C 
ATOM     27  C   UNL     1      -8.690  33.088   0.569  1.00  0.00     0.063 C 
ATOM     28  C   UNL     1      -7.030  32.902  -1.317  1.00  0.00     0.033 C 
ATOM     29  C   UNL     1      -7.595  32.222  -0.059  1.00  0.00     0.118 C 
BRANCH  29  30
ATOM     30  O   UNL     1      -6.566  32.008   0.883  1.00  0.00    -0.393 OA
ATOM     31  H   UNL     1      -6.441  32.866   1.374  1.00  0.00     0.210 HD
ENDBRANCH  29  30
ENDBRANCH   9  11
ENDBRANCH   1   9
TORSDOF 7
ENDMDL
MODEL 3
REMARK VINA RESULT:    -4.280      1.976      3.706
REMARK INTER + INTRA:          -8.259
REMARK INTER:                  -7.663
REMARK INTRA:                  -0.596
REMARK UNBOUND:                -2.353
REMARK SMILES CC[C@@H](CC[C@@H](C)[C@@H]1CC[C@H]2[C@@H]3CC=C4C[C@H](O)CC[C@]4(C)[C@H]3CC[C@]21C)C(C)C
REMARK SMILES IDX 5 1 4 2 3 3 2 4 1 5 28 6 29 7 30 8 6 9 7 10 8 11 9 12 26 13
REMARK SMILES IDX 10 14 11 15 25 16 27 17 12 18 24 19 23 20 13 21 21 22 14 23
REMARK SMILES IDX 15 24 20 25 22 26 16 27 19 28 17 29 18 30
REMARK H PARENT 18 31
REMARK Flexibility Score: inf
ROOT
ATOM      1  C   UNL     1      -3.076  40.526  -0.350  1.00  0.00     0.004 C 
ENDROOT
BRANCH   1   2
ATOM      2  C   UNL     1      -3.069  41.892   0.375  1.00  0.00     0.004 C 
BRANCH   2   3
ATOM      3  C   UNL     1      -2.143  41.955   1.625  1.00  0.00    -0.009 C 
BRANCH   3   4
ATOM      4  C   UNL     1      -1.025  40.875   1.548  1.00  0.00     0.000 C 
ATOM      5  C   UNL     1       0.266  41.377   0.906  1.00  0.00     0.004 C 
ENDBRANCH   3   4
BRANCH   3   6
ATOM      6  C   UNL     1      -2.966  42.006   2.969  1.00  0.00    -0.014 C 
ATOM      7  C   UNL     1      -4.488  41.830   2.811  1.00  0.00     0.007 C 
ATOM      8  C   UNL     1      -2.424  41.002   4.002  1.00  0.00     0.007 C 
ENDBRANCH   3   6
ENDBRANCH   2   3
ENDBRANCH   1   2
BRANCH   1   9
ATOM      9  C   UNL     1      -4.203  40.399  -1.417  1.00  0.00    -0.011 C 
ATOM     10  C   UNL     1      -3.598  39.876  -2.750  1.00  0.00     0.008 C 
BRANCH   9  11
ATOM     11  C   UNL     1      -5.395  39.546  -0.830  1.00  0.00    -0.002 C 
ATOM     12  C   UNL     1      -6.429  40.343  -0.038  1.00  0.00     0.005 C 
ATOM     13  C   UNL     1      -5.110  38.275   0.031  1.00  0.00    -0.026 C 
ATOM     14  C   UNL     1      -7.355  39.289   0.530  1.00  0.00     0.005 C 
ATOM     15  C   UNL     1      -6.488  38.028   0.778  1.00  0.00    -0.001 C 
ATOM     16  C   UNL     1      -4.603  37.092  -0.857  1.00  0.00     0.007 C 
ATOM     17  C   UNL     1      -4.021  38.538   1.102  1.00  0.00     0.012 C 
ATOM     18  C   UNL     1      -7.314  36.721   0.451  1.00  0.00     0.000 C 
ATOM     19  C   UNL     1      -5.702  36.174  -1.372  1.00  0.00     0.005 C 
ATOM     20  C   UNL     1      -6.497  35.587  -0.192  1.00  0.00     0.003 C 
ATOM     21  C   UNL     1      -7.995  36.194   1.725  1.00  0.00     0.031 C 
ATOM     22  C   UNL     1      -7.409  34.355  -0.592  1.00  0.00    -0.008 C 
ATOM     23  C   UNL     1      -8.720  34.899   1.507  1.00  0.00    -0.027 C 
ATOM     24  C   UNL     1      -8.380  34.011   0.550  1.00  0.00    -0.065 C 
ATOM     25  C   UNL     1      -6.494  33.118  -0.871  1.00  0.00     0.014 C 
ATOM     26  C   UNL     1      -8.256  34.660  -1.858  1.00  0.00     0.016 C 
ATOM     27  C   UNL     1      -9.102  32.679   0.509  1.00  0.00     0.063 C 
ATOM     28  C   UNL     1      -7.250  31.774  -0.939  1.00  0.00     0.033 C 
ATOM     29  C   UNL     1      -8.101  31.536   0.318  1.00  0.00     0.118 C 
BRANCH  29  30
ATOM     30  O   UNL     1      -7.274  31.439   1.457  1.00  0.00    -0.393 OA
ATOM     31  H   UNL     1      -6.671  32.233   1.444  1.00  0.00     0.210 HD
ENDBRANCH  29  30
ENDBRANCH   9  11
ENDBRANCH   1   9
TORSDOF 7
ENDMDL
MODEL 4
REMARK VINA RESULT:    -4.025      3.240      8.136
REMARK INTER + INTRA:          -7.907
REMARK INTER:                  -6.041
REMARK INTRA:                  -1.866
REMARK UNBOUND:                -2.353
REMARK SMILES CC[C@@H](CC[C@@H](C)[C@@H]1CC[C@H]2[C@@H]3CC=C4C[C@H](O)CC[C@]4(C)[C@H]3CC[C@]21C)C(C)C
REMARK SMILES IDX 5 1 4 2 3 3 2 4 1 5 28 6 29 7 30 8 6 9 7 10 8 11 9 12 26 13
REMARK SMILES IDX 10 14 11 15 25 16 27 17 12 18 24 19 23 20 13 21 21 22 14 23
REMARK SMILES IDX 15 24 20 25 22 26 16 27 19 28 17 29 18 30
REMARK H PARENT 18 31
REMARK Flexibility Score: inf
ROOT
ATOM      1  C   UNL     1      -7.282  33.442  -1.219  1.00  0.00     0.004 C 
ENDROOT
BRANCH   1   2
ATOM      2  C   UNL     1      -8.468  32.730  -0.527  1.00  0.00     0.004 C 
BRANCH   2   3
ATOM      3  C   UNL     1      -8.392  32.711   1.028  1.00  0.00    -0.009 C 
BRANCH   3   4
ATOM      4  C   UNL     1      -7.954  34.098   1.583  1.00  0.00     0.000 C 
ATOM      5  C   UNL     1      -9.085  35.123   1.626  1.00  0.00     0.004 C 
ENDBRANCH   3   4
BRANCH   3   6
ATOM      6  C   UNL     1      -7.591  31.465   1.567  1.00  0.00    -0.014 C 
ATOM      7  C   UNL     1      -6.888  31.675   2.921  1.00  0.00     0.007 C 
ATOM      8  C   UNL     1      -8.475  30.206   1.622  1.00  0.00     0.007 C 
ENDBRANCH   3   6
ENDBRANCH   2   3
ENDBRANCH   1   2
BRANCH   1   9
ATOM      9  C   UNL     1      -7.723  34.412  -2.355  1.00  0.00    -0.011 C 
ATOM     10  C   UNL     1      -8.933  33.803  -3.116  1.00  0.00     0.008 C 
BRANCH   9  11
ATOM     11  C   UNL     1      -7.949  35.857  -1.760  1.00  0.00    -0.002 C 
ATOM     12  C   UNL     1      -9.125  36.625  -2.359  1.00  0.00     0.005 C 
ATOM     13  C   UNL     1      -6.774  36.883  -1.706  1.00  0.00    -0.026 C 
ATOM     14  C   UNL     1      -9.024  38.001  -1.738  1.00  0.00     0.005 C 
ATOM     15  C   UNL     1      -7.515  38.271  -1.507  1.00  0.00    -0.001 C 
ATOM     16  C   UNL     1      -5.742  36.505  -0.593  1.00  0.00     0.007 C 
ATOM     17  C   UNL     1      -5.997  36.939  -3.046  1.00  0.00     0.012 C 
ATOM     18  C   UNL     1      -7.300  39.070  -0.160  1.00  0.00     0.000 C 
ATOM     19  C   UNL     1      -6.012  37.143   0.761  1.00  0.00     0.005 C 
ATOM     20  C   UNL     1      -6.038  38.676   0.628  1.00  0.00     0.003 C 
ATOM     21  C   UNL     1      -7.270  40.581  -0.440  1.00  0.00     0.031 C 
ATOM     22  C   UNL     1      -5.948  39.435   2.015  1.00  0.00    -0.008 C 
ATOM     23  C   UNL     1      -6.973  41.397   0.783  1.00  0.00    -0.027 C 
ATOM     24  C   UNL     1      -6.270  40.928   1.834  1.00  0.00    -0.065 C 
ATOM     25  C   UNL     1      -4.494  39.293   2.574  1.00  0.00     0.014 C 
ATOM     26  C   UNL     1      -6.951  38.856   3.049  1.00  0.00     0.016 C 
ATOM     27  C   UNL     1      -5.921  41.885   2.956  1.00  0.00     0.063 C 
ATOM     28  C   UNL     1      -4.166  40.255   3.736  1.00  0.00     0.033 C 
ATOM     29  C   UNL     1      -4.455  41.718   3.363  1.00  0.00     0.118 C 
BRANCH  29  30
ATOM     30  O   UNL     1      -3.621  42.124   2.300  1.00  0.00    -0.393 OA
ATOM     31  H   UNL     1      -3.139  41.310   1.985  1.00  0.00     0.210 HD
ENDBRANCH  29  30
ENDBRANCH   9  11
ENDBRANCH   1   9
TORSDOF 7
ENDMDL
MODEL 5
REMARK VINA RESULT:    -3.959      3.725      8.757
REMARK INTER + INTRA:          -7.816
REMARK INTER:                  -6.695
REMARK INTRA:                  -1.121
REMARK UNBOUND:                -2.353
REMARK SMILES CC[C@@H](CC[C@@H](C)[C@@H]1CC[C@H]2[C@@H]3CC=C4C[C@H](O)CC[C@]4(C)[C@H]3CC[C@]21C)C(C)C
REMARK SMILES IDX 5 1 4 2 3 3 2 4 1 5 28 6 29 7 30 8 6 9 7 10 8 11 9 12 26 13
REMARK SMILES IDX 10 14 11 15 25 16 27 17 12 18 24 19 23 20 13 21 21 22 14 23
REMARK SMILES IDX 15 24 20 25 22 26 16 27 19 28 17 29 18 30
REMARK H PARENT 18 31
REMARK Flexibility Score: inf
ROOT
ATOM      1  C   UNL     1      -7.229  31.634  -0.772  1.00  0.00     0.004 C 
ENDROOT
BRANCH   1   2
ATOM      2  C   UNL     1      -8.409  30.795  -0.228  1.00  0.00     0.004 C 
BRANCH   2   3
ATOM      3  C   UNL     1      -8.467  30.691   1.324  1.00  0.00    -0.009 C 
BRANCH   3   4
ATOM      4  C   UNL     1      -7.130  31.166   1.966  1.00  0.00     0.000 C 
ATOM      5  C   UNL     1      -7.288  32.381   2.878  1.00  0.00     0.004 C 
ENDBRANCH   3   4
BRANCH   3   6
ATOM      6  C   UNL     1      -9.007  29.290   1.804  1.00  0.00    -0.014 C 
ATOM      7  C   UNL     1      -8.815  28.137   0.802  1.00  0.00     0.007 C 
ATOM      8  C   UNL     1      -8.424  28.899   3.175  1.00  0.00     0.007 C 
ENDBRANCH   3   6
ENDBRANCH   2   3
ENDBRANCH   1   2
BRANCH   1   9
ATOM      9  C   UNL     1      -7.682  32.860  -1.619  1.00  0.00    -0.011 C 
ATOM     10  C   UNL     1      -9.083  32.580  -2.230  1.00  0.00     0.008 C 
BRANCH   9  11
ATOM     11  C   UNL     1      -7.569  34.174  -0.750  1.00  0.00    -0.002 C 
ATOM     12  C   UNL     1      -8.658  34.345   0.307  1.00  0.00     0.005 C 
ATOM     13  C   UNL     1      -7.443  35.570  -1.439  1.00  0.00    -0.026 C 
ATOM     14  C   UNL     1      -8.408  35.725   0.876  1.00  0.00     0.005 C 
ATOM     15  C   UNL     1      -7.829  36.581  -0.280  1.00  0.00    -0.001 C 
ATOM     16  C   UNL     1      -6.022  35.768  -2.061  1.00  0.00     0.007 C 
ATOM     17  C   UNL     1      -8.470  35.738  -2.588  1.00  0.00     0.012 C 
ATOM     18  C   UNL     1      -6.729  37.574   0.270  1.00  0.00     0.000 C 
ATOM     19  C   UNL     1      -5.015  36.430  -1.134  1.00  0.00     0.005 C 
ATOM     20  C   UNL     1      -5.538  37.803  -0.677  1.00  0.00     0.003 C 
ATOM     21  C   UNL     1      -7.367  38.930   0.617  1.00  0.00     0.031 C 
ATOM     22  C   UNL     1      -4.426  38.718  -0.016  1.00  0.00    -0.008 C 
ATOM     23  C   UNL     1      -6.362  39.953   1.056  1.00  0.00    -0.027 C 
ATOM     24  C   UNL     1      -5.069  39.935   0.671  1.00  0.00    -0.065 C 
ATOM     25  C   UNL     1      -3.455  39.220  -1.134  1.00  0.00     0.014 C 
ATOM     26  C   UNL     1      -3.614  37.943   1.057  1.00  0.00     0.016 C 
ATOM     27  C   UNL     1      -4.179  41.093   1.072  1.00  0.00     0.063 C 
ATOM     28  C   UNL     1      -2.535  40.380  -0.699  1.00  0.00     0.033 C 
ATOM     29  C   UNL     1      -3.338  41.557  -0.120  1.00  0.00     0.118 C 
BRANCH  29  30
ATOM     30  O   UNL     1      -4.182  42.105  -1.109  1.00  0.00    -0.393 OA
ATOM     31  H   UNL     1      -4.235  41.436  -1.846  1.00  0.00     0.210 HD
ENDBRANCH  29  30
ENDBRANCH   9  11
ENDBRANCH   1   9
TORSDOF 7
ENDMDL
MODEL 6
REMARK VINA RESULT:    -3.368      2.940      7.922
REMARK INTER + INTRA:          -7.000
REMARK INTER:                  -5.505
REMARK INTRA:                  -1.495
REMARK UNBOUND:                -2.353
REMARK SMILES CC[C@@H](CC[C@@H](C)[C@@H]1CC[C@H]2[C@@H]3CC=C4C[C@H](O)CC[C@]4(C)[C@H]3CC[C@]21C)C(C)C
REMARK SMILES IDX 5 1 4 2 3 3 2 4 1 5 28 6 29 7 30 8 6 9 7 10 8 11 9 12 26 13
REMARK SMILES IDX 10 14 11 15 25 16 27 17 12 18 24 19 23 20 13 21 21 22 14 23
REMARK SMILES IDX 15 24 20 25 22 26 16 27 19 28 17 29 18 30
REMARK H PARENT 18 31
REMARK Flexibility Score: inf
ROOT
ATOM      1  C   UNL     1      -7.387  34.221  -1.125  1.00  0.00     0.004 C 
ENDROOT
BRANCH   1   2
ATOM      2  C   UNL     1      -8.639  34.156  -0.219  1.00  0.00     0.004 C 
BRANCH   2   3
ATOM      3  C   UNL     1      -8.397  33.495   1.170  1.00  0.00    -0.009 C 
BRANCH   3   4
ATOM      4  C   UNL     1      -8.130  34.572   2.262  1.00  0.00     0.000 C 
ATOM      5  C   UNL     1      -8.423  35.997   1.799  1.00  0.00     0.004 C 
ENDBRANCH   3   4
BRANCH   3   6
ATOM      6  C   UNL     1      -7.356  32.314   1.091  1.00  0.00    -0.014 C 
ATOM      7  C   UNL     1      -6.811  31.832   2.448  1.00  0.00     0.007 C 
ATOM      8  C   UNL     1      -7.914  31.121   0.293  1.00  0.00     0.007 C 
ENDBRANCH   3   6
ENDBRANCH   2   3
ENDBRANCH   1   2
BRANCH   1   9
ATOM      9  C   UNL     1      -7.438  35.378  -2.166  1.00  0.00    -0.011 C 
ATOM     10  C   UNL     1      -8.684  35.201  -3.078  1.00  0.00     0.008 C 
BRANCH   9  11
ATOM     11  C   UNL     1      -7.330  36.766  -1.421  1.00  0.00    -0.002 C 
ATOM     12  C   UNL     1      -8.520  37.702  -1.625  1.00  0.00     0.005 C 
ATOM     13  C   UNL     1      -6.066  37.665  -1.601  1.00  0.00    -0.026 C 
ATOM     14  C   UNL     1      -8.100  38.989  -0.947  1.00  0.00     0.005 C 
ATOM     15  C   UNL     1      -6.560  39.088  -1.105  1.00  0.00    -0.001 C 
ATOM     16  C   UNL     1      -4.837  37.074  -0.836  1.00  0.00     0.007 C 
ATOM     17  C   UNL     1      -5.656  37.789  -3.091  1.00  0.00     0.012 C 
ATOM     18  C   UNL     1      -5.915  39.714   0.194  1.00  0.00     0.000 C 
ATOM     19  C   UNL     1      -4.675  37.586   0.587  1.00  0.00     0.005 C 
ATOM     20  C   UNL     1      -4.550  39.120   0.585  1.00  0.00     0.003 C 
ATOM     21  C   UNL     1      -5.777  41.237   0.035  1.00  0.00     0.031 C 
ATOM     22  C   UNL     1      -4.018  39.715   1.954  1.00  0.00    -0.008 C 
ATOM     23  C   UNL     1      -5.082  41.886   1.195  1.00  0.00    -0.027 C 
ATOM     24  C   UNL     1      -4.195  41.243   1.982  1.00  0.00    -0.065 C 
ATOM     25  C   UNL     1      -2.497  39.377   2.094  1.00  0.00     0.014 C 
ATOM     26  C   UNL     1      -4.786  39.127   3.169  1.00  0.00     0.016 C 
ATOM     27  C   UNL     1      -3.459  42.037   3.042  1.00  0.00     0.063 C 
ATOM     28  C   UNL     1      -1.771  40.174   3.199  1.00  0.00     0.033 C 
ATOM     29  C   UNL     1      -1.969  41.689   3.031  1.00  0.00     0.118 C 
BRANCH  29  30
ATOM     30  O   UNL     1      -1.392  42.125   1.820  1.00  0.00    -0.393 OA
ATOM     31  H   UNL     1      -1.210  41.309   1.277  1.00  0.00     0.210 HD
ENDBRANCH  29  30
ENDBRANCH   9  11
ENDBRANCH   1   9
TORSDOF 7
ENDMDL
MODEL 7
REMARK VINA RESULT:    -3.250      2.905      8.171
REMARK INTER + INTRA:          -6.839
REMARK INTER:                  -6.346
REMARK INTRA:                  -0.493
REMARK UNBOUND:                -2.353
REMARK SMILES CC[C@@H](CC[C@@H](C)[C@@H]1CC[C@H]2[C@@H]3CC=C4C[C@H](O)CC[C@]4(C)[C@H]3CC[C@]21C)C(C)C
REMARK SMILES IDX 5 1 4 2 3 3 2 4 1 5 28 6 29 7 30 8 6 9 7 10 8 11 9 12 26 13
REMARK SMILES IDX 10 14 11 15 25 16 27 17 12 18 24 19 23 20 13 21 21 22 14 23
REMARK SMILES IDX 15 24 20 25 22 26 16 27 19 28 17 29 18 30
REMARK H PARENT 18 31
REMARK Flexibility Score: inf
ROOT
ATOM      1  C   UNL     1      -8.885  34.736  -0.903  1.00  0.00     0.004 C 
ENDROOT
BRANCH   1   2
ATOM      2  C   UNL     1      -9.080  33.417  -0.121  1.00  0.00     0.004 C 
BRANCH   2   3
ATOM      3  C   UNL     1      -7.997  32.334  -0.401  1.00  0.00    -0.009 C 
BRANCH   3   4
ATOM      4  C   UNL     1      -8.449  31.371  -1.537  1.00  0.00     0.000 C 
ATOM      5  C   UNL     1      -8.396  32.000  -2.928  1.00  0.00     0.004 C 
ENDBRANCH   3   4
BRANCH   3   6
ATOM      6  C   UNL     1      -7.487  31.650   0.925  1.00  0.00    -0.014 C 
ATOM      7  C   UNL     1      -7.261  32.609   2.109  1.00  0.00     0.007 C 
ATOM      8  C   UNL     1      -8.406  30.492   1.353  1.00  0.00     0.007 C 
ENDBRANCH   3   6
ENDBRANCH   2   3
ENDBRANCH   1   2
BRANCH   1   9
ATOM      9  C   UNL     1      -9.124  36.008  -0.037  1.00  0.00    -0.011 C 
ATOM     10  C   UNL     1      -9.125  35.620   1.467  1.00  0.00     0.008 C 
BRANCH   9  11
ATOM     11  C   UNL     1      -8.092  37.131  -0.450  1.00  0.00    -0.002 C 
ATOM     12  C   UNL     1      -8.159  37.562  -1.914  1.00  0.00     0.005 C 
ATOM     13  C   UNL     1      -6.571  36.959  -0.143  1.00  0.00    -0.026 C 
ATOM     14  C   UNL     1      -6.990  38.511  -2.074  1.00  0.00     0.005 C 
ATOM     15  C   UNL     1      -5.886  38.018  -1.104  1.00  0.00    -0.001 C 
ATOM     16  C   UNL     1      -6.277  37.145   1.382  1.00  0.00     0.007 C 
ATOM     17  C   UNL     1      -6.060  35.549  -0.535  1.00  0.00     0.012 C 
ATOM     18  C   UNL     1      -5.122  39.248  -0.471  1.00  0.00     0.000 C 
ATOM     19  C   UNL     1      -5.929  38.568   1.789  1.00  0.00     0.005 C 
ATOM     20  C   UNL     1      -4.704  39.060   0.997  1.00  0.00     0.003 C 
ATOM     21  C   UNL     1      -3.880  39.589  -1.311  1.00  0.00     0.031 C 
ATOM     22  C   UNL     1      -4.045  40.371   1.596  1.00  0.00    -0.008 C 
ATOM     23  C   UNL     1      -3.054  40.689  -0.714  1.00  0.00    -0.027 C 
ATOM     24  C   UNL     1      -3.027  40.962   0.607  1.00  0.00    -0.065 C 
ATOM     25  C   UNL     1      -3.308  40.003   2.926  1.00  0.00     0.014 C 
ATOM     26  C   UNL     1      -5.111  41.462   1.888  1.00  0.00     0.016 C 
ATOM     27  C   UNL     1      -2.055  42.010   1.109  1.00  0.00     0.063 C 
ATOM     28  C   UNL     1      -2.346  41.095   3.438  1.00  0.00     0.033 C 
ATOM     29  C   UNL     1      -1.330  41.510   2.362  1.00  0.00     0.118 C 
BRANCH  29  30
ATOM     30  O   UNL     1      -0.504  40.417   2.023  1.00  0.00    -0.393 OA
ATOM     31  H   UNL     1       0.313  40.795   1.596  1.00  0.00     0.210 HD
ENDBRANCH  29  30
ENDBRANCH   9  11
ENDBRANCH   1   9
TORSDOF 7
ENDMDL
MODEL 8
REMARK VINA RESULT:    -3.195      3.599      8.843
REMARK INTER + INTRA:          -6.762
REMARK INTER:                  -5.547
REMARK INTRA:                  -1.215
REMARK UNBOUND:                -2.353
REMARK SMILES CC[C@@H](CC[C@@H](C)[C@@H]1CC[C@H]2[C@@H]3CC=C4C[C@H](O)CC[C@]4(C)[C@H]3CC[C@]21C)C(C)C
REMARK SMILES IDX 5 1 4 2 3 3 2 4 1 5 28 6 29 7 30 8 6 9 7 10 8 11 9 12 26 13
REMARK SMILES IDX 10 14 11 15 25 16 27 17 12 18 24 19 23 20 13 21 21 22 14 23
REMARK SMILES IDX 15 24 20 25 22 26 16 27 19 28 17 29 18 30
REMARK H PARENT 18 31
REMARK Flexibility Score: inf
ROOT
ATOM      1  C   UNL     1      -9.109  32.722  -0.487  1.00  0.00     0.004 C 
ENDROOT
BRANCH   1   2
ATOM      2  C   UNL     1      -9.125  31.205  -0.191  1.00  0.00     0.004 C 
BRANCH   2   3
ATOM      3  C   UNL     1      -8.755  30.829   1.275  1.00  0.00    -0.009 C 
BRANCH   3   4
ATOM      4  C   UNL     1      -7.313  31.298   1.625  1.00  0.00     0.000 C 
ATOM      5  C   UNL     1      -7.263  32.338   2.743  1.00  0.00     0.004 C 
ENDBRANCH   3   4
BRANCH   3   6
ATOM      6  C   UNL     1      -9.094  29.326   1.604  1.00  0.00    -0.014 C 
ATOM      7  C   UNL     1      -8.814  28.328   0.465  1.00  0.00     0.007 C 
ATOM      8  C   UNL     1      -8.398  28.859   2.896  1.00  0.00     0.007 C 
ENDBRANCH   3   6
ENDBRANCH   2   3
ENDBRANCH   1   2
BRANCH   1   9
ATOM      9  C   UNL     1      -8.189  33.109  -1.682  1.00  0.00    -0.011 C 
ATOM     10  C   UNL     1      -8.765  32.510  -2.996  1.00  0.00     0.008 C 
BRANCH   9  11
ATOM     11  C   UNL     1      -7.959  34.671  -1.689  1.00  0.00    -0.002 C 
ATOM     12  C   UNL     1      -7.940  35.315  -3.074  1.00  0.00     0.005 C 
ATOM     13  C   UNL     1      -6.744  35.295  -0.931  1.00  0.00    -0.026 C 
ATOM     14  C   UNL     1      -7.557  36.755  -2.808  1.00  0.00     0.005 C 
ATOM     15  C   UNL     1      -6.624  36.742  -1.570  1.00  0.00    -0.001 C 
ATOM     16  C   UNL     1      -6.964  35.259   0.617  1.00  0.00     0.007 C 
ATOM     17  C   UNL     1      -5.429  34.528  -1.221  1.00  0.00     0.012 C 
ATOM     18  C   UNL     1      -6.897  38.006  -0.663  1.00  0.00     0.000 C 
ATOM     19  C   UNL     1      -7.624  36.504   1.190  1.00  0.00     0.005 C 
ATOM     20  C   UNL     1      -6.787  37.750   0.850  1.00  0.00     0.003 C 
ATOM     21  C   UNL     1      -5.948  39.152  -1.052  1.00  0.00     0.031 C 
ATOM     22  C   UNL     1      -7.182  39.030   1.696  1.00  0.00    -0.008 C 
ATOM     23  C   UNL     1      -6.088  40.354  -0.166  1.00  0.00    -0.027 C 
ATOM     24  C   UNL     1      -6.520  40.288   1.110  1.00  0.00    -0.065 C 
ATOM     25  C   UNL     1      -6.687  38.834   3.168  1.00  0.00     0.014 C 
ATOM     26  C   UNL     1      -8.717  39.260   1.700  1.00  0.00     0.016 C 
ATOM     27  C   UNL     1      -6.495  41.550   1.948  1.00  0.00     0.063 C 
ATOM     28  C   UNL     1      -6.698  40.124   4.015  1.00  0.00     0.033 C 
ATOM     29  C   UNL     1      -5.915  41.259   3.334  1.00  0.00     0.118 C 
BRANCH  29  30
ATOM     30  O   UNL     1      -4.554  40.907   3.211  1.00  0.00    -0.393 OA
ATOM     31  H   UNL     1      -4.162  41.509   2.520  1.00  0.00     0.210 HD
ENDBRANCH  29  30
ENDBRANCH   9  11
ENDBRANCH   1   9
TORSDOF 7
ENDMDL
