MODEL 1
REMARK VINA RESULT:    79.879      0.000      0.000
REMARK INTER + INTRA:         168.637
REMARK INTER:                 168.604
REMARK INTRA:                   0.032
REMARK UNBOUND:                 0.032
REMARK SMILES CCC(=O)CCCCC[C@H]1NC(=O)[C@@H]2CCCCN2C(=O)[C@H]([C@@H](C)CC)NC(=O)[C@H](Cc2cn(OC)c3ccccc23)NC1=O
REMARK SMILES IDX 9 1 10 2 44 3 43 4 45 6 30 7 28 8 27 9 29 11 22 12 23 14
REMARK SMILES IDX 24 15 25 16 26 17 31 18 32 19 33 20 42 21 34 22 37 23 41 24
REMARK SMILES IDX 38 25 40 26 39 27 35 28 36 29 11 30 12 31 13 33 14 34 19 35
REMARK SMILES IDX 15 36 18 37 16 38 17 39 20 40 21 41 8 43 7 44 6 45 5 46 3 47
REMARK SMILES IDX 4 48 2 49 1 50
REMARK H PARENT 43 5 27 10 11 32
REMARK Flexibility Score: 80.00
ROOT
ATOM      1  C   UNL     1      -4.867  23.565   6.457  1.00  0.00     0.035 C 
ENDROOT
BRANCH   1   2
ATOM      2  C   UNL     1      -4.361  22.220   7.047  1.00  0.00     0.171 C 
BRANCH   2   3
ATOM      3  C   UNL     1      -5.466  21.194   7.238  1.00  0.00     0.243 C 
ATOM      4  N   UNL     1      -5.877  20.747   8.562  1.00  0.00    -0.342 N 
ATOM      5  H   UNL     1      -5.665  21.381   9.369  1.00  0.00     0.164 HD
ATOM      6  O   UNL     1      -5.817  20.537   6.228  1.00  0.00    -0.273 OA
BRANCH   4   7
ATOM      7  C   UNL     1      -6.017  19.317   8.890  1.00  0.00     0.175 C 
BRANCH   7   8
ATOM      8  C   UNL     1      -4.853  18.910   9.786  1.00  0.00     0.243 C 
ATOM      9  N   UNL     1      -3.495  18.865   9.314  1.00  0.00    -0.342 N 
ATOM     10  H   UNL     1      -3.365  18.526   8.333  1.00  0.00     0.164 HD
ATOM     11  O   UNL     1      -5.077  18.816  11.017  1.00  0.00    -0.273 OA
BRANCH   9  12
ATOM     12  C   UNL     1      -2.339  19.109  10.216  1.00  0.00     0.174 CG0
ATOM     13  G   UNL     1      -1.517  20.300   9.716  1.00  0.00     0.000 G0
BRANCH  12  14
ATOM     14  C   UNL     1      -1.450  17.816  10.287  1.00  0.00     0.018 C 
ATOM     15  C   UNL     1      -1.963  16.786  11.323  1.00  0.00     0.010 C 
BRANCH  14  16
ATOM     16  C   UNL     1      -1.196  17.112   8.916  1.00  0.00     0.002 C 
ATOM     17  C   UNL     1      -0.824  15.634   9.038  1.00  0.00     0.004 C 
ENDBRANCH  14  16
ENDBRANCH  12  14
ENDBRANCH   9  12
ENDBRANCH   7   8
BRANCH   7  18
ATOM     18  C   UNL     1      -6.155  18.522   7.567  1.00  0.00     0.073 C 
BRANCH  18  19
ATOM     19  C   UNL     1      -5.554  17.148   7.610  1.00  0.00    -0.016 A 
ATOM     20  C   UNL     1      -4.252  16.857   7.254  1.00  0.00     0.134 A 
ATOM     21  C   UNL     1      -6.201  15.921   7.719  1.00  0.00     0.006 A 
ATOM     22  N   UNL     1      -4.067  15.522   7.180  1.00  0.00    -0.191 N 
ATOM     23  C   UNL     1      -5.252  14.951   7.490  1.00  0.00     0.087 A 
ATOM     24  C   UNL     1      -7.552  15.569   7.896  1.00  0.00     0.011 A 
ATOM     25  C   UNL     1      -5.558  13.594   7.465  1.00  0.00     0.030 A 
ATOM     26  C   UNL     1      -7.890  14.208   7.875  1.00  0.00     0.001 A 
ATOM     27  C   UNL     1      -6.898  13.219   7.681  1.00  0.00     0.002 A 
BRANCH  22  28
ATOM     28  O   UNL     1      -2.963  14.841   6.714  1.00  0.00    -0.417 OA
ATOM     29  C   UNL     1      -2.276  15.252   5.520  1.00  0.00     0.313 C 
ENDBRANCH  22  28
ENDBRANCH  18  19
ENDBRANCH   7  18
ENDBRANCH   4   7
ENDBRANCH   2   3
BRANCH   2  30
ATOM     30  N   UNL     1      -3.698  22.407   8.354  1.00  0.00    -0.343 N 
ATOM     31  C   UNL     1      -2.354  22.934   8.472  1.00  0.00     0.243 C 
ATOM     32  H   UNL     1      -4.181  22.125   9.231  1.00  0.00     0.164 HD
ATOM     33  O   UNL     1      -1.791  23.381   7.429  1.00  0.00    -0.273 OA
BRANCH  31  34
ATOM     34  C   UNL     1      -1.602  22.903   9.811  1.00  0.00     0.174 C 
ATOM     35  N   UNL     1      -1.457  21.575  10.462  1.00  0.00    -0.329 N 
ATOM     36  C   UNL     1      -0.212  23.500   9.640  1.00  0.00     0.035 C 
ATOM     37  C   UNL     1      -0.842  21.639  11.791  1.00  0.00     0.120 C 
ATOM     38  C   UNL     1       0.463  23.656  10.990  1.00  0.00     0.004 C 
ATOM     39  C   UNL     1       0.550  22.292  11.695  1.00  0.00     0.022 C 
BRANCH  35  40
ATOM     40  C   UNL     1      -1.579  20.349   9.692  1.00  0.00     0.246 CG0
ATOM     41  O   UNL     1      -1.312  20.364   8.448  1.00  0.00    -0.272 OA
ATOM     42  G   UNL     1      -2.311  19.096  10.182  1.00  0.00     0.000 G0
ENDBRANCH  35  40
ENDBRANCH  31  34
ENDBRANCH   2  30
ENDBRANCH   1   2
BRANCH   1  43
ATOM     43  C   UNL     1      -5.142  24.659   7.506  1.00  0.00     0.003 C 
BRANCH  43  44
ATOM     44  C   UNL     1      -6.572  24.623   8.064  1.00  0.00     0.001 C 
BRANCH  44  45
ATOM     45  C   UNL     1      -7.136  26.036   8.274  1.00  0.00     0.008 C 
BRANCH  45  46
ATOM     46  C   UNL     1      -6.297  27.072   7.515  1.00  0.00     0.075 C 
BRANCH  46  47
ATOM     47  C   UNL     1      -6.601  28.514   7.864  1.00  0.00     0.132 C 
ATOM     48  O   UNL     1      -7.160  29.195   7.017  1.00  0.00    -0.300 OA
BRANCH  47  49
ATOM     49  C   UNL     1      -6.249  29.162   9.185  1.00  0.00     0.072 C 
ATOM     50  C   UNL     1      -6.000  30.654   9.000  1.00  0.00     0.012 C 
ENDBRANCH  47  49
ENDBRANCH  46  47
ENDBRANCH  45  46
ENDBRANCH  44  45
ENDBRANCH  43  44
ENDBRANCH   1  43
TORSDOF 12
ENDMDL
MODEL 2
REMARK VINA RESULT:    81.634      2.383      6.682
REMARK INTER + INTRA:         172.340
REMARK INTER:                 167.667
REMARK INTRA:                   4.674
REMARK UNBOUND:                 0.032
REMARK SMILES CCC(=O)CCCCC[C@H]1NC(=O)[C@@H]2CCCCN2C(=O)[C@H]([C@@H](C)CC)NC(=O)[C@H](Cc2cn(OC)c3ccccc23)NC1=O
REMARK SMILES IDX 9 1 10 2 44 3 43 4 45 6 30 7 28 8 27 9 29 11 22 12 23 14
REMARK SMILES IDX 24 15 25 16 26 17 31 18 32 19 33 20 42 21 34 22 37 23 41 24
REMARK SMILES IDX 38 25 40 26 39 27 35 28 36 29 11 30 12 31 13 33 14 34 19 35
REMARK SMILES IDX 15 36 18 37 16 38 17 39 20 40 21 41 8 43 7 44 6 45 5 46 3 47
REMARK SMILES IDX 4 48 2 49 1 50
REMARK H PARENT 43 5 27 10 11 32
REMARK Flexibility Score: 80.00
ROOT
ATOM      1  C   UNL     1      -0.882  22.161   9.860  1.00  0.00     0.035 C 
ENDROOT
BRANCH   1   2
ATOM      2  C   UNL     1      -1.683  20.935   9.341  1.00  0.00     0.171 C 
BRANCH   2   3
ATOM      3  C   UNL     1      -3.188  21.098   9.479  1.00  0.00     0.243 C 
ATOM      4  N   UNL     1      -4.056  19.969   9.783  1.00  0.00    -0.342 N 
ATOM      5  H   UNL     1      -3.618  19.139  10.249  1.00  0.00     0.164 HD
ATOM      6  O   UNL     1      -3.690  22.164   9.048  1.00  0.00    -0.273 OA
BRANCH   4   7
ATOM      7  C   UNL     1      -5.277  19.696   9.003  1.00  0.00     0.175 C 
BRANCH   7   8
ATOM      8  C   UNL     1      -5.353  18.198   8.732  1.00  0.00     0.243 C 
ATOM      9  N   UNL     1      -4.340  17.496   7.989  1.00  0.00    -0.342 N 
ATOM     10  H   UNL     1      -3.927  18.015   7.180  1.00  0.00     0.164 HD
ATOM     11  O   UNL     1      -6.220  17.542   9.357  1.00  0.00    -0.273 OA
BRANCH   9  12
ATOM     12  C   UNL     1      -4.032  16.064   8.239  1.00  0.00     0.174 CG0
ATOM     13  G   UNL     1      -2.521  15.866   8.400  1.00  0.00     0.000 G0
BRANCH  12  14
ATOM     14  C   UNL     1      -4.577  15.197   7.048  1.00  0.00     0.018 C 
ATOM     15  C   UNL     1      -6.028  14.706   7.273  1.00  0.00     0.010 C 
BRANCH  14  16
ATOM     16  C   UNL     1      -4.449  15.856   5.638  1.00  0.00     0.002 C 
ATOM     17  C   UNL     1      -3.092  15.631   4.970  1.00  0.00     0.004 C 
ENDBRANCH  14  16
ENDBRANCH  12  14
ENDBRANCH   9  12
ENDBRANCH   7   8
BRANCH   7  18
ATOM     18  C   UNL     1      -5.271  20.605   7.748  1.00  0.00     0.073 C 
BRANCH  18  19
ATOM     19  C   UNL     1      -5.579  22.046   8.030  1.00  0.00    -0.016 A 
ATOM     20  C   UNL     1      -6.698  22.483   8.711  1.00  0.00     0.134 A 
ATOM     21  C   UNL     1      -5.013  23.182   7.460  1.00  0.00     0.006 A 
ATOM     22  N   UNL     1      -6.817  23.825   8.615  1.00  0.00    -0.191 N 
ATOM     23  C   UNL     1      -5.773  24.252   7.872  1.00  0.00     0.087 A 
ATOM     24  C   UNL     1      -3.967  23.364   6.536  1.00  0.00     0.011 A 
ATOM     25  C   UNL     1      -5.528  25.554   7.445  1.00  0.00     0.030 A 
ATOM     26  C   UNL     1      -3.698  24.665   6.088  1.00  0.00     0.001 A 
ATOM     27  C   UNL     1      -4.459  25.763   6.552  1.00  0.00     0.002 A 
BRANCH  22  28
ATOM     28  O   UNL     1      -7.870  24.615   9.023  1.00  0.00    -0.417 OA
ATOM     29  C   UNL     1      -8.169  24.809  10.415  1.00  0.00     0.313 C 
ENDBRANCH  22  28
ENDBRANCH  18  19
ENDBRANCH   7  18
ENDBRANCH   4   7
ENDBRANCH   2   3
BRANCH   2  30
ATOM     30  N   UNL     1      -1.304  19.692  10.045  1.00  0.00    -0.343 N 
ATOM     31  C   UNL     1      -1.146  18.429   9.353  1.00  0.00     0.243 C 
ATOM     32  H   UNL     1      -1.175  19.693  11.077  1.00  0.00     0.164 HD
ATOM     33  O   UNL     1      -1.194  18.427   8.088  1.00  0.00    -0.273 OA
BRANCH  31  34
ATOM     34  C   UNL     1      -0.982  17.113  10.129  1.00  0.00     0.174 C 
ATOM     35  N   UNL     1      -1.874  15.992   9.733  1.00  0.00    -0.329 N 
ATOM     36  C   UNL     1       0.458  16.629  10.032  1.00  0.00     0.035 C 
ATOM     37  C   UNL     1      -1.749  14.813  10.596  1.00  0.00     0.120 C 
ATOM     38  C   UNL     1       0.677  15.444  10.953  1.00  0.00     0.004 C 
ATOM     39  C   UNL     1      -0.294  14.308  10.589  1.00  0.00     0.022 C 
BRANCH  35  40
ATOM     40  C   UNL     1      -2.506  15.966   8.425  1.00  0.00     0.246 CG0
ATOM     41  O   UNL     1      -1.787  16.093   7.383  1.00  0.00    -0.272 OA
ATOM     42  G   UNL     1      -4.012  16.118   8.196  1.00  0.00     0.000 G0
ENDBRANCH  35  40
ENDBRANCH  31  34
ENDBRANCH   2  30
ENDBRANCH   1   2
BRANCH   1  43
ATOM     43  C   UNL     1       0.321  22.555   8.983  1.00  0.00     0.003 C 
BRANCH  43  44
ATOM     44  C   UNL     1       0.325  24.039   8.583  1.00  0.00     0.001 C 
BRANCH  44  45
ATOM     45  C   UNL     1      -0.748  24.834   9.342  1.00  0.00     0.008 C 
BRANCH  45  46
ATOM     46  C   UNL     1      -0.411  26.331   9.346  1.00  0.00     0.075 C 
BRANCH  46  47
ATOM     47  C   UNL     1      -0.319  26.958  10.722  1.00  0.00     0.132 C 
ATOM     48  O   UNL     1       0.497  27.853  10.881  1.00  0.00    -0.300 OA
BRANCH  47  49
ATOM     49  C   UNL     1      -1.165  26.540  11.905  1.00  0.00     0.072 C 
ATOM     50  C   UNL     1      -1.789  27.759  12.574  1.00  0.00     0.012 C 
ENDBRANCH  47  49
ENDBRANCH  46  47
ENDBRANCH  45  46
ENDBRANCH  44  45
ENDBRANCH  43  44
ENDBRANCH   1  43
TORSDOF 12
ENDMDL
MODEL 3
REMARK VINA RESULT:    82.482      2.219      6.515
REMARK INTER + INTRA:         174.129
REMARK INTER:                 169.219
REMARK INTRA:                   4.910
REMARK UNBOUND:                 0.032
REMARK SMILES CCC(=O)CCCCC[C@H]1NC(=O)[C@@H]2CCCCN2C(=O)[C@H]([C@@H](C)CC)NC(=O)[C@H](Cc2cn(OC)c3ccccc23)NC1=O
REMARK SMILES IDX 9 1 10 2 44 3 43 4 45 6 30 7 28 8 27 9 29 11 22 12 23 14
REMARK SMILES IDX 24 15 25 16 26 17 31 18 32 19 33 20 42 21 34 22 37 23 41 24
REMARK SMILES IDX 38 25 40 26 39 27 35 28 36 29 11 30 12 31 13 33 14 34 19 35
REMARK SMILES IDX 15 36 18 37 16 38 17 39 20 40 21 41 8 43 7 44 6 45 5 46 3 47
REMARK SMILES IDX 4 48 2 49 1 50
REMARK H PARENT 43 5 27 10 11 32
REMARK Flexibility Score: 80.00
ROOT
ATOM      1  C   UNL     1      -1.201  22.003  10.370  1.00  0.00     0.035 C 
ENDROOT
BRANCH   1   2
ATOM      2  C   UNL     1      -1.707  20.909   9.391  1.00  0.00     0.171 C 
BRANCH   2   3
ATOM      3  C   UNL     1      -3.092  21.195   8.835  1.00  0.00     0.243 C 
ATOM      4  N   UNL     1      -4.250  21.353   9.705  1.00  0.00    -0.342 N 
ATOM      5  H   UNL     1      -4.068  21.621  10.701  1.00  0.00     0.164 HD
ATOM      6  O   UNL     1      -3.265  21.009   7.605  1.00  0.00    -0.273 OA
BRANCH   4   7
ATOM      7  C   UNL     1      -5.513  20.637   9.454  1.00  0.00     0.175 C 
BRANCH   7   8
ATOM      8  C   UNL     1      -5.316  19.169   9.815  1.00  0.00     0.243 C 
ATOM      9  N   UNL     1      -5.621  18.102   8.898  1.00  0.00    -0.342 N 
ATOM     10  H   UNL     1      -6.467  18.243   8.300  1.00  0.00     0.164 HD
ATOM     11  O   UNL     1      -4.678  18.912  10.863  1.00  0.00    -0.273 OA
BRANCH   9  12
ATOM     12  C   UNL     1      -4.891  16.807   8.928  1.00  0.00     0.174 CG0
ATOM     13  G   UNL     1      -3.380  17.048   8.864  1.00  0.00     0.000 G0
BRANCH  12  14
ATOM     14  C   UNL     1      -5.359  15.917   7.721  1.00  0.00     0.018 C 
ATOM     15  C   UNL     1      -4.185  15.200   7.009  1.00  0.00     0.010 C 
BRANCH  14  16
ATOM     16  C   UNL     1      -6.487  14.890   8.055  1.00  0.00     0.002 C 
ATOM     17  C   UNL     1      -6.563  13.715   7.080  1.00  0.00     0.004 C 
ENDBRANCH  14  16
ENDBRANCH  12  14
ENDBRANCH   9  12
ENDBRANCH   7   8
BRANCH   7  18
ATOM     18  C   UNL     1      -5.955  20.915   7.995  1.00  0.00     0.073 C 
BRANCH  18  19
ATOM     19  C   UNL     1      -5.581  22.277   7.488  1.00  0.00    -0.016 A 
ATOM     20  C   UNL     1      -4.410  22.561   6.813  1.00  0.00     0.134 A 
ATOM     21  C   UNL     1      -6.138  23.509   7.818  1.00  0.00     0.006 A 
ATOM     22  N   UNL     1      -4.250  23.896   6.683  1.00  0.00    -0.191 N 
ATOM     23  C   UNL     1      -5.319  24.471   7.276  1.00  0.00     0.087 A 
ATOM     24  C   UNL     1      -7.227  23.874   8.631  1.00  0.00     0.011 A 
ATOM     25  C   UNL     1      -5.542  25.833   7.456  1.00  0.00     0.030 A 
ATOM     26  C   UNL     1      -7.476  25.239   8.831  1.00  0.00     0.001 A 
ATOM     27  C   UNL     1      -6.651  26.221   8.232  1.00  0.00     0.002 A 
BRANCH  22  28
ATOM     28  O   UNL     1      -3.149  24.577   6.211  1.00  0.00    -0.417 OA
ATOM     29  C   UNL     1      -2.098  25.010   7.090  1.00  0.00     0.313 C 
ENDBRANCH  22  28
ENDBRANCH  18  19
ENDBRANCH   7  18
ENDBRANCH   4   7
ENDBRANCH   2   3
BRANCH   2  30
ATOM     30  N   UNL     1      -1.751  19.577  10.029  1.00  0.00    -0.343 N 
ATOM     31  C   UNL     1      -0.868  18.499   9.632  1.00  0.00     0.243 C 
ATOM     32  H   UNL     1      -2.455  19.372  10.767  1.00  0.00     0.164 HD
ATOM     33  O   UNL     1       0.063  18.757   8.814  1.00  0.00    -0.273 OA
BRANCH  31  34
ATOM     34  C   UNL     1      -1.084  17.066  10.140  1.00  0.00     0.174 C 
ATOM     35  N   UNL     1      -2.433  16.480   9.926  1.00  0.00    -0.329 N 
ATOM     36  C   UNL     1      -0.058  16.132   9.513  1.00  0.00     0.035 C 
ATOM     37  C   UNL     1      -2.604  15.163  10.547  1.00  0.00     0.120 C 
ATOM     38  C   UNL     1      -0.134  14.760  10.155  1.00  0.00     0.004 C 
ATOM     39  C   UNL     1      -1.551  14.182   9.995  1.00  0.00     0.022 C 
BRANCH  35  40
ATOM     40  C   UNL     1      -3.324  17.010   8.909  1.00  0.00     0.246 CG0
ATOM     41  O   UNL     1      -2.888  17.881   8.090  1.00  0.00    -0.272 OA
ATOM     42  G   UNL     1      -4.847  16.847   8.930  1.00  0.00     0.000 G0
ENDBRANCH  35  40
ENDBRANCH  31  34
ENDBRANCH   2  30
ENDBRANCH   1   2
BRANCH   1  43
ATOM     43  C   UNL     1      -1.049  23.401   9.741  1.00  0.00     0.003 C 
BRANCH  43  44
ATOM     44  C   UNL     1       0.414  23.814   9.518  1.00  0.00     0.001 C 
BRANCH  44  45
ATOM     45  C   UNL     1       0.710  25.199  10.110  1.00  0.00     0.008 C 
BRANCH  45  46
ATOM     46  C   UNL     1      -0.369  26.208   9.696  1.00  0.00     0.075 C 
BRANCH  46  47
ATOM     47  C   UNL     1      -0.796  27.167  10.788  1.00  0.00     0.132 C 
ATOM     48  O   UNL     1      -1.213  26.686  11.831  1.00  0.00    -0.300 OA
BRANCH  47  49
ATOM     49  C   UNL     1      -0.745  28.674  10.664  1.00  0.00     0.072 C 
ATOM     50  C   UNL     1      -0.778  29.326  12.041  1.00  0.00     0.012 C 
ENDBRANCH  47  49
ENDBRANCH  46  47
ENDBRANCH  45  46
ENDBRANCH  44  45
ENDBRANCH  43  44
ENDBRANCH   1  43
TORSDOF 12
ENDMDL
MODEL 4
REMARK VINA RESULT:    82.673      2.079      7.195
REMARK INTER + INTRA:         174.534
REMARK INTER:                 172.396
REMARK INTRA:                   2.139
REMARK UNBOUND:                 0.032
REMARK SMILES CCC(=O)CCCCC[C@H]1NC(=O)[C@@H]2CCCCN2C(=O)[C@H]([C@@H](C)CC)NC(=O)[C@H](Cc2cn(OC)c3ccccc23)NC1=O
REMARK SMILES IDX 9 1 10 2 44 3 43 4 45 6 30 7 28 8 27 9 29 11 22 12 23 14
REMARK SMILES IDX 24 15 25 16 26 17 31 18 32 19 33 20 42 21 34 22 37 23 41 24
REMARK SMILES IDX 38 25 40 26 39 27 35 28 36 29 11 30 12 31 13 33 14 34 19 35
REMARK SMILES IDX 15 36 18 37 16 38 17 39 20 40 21 41 8 43 7 44 6 45 5 46 3 47
REMARK SMILES IDX 4 48 2 49 1 50
REMARK H PARENT 43 5 27 10 11 32
REMARK Flexibility Score: 80.00
ROOT
ATOM      1  C   UNL     1      -6.015  22.041   8.621  1.00  0.00     0.035 C 
ENDROOT
BRANCH   1   2
ATOM      2  C   UNL     1      -4.911  21.120   9.210  1.00  0.00     0.171 C 
BRANCH   2   3
ATOM      3  C   UNL     1      -3.545  21.783   9.270  1.00  0.00     0.243 C 
ATOM      4  N   UNL     1      -2.435  21.328   8.443  1.00  0.00    -0.342 N 
ATOM      5  H   UNL     1      -2.672  20.796   7.573  1.00  0.00     0.164 HD
ATOM      6  O   UNL     1      -3.318  22.540  10.246  1.00  0.00    -0.273 OA
BRANCH   4   7
ATOM      7  C   UNL     1      -1.100  21.067   9.011  1.00  0.00     0.175 C 
BRANCH   7   8
ATOM      8  C   UNL     1      -0.918  19.559   9.145  1.00  0.00     0.243 C 
ATOM      9  N   UNL     1      -1.813  18.740   9.920  1.00  0.00    -0.342 N 
ATOM     10  H   UNL     1      -2.169  19.168  10.806  1.00  0.00     0.164 HD
ATOM     11  O   UNL     1      -0.085  19.008   8.386  1.00  0.00    -0.273 OA
BRANCH   9  12
ATOM     12  C   UNL     1      -2.070  17.317   9.580  1.00  0.00     0.174 CG0
ATOM     13  G   UNL     1      -3.576  17.058   9.478  1.00  0.00     0.000 G0
BRANCH  12  14
ATOM     14  C   UNL     1      -1.426  16.394  10.676  1.00  0.00     0.018 C 
ATOM     15  C   UNL     1      -0.482  15.319  10.082  1.00  0.00     0.010 C 
BRANCH  14  16
ATOM     16  C   UNL     1      -0.708  17.150  11.838  1.00  0.00     0.002 C 
ATOM     17  C   UNL     1       0.805  17.271  11.657  1.00  0.00     0.004 C 
ENDBRANCH  14  16
ENDBRANCH  12  14
ENDBRANCH   9  12
ENDBRANCH   7   8
BRANCH   7  18
ATOM     18  C   UNL     1      -0.957  21.879  10.323  1.00  0.00     0.073 C 
BRANCH  18  19
ATOM     19  C   UNL     1      -0.548  23.308  10.121  1.00  0.00    -0.016 A 
ATOM     20  C   UNL     1      -0.144  24.152  11.137  1.00  0.00     0.134 A 
ATOM     21  C   UNL     1      -0.752  24.120   9.010  1.00  0.00     0.006 A 
ATOM     22  N   UNL     1      -0.056  25.423  10.690  1.00  0.00    -0.191 N 
ATOM     23  C   UNL     1      -0.403  25.397   9.384  1.00  0.00     0.087 A 
ATOM     24  C   UNL     1      -1.308  23.876   7.741  1.00  0.00     0.011 A 
ATOM     25  C   UNL     1      -0.534  26.490   8.532  1.00  0.00     0.030 A 
ATOM     26  C   UNL     1      -1.453  24.958   6.862  1.00  0.00     0.001 A 
ATOM     27  C   UNL     1      -1.051  26.260   7.243  1.00  0.00     0.002 A 
BRANCH  22  28
ATOM     28  O   UNL     1       0.164  26.569  11.424  1.00  0.00    -0.417 OA
ATOM     29  C   UNL     1      -0.354  27.842  11.005  1.00  0.00     0.313 C 
ENDBRANCH  22  28
ENDBRANCH  18  19
ENDBRANCH   7  18
ENDBRANCH   4   7
ENDBRANCH   2   3
BRANCH   2  30
ATOM     30  N   UNL     1      -4.764  19.871   8.435  1.00  0.00    -0.343 N 
ATOM     31  C   UNL     1      -5.756  18.816   8.473  1.00  0.00     0.243 C 
ATOM     32  H   UNL     1      -3.912  19.707   7.862  1.00  0.00     0.164 HD
ATOM     33  O   UNL     1      -6.847  19.039   9.077  1.00  0.00    -0.273 OA
BRANCH  31  34
ATOM     34  C   UNL     1      -5.478  17.440   7.850  1.00  0.00     0.174 C 
ATOM     35  N   UNL     1      -4.212  16.772   8.251  1.00  0.00    -0.329 N 
ATOM     36  C   UNL     1      -6.629  16.490   8.151  1.00  0.00     0.035 C 
ATOM     37  C   UNL     1      -3.953  15.525   7.523  1.00  0.00     0.120 C 
ATOM     38  C   UNL     1      -6.460  15.196   7.378  1.00  0.00     0.004 C 
ATOM     39  C   UNL     1      -5.117  14.539   7.740  1.00  0.00     0.022 C 
BRANCH  35  40
ATOM     40  C   UNL     1      -3.528  17.143   9.477  1.00  0.00     0.246 CG0
ATOM     41  O   UNL     1      -4.199  17.623  10.446  1.00  0.00    -0.272 OA
ATOM     42  G   UNL     1      -2.010  17.305   9.599  1.00  0.00     0.000 G0
ENDBRANCH  35  40
ENDBRANCH  31  34
ENDBRANCH   2  30
ENDBRANCH   1   2
BRANCH   1  43
ATOM     43  C   UNL     1      -5.693  22.610   7.226  1.00  0.00     0.003 C 
BRANCH  43  44
ATOM     44  C   UNL     1      -4.573  23.661   7.239  1.00  0.00     0.001 C 
BRANCH  44  45
ATOM     45  C   UNL     1      -5.044  25.002   6.660  1.00  0.00     0.008 C 
BRANCH  45  46
ATOM     46  C   UNL     1      -5.722  25.852   7.742  1.00  0.00     0.075 C 
BRANCH  46  47
ATOM     47  C   UNL     1      -6.315  27.155   7.249  1.00  0.00     0.132 C 
ATOM     48  O   UNL     1      -6.772  27.921   8.085  1.00  0.00    -0.300 OA
BRANCH  47  49
ATOM     49  C   UNL     1      -6.385  27.561   5.793  1.00  0.00     0.072 C 
ATOM     50  C   UNL     1      -7.226  28.821   5.628  1.00  0.00     0.012 C 
ENDBRANCH  47  49
ENDBRANCH  46  47
ENDBRANCH  45  46
ENDBRANCH  44  45
ENDBRANCH  43  44
ENDBRANCH   1  43
TORSDOF 12
ENDMDL
MODEL 5
REMARK VINA RESULT:    82.838      2.112      7.462
REMARK INTER + INTRA:         174.882
REMARK INTER:                 172.069
REMARK INTRA:                   2.813
REMARK UNBOUND:                 0.032
REMARK SMILES CCC(=O)CCCCC[C@H]1NC(=O)[C@@H]2CCCCN2C(=O)[C@H]([C@@H](C)CC)NC(=O)[C@H](Cc2cn(OC)c3ccccc23)NC1=O
REMARK SMILES IDX 9 1 10 2 44 3 43 4 45 6 30 7 28 8 27 9 29 11 22 12 23 14
REMARK SMILES IDX 24 15 25 16 26 17 31 18 32 19 33 20 42 21 34 22 37 23 41 24
REMARK SMILES IDX 38 25 40 26 39 27 35 28 36 29 11 30 12 31 13 33 14 34 19 35
REMARK SMILES IDX 15 36 18 37 16 38 17 39 20 40 21 41 8 43 7 44 6 45 5 46 3 47
REMARK SMILES IDX 4 48 2 49 1 50
REMARK H PARENT 43 5 27 10 11 32
REMARK Flexibility Score: 80.00
ROOT
ATOM      1  C   UNL     1      -4.731  22.168   6.694  1.00  0.00     0.035 C 
ENDROOT
BRANCH   1   2
ATOM      2  C   UNL     1      -5.064  21.555   8.082  1.00  0.00     0.171 C 
BRANCH   2   3
ATOM      3  C   UNL     1      -4.099  21.984   9.175  1.00  0.00     0.243 C 
ATOM      4  N   UNL     1      -2.749  22.441   8.870  1.00  0.00    -0.342 N 
ATOM      5  H   UNL     1      -2.573  22.805   7.904  1.00  0.00     0.164 HD
ATOM      6  O   UNL     1      -4.392  21.668  10.354  1.00  0.00    -0.273 OA
BRANCH   4   7
ATOM      7  C   UNL     1      -1.571  21.911   9.579  1.00  0.00     0.175 C 
BRANCH   7   8
ATOM      8  C   UNL     1      -1.530  20.399   9.385  1.00  0.00     0.243 C 
ATOM      9  N   UNL     1      -2.648  19.550   9.701  1.00  0.00    -0.342 N 
ATOM     10  H   UNL     1      -3.196  19.816  10.552  1.00  0.00     0.164 HD
ATOM     11  O   UNL     1      -0.565  19.926   8.739  1.00  0.00    -0.273 OA
BRANCH   9  12
ATOM     12  C   UNL     1      -2.899  18.277   8.977  1.00  0.00     0.174 CG0
ATOM     13  G   UNL     1      -4.342  17.815   9.199  1.00  0.00     0.000 G0
BRANCH  12  14
ATOM     14  C   UNL     1      -1.887  17.184   9.476  1.00  0.00     0.018 C 
ATOM     15  C   UNL     1      -0.824  16.813   8.412  1.00  0.00     0.010 C 
BRANCH  14  16
ATOM     16  C   UNL     1      -1.191  17.500  10.837  1.00  0.00     0.002 C 
ATOM     17  C   UNL     1      -0.350  16.346  11.385  1.00  0.00     0.004 C 
ENDBRANCH  14  16
ENDBRANCH  12  14
ENDBRANCH   9  12
ENDBRANCH   7   8
BRANCH   7  18
ATOM     18  C   UNL     1      -1.624  22.397  11.050  1.00  0.00     0.073 C 
BRANCH  18  19
ATOM     19  C   UNL     1      -1.210  23.826  11.241  1.00  0.00    -0.016 A 
ATOM     20  C   UNL     1      -1.711  24.656  12.225  1.00  0.00     0.134 A 
ATOM     21  C   UNL     1      -0.515  24.653  10.364  1.00  0.00     0.006 A 
ATOM     22  N   UNL     1      -1.325  25.932  12.010  1.00  0.00    -0.191 N 
ATOM     23  C   UNL     1      -0.573  25.923  10.887  1.00  0.00     0.087 A 
ATOM     24  C   UNL     1       0.072  24.426   9.105  1.00  0.00     0.011 A 
ATOM     25  C   UNL     1      -0.026  27.027  10.240  1.00  0.00     0.030 A 
ATOM     26  C   UNL     1       0.631  25.520   8.429  1.00  0.00     0.001 A 
ATOM     27  C   UNL     1       0.603  26.814   8.998  1.00  0.00     0.002 A 
BRANCH  22  28
ATOM     28  O   UNL     1      -1.737  27.067  12.674  1.00  0.00    -0.417 OA
ATOM     29  C   UNL     1      -1.346  28.378  12.236  1.00  0.00     0.313 C 
ENDBRANCH  22  28
ENDBRANCH  18  19
ENDBRANCH   7  18
ENDBRANCH   4   7
ENDBRANCH   2   3
BRANCH   2  30
ATOM     30  N   UNL     1      -5.065  20.078   8.046  1.00  0.00    -0.343 N 
ATOM     31  C   UNL     1      -5.957  19.325   7.187  1.00  0.00     0.243 C 
ATOM     32  H   UNL     1      -4.436  19.538   8.674  1.00  0.00     0.164 HD
ATOM     33  O   UNL     1      -6.652  19.960   6.341  1.00  0.00    -0.273 OA
BRANCH  31  34
ATOM     34  C   UNL     1      -6.104  17.804   7.333  1.00  0.00     0.174 C 
ATOM     35  N   UNL     1      -5.101  17.116   8.188  1.00  0.00    -0.329 N 
ATOM     36  C   UNL     1      -7.490  17.465   7.866  1.00  0.00     0.035 C 
ATOM     37  C   UNL     1      -5.227  15.656   8.179  1.00  0.00     0.120 C 
ATOM     38  C   UNL     1      -7.716  15.965   7.827  1.00  0.00     0.004 C 
ATOM     39  C   UNL     1      -6.635  15.248   8.654  1.00  0.00     0.022 C 
BRANCH  35  40
ATOM     40  C   UNL     1      -4.341  17.851   9.184  1.00  0.00     0.246 CG0
ATOM     41  O   UNL     1      -4.949  18.375  10.171  1.00  0.00    -0.272 OA
ATOM     42  G   UNL     1      -2.898  18.325   8.987  1.00  0.00     0.000 G0
ENDBRANCH  35  40
ENDBRANCH  31  34
ENDBRANCH   2  30
ENDBRANCH   1   2
BRANCH   1  43
ATOM     43  C   UNL     1      -4.525  23.695   6.703  1.00  0.00     0.003 C 
BRANCH  43  44
ATOM     44  C   UNL     1      -5.594  24.449   7.508  1.00  0.00     0.001 C 
BRANCH  44  45
ATOM     45  C   UNL     1      -5.429  25.971   7.385  1.00  0.00     0.008 C 
BRANCH  45  46
ATOM     46  C   UNL     1      -6.797  26.665   7.370  1.00  0.00     0.075 C 
BRANCH  46  47
ATOM     47  C   UNL     1      -6.744  28.171   7.217  1.00  0.00     0.132 C 
ATOM     48  O   UNL     1      -6.586  28.837   8.230  1.00  0.00    -0.300 OA
BRANCH  47  49
ATOM     49  C   UNL     1      -6.883  28.897   5.897  1.00  0.00     0.072 C 
ATOM     50  C   UNL     1      -7.104  30.388   6.127  1.00  0.00     0.012 C 
ENDBRANCH  47  49
ENDBRANCH  46  47
ENDBRANCH  45  46
ENDBRANCH  44  45
ENDBRANCH  43  44
ENDBRANCH   1  43
TORSDOF 12
ENDMDL
