MODEL 1
REMARK VINA RESULT:    -6.005      0.000      0.000
REMARK INTER + INTRA:          -9.643
REMARK INTER:                  -8.287
REMARK INTRA:                  -1.357
REMARK UNBOUND:                -1.357
REMARK SMILES CC[C@@H](CC[C@H](C)[C@H]1CC[C@@H]2[C@H]3CC=C4C[C@@H](O)CC[C@]4(C)[C@H]3CC[C@@]21C)C(C)C
REMARK SMILES IDX 5 1 4 2 3 3 2 4 1 5 28 6 29 7 30 8 6 9 7 10 8 11 9 12 26 13
REMARK SMILES IDX 10 14 11 15 25 16 27 17 12 18 24 19 23 20 13 21 21 22 14 23
REMARK SMILES IDX 15 24 20 25 22 26 16 27 19 28 17 29 18 30
REMARK H PARENT 18 31
REMARK Flexibility Score: inf
ROOT
ATOM      1  C   UNL     1      -1.494 -11.607 -37.602  1.00  0.00     0.004 C 
ENDROOT
BRANCH   1   2
ATOM      2  C   UNL     1      -1.704 -10.108 -37.293  1.00  0.00     0.004 C 
BRANCH   2   3
ATOM      3  C   UNL     1      -0.704  -9.575 -36.222  1.00  0.00    -0.009 C 
BRANCH   3   4
ATOM      4  C   UNL     1      -1.180  -9.950 -34.786  1.00  0.00     0.000 C 
ATOM      5  C   UNL     1      -0.376 -11.128 -34.211  1.00  0.00     0.004 C 
ENDBRANCH   3   4
BRANCH   3   6
ATOM      6  C   UNL     1      -0.424  -8.033 -36.340  1.00  0.00    -0.014 C 
ATOM      7  C   UNL     1      -0.435  -7.575 -37.813  1.00  0.00     0.007 C 
ATOM      8  C   UNL     1      -1.352  -7.141 -35.489  1.00  0.00     0.007 C 
ENDBRANCH   3   6
ENDBRANCH   2   3
ENDBRANCH   1   2
BRANCH   1   9
ATOM      9  C   UNL     1      -1.769 -11.948 -39.098  1.00  0.00    -0.011 C 
ATOM     10  C   UNL     1      -0.698 -12.940 -39.612  1.00  0.00     0.008 C 
BRANCH   9  11
ATOM     11  C   UNL     1      -1.921 -10.638 -39.960  1.00  0.00    -0.002 C 
ATOM     12  C   UNL     1      -0.817 -10.518 -41.026  1.00  0.00     0.005 C 
ATOM     13  C   UNL     1      -3.267 -10.422 -40.744  1.00  0.00    -0.026 C 
ATOM     14  C   UNL     1      -1.463 -10.783 -42.384  1.00  0.00     0.005 C 
ATOM     15  C   UNL     1      -2.962 -11.028 -42.143  1.00  0.00    -0.001 C 
ATOM     16  C   UNL     1      -3.536  -8.890 -40.864  1.00  0.00     0.007 C 
ATOM     17  C   UNL     1      -4.486 -11.075 -40.029  1.00  0.00     0.012 C 
ATOM     18  C   UNL     1      -3.821 -10.515 -43.338  1.00  0.00     0.000 C 
ATOM     19  C   UNL     1      -4.528  -8.508 -41.973  1.00  0.00     0.005 C 
ATOM     20  C   UNL     1      -4.010  -8.974 -43.352  1.00  0.00     0.003 C 
ATOM     21  C   UNL     1      -5.171 -11.248 -43.415  1.00  0.00     0.031 C 
ATOM     22  C   UNL     1      -4.856  -8.496 -44.613  1.00  0.00    -0.008 C 
ATOM     23  C   UNL     1      -6.017 -10.751 -44.542  1.00  0.00    -0.027 C 
ATOM     24  C   UNL     1      -5.943  -9.500 -45.037  1.00  0.00    -0.065 C 
ATOM     25  C   UNL     1      -3.881  -8.348 -45.831  1.00  0.00     0.014 C 
ATOM     26  C   UNL     1      -5.514  -7.116 -44.337  1.00  0.00     0.016 C 
ATOM     27  C   UNL     1      -6.698  -9.200 -46.314  1.00  0.00     0.063 C 
ATOM     28  C   UNL     1      -4.585  -8.087 -47.181  1.00  0.00     0.033 C 
ATOM     29  C   UNL     1      -5.690  -9.128 -47.468  1.00  0.00     0.118 C 
BRANCH  29  30
ATOM     30  O   UNL     1      -6.347  -8.842 -48.676  1.00  0.00    -0.393 OA
ATOM     31  H   UNL     1      -5.713  -8.347 -49.255  1.00  0.00     0.210 HD
ENDBRANCH  29  30
ENDBRANCH   9  11
ENDBRANCH   1   9
TORSDOF 7
ENDMDL
MODEL 2
REMARK VINA RESULT:    -5.742      2.998      8.708
REMARK INTER + INTRA:          -9.281
REMARK INTER:                  -7.766
REMARK INTRA:                  -1.515
REMARK UNBOUND:                -1.357
REMARK SMILES CC[C@@H](CC[C@H](C)[C@H]1CC[C@@H]2[C@H]3CC=C4C[C@@H](O)CC[C@]4(C)[C@H]3CC[C@@]21C)C(C)C
REMARK SMILES IDX 5 1 4 2 3 3 2 4 1 5 28 6 29 7 30 8 6 9 7 10 8 11 9 12 26 13
REMARK SMILES IDX 10 14 11 15 25 16 27 17 12 18 24 19 23 20 13 21 21 22 14 23
REMARK SMILES IDX 15 24 20 25 22 26 16 27 19 28 17 29 18 30
REMARK H PARENT 18 31
REMARK Flexibility Score: inf
ROOT
ATOM      1  C   UNL     1      -7.752 -10.863 -45.397  1.00  0.00     0.004 C 
ENDROOT
BRANCH   1   2
ATOM      2  C   UNL     1      -6.480 -10.606 -46.234  1.00  0.00     0.004 C 
BRANCH   2   3
ATOM      3  C   UNL     1      -6.308  -9.103 -46.610  1.00  0.00    -0.009 C 
BRANCH   3   4
ATOM      4  C   UNL     1      -7.371  -8.672 -47.665  1.00  0.00     0.000 C 
ATOM      5  C   UNL     1      -8.315  -7.592 -47.111  1.00  0.00     0.004 C 
ENDBRANCH   3   4
BRANCH   3   6
ATOM      6  C   UNL     1      -4.856  -8.740 -47.090  1.00  0.00    -0.014 C 
ATOM      7  C   UNL     1      -4.794  -8.602 -48.625  1.00  0.00     0.007 C 
ATOM      8  C   UNL     1      -4.242  -7.497 -46.410  1.00  0.00     0.007 C 
ENDBRANCH   3   6
ENDBRANCH   2   3
ENDBRANCH   1   2
BRANCH   1   9
ATOM      9  C   UNL     1      -7.671 -10.217 -43.980  1.00  0.00    -0.011 C 
ATOM     10  C   UNL     1      -8.930  -9.353 -43.729  1.00  0.00     0.008 C 
BRANCH   9  11
ATOM     11  C   UNL     1      -6.303  -9.463 -43.779  1.00  0.00    -0.002 C 
ATOM     12  C   UNL     1      -6.498  -8.079 -43.134  1.00  0.00     0.005 C 
ATOM     13  C   UNL     1      -5.195 -10.163 -42.910  1.00  0.00    -0.026 C 
ATOM     14  C   UNL     1      -5.986  -8.169 -41.697  1.00  0.00     0.005 C 
ATOM     15  C   UNL     1      -5.450  -9.595 -41.486  1.00  0.00    -0.001 C 
ATOM     16  C   UNL     1      -3.793  -9.713 -43.429  1.00  0.00     0.007 C 
ATOM     17  C   UNL     1      -5.266 -11.716 -42.989  1.00  0.00     0.012 C 
ATOM     18  C   UNL     1      -4.250  -9.609 -40.492  1.00  0.00     0.000 C 
ATOM     19  C   UNL     1      -2.651  -9.925 -42.425  1.00  0.00     0.005 C 
ATOM     20  C   UNL     1      -2.914  -9.134 -41.125  1.00  0.00     0.003 C 
ATOM     21  C   UNL     1      -4.095 -10.984 -39.818  1.00  0.00     0.031 C 
ATOM     22  C   UNL     1      -1.729  -9.125 -40.061  1.00  0.00    -0.008 C 
ATOM     23  C   UNL     1      -2.932 -11.022 -38.881  1.00  0.00    -0.027 C 
ATOM     24  C   UNL     1      -1.834 -10.253 -39.019  1.00  0.00    -0.065 C 
ATOM     25  C   UNL     1      -1.790  -7.775 -39.268  1.00  0.00     0.014 C 
ATOM     26  C   UNL     1      -0.353  -9.216 -40.776  1.00  0.00     0.016 C 
ATOM     27  C   UNL     1      -0.836 -10.236 -37.881  1.00  0.00     0.063 C 
ATOM     28  C   UNL     1      -0.830  -7.702 -38.060  1.00  0.00     0.033 C 
ATOM     29  C   UNL     1      -0.994  -8.915 -37.117  1.00  0.00     0.118 C 
BRANCH  29  30
ATOM     30  O   UNL     1      -0.077  -8.851 -36.054  1.00  0.00    -0.393 OA
ATOM     31  H   UNL     1       0.713  -8.342 -36.368  1.00  0.00     0.210 HD
ENDBRANCH  29  30
ENDBRANCH   9  11
ENDBRANCH   1   9
TORSDOF 7
ENDMDL
MODEL 3
REMARK VINA RESULT:    -5.643      1.171      2.281
REMARK INTER + INTRA:          -9.143
REMARK INTER:                  -7.644
REMARK INTRA:                  -1.499
REMARK UNBOUND:                -1.357
REMARK SMILES CC[C@@H](CC[C@H](C)[C@H]1CC[C@@H]2[C@H]3CC=C4C[C@@H](O)CC[C@]4(C)[C@H]3CC[C@@]21C)C(C)C
REMARK SMILES IDX 5 1 4 2 3 3 2 4 1 5 28 6 29 7 30 8 6 9 7 10 8 11 9 12 26 13
REMARK SMILES IDX 10 14 11 15 25 16 27 17 12 18 24 19 23 20 13 21 21 22 14 23
REMARK SMILES IDX 15 24 20 25 22 26 16 27 19 28 17 29 18 30
REMARK H PARENT 18 31
REMARK Flexibility Score: inf
ROOT
ATOM      1  C   UNL     1      -1.516 -13.194 -37.313  1.00  0.00     0.004 C 
ENDROOT
BRANCH   1   2
ATOM      2  C   UNL     1      -1.873 -11.804 -36.741  1.00  0.00     0.004 C 
BRANCH   2   3
ATOM      3  C   UNL     1      -1.315 -11.591 -35.302  1.00  0.00    -0.009 C 
BRANCH   3   4
ATOM      4  C   UNL     1      -0.306 -10.402 -35.271  1.00  0.00     0.000 C 
ATOM      5  C   UNL     1      -0.611  -9.371 -36.370  1.00  0.00     0.004 C 
ENDBRANCH   3   4
BRANCH   3   6
ATOM      6  C   UNL     1      -0.681 -12.886 -34.677  1.00  0.00    -0.014 C 
ATOM      7  C   UNL     1       0.771 -12.633 -34.222  1.00  0.00     0.007 C 
ATOM      8  C   UNL     1      -1.502 -13.522 -33.535  1.00  0.00     0.007 C 
ENDBRANCH   3   6
ENDBRANCH   2   3
ENDBRANCH   1   2
BRANCH   1   9
ATOM      9  C   UNL     1      -1.498 -13.208 -38.872  1.00  0.00    -0.011 C 
ATOM     10  C   UNL     1      -0.245 -13.966 -39.371  1.00  0.00     0.008 C 
BRANCH   9  11
ATOM     11  C   UNL     1      -1.663 -11.753 -39.454  1.00  0.00    -0.002 C 
ATOM     12  C   UNL     1      -0.529 -11.391 -40.429  1.00  0.00     0.005 C 
ATOM     13  C   UNL     1      -2.989 -11.413 -40.228  1.00  0.00    -0.026 C 
ATOM     14  C   UNL     1      -1.122 -11.387 -41.837  1.00  0.00     0.005 C 
ATOM     15  C   UNL     1      -2.620 -11.712 -41.708  1.00  0.00    -0.001 C 
ATOM     16  C   UNL     1      -3.302  -9.895 -40.043  1.00  0.00     0.007 C 
ATOM     17  C   UNL     1      -4.209 -12.227 -39.708  1.00  0.00     0.012 C 
ATOM     18  C   UNL     1      -3.455 -10.986 -42.806  1.00  0.00     0.000 C 
ATOM     19  C   UNL     1      -4.268  -9.319 -41.088  1.00  0.00     0.005 C 
ATOM     20  C   UNL     1      -3.692  -9.480 -42.512  1.00  0.00     0.003 C 
ATOM     21  C   UNL     1      -4.779 -11.720 -43.082  1.00  0.00     0.031 C 
ATOM     22  C   UNL     1      -4.511  -8.774 -43.681  1.00  0.00    -0.008 C 
ATOM     23  C   UNL     1      -5.603 -11.023 -44.114  1.00  0.00    -0.027 C 
ATOM     24  C   UNL     1      -5.551  -9.695 -44.341  1.00  0.00    -0.065 C 
ATOM     25  C   UNL     1      -3.503  -8.356 -44.805  1.00  0.00     0.014 C 
ATOM     26  C   UNL     1      -5.221  -7.496 -43.154  1.00  0.00     0.016 C 
ATOM     27  C   UNL     1      -6.274  -9.159 -45.558  1.00  0.00     0.063 C 
ATOM     28  C   UNL     1      -4.170  -7.842 -46.099  1.00  0.00     0.033 C 
ATOM     29  C   UNL     1      -5.232  -8.828 -46.634  1.00  0.00     0.118 C 
BRANCH  29  30
ATOM     30  O   UNL     1      -5.859  -8.316 -47.783  1.00  0.00    -0.393 OA
ATOM     31  H   UNL     1      -6.431  -9.033 -48.158  1.00  0.00     0.210 HD
ENDBRANCH  29  30
ENDBRANCH   9  11
ENDBRANCH   1   9
TORSDOF 7
ENDMDL
MODEL 4
REMARK VINA RESULT:    -5.598      3.426      9.087
REMARK INTER + INTRA:          -9.082
REMARK INTER:                  -7.833
REMARK INTRA:                  -1.249
REMARK UNBOUND:                -1.357
REMARK SMILES CC[C@@H](CC[C@H](C)[C@H]1CC[C@@H]2[C@H]3CC=C4C[C@@H](O)CC[C@]4(C)[C@H]3CC[C@@]21C)C(C)C
REMARK SMILES IDX 5 1 4 2 3 3 2 4 1 5 28 6 29 7 30 8 6 9 7 10 8 11 9 12 26 13
REMARK SMILES IDX 10 14 11 15 25 16 27 17 12 18 24 19 23 20 13 21 21 22 14 23
REMARK SMILES IDX 15 24 20 25 22 26 16 27 19 28 17 29 18 30
REMARK H PARENT 18 31
REMARK Flexibility Score: inf
ROOT
ATOM      1  C   UNL     1      -3.746  -7.983 -45.252  1.00  0.00     0.004 C 
ENDROOT
BRANCH   1   2
ATOM      2  C   UNL     1      -4.799  -7.816 -46.369  1.00  0.00     0.004 C 
BRANCH   2   3
ATOM      3  C   UNL     1      -5.049  -9.139 -47.156  1.00  0.00    -0.009 C 
BRANCH   3   4
ATOM      4  C   UNL     1      -4.566  -9.004 -48.632  1.00  0.00     0.000 C 
ATOM      5  C   UNL     1      -3.032  -9.005 -48.730  1.00  0.00     0.004 C 
ENDBRANCH   3   4
BRANCH   3   6
ATOM      6  C   UNL     1      -6.539  -9.635 -47.092  1.00  0.00    -0.014 C 
ATOM      7  C   UNL     1      -6.750 -10.618 -45.922  1.00  0.00     0.007 C 
ATOM      8  C   UNL     1      -7.593  -8.508 -47.049  1.00  0.00     0.007 C 
ENDBRANCH   3   6
ENDBRANCH   2   3
ENDBRANCH   1   2
BRANCH   1   9
ATOM      9  C   UNL     1      -4.329  -8.677 -43.984  1.00  0.00    -0.011 C 
ATOM     10  C   UNL     1      -5.249  -7.689 -43.227  1.00  0.00     0.008 C 
BRANCH   9  11
ATOM     11  C   UNL     1      -3.184  -9.314 -43.109  1.00  0.00    -0.002 C 
ATOM     12  C   UNL     1      -2.604  -8.308 -42.098  1.00  0.00     0.005 C 
ATOM     13  C   UNL     1      -3.529 -10.591 -42.259  1.00  0.00    -0.026 C 
ATOM     14  C   UNL     1      -3.091  -8.724 -40.712  1.00  0.00     0.005 C 
ATOM     15  C   UNL     1      -3.934  -9.999 -40.880  1.00  0.00    -0.001 C 
ATOM     16  C   UNL     1      -2.241 -11.461 -42.118  1.00  0.00     0.007 C 
ATOM     17  C   UNL     1      -4.636 -11.466 -42.917  1.00  0.00     0.012 C 
ATOM     18  C   UNL     1      -3.801 -10.936 -39.641  1.00  0.00     0.000 C 
ATOM     19  C   UNL     1      -2.284 -12.469 -40.960  1.00  0.00     0.005 C 
ATOM     20  C   UNL     1      -2.474 -11.741 -39.611  1.00  0.00     0.003 C 
ATOM     21  C   UNL     1      -5.023 -11.859 -39.502  1.00  0.00     0.031 C 
ATOM     22  C   UNL     1      -2.367 -12.649 -38.307  1.00  0.00    -0.008 C 
ATOM     23  C   UNL     1      -4.900 -12.782 -38.333  1.00  0.00    -0.027 C 
ATOM     24  C   UNL     1      -3.722 -13.205 -37.835  1.00  0.00    -0.065 C 
ATOM     25  C   UNL     1      -1.812 -11.766 -37.138  1.00  0.00     0.014 C 
ATOM     26  C   UNL     1      -1.384 -13.829 -38.543  1.00  0.00     0.016 C 
ATOM     27  C   UNL     1      -3.740 -13.956 -36.522  1.00  0.00     0.063 C 
ATOM     28  C   UNL     1      -1.843 -12.451 -35.753  1.00  0.00     0.033 C 
ATOM     29  C   UNL     1      -3.242 -13.014 -35.418  1.00  0.00     0.118 C 
BRANCH  29  30
ATOM     30  O   UNL     1      -3.233 -13.674 -34.177  1.00  0.00    -0.393 OA
ATOM     31  H   UNL     1      -2.374 -13.463 -33.730  1.00  0.00     0.210 HD
ENDBRANCH  29  30
ENDBRANCH   9  11
ENDBRANCH   1   9
TORSDOF 7
ENDMDL
MODEL 5
REMARK VINA RESULT:    -5.565     10.479     14.552
REMARK INTER + INTRA:          -9.036
REMARK INTER:                  -7.285
REMARK INTRA:                  -1.751
REMARK UNBOUND:                -1.357
REMARK SMILES CC[C@@H](CC[C@H](C)[C@H]1CC[C@@H]2[C@H]3CC=C4C[C@@H](O)CC[C@]4(C)[C@H]3CC[C@@]21C)C(C)C
REMARK SMILES IDX 5 1 4 2 3 3 2 4 1 5 28 6 29 7 30 8 6 9 7 10 8 11 9 12 26 13
REMARK SMILES IDX 10 14 11 15 25 16 27 17 12 18 24 19 23 20 13 21 21 22 14 23
REMARK SMILES IDX 15 24 20 25 22 26 16 27 19 28 17 29 18 30
REMARK H PARENT 18 31
REMARK Flexibility Score: inf
ROOT
ATOM      1  C   UNL     1      -0.356 -26.052 -43.376  1.00  0.00     0.004 C 
ENDROOT
BRANCH   1   2
ATOM      2  C   UNL     1      -0.414 -26.387 -44.882  1.00  0.00     0.004 C 
BRANCH   2   3
ATOM      3  C   UNL     1      -0.069 -25.160 -45.780  1.00  0.00    -0.009 C 
BRANCH   3   4
ATOM      4  C   UNL     1      -1.301 -24.739 -46.637  1.00  0.00     0.000 C 
ATOM      5  C   UNL     1      -1.982 -25.955 -47.286  1.00  0.00     0.004 C 
ENDBRANCH   3   4
BRANCH   3   6
ATOM      6  C   UNL     1       1.199 -25.381 -46.682  1.00  0.00    -0.014 C 
ATOM      7  C   UNL     1       2.323 -24.389 -46.317  1.00  0.00     0.007 C 
ATOM      8  C   UNL     1       1.738 -26.827 -46.698  1.00  0.00     0.007 C 
ENDBRANCH   3   6
ENDBRANCH   2   3
ENDBRANCH   1   2
BRANCH   1   9
ATOM      9  C   UNL     1       0.533 -24.806 -43.078  1.00  0.00    -0.011 C 
ATOM     10  C   UNL     1       1.903 -25.264 -42.522  1.00  0.00     0.008 C 
BRANCH   9  11
ATOM     11  C   UNL     1      -0.232 -23.767 -42.174  1.00  0.00    -0.002 C 
ATOM     12  C   UNL     1       0.134 -23.920 -40.686  1.00  0.00     0.005 C 
ATOM     13  C   UNL     1      -0.041 -22.237 -42.484  1.00  0.00    -0.026 C 
ATOM     14  C   UNL     1       1.004 -22.724 -40.306  1.00  0.00     0.005 C 
ATOM     15  C   UNL     1       1.135 -21.831 -41.552  1.00  0.00    -0.001 C 
ATOM     16  C   UNL     1      -1.342 -21.478 -42.077  1.00  0.00     0.007 C 
ATOM     17  C   UNL     1       0.229 -21.963 -43.992  1.00  0.00     0.012 C 
ATOM     18  C   UNL     1       1.243 -20.326 -41.164  1.00  0.00     0.000 C 
ATOM     19  C   UNL     1      -1.156 -19.967 -41.879  1.00  0.00     0.005 C 
ATOM     20  C   UNL     1      -0.117 -19.686 -40.771  1.00  0.00     0.003 C 
ATOM     21  C   UNL     1       1.951 -19.513 -42.261  1.00  0.00     0.031 C 
ATOM     22  C   UNL     1       0.053 -18.162 -40.342  1.00  0.00    -0.008 C 
ATOM     23  C   UNL     1       2.040 -18.062 -41.916  1.00  0.00    -0.027 C 
ATOM     24  C   UNL     1       1.156 -17.426 -41.122  1.00  0.00    -0.065 C 
ATOM     25  C   UNL     1       0.465 -18.120 -38.831  1.00  0.00     0.014 C 
ATOM     26  C   UNL     1      -1.289 -17.396 -40.509  1.00  0.00     0.016 C 
ATOM     27  C   UNL     1       1.490 -16.017 -40.681  1.00  0.00     0.063 C 
ATOM     28  C   UNL     1       0.866 -16.717 -38.321  1.00  0.00     0.033 C 
ATOM     29  C   UNL     1       1.940 -16.061 -39.215  1.00  0.00     0.118 C 
BRANCH  29  30
ATOM     30  O   UNL     1       2.252 -14.769 -38.760  1.00  0.00    -0.393 OA
ATOM     31  H   UNL     1       1.885 -14.676 -37.843  1.00  0.00     0.210 HD
ENDBRANCH  29  30
ENDBRANCH   9  11
ENDBRANCH   1   9
TORSDOF 7
ENDMDL
MODEL 6
REMARK VINA RESULT:    -5.461     10.310     13.122
REMARK INTER + INTRA:          -8.892
REMARK INTER:                  -6.653
REMARK INTRA:                  -2.239
REMARK UNBOUND:                -1.357
REMARK SMILES CC[C@@H](CC[C@H](C)[C@H]1CC[C@@H]2[C@H]3CC=C4C[C@@H](O)CC[C@]4(C)[C@H]3CC[C@@]21C)C(C)C
REMARK SMILES IDX 5 1 4 2 3 3 2 4 1 5 28 6 29 7 30 8 6 9 7 10 8 11 9 12 26 13
REMARK SMILES IDX 10 14 11 15 25 16 27 17 12 18 24 19 23 20 13 21 21 22 14 23
REMARK SMILES IDX 15 24 20 25 22 26 16 27 19 28 17 29 18 30
REMARK H PARENT 18 31
REMARK Flexibility Score: inf
ROOT
ATOM      1  C   UNL     1       0.966 -18.574 -39.310  1.00  0.00     0.004 C 
ENDROOT
BRANCH   1   2
ATOM      2  C   UNL     1      -0.420 -19.040 -38.816  1.00  0.00     0.004 C 
BRANCH   2   3
ATOM      3  C   UNL     1      -1.422 -17.858 -38.649  1.00  0.00    -0.009 C 
BRANCH   3   4
ATOM      4  C   UNL     1      -2.868 -18.301 -39.027  1.00  0.00     0.000 C 
ATOM      5  C   UNL     1      -2.947 -19.813 -39.296  1.00  0.00     0.004 C 
ENDBRANCH   3   4
BRANCH   3   6
ATOM      6  C   UNL     1      -1.003 -16.565 -39.438  1.00  0.00    -0.014 C 
ATOM      7  C   UNL     1      -1.884 -16.364 -40.688  1.00  0.00     0.007 C 
ATOM      8  C   UNL     1      -0.963 -15.275 -38.591  1.00  0.00     0.007 C 
ENDBRANCH   3   6
ENDBRANCH   2   3
ENDBRANCH   1   2
BRANCH   1   9
ATOM      9  C   UNL     1       1.257 -19.023 -40.775  1.00  0.00    -0.011 C 
ATOM     10  C   UNL     1       1.698 -17.802 -41.616  1.00  0.00     0.008 C 
BRANCH   9  11
ATOM     11  C   UNL     1       0.043 -19.831 -41.371  1.00  0.00    -0.002 C 
ATOM     12  C   UNL     1      -0.479 -19.205 -42.677  1.00  0.00     0.005 C 
ATOM     13  C   UNL     1       0.262 -21.351 -41.709  1.00  0.00    -0.026 C 
ATOM     14  C   UNL     1      -0.063 -20.126 -43.822  1.00  0.00     0.005 C 
ATOM     15  C   UNL     1       0.679 -21.324 -43.206  1.00  0.00    -0.001 C 
ATOM     16  C   UNL     1      -1.095 -22.102 -41.537  1.00  0.00     0.007 C 
ATOM     17  C   UNL     1       1.311 -22.025 -40.776  1.00  0.00     0.012 C 
ATOM     18  C   UNL     1       0.440 -22.625 -44.030  1.00  0.00     0.000 C 
ATOM     19  C   UNL     1      -1.163 -23.456 -42.260  1.00  0.00     0.005 C 
ATOM     20  C   UNL     1      -0.948 -23.274 -43.779  1.00  0.00     0.003 C 
ATOM     21  C   UNL     1       1.580 -23.637 -43.824  1.00  0.00     0.031 C 
ATOM     22  C   UNL     1      -1.161 -24.573 -44.675  1.00  0.00    -0.008 C 
ATOM     23  C   UNL     1       1.354 -24.901 -44.589  1.00  0.00    -0.027 C 
ATOM     24  C   UNL     1       0.133 -25.373 -44.910  1.00  0.00    -0.065 C 
ATOM     25  C   UNL     1      -1.671 -24.120 -46.085  1.00  0.00     0.014 C 
ATOM     26  C   UNL     1      -2.229 -25.505 -44.039  1.00  0.00     0.016 C 
ATOM     27  C   UNL     1       0.057 -26.540 -45.870  1.00  0.00     0.063 C 
ATOM     28  C   UNL     1      -1.730 -25.252 -47.134  1.00  0.00     0.033 C 
ATOM     29  C   UNL     1      -0.391 -26.014 -47.239  1.00  0.00     0.118 C 
BRANCH  29  30
ATOM     30  O   UNL     1      -0.484 -27.068 -48.163  1.00  0.00    -0.393 OA
ATOM     31  H   UNL     1      -1.304 -27.584 -47.950  1.00  0.00     0.210 HD
ENDBRANCH  29  30
ENDBRANCH   9  11
ENDBRANCH   1   9
TORSDOF 7
ENDMDL
MODEL 7
REMARK VINA RESULT:    -5.434     10.551     14.653
REMARK INTER + INTRA:          -8.855
REMARK INTER:                  -6.720
REMARK INTRA:                  -2.135
REMARK UNBOUND:                -1.357
REMARK SMILES CC[C@@H](CC[C@H](C)[C@H]1CC[C@@H]2[C@H]3CC=C4C[C@@H](O)CC[C@]4(C)[C@H]3CC[C@@]21C)C(C)C
REMARK SMILES IDX 5 1 4 2 3 3 2 4 1 5 28 6 29 7 30 8 6 9 7 10 8 11 9 12 26 13
REMARK SMILES IDX 10 14 11 15 25 16 27 17 12 18 24 19 23 20 13 21 21 22 14 23
REMARK SMILES IDX 15 24 20 25 22 26 16 27 19 28 17 29 18 30
REMARK H PARENT 18 31
REMARK Flexibility Score: inf
ROOT
ATOM      1  C   UNL     1      -0.134 -25.834 -43.628  1.00  0.00     0.004 C 
ENDROOT
BRANCH   1   2
ATOM      2  C   UNL     1       1.380 -25.947 -43.343  1.00  0.00     0.004 C 
BRANCH   2   3
ATOM      3  C   UNL     1       2.191 -26.390 -44.599  1.00  0.00    -0.009 C 
BRANCH   3   4
ATOM      4  C   UNL     1       3.682 -25.951 -44.476  1.00  0.00     0.000 C 
ATOM      5  C   UNL     1       3.968 -25.286 -43.120  1.00  0.00     0.004 C 
ENDBRANCH   3   4
BRANCH   3   6
ATOM      6  C   UNL     1       1.567 -25.896 -45.954  1.00  0.00    -0.014 C 
ATOM      7  C   UNL     1       2.337 -24.682 -46.513  1.00  0.00     0.007 C 
ATOM      8  C   UNL     1       1.422 -26.989 -47.035  1.00  0.00     0.007 C 
ENDBRANCH   3   6
ENDBRANCH   2   3
ENDBRANCH   1   2
BRANCH   1   9
ATOM      9  C   UNL     1      -0.647 -24.364 -43.542  1.00  0.00    -0.011 C 
ATOM     10  C   UNL     1      -1.671 -24.103 -44.672  1.00  0.00     0.008 C 
BRANCH   9  11
ATOM     11  C   UNL     1       0.555 -23.347 -43.495  1.00  0.00    -0.002 C 
ATOM     12  C   UNL     1       0.434 -22.261 -44.580  1.00  0.00     0.005 C 
ATOM     13  C   UNL     1       0.802 -22.558 -42.157  1.00  0.00    -0.026 C 
ATOM     14  C   UNL     1       0.067 -20.955 -43.878  1.00  0.00     0.005 C 
ATOM     15  C   UNL     1       0.001 -21.242 -42.369  1.00  0.00    -0.001 C 
ATOM     16  C   UNL     1       2.327 -22.250 -42.032  1.00  0.00     0.007 C 
ATOM     17  C   UNL     1       0.365 -23.364 -40.899  1.00  0.00     0.012 C 
ATOM     18  C   UNL     1       0.443 -20.003 -41.535  1.00  0.00     0.000 C 
ATOM     19  C   UNL     1       2.663 -21.114 -41.054  1.00  0.00     0.005 C 
ATOM     20  C   UNL     1       1.982 -19.798 -41.492  1.00  0.00     0.003 C 
ATOM     21  C   UNL     1      -0.159 -20.035 -40.119  1.00  0.00     0.031 C 
ATOM     22  C   UNL     1       2.380 -18.497 -40.666  1.00  0.00    -0.008 C 
ATOM     23  C   UNL     1       0.275 -18.865 -39.297  1.00  0.00    -0.027 C 
ATOM     24  C   UNL     1       1.442 -18.215 -39.479  1.00  0.00    -0.065 C 
ATOM     25  C   UNL     1       2.280 -17.259 -41.620  1.00  0.00     0.014 C 
ATOM     26  C   UNL     1       3.841 -18.605 -40.148  1.00  0.00     0.016 C 
ATOM     27  C   UNL     1       1.653 -16.920 -38.725  1.00  0.00     0.063 C 
ATOM     28  C   UNL     1       2.439 -15.895 -40.912  1.00  0.00     0.033 C 
ATOM     29  C   UNL     1       1.483 -15.754 -39.707  1.00  0.00     0.118 C 
BRANCH  29  30
ATOM     30  O   UNL     1       1.680 -14.528 -39.051  1.00  0.00    -0.393 OA
ATOM     31  H   UNL     1       1.325 -14.618 -38.130  1.00  0.00     0.210 HD
ENDBRANCH  29  30
ENDBRANCH   9  11
ENDBRANCH   1   9
TORSDOF 7
ENDMDL
MODEL 8
REMARK VINA RESULT:    -5.401      3.830      9.264
REMARK INTER + INTRA:          -8.810
REMARK INTER:                  -7.181
REMARK INTRA:                  -1.630
REMARK UNBOUND:                -1.357
REMARK SMILES CC[C@@H](CC[C@H](C)[C@H]1CC[C@@H]2[C@H]3CC=C4C[C@@H](O)CC[C@]4(C)[C@H]3CC[C@@]21C)C(C)C
REMARK SMILES IDX 5 1 4 2 3 3 2 4 1 5 28 6 29 7 30 8 6 9 7 10 8 11 9 12 26 13
REMARK SMILES IDX 10 14 11 15 25 16 27 17 12 18 24 19 23 20 13 21 21 22 14 23
REMARK SMILES IDX 15 24 20 25 22 26 16 27 19 28 17 29 18 30
REMARK H PARENT 18 31
REMARK Flexibility Score: inf
ROOT
ATOM      1  C   UNL     1      -4.767 -11.671 -42.959  1.00  0.00     0.004 C 
ENDROOT
BRANCH   1   2
ATOM      2  C   UNL     1      -5.069 -10.158 -42.904  1.00  0.00     0.004 C 
BRANCH   2   3
ATOM      3  C   UNL     1      -4.000  -9.309 -43.658  1.00  0.00    -0.009 C 
BRANCH   3   4
ATOM      4  C   UNL     1      -3.138  -8.487 -42.653  1.00  0.00     0.000 C 
ATOM      5  C   UNL     1      -1.781  -9.160 -42.388  1.00  0.00     0.004 C 
ENDBRANCH   3   4
BRANCH   3   6
ATOM      6  C   UNL     1      -4.609  -8.381 -44.771  1.00  0.00    -0.014 C 
ATOM      7  C   UNL     1      -3.506  -7.584 -45.497  1.00  0.00     0.007 C 
ATOM      8  C   UNL     1      -5.514  -9.104 -45.792  1.00  0.00     0.007 C 
ENDBRANCH   3   6
ENDBRANCH   2   3
ENDBRANCH   1   2
BRANCH   1   9
ATOM      9  C   UNL     1      -5.081 -12.388 -41.611  1.00  0.00    -0.011 C 
ATOM     10  C   UNL     1      -6.573 -12.799 -41.574  1.00  0.00     0.008 C 
BRANCH   9  11
ATOM     11  C   UNL     1      -4.606 -11.522 -40.383  1.00  0.00    -0.002 C 
ATOM     12  C   UNL     1      -5.659 -11.488 -39.261  1.00  0.00     0.005 C 
ATOM     13  C   UNL     1      -3.264 -11.925 -39.670  1.00  0.00    -0.026 C 
ATOM     14  C   UNL     1      -5.127 -12.343 -38.112  1.00  0.00     0.005 C 
ATOM     15  C   UNL     1      -3.740 -12.863 -38.525  1.00  0.00    -0.001 C 
ATOM     16  C   UNL     1      -2.606 -10.639 -39.079  1.00  0.00     0.007 C 
ATOM     17  C   UNL     1      -2.246 -12.588 -40.644  1.00  0.00     0.012 C 
ATOM     18  C   UNL     1      -2.797 -13.010 -37.293  1.00  0.00     0.000 C 
ATOM     19  C   UNL     1      -1.568 -10.910 -37.980  1.00  0.00     0.005 C 
ATOM     20  C   UNL     1      -2.212 -11.661 -36.794  1.00  0.00     0.003 C 
ATOM     21  C   UNL     1      -1.687 -14.042 -37.556  1.00  0.00     0.031 C 
ATOM     22  C   UNL     1      -1.292 -11.859 -35.510  1.00  0.00    -0.008 C 
ATOM     23  C   UNL     1      -0.759 -14.177 -36.393  1.00  0.00    -0.027 C 
ATOM     24  C   UNL     1      -0.513 -13.186 -35.514  1.00  0.00    -0.065 C 
ATOM     25  C   UNL     1      -2.214 -11.883 -34.244  1.00  0.00     0.014 C 
ATOM     26  C   UNL     1      -0.291 -10.679 -35.369  1.00  0.00     0.016 C 
ATOM     27  C   UNL     1       0.273 -13.527 -34.266  1.00  0.00     0.063 C 
ATOM     28  C   UNL     1      -1.489 -12.271 -32.936  1.00  0.00     0.033 C 
ATOM     29  C   UNL     1      -0.700 -13.591 -33.082  1.00  0.00     0.118 C 
BRANCH  29  30
ATOM     30  O   UNL     1      -0.011 -13.898 -31.897  1.00  0.00    -0.393 OA
ATOM     31  H   UNL     1      -0.064 -13.105 -31.304  1.00  0.00     0.210 HD
ENDBRANCH  29  30
ENDBRANCH   9  11
ENDBRANCH   1   9
TORSDOF 7
ENDMDL
MODEL 9
REMARK VINA RESULT:    -5.257     11.177     14.942
REMARK INTER + INTRA:          -8.611
REMARK INTER:                  -6.346
REMARK INTRA:                  -2.265
REMARK UNBOUND:                -1.357
REMARK SMILES CC[C@@H](CC[C@H](C)[C@H]1CC[C@@H]2[C@H]3CC=C4C[C@@H](O)CC[C@]4(C)[C@H]3CC[C@@]21C)C(C)C
REMARK SMILES IDX 5 1 4 2 3 3 2 4 1 5 28 6 29 7 30 8 6 9 7 10 8 11 9 12 26 13
REMARK SMILES IDX 10 14 11 15 25 16 27 17 12 18 24 19 23 20 13 21 21 22 14 23
REMARK SMILES IDX 15 24 20 25 22 26 16 27 19 28 17 29 18 30
REMARK H PARENT 18 31
REMARK Flexibility Score: inf
ROOT
ATOM      1  C   UNL     1       1.399 -26.353 -44.990  1.00  0.00     0.004 C 
ENDROOT
BRANCH   1   2
ATOM      2  C   UNL     1       0.176 -26.894 -44.217  1.00  0.00     0.004 C 
BRANCH   2   3
ATOM      3  C   UNL     1      -1.063 -27.110 -45.138  1.00  0.00    -0.009 C 
BRANCH   3   4
ATOM      4  C   UNL     1      -0.926 -26.282 -46.452  1.00  0.00     0.000 C 
ATOM      5  C   UNL     1      -1.264 -27.125 -47.692  1.00  0.00     0.004 C 
ENDBRANCH   3   4
BRANCH   3   6
ATOM      6  C   UNL     1      -2.432 -26.817 -44.425  1.00  0.00    -0.014 C 
ATOM      7  C   UNL     1      -2.286 -26.878 -42.891  1.00  0.00     0.007 C 
ATOM      8  C   UNL     1      -3.115 -25.500 -44.852  1.00  0.00     0.007 C 
ENDBRANCH   3   6
ENDBRANCH   2   3
ENDBRANCH   1   2
BRANCH   1   9
ATOM      9  C   UNL     1       1.931 -25.013 -44.398  1.00  0.00    -0.011 C 
ATOM     10  C   UNL     1       3.456 -25.117 -44.158  1.00  0.00     0.008 C 
BRANCH   9  11
ATOM     11  C   UNL     1       1.094 -24.580 -43.135  1.00  0.00    -0.002 C 
ATOM     12  C   UNL     1       1.992 -24.309 -41.914  1.00  0.00     0.005 C 
ATOM     13  C   UNL     1       0.180 -23.306 -43.257  1.00  0.00    -0.026 C 
ATOM     14  C   UNL     1       2.012 -22.799 -41.689  1.00  0.00     0.005 C 
ATOM     15  C   UNL     1       1.099 -22.160 -42.750  1.00  0.00    -0.001 C 
ATOM     16  C   UNL     1      -1.046 -23.478 -42.305  1.00  0.00     0.007 C 
ATOM     17  C   UNL     1      -0.355 -23.091 -44.703  1.00  0.00     0.012 C 
ATOM     18  C   UNL     1       0.399 -20.881 -42.202  1.00  0.00     0.000 C 
ATOM     19  C   UNL     1      -1.765 -22.166 -41.960  1.00  0.00     0.005 C 
ATOM     20  C   UNL     1      -0.799 -21.182 -41.261  1.00  0.00     0.003 C 
ATOM     21  C   UNL     1      -0.005 -19.930 -43.342  1.00  0.00     0.031 C 
ATOM     22  C   UNL     1      -1.453 -19.846 -40.694  1.00  0.00    -0.008 C 
ATOM     23  C   UNL     1      -0.701 -18.709 -42.834  1.00  0.00    -0.027 C 
ATOM     24  C   UNL     1      -1.416 -18.675 -41.693  1.00  0.00    -0.065 C 
ATOM     25  C   UNL     1      -0.632 -19.392 -39.439  1.00  0.00     0.014 C 
ATOM     26  C   UNL     1      -2.922 -20.100 -40.258  1.00  0.00     0.016 C 
ATOM     27  C   UNL     1      -1.880 -17.325 -41.190  1.00  0.00     0.063 C 
ATOM     28  C   UNL     1      -1.019 -17.998 -38.897  1.00  0.00     0.033 C 
ATOM     29  C   UNL     1      -0.997 -16.920 -40.003  1.00  0.00     0.118 C 
BRANCH  29  30
ATOM     30  O   UNL     1      -1.399 -15.673 -39.496  1.00  0.00    -0.393 OA
ATOM     31  H   UNL     1      -1.774 -15.822 -38.591  1.00  0.00     0.210 HD
ENDBRANCH  29  30
ENDBRANCH   9  11
ENDBRANCH   1   9
TORSDOF 7
ENDMDL
