MODEL 1
REMARK VINA RESULT:    -8.206      0.000      0.000
REMARK INTER + INTRA:          -8.686
REMARK INTER:                  -8.686
REMARK INTRA:                   0.000
REMARK UNBOUND:                 0.000
REMARK SMILES C[C@H]1CC[C@@H]2[N@H+](C1)C[C@@H]1[C@@H]3C[C@H]4[C@H](CC(=O)[C@H]5C[C@@H](O)CC[C@]54C)[C@H]3CC[C@H]1[C@]2(C)O
REMARK SMILES IDX 5 1 6 2 8 3 7 4 4 5 29 6 3 7 28 8 30 9 2 10 27 11 9 12 1 13
REMARK SMILES IDX 26 14 10 15 25 16 11 17 13 18 12 19 14 20 23 21 15 22 17 23
REMARK SMILES IDX 22 24 24 25 16 26 18 27 21 28 19 29 31 31 20 33
REMARK H PARENT 6 30 31 32 20 34
REMARK Flexibility Score: inf
ROOT
ATOM      1  C   UNL     1     261.499 -25.894  60.620  1.00  0.00     0.216 C 
ATOM      2  N   UNL     1     261.022 -26.334  59.271  1.00  0.00    -0.330 N 
ATOM      3  C   UNL     1     261.973 -26.059  58.144  1.00  0.00     0.266 C 
ATOM      4  C   UNL     1     260.559 -27.742  59.275  1.00  0.00     0.265 C 
ATOM      5  C   UNL     1     260.409 -26.129  61.705  1.00  0.00     0.069 C 
ATOM      6  C   UNL     1     262.937 -26.434  61.020  1.00  0.00     0.117 C 
ATOM      7  C   UNL     1     259.799 -27.539  61.669  1.00  0.00     0.015 C 
ATOM      8  C   UNL     1     263.789 -26.694  59.734  1.00  0.00     0.036 C 
ATOM      9  C   UNL     1     263.616 -25.386  61.943  1.00  0.00     0.049 C 
ATOM     10  C   UNL     1     259.379 -27.932  60.248  1.00  0.00     0.041 C 
ATOM     11  C   UNL     1     265.332 -26.769  59.921  1.00  0.00     0.007 C 
ATOM     12  C   UNL     1     263.392 -25.690  58.619  1.00  0.00     0.054 C 
ATOM     13  C   UNL     1     258.869 -29.377  60.217  1.00  0.00     0.013 C 
ATOM     14  C   UNL     1     266.060 -27.217  58.621  1.00  0.00     0.004 C 
ATOM     15  C   UNL     1     264.481 -25.619  57.510  1.00  0.00     0.002 C 
ATOM     16  C   UNL     1     265.219 -26.936  57.355  1.00  0.00    -0.004 C 
ATOM     17  C   UNL     1     264.096 -25.256  56.083  1.00  0.00     0.009 C 
ATOM     18  C   UNL     1     265.996 -26.804  56.024  1.00  0.00     0.003 C 
ATOM     19  C   UNL     1     265.392 -25.564  55.307  1.00  0.00    -0.000 C 
ATOM     20  C   UNL     1     265.892 -28.081  55.198  1.00  0.00     0.080 C 
ATOM     21  C   UNL     1     265.336 -25.535  53.710  1.00  0.00    -0.020 C 
ATOM     22  C   UNL     1     266.542 -27.870  53.876  1.00  0.00     0.136 C 
ATOM     23  C   UNL     1     266.271 -26.634  53.042  1.00  0.00     0.065 C 
ATOM     24  C   UNL     1     263.879 -25.602  53.110  1.00  0.00     0.010 C 
ATOM     25  C   UNL     1     265.886 -24.144  53.269  1.00  0.00     0.012 C 
ATOM     26  O   UNL     1     267.349 -28.698  53.480  1.00  0.00    -0.299 OA
ATOM     27  C   UNL     1     265.748 -27.055  51.649  1.00  0.00     0.043 C 
ATOM     28  C   UNL     1     263.420 -27.020  52.763  1.00  0.00     0.032 C 
ATOM     29  C   UNL     1     264.335 -27.681  51.703  1.00  0.00     0.115 C 
ATOM     30  H   UNL     1     260.173 -25.756  59.058  1.00  0.00     0.348 HD
ENDROOT
BRANCH   6  31
ATOM     31  O   UNL     1     262.804 -27.647  61.728  1.00  0.00    -0.384 OA
ATOM     32  H   UNL     1     263.712 -27.938  62.014  1.00  0.00     0.211 HD
ENDBRANCH   6  31
BRANCH  29  33
ATOM     33  O   UNL     1     264.440 -29.058  51.954  1.00  0.00    -0.393 OA
ATOM     34  H   UNL     1     263.514 -29.405  52.049  1.00  0.00     0.210 HD
ENDBRANCH  29  33
TORSDOF 2
ENDMDL
MODEL 2
REMARK VINA RESULT:    -7.801      3.245      4.482
REMARK INTER + INTRA:          -8.257
REMARK INTER:                  -8.257
REMARK INTRA:                   0.000
REMARK UNBOUND:                 0.000
REMARK SMILES C[C@H]1CC[C@@H]2[N@H+](C1)C[C@@H]1[C@@H]3C[C@H]4[C@H](CC(=O)[C@H]5C[C@@H](O)CC[C@]54C)[C@H]3CC[C@H]1[C@]2(C)O
REMARK SMILES IDX 5 1 6 2 8 3 7 4 4 5 29 6 3 7 28 8 30 9 2 10 27 11 9 12 1 13
REMARK SMILES IDX 26 14 10 15 25 16 11 17 13 18 12 19 14 20 23 21 15 22 17 23
REMARK SMILES IDX 22 24 24 25 16 26 18 27 21 28 19 29 31 31 20 33
REMARK H PARENT 6 30 31 32 20 34
REMARK Flexibility Score: inf
ROOT
ATOM      1  C   UNL     1     262.974 -26.513  56.953  1.00  0.00     0.216 C 
ATOM      2  N   UNL     1     262.777 -27.127  55.602  1.00  0.00    -0.330 N 
ATOM      3  C   UNL     1     264.029 -27.639  54.953  1.00  0.00     0.266 C 
ATOM      4  C   UNL     1     261.698 -28.143  55.604  1.00  0.00     0.265 C 
ATOM      5  C   UNL     1     261.642 -25.925  57.502  1.00  0.00     0.069 C 
ATOM      6  C   UNL     1     263.751 -27.432  57.989  1.00  0.00     0.117 C 
ATOM      7  C   UNL     1     260.455 -26.896  57.405  1.00  0.00     0.015 C 
ATOM      8  C   UNL     1     264.703 -28.411  57.228  1.00  0.00     0.036 C 
ATOM      9  C   UNL     1     264.544 -26.515  58.959  1.00  0.00     0.049 C 
ATOM     10  C   UNL     1     260.350 -27.516  56.007  1.00  0.00     0.041 C 
ATOM     11  C   UNL     1     265.862 -29.043  58.053  1.00  0.00     0.007 C 
ATOM     12  C   UNL     1     265.221 -27.747  55.924  1.00  0.00     0.054 C 
ATOM     13  C   UNL     1     259.225 -28.556  55.963  1.00  0.00     0.013 C 
ATOM     14  C   UNL     1     266.625 -30.137  57.253  1.00  0.00     0.004 C 
ATOM     15  C   UNL     1     266.477 -28.483  55.376  1.00  0.00     0.002 C 
ATOM     16  C   UNL     1     266.466 -29.960  55.725  1.00  0.00    -0.004 C 
ATOM     17  C   UNL     1     266.779 -28.473  53.885  1.00  0.00     0.009 C 
ATOM     18  C   UNL     1     267.567 -30.588  54.839  1.00  0.00     0.003 C 
ATOM     19  C   UNL     1     267.913 -29.510  53.774  1.00  0.00    -0.000 C 
ATOM     20  C   UNL     1     267.097 -31.903  54.229  1.00  0.00     0.080 C 
ATOM     21  C   UNL     1     268.368 -29.974  52.313  1.00  0.00    -0.020 C 
ATOM     22  C   UNL     1     268.132 -32.409  53.286  1.00  0.00     0.136 C 
ATOM     23  C   UNL     1     268.782 -31.508  52.255  1.00  0.00     0.065 C 
ATOM     24  C   UNL     1     267.333 -29.631  51.172  1.00  0.00     0.010 C 
ATOM     25  C   UNL     1     269.642 -29.147  51.959  1.00  0.00     0.012 C 
ATOM     26  O   UNL     1     268.495 -33.572  53.382  1.00  0.00    -0.299 OA
ATOM     27  C   UNL     1     268.571 -32.101  50.843  1.00  0.00     0.043 C 
ATOM     28  C   UNL     1     266.360 -30.769  50.862  1.00  0.00     0.032 C 
ATOM     29  C   UNL     1     267.095 -32.046  50.384  1.00  0.00     0.115 C 
ATOM     30  H   UNL     1     262.441 -26.356  54.977  1.00  0.00     0.348 HD
ENDROOT
BRANCH   6  31
ATOM     31  O   UNL     1     262.822 -28.189  58.734  1.00  0.00    -0.384 OA
ATOM     32  H   UNL     1     262.555 -27.653  59.529  1.00  0.00     0.211 HD
ENDBRANCH   6  31
BRANCH  29  33
ATOM     33  O   UNL     1     266.417 -33.187  50.841  1.00  0.00    -0.393 OA
ATOM     34  H   UNL     1     266.549 -33.895  50.156  1.00  0.00     0.210 HD
ENDBRANCH  29  33
TORSDOF 2
ENDMDL
MODEL 3
REMARK VINA RESULT:    -7.767      2.816      3.942
REMARK INTER + INTRA:          -8.221
REMARK INTER:                  -8.221
REMARK INTRA:                   0.000
REMARK UNBOUND:                 0.000
REMARK SMILES C[C@H]1CC[C@@H]2[N@H+](C1)C[C@@H]1[C@@H]3C[C@H]4[C@H](CC(=O)[C@H]5C[C@@H](O)CC[C@]54C)[C@H]3CC[C@H]1[C@]2(C)O
REMARK SMILES IDX 5 1 6 2 8 3 7 4 4 5 29 6 3 7 28 8 30 9 2 10 27 11 9 12 1 13
REMARK SMILES IDX 26 14 10 15 25 16 11 17 13 18 12 19 14 20 23 21 15 22 17 23
REMARK SMILES IDX 22 24 24 25 16 26 18 27 21 28 19 29 31 31 20 33
REMARK H PARENT 6 30 31 32 20 34
REMARK Flexibility Score: inf
ROOT
ATOM      1  C   UNL     1     261.614 -27.142  56.749  1.00  0.00     0.216 C 
ATOM      2  N   UNL     1     261.642 -27.218  55.254  1.00  0.00    -0.330 N 
ATOM      3  C   UNL     1     263.012 -27.173  54.645  1.00  0.00     0.266 C 
ATOM      4  C   UNL     1     260.844 -28.356  54.739  1.00  0.00     0.265 C 
ATOM      5  C   UNL     1     260.152 -27.096  57.281  1.00  0.00     0.069 C 
ATOM      6  C   UNL     1     262.536 -28.206  57.482  1.00  0.00     0.117 C 
ATOM      7  C   UNL     1     259.243 -28.178  56.676  1.00  0.00     0.015 C 
ATOM      8  C   UNL     1     263.736 -28.601  56.560  1.00  0.00     0.036 C 
ATOM      9  C   UNL     1     263.031 -27.589  58.818  1.00  0.00     0.049 C 
ATOM     10  C   UNL     1     259.365 -28.222  55.149  1.00  0.00     0.041 C 
ATOM     11  C   UNL     1     264.969 -29.247  57.255  1.00  0.00     0.007 C 
ATOM     12  C   UNL     1     264.143 -27.397  55.669  1.00  0.00     0.054 C 
ATOM     13  C   UNL     1     258.530 -29.374  54.576  1.00  0.00     0.013 C 
ATOM     14  C   UNL     1     266.016 -29.770  56.230  1.00  0.00     0.004 C 
ATOM     15  C   UNL     1     265.567 -27.591  55.074  1.00  0.00     0.002 C 
ATOM     16  C   UNL     1     265.898 -29.057  54.863  1.00  0.00    -0.004 C 
ATOM     17  C   UNL     1     265.934 -26.949  53.744  1.00  0.00     0.009 C 
ATOM     18  C   UNL     1     267.163 -29.058  53.972  1.00  0.00     0.003 C 
ATOM     19  C   UNL     1     267.291 -27.608  53.426  1.00  0.00    -0.000 C 
ATOM     20  C   UNL     1     267.059 -30.105  52.870  1.00  0.00     0.080 C 
ATOM     21  C   UNL     1     267.919 -27.372  51.975  1.00  0.00    -0.020 C 
ATOM     22  C   UNL     1     268.233 -29.986  51.963  1.00  0.00     0.136 C 
ATOM     23  C   UNL     1     268.696 -28.646  51.427  1.00  0.00     0.065 C 
ATOM     24  C   UNL     1     266.893 -26.840  50.902  1.00  0.00     0.010 C 
ATOM     25  C   UNL     1     268.970 -26.230  52.125  1.00  0.00     0.012 C 
ATOM     26  O   UNL     1     268.862 -30.996  51.683  1.00  0.00    -0.299 OA
ATOM     27  C   UNL     1     268.709 -28.683  49.882  1.00  0.00     0.043 C 
ATOM     28  C   UNL     1     266.243 -27.946  50.070  1.00  0.00     0.032 C 
ATOM     29  C   UNL     1     267.291 -28.761  49.272  1.00  0.00     0.115 C 
ATOM     30  H   UNL     1     261.161 -26.353  54.908  1.00  0.00     0.348 HD
ENDROOT
BRANCH   6  31
ATOM     31  O   UNL     1     261.783 -29.364  57.766  1.00  0.00    -0.384 OA
ATOM     32  H   UNL     1     262.074 -30.082  57.141  1.00  0.00     0.211 HD
ENDBRANCH   6  31
BRANCH  29  33
ATOM     33  O   UNL     1     266.888 -30.104  49.188  1.00  0.00    -0.393 OA
ATOM     34  H   UNL     1     266.141 -30.140  48.533  1.00  0.00     0.210 HD
ENDBRANCH  29  33
TORSDOF 2
ENDMDL
MODEL 4
REMARK VINA RESULT:    -7.682     13.824     15.874
REMARK INTER + INTRA:          -8.132
REMARK INTER:                  -8.132
REMARK INTRA:                   0.000
REMARK UNBOUND:                 0.000
REMARK SMILES C[C@H]1CC[C@@H]2[N@H+](C1)C[C@@H]1[C@@H]3C[C@H]4[C@H](CC(=O)[C@H]5C[C@@H](O)CC[C@]54C)[C@H]3CC[C@H]1[C@]2(C)O
REMARK SMILES IDX 5 1 6 2 8 3 7 4 4 5 29 6 3 7 28 8 30 9 2 10 27 11 9 12 1 13
REMARK SMILES IDX 26 14 10 15 25 16 11 17 13 18 12 19 14 20 23 21 15 22 17 23
REMARK SMILES IDX 22 24 24 25 16 26 18 27 21 28 19 29 31 31 20 33
REMARK H PARENT 6 30 31 32 20 34
REMARK Flexibility Score: inf
ROOT
ATOM      1  C   UNL     1     250.908 -23.417  51.626  1.00  0.00     0.216 C 
ATOM      2  N   UNL     1     251.644 -24.391  50.759  1.00  0.00    -0.330 N 
ATOM      3  C   UNL     1     251.440 -24.202  49.285  1.00  0.00     0.266 C 
ATOM      4  C   UNL     1     253.081 -24.478  51.113  1.00  0.00     0.265 C 
ATOM      5  C   UNL     1     251.101 -23.752  53.134  1.00  0.00     0.069 C 
ATOM      6  C   UNL     1     251.157 -21.892  51.265  1.00  0.00     0.117 C 
ATOM      7  C   UNL     1     252.568 -23.983  53.529  1.00  0.00     0.015 C 
ATOM      8  C   UNL     1     251.515 -21.751  49.749  1.00  0.00     0.036 C 
ATOM      9  C   UNL     1     249.875 -21.089  51.617  1.00  0.00     0.049 C 
ATOM     10  C   UNL     1     253.262 -24.953  52.567  1.00  0.00     0.041 C 
ATOM     11  C   UNL     1     251.334 -20.342  49.115  1.00  0.00     0.007 C 
ATOM     12  C   UNL     1     250.792 -22.850  48.925  1.00  0.00     0.054 C 
ATOM     13  C   UNL     1     254.748 -25.089  52.919  1.00  0.00     0.013 C 
ATOM     14  C   UNL     1     251.896 -20.272  47.666  1.00  0.00     0.004 C 
ATOM     15  C   UNL     1     250.763 -22.494  47.412  1.00  0.00     0.002 C 
ATOM     16  C   UNL     1     251.967 -21.666  47.001  1.00  0.00    -0.004 C 
ATOM     17  C   UNL     1     250.718 -23.599  46.367  1.00  0.00     0.009 C 
ATOM     18  C   UNL     1     251.963 -21.695  45.454  1.00  0.00     0.003 C 
ATOM     19  C   UNL     1     250.969 -22.823  45.059  1.00  0.00    -0.000 C 
ATOM     20  C   UNL     1     253.367 -21.916  44.905  1.00  0.00     0.080 C 
ATOM     21  C   UNL     1     251.232 -23.663  43.725  1.00  0.00    -0.020 C 
ATOM     22  C   UNL     1     253.302 -22.065  43.426  1.00  0.00     0.136 C 
ATOM     23  C   UNL     1     252.286 -22.969  42.758  1.00  0.00     0.065 C 
ATOM     24  C   UNL     1     251.612 -25.174  43.973  1.00  0.00     0.010 C 
ATOM     25  C   UNL     1     249.876 -23.714  42.955  1.00  0.00     0.012 C 
ATOM     26  O   UNL     1     254.063 -21.402  42.736  1.00  0.00    -0.299 OA
ATOM     27  C   UNL     1     253.017 -24.006  41.875  1.00  0.00     0.043 C 
ATOM     28  C   UNL     1     253.120 -25.428  44.027  1.00  0.00     0.032 C 
ATOM     29  C   UNL     1     253.820 -25.038  42.702  1.00  0.00     0.115 C 
ATOM     30  H   UNL     1     251.240 -25.335  50.972  1.00  0.00     0.348 HD
ENDROOT
BRANCH   6  31
ATOM     31  O   UNL     1     252.231 -21.396  52.033  1.00  0.00    -0.384 OA
ATOM     32  H   UNL     1     253.076 -21.602  51.549  1.00  0.00     0.211 HD
ENDBRANCH   6  31
BRANCH  29  33
ATOM     33  O   UNL     1     255.101 -24.530  42.970  1.00  0.00    -0.393 OA
ATOM     34  H   UNL     1     255.714 -25.311  43.025  1.00  0.00     0.210 HD
ENDBRANCH  29  33
TORSDOF 2
ENDMDL
MODEL 5
REMARK VINA RESULT:    -7.521      3.003      8.488
REMARK INTER + INTRA:          -7.960
REMARK INTER:                  -7.960
REMARK INTRA:                   0.000
REMARK UNBOUND:                 0.000
REMARK SMILES C[C@H]1CC[C@@H]2[N@H+](C1)C[C@@H]1[C@@H]3C[C@H]4[C@H](CC(=O)[C@H]5C[C@@H](O)CC[C@]54C)[C@H]3CC[C@H]1[C@]2(C)O
REMARK SMILES IDX 5 1 6 2 8 3 7 4 4 5 29 6 3 7 28 8 30 9 2 10 27 11 9 12 1 13
REMARK SMILES IDX 26 14 10 15 25 16 11 17 13 18 12 19 14 20 23 21 15 22 17 23
REMARK SMILES IDX 22 24 24 25 16 26 18 27 21 28 19 29 31 31 20 33
REMARK H PARENT 6 30 31 32 20 34
REMARK Flexibility Score: inf
ROOT
ATOM      1  C   UNL     1     267.404 -29.724  52.002  1.00  0.00     0.216 C 
ATOM      2  N   UNL     1     266.855 -28.369  52.323  1.00  0.00    -0.330 N 
ATOM      3  C   UNL     1     265.924 -28.327  53.499  1.00  0.00     0.266 C 
ATOM      4  C   UNL     1     267.921 -27.344  52.423  1.00  0.00     0.265 C 
ATOM      5  C   UNL     1     268.276 -29.685  50.714  1.00  0.00     0.069 C 
ATOM      6  C   UNL     1     268.092 -30.464  53.227  1.00  0.00     0.117 C 
ATOM      7  C   UNL     1     269.315 -28.553  50.708  1.00  0.00     0.015 C 
ATOM      8  C   UNL     1     267.463 -29.974  54.572  1.00  0.00     0.036 C 
ATOM      9  C   UNL     1     267.905 -31.995  53.042  1.00  0.00     0.049 C 
ATOM     10  C   UNL     1     268.683 -27.210  51.091  1.00  0.00     0.041 C 
ATOM     11  C   UNL     1     267.660 -30.892  55.813  1.00  0.00     0.007 C 
ATOM     12  C   UNL     1     265.970 -29.605  54.360  1.00  0.00     0.054 C 
ATOM     13  C   UNL     1     269.755 -26.117  51.179  1.00  0.00     0.013 C 
ATOM     14  C   UNL     1     267.162 -30.222  57.125  1.00  0.00     0.004 C 
ATOM     15  C   UNL     1     265.207 -29.538  55.713  1.00  0.00     0.002 C 
ATOM     16  C   UNL     1     266.114 -29.118  56.855  1.00  0.00    -0.004 C 
ATOM     17  C   UNL     1     263.999 -28.626  55.866  1.00  0.00     0.009 C 
ATOM     18  C   UNL     1     265.157 -28.773  58.021  1.00  0.00     0.003 C 
ATOM     19  C   UNL     1     263.743 -28.673  57.385  1.00  0.00    -0.000 C 
ATOM     20  C   UNL     1     265.588 -27.492  58.725  1.00  0.00     0.080 C 
ATOM     21  C   UNL     1     262.680 -27.650  58.001  1.00  0.00    -0.020 C 
ATOM     22  C   UNL     1     264.575 -27.128  59.753  1.00  0.00     0.136 C 
ATOM     23  C   UNL     1     263.091 -27.133  59.447  1.00  0.00     0.065 C 
ATOM     24  C   UNL     1     262.323 -26.438  57.055  1.00  0.00     0.010 C 
ATOM     25  C   UNL     1     261.344 -28.437  58.163  1.00  0.00     0.012 C 
ATOM     26  O   UNL     1     264.955 -26.862  60.883  1.00  0.00    -0.299 OA
ATOM     27  C   UNL     1     262.497 -25.736  59.742  1.00  0.00     0.043 C 
ATOM     28  C   UNL     1     263.168 -25.189  57.310  1.00  0.00     0.032 C 
ATOM     29  C   UNL     1     262.990 -24.654  58.753  1.00  0.00     0.115 C 
ATOM     30  H   UNL     1     266.267 -28.089  51.500  1.00  0.00     0.348 HD
ENDROOT
BRANCH   6  31
ATOM     31  O   UNL     1     269.472 -30.171  53.238  1.00  0.00    -0.384 OA
ATOM     32  H   UNL     1     269.736 -29.968  54.177  1.00  0.00     0.211 HD
ENDBRANCH   6  31
BRANCH  29  33
ATOM     33  O   UNL     1     264.201 -24.112  59.214  1.00  0.00    -0.393 OA
ATOM     34  H   UNL     1     264.207 -24.221  60.202  1.00  0.00     0.210 HD
ENDBRANCH  29  33
TORSDOF 2
ENDMDL
MODEL 6
REMARK VINA RESULT:    -7.452      7.366     11.318
REMARK INTER + INTRA:          -7.888
REMARK INTER:                  -7.888
REMARK INTRA:                   0.000
REMARK UNBOUND:                 0.000
REMARK SMILES C[C@H]1CC[C@@H]2[N@H+](C1)C[C@@H]1[C@@H]3C[C@H]4[C@H](CC(=O)[C@H]5C[C@@H](O)CC[C@]54C)[C@H]3CC[C@H]1[C@]2(C)O
REMARK SMILES IDX 5 1 6 2 8 3 7 4 4 5 29 6 3 7 28 8 30 9 2 10 27 11 9 12 1 13
REMARK SMILES IDX 26 14 10 15 25 16 11 17 13 18 12 19 14 20 23 21 15 22 17 23
REMARK SMILES IDX 22 24 24 25 16 26 18 27 21 28 19 29 31 31 20 33
REMARK H PARENT 6 30 31 32 20 34
REMARK Flexibility Score: inf
ROOT
ATOM      1  C   UNL     1     268.307 -29.333  51.573  1.00  0.00     0.216 C 
ATOM      2  N   UNL     1     267.432 -28.928  50.428  1.00  0.00    -0.330 N 
ATOM      3  C   UNL     1     267.713 -29.639  49.137  1.00  0.00     0.266 C 
ATOM      4  C   UNL     1     265.993 -28.972  50.783  1.00  0.00     0.265 C 
ATOM      5  C   UNL     1     268.009 -28.476  52.838  1.00  0.00     0.069 C 
ATOM      6  C   UNL     1     268.354 -30.896  51.848  1.00  0.00     0.117 C 
ATOM      7  C   UNL     1     266.513 -28.378  53.176  1.00  0.00     0.015 C 
ATOM      8  C   UNL     1     268.074 -31.682  50.525  1.00  0.00     0.036 C 
ATOM      9  C   UNL     1     269.750 -31.250  52.429  1.00  0.00     0.049 C 
ATOM     10  C   UNL     1     265.682 -28.006  51.942  1.00  0.00     0.041 C 
ATOM     11  C   UNL     1     268.531 -33.169  50.484  1.00  0.00     0.007 C 
ATOM     12  C   UNL     1     268.609 -30.882  49.306  1.00  0.00     0.054 C 
ATOM     13  C   UNL     1     264.187 -28.015  52.278  1.00  0.00     0.013 C 
ATOM     14  C   UNL     1     268.037 -33.901  49.204  1.00  0.00     0.004 C 
ATOM     15  C   UNL     1     268.750 -31.791  48.053  1.00  0.00     0.002 C 
ATOM     16  C   UNL     1     267.732 -32.917  48.051  1.00  0.00    -0.004 C 
ATOM     17  C   UNL     1     268.624 -31.196  46.658  1.00  0.00     0.009 C 
ATOM     18  C   UNL     1     267.778 -33.496  46.617  1.00  0.00     0.003 C 
ATOM     19  C   UNL     1     268.560 -32.454  45.770  1.00  0.00    -0.000 C 
ATOM     20  C   UNL     1     266.375 -33.766  46.088  1.00  0.00     0.080 C 
ATOM     21  C   UNL     1     268.189 -32.266  44.226  1.00  0.00    -0.020 C 
ATOM     22  C   UNL     1     266.457 -34.200  44.667  1.00  0.00     0.136 C 
ATOM     23  C   UNL     1     267.311 -33.462  43.655  1.00  0.00     0.065 C 
ATOM     24  C   UNL     1     267.529 -30.875  43.881  1.00  0.00     0.010 C 
ATOM     25  C   UNL     1     269.535 -32.276  43.439  1.00  0.00     0.012 C 
ATOM     26  O   UNL     1     265.854 -35.206  44.324  1.00  0.00    -0.299 OA
ATOM     27  C   UNL     1     266.429 -33.005  42.470  1.00  0.00     0.043 C 
ATOM     28  C   UNL     1     266.000 -30.898  43.898  1.00  0.00     0.032 C 
ATOM     29  C   UNL     1     265.425 -31.896  42.862  1.00  0.00     0.115 C 
ATOM     30  H   UNL     1     267.648 -27.920  50.237  1.00  0.00     0.348 HD
ENDROOT
BRANCH   6  31
ATOM     31  O   UNL     1     267.366 -31.237  52.795  1.00  0.00    -0.384 OA
ATOM     32  H   UNL     1     266.766 -31.916  52.383  1.00  0.00     0.211 HD
ENDBRANCH   6  31
BRANCH  29  33
ATOM     33  O   UNL     1     264.251 -32.480  43.364  1.00  0.00    -0.393 OA
ATOM     34  H   UNL     1     263.922 -31.887  44.090  1.00  0.00     0.210 HD
ENDBRANCH  29  33
TORSDOF 2
ENDMDL
MODEL 7
REMARK VINA RESULT:    -7.433      3.653      8.557
REMARK INTER + INTRA:          -7.868
REMARK INTER:                  -7.868
REMARK INTRA:                   0.000
REMARK UNBOUND:                 0.000
REMARK SMILES C[C@H]1CC[C@@H]2[N@H+](C1)C[C@@H]1[C@@H]3C[C@H]4[C@H](CC(=O)[C@H]5C[C@@H](O)CC[C@]54C)[C@H]3CC[C@H]1[C@]2(C)O
REMARK SMILES IDX 5 1 6 2 8 3 7 4 4 5 29 6 3 7 28 8 30 9 2 10 27 11 9 12 1 13
REMARK SMILES IDX 26 14 10 15 25 16 11 17 13 18 12 19 14 20 23 21 15 22 17 23
REMARK SMILES IDX 22 24 24 25 16 26 18 27 21 28 19 29 31 31 20 33
REMARK H PARENT 6 30 31 32 20 34
REMARK Flexibility Score: inf
ROOT
ATOM      1  C   UNL     1     268.296 -30.759  51.989  1.00  0.00     0.216 C 
ATOM      2  N   UNL     1     267.827 -31.025  53.386  1.00  0.00    -0.330 N 
ATOM      3  C   UNL     1     267.180 -29.856  54.068  1.00  0.00     0.266 C 
ATOM      4  C   UNL     1     266.994 -32.248  53.471  1.00  0.00     0.265 C 
ATOM      5  C   UNL     1     269.040 -31.994  51.402  1.00  0.00     0.069 C 
ATOM      6  C   UNL     1     267.190 -30.151  51.026  1.00  0.00     0.117 C 
ATOM      7  C   UNL     1     268.275 -33.315  51.583  1.00  0.00     0.015 C 
ATOM      8  C   UNL     1     266.137 -29.348  51.857  1.00  0.00     0.036 C 
ATOM      9  C   UNL     1     267.895 -29.243  49.981  1.00  0.00     0.049 C 
ATOM     10  C   UNL     1     267.790 -33.489  53.026  1.00  0.00     0.041 C 
ATOM     11  C   UNL     1     265.271 -28.316  51.079  1.00  0.00     0.007 C 
ATOM     12  C   UNL     1     266.813 -28.712  53.101  1.00  0.00     0.054 C 
ATOM     13  C   UNL     1     266.943 -34.760  53.159  1.00  0.00     0.013 C 
ATOM     14  C   UNL     1     264.138 -27.717  51.960  1.00  0.00     0.004 C 
ATOM     15  C   UNL     1     265.936 -27.575  53.700  1.00  0.00     0.002 C 
ATOM     16  C   UNL     1     264.456 -27.819  53.469  1.00  0.00    -0.004 C 
ATOM     17  C   UNL     1     266.015 -27.249  55.184  1.00  0.00     0.009 C 
ATOM     18  C   UNL     1     263.735 -26.813  54.397  1.00  0.00     0.003 C 
ATOM     19  C   UNL     1     264.826 -26.286  55.371  1.00  0.00    -0.000 C 
ATOM     20  C   UNL     1     262.560 -27.469  55.112  1.00  0.00     0.080 C 
ATOM     21  C   UNL     1     264.413 -25.883  56.862  1.00  0.00    -0.020 C 
ATOM     22  C   UNL     1     261.975 -26.509  56.087  1.00  0.00     0.136 C 
ATOM     23  C   UNL     1     262.842 -25.710  57.040  1.00  0.00     0.065 C 
ATOM     24  C   UNL     1     264.999 -26.832  57.978  1.00  0.00     0.010 C 
ATOM     25  C   UNL     1     265.057 -24.491  57.142  1.00  0.00     0.012 C 
ATOM     26  O   UNL     1     260.766 -26.331  56.082  1.00  0.00    -0.299 OA
ATOM     27  C   UNL     1     262.401 -25.985  58.496  1.00  0.00     0.043 C 
ATOM     28  C   UNL     1     264.053 -27.964  58.382  1.00  0.00     0.032 C 
ATOM     29  C   UNL     1     262.720 -27.426  58.957  1.00  0.00     0.115 C 
ATOM     30  H   UNL     1     268.688 -31.227  53.950  1.00  0.00     0.348 HD
ENDROOT
BRANCH   6  31
ATOM     31  O   UNL     1     266.531 -31.198  50.349  1.00  0.00    -0.384 OA
ATOM     32  H   UNL     1     266.767 -32.054  50.799  1.00  0.00     0.211 HD
ENDBRANCH   6  31
BRANCH  29  33
ATOM     33  O   UNL     1     261.665 -28.280  58.595  1.00  0.00    -0.393 OA
ATOM     34  H   UNL     1     262.016 -29.208  58.646  1.00  0.00     0.210 HD
ENDBRANCH  29  33
TORSDOF 2
ENDMDL
MODEL 8
REMARK VINA RESULT:    -7.169      3.084      4.896
REMARK INTER + INTRA:          -7.588
REMARK INTER:                  -7.588
REMARK INTRA:                   0.000
REMARK UNBOUND:                 0.000
REMARK SMILES C[C@H]1CC[C@@H]2[N@H+](C1)C[C@@H]1[C@@H]3C[C@H]4[C@H](CC(=O)[C@H]5C[C@@H](O)CC[C@]54C)[C@H]3CC[C@H]1[C@]2(C)O
REMARK SMILES IDX 5 1 6 2 8 3 7 4 4 5 29 6 3 7 28 8 30 9 2 10 27 11 9 12 1 13
REMARK SMILES IDX 26 14 10 15 25 16 11 17 13 18 12 19 14 20 23 21 15 22 17 23
REMARK SMILES IDX 22 24 24 25 16 26 18 27 21 28 19 29 31 31 20 33
REMARK H PARENT 6 30 31 32 20 34
REMARK Flexibility Score: inf
ROOT
ATOM      1  C   UNL     1     262.734 -27.103  59.352  1.00  0.00     0.216 C 
ATOM      2  N   UNL     1     263.465 -25.802  59.473  1.00  0.00    -0.330 N 
ATOM      3  C   UNL     1     264.214 -25.382  58.242  1.00  0.00     0.266 C 
ATOM      4  C   UNL     1     262.595 -24.719  59.989  1.00  0.00     0.265 C 
ATOM      5  C   UNL     1     262.073 -27.502  60.703  1.00  0.00     0.069 C 
ATOM      6  C   UNL     1     261.760 -27.199  58.102  1.00  0.00     0.117 C 
ATOM      7  C   UNL     1     261.263 -26.368  61.351  1.00  0.00     0.015 C 
ATOM      8  C   UNL     1     262.271 -26.271  56.951  1.00  0.00     0.036 C 
ATOM      9  C   UNL     1     261.696 -28.681  57.643  1.00  0.00     0.049 C 
ATOM     10  C   UNL     1     262.064 -25.062  61.394  1.00  0.00     0.041 C 
ATOM     11  C   UNL     1     261.741 -26.574  55.520  1.00  0.00     0.007 C 
ATOM     12  C   UNL     1     263.821 -26.183  56.985  1.00  0.00     0.054 C 
ATOM     13  C   UNL     1     261.203 -23.921  61.949  1.00  0.00     0.013 C 
ATOM     14  C   UNL     1     262.160 -25.483  54.494  1.00  0.00     0.004 C 
ATOM     15  C   UNL     1     264.385 -25.649  55.638  1.00  0.00     0.002 C 
ATOM     16  C   UNL     1     263.415 -24.704  54.951  1.00  0.00    -0.004 C 
ATOM     17  C   UNL     1     265.702 -24.889  55.608  1.00  0.00     0.009 C 
ATOM     18  C   UNL     1     264.244 -24.016  53.841  1.00  0.00     0.003 C 
ATOM     19  C   UNL     1     265.730 -24.337  54.169  1.00  0.00    -0.000 C 
ATOM     20  C   UNL     1     263.953 -22.521  53.784  1.00  0.00     0.080 C 
ATOM     21  C   UNL     1     266.860 -23.270  53.794  1.00  0.00    -0.020 C 
ATOM     22  C   UNL     1     264.861 -21.878  52.795  1.00  0.00     0.136 C 
ATOM     23  C   UNL     1     266.349 -22.166  52.771  1.00  0.00     0.065 C 
ATOM     24  C   UNL     1     267.556 -22.597  55.039  1.00  0.00     0.010 C 
ATOM     25  C   UNL     1     267.998 -24.059  53.078  1.00  0.00     0.012 C 
ATOM     26  O   UNL     1     264.378 -21.135  51.953  1.00  0.00    -0.299 OA
ATOM     27  C   UNL     1     267.134 -20.843  52.922  1.00  0.00     0.043 C 
ATOM     28  C   UNL     1     266.920 -21.271  55.459  1.00  0.00     0.032 C 
ATOM     29  C   UNL     1     266.985 -20.215  54.328  1.00  0.00     0.115 C 
ATOM     30  H   UNL     1     264.203 -25.948  60.204  1.00  0.00     0.348 HD
ENDROOT
BRANCH   6  31
ATOM     31  O   UNL     1     260.467 -26.782  58.480  1.00  0.00    -0.384 OA
ATOM     32  H   UNL     1     259.842 -27.004  57.738  1.00  0.00     0.211 HD
ENDBRANCH   6  31
BRANCH  29  33
ATOM     33  O   UNL     1     265.837 -19.407  54.363  1.00  0.00    -0.393 OA
ATOM     34  H   UNL     1     265.282 -19.661  53.579  1.00  0.00     0.210 HD
ENDBRANCH  29  33
TORSDOF 2
ENDMDL
MODEL 9
REMARK VINA RESULT:    -7.067      4.200      6.882
REMARK INTER + INTRA:          -7.480
REMARK INTER:                  -7.480
REMARK INTRA:                   0.000
REMARK UNBOUND:                 0.000
REMARK SMILES C[C@H]1CC[C@@H]2[N@H+](C1)C[C@@H]1[C@@H]3C[C@H]4[C@H](CC(=O)[C@H]5C[C@@H](O)CC[C@]54C)[C@H]3CC[C@H]1[C@]2(C)O
REMARK SMILES IDX 5 1 6 2 8 3 7 4 4 5 29 6 3 7 28 8 30 9 2 10 27 11 9 12 1 13
REMARK SMILES IDX 26 14 10 15 25 16 11 17 13 18 12 19 14 20 23 21 15 22 17 23
REMARK SMILES IDX 22 24 24 25 16 26 18 27 21 28 19 29 31 31 20 33
REMARK H PARENT 6 30 31 32 20 34
REMARK Flexibility Score: inf
ROOT
ATOM      1  C   UNL     1     264.292 -25.092  55.901  1.00  0.00     0.216 C 
ATOM      2  N   UNL     1     265.717 -25.483  55.656  1.00  0.00    -0.330 N 
ATOM      3  C   UNL     1     265.903 -26.852  55.071  1.00  0.00     0.266 C 
ATOM      4  C   UNL     1     266.456 -24.449  54.895  1.00  0.00     0.265 C 
ATOM      5  C   UNL     1     264.204 -23.703  56.597  1.00  0.00     0.069 C 
ATOM      6  C   UNL     1     263.340 -25.245  54.639  1.00  0.00     0.117 C 
ATOM      7  C   UNL     1     265.061 -22.621  55.923  1.00  0.00     0.015 C 
ATOM      8  C   UNL     1     263.882 -26.363  53.690  1.00  0.00     0.036 C 
ATOM      9  C   UNL     1     261.909 -25.578  55.143  1.00  0.00     0.049 C 
ATOM     10  C   UNL     1     266.489 -23.115  55.666  1.00  0.00     0.041 C 
ATOM     11  C   UNL     1     262.871 -26.972  52.677  1.00  0.00     0.007 C 
ATOM     12  C   UNL     1     264.600 -27.463  54.518  1.00  0.00     0.054 C 
ATOM     13  C   UNL     1     267.295 -22.059  54.901  1.00  0.00     0.013 C 
ATOM     14  C   UNL     1     263.558 -27.931  51.664  1.00  0.00     0.004 C 
ATOM     15  C   UNL     1     264.763 -28.772  53.695  1.00  0.00     0.002 C 
ATOM     16  C   UNL     1     264.891 -28.496  52.208  1.00  0.00    -0.004 C 
ATOM     17  C   UNL     1     265.920 -29.718  53.981  1.00  0.00     0.009 C 
ATOM     18  C   UNL     1     265.379 -29.829  51.594  1.00  0.00     0.003 C 
ATOM     19  C   UNL     1     265.843 -30.699  52.795  1.00  0.00    -0.000 C 
ATOM     20  C   UNL     1     266.479 -29.591  50.567  1.00  0.00     0.080 C 
ATOM     21  C   UNL     1     267.048 -31.730  52.594  1.00  0.00    -0.020 C 
ATOM     22  C   UNL     1     267.008 -30.900  50.095  1.00  0.00     0.136 C 
ATOM     23  C   UNL     1     267.367 -32.011  51.062  1.00  0.00     0.065 C 
ATOM     24  C   UNL     1     268.363 -31.354  53.378  1.00  0.00     0.010 C 
ATOM     25  C   UNL     1     266.585 -33.083  53.215  1.00  0.00     0.012 C 
ATOM     26  O   UNL     1     267.109 -31.093  48.893  1.00  0.00    -0.299 OA
ATOM     27  C   UNL     1     268.844 -32.420  50.854  1.00  0.00     0.043 C 
ATOM     28  C   UNL     1     269.364 -30.545  52.550  1.00  0.00     0.032 C 
ATOM     29  C   UNL     1     269.838 -31.321  51.297  1.00  0.00     0.115 C 
ATOM     30  H   UNL     1     266.174 -25.525  56.599  1.00  0.00     0.348 HD
ENDROOT
BRANCH   6  31
ATOM     31  O   UNL     1     263.302 -24.027  53.929  1.00  0.00    -0.384 OA
ATOM     32  H   UNL     1     263.795 -23.345  54.460  1.00  0.00     0.211 HD
ENDBRANCH   6  31
BRANCH  29  33
ATOM     33  O   UNL     1     270.054 -30.427  50.235  1.00  0.00    -0.393 OA
ATOM     34  H   UNL     1     270.184 -29.528  50.639  1.00  0.00     0.210 HD
ENDBRANCH  29  33
TORSDOF 2
ENDMDL
