MODEL 1
REMARK VINA RESULT:    -1.783      0.000      0.000
REMARK INTER + INTRA:          -1.887
REMARK INTER:                  -1.887
REMARK INTRA:                   0.000
REMARK UNBOUND:                 0.000
REMARK SMILES C[C@@H]1CC[C@H]2[N@H+](C1)C[C@H]1[C@@H]3C[C@@H]4[C@@H](CC(=O)[C@H]5C[C@H](O)CC[C@@]54C)[C@@H]3CC[C@@H]1[C@@]2(C)O
REMARK SMILES IDX 5 1 6 2 8 3 7 4 4 5 29 6 3 7 28 8 30 9 2 10 27 11 9 12 1 13
REMARK SMILES IDX 26 14 10 15 25 16 11 17 13 18 12 19 14 20 23 21 15 22 17 23
REMARK SMILES IDX 22 24 24 25 16 26 18 27 21 28 19 29 31 31 20 33
REMARK H PARENT 6 30 31 32 20 34
REMARK Flexibility Score: inf
ROOT
ATOM      1  C   UNL     1      -0.108   4.622   7.392  1.00  0.00     0.216 C 
ATOM      2  N   UNL     1      -0.346   5.476   8.593  1.00  0.00    -0.330 N 
ATOM      3  C   UNL     1      -1.737   6.015   8.656  1.00  0.00     0.266 C 
ATOM      4  C   UNL     1      -0.086   4.743   9.861  1.00  0.00     0.265 C 
ATOM      5  C   UNL     1       1.311   3.980   7.426  1.00  0.00     0.069 C 
ATOM      6  C   UNL     1      -0.326   5.424   6.040  1.00  0.00     0.117 C 
ATOM      7  C   UNL     1       1.580   3.241   8.733  1.00  0.00     0.015 C 
ATOM      8  C   UNL     1      -1.349   6.598   6.249  1.00  0.00     0.036 C 
ATOM      9  C   UNL     1      -0.801   4.417   4.955  1.00  0.00     0.049 C 
ATOM     10  C   UNL     1       1.328   4.143   9.945  1.00  0.00     0.041 C 
ATOM     11  C   UNL     1      -2.021   7.105   4.960  1.00  0.00     0.007 C 
ATOM     12  C   UNL     1      -2.418   6.205   7.280  1.00  0.00     0.054 C 
ATOM     13  C   UNL     1       2.412   5.218  10.125  1.00  0.00     0.013 C 
ATOM     14  C   UNL     1      -2.826   8.392   5.198  1.00  0.00     0.004 C 
ATOM     15  C   UNL     1      -3.602   7.225   7.369  1.00  0.00     0.002 C 
ATOM     16  C   UNL     1      -3.393   8.552   6.642  1.00  0.00    -0.004 C 
ATOM     17  C   UNL     1      -4.929   6.703   6.825  1.00  0.00     0.009 C 
ATOM     18  C   UNL     1      -4.807   9.174   6.613  1.00  0.00     0.003 C 
ATOM     19  C   UNL     1      -5.786   7.956   6.492  1.00  0.00    -0.000 C 
ATOM     20  C   UNL     1      -5.054  10.125   7.827  1.00  0.00     0.080 C 
ATOM     21  C   UNL     1      -7.103   8.127   7.330  1.00  0.00    -0.020 C 
ATOM     22  C   UNL     1      -5.749   9.489   9.004  1.00  0.00     0.136 C 
ATOM     23  C   UNL     1      -6.707   8.333   8.829  1.00  0.00     0.065 C 
ATOM     24  C   UNL     1      -8.020   6.867   7.233  1.00  0.00     0.010 C 
ATOM     25  C   UNL     1      -7.908   9.337   6.734  1.00  0.00     0.012 C 
ATOM     26  O   UNL     1      -5.520   9.917  10.125  1.00  0.00    -0.299 OA
ATOM     27  C   UNL     1      -7.934   8.428   9.769  1.00  0.00     0.043 C 
ATOM     28  C   UNL     1      -9.259   6.993   8.138  1.00  0.00     0.032 C 
ATOM     29  C   UNL     1      -8.865   7.212   9.611  1.00  0.00     0.115 C 
ATOM     30  H   UNL     1       0.309   6.292   8.547  1.00  0.00     0.348 HD
ENDROOT
BRANCH   6  31
ATOM     31  O   UNL     1       0.903   5.988   5.632  1.00  0.00    -0.384 OA
ATOM     32  H   UNL     1       1.564   5.871   6.362  1.00  0.00     0.211 HD
ENDBRANCH   6  31
BRANCH  29  33
ATOM     33  O   UNL     1      -8.232   6.067  10.125  1.00  0.00    -0.393 OA
ATOM     34  H   UNL     1      -7.983   5.503   9.345  1.00  0.00     0.210 HD
ENDBRANCH  29  33
TORSDOF 2
ENDMDL
MODEL 2
REMARK VINA RESULT:    -0.521      2.824      7.908
REMARK INTER + INTRA:          -0.552
REMARK INTER:                  -0.552
REMARK INTRA:                   0.000
REMARK UNBOUND:                 0.000
REMARK SMILES C[C@@H]1CC[C@H]2[N@H+](C1)C[C@H]1[C@@H]3C[C@@H]4[C@@H](CC(=O)[C@H]5C[C@H](O)CC[C@@]54C)[C@@H]3CC[C@@H]1[C@@]2(C)O
REMARK SMILES IDX 5 1 6 2 8 3 7 4 4 5 29 6 3 7 28 8 30 9 2 10 27 11 9 12 1 13
REMARK SMILES IDX 26 14 10 15 25 16 11 17 13 18 12 19 14 20 23 21 15 22 17 23
REMARK SMILES IDX 22 24 24 25 16 26 18 27 21 28 19 29 31 31 20 33
REMARK H PARENT 6 30 31 32 20 34
REMARK Flexibility Score: inf
ROOT
ATOM      1  C   UNL     1      -7.851   9.242   7.429  1.00  0.00     0.216 C 
ATOM      2  N   UNL     1      -7.361   8.440   8.588  1.00  0.00    -0.330 N 
ATOM      3  C   UNL     1      -5.872   8.332   8.630  1.00  0.00     0.266 C 
ATOM      4  C   UNL     1      -7.812   9.003   9.889  1.00  0.00     0.265 C 
ATOM      5  C   UNL     1      -9.396   9.436   7.488  1.00  0.00     0.069 C 
ATOM      6  C   UNL     1      -7.421   8.606   6.040  1.00  0.00     0.117 C 
ATOM      7  C   UNL     1      -9.857  10.000   8.828  1.00  0.00     0.015 C 
ATOM      8  C   UNL     1      -6.095   7.776   6.196  1.00  0.00     0.036 C 
ATOM      9  C   UNL     1      -7.274   9.758   5.008  1.00  0.00     0.049 C 
ATOM     10  C   UNL     1      -9.339   9.155   9.996  1.00  0.00     0.041 C 
ATOM     11  C   UNL     1      -5.317   7.552   4.888  1.00  0.00     0.007 C 
ATOM     12  C   UNL     1      -5.179   8.416   7.250  1.00  0.00     0.054 C 
ATOM     13  C   UNL     1     -10.057   7.802  10.118  1.00  0.00     0.013 C 
ATOM     14  C   UNL     1      -4.167   6.549   5.066  1.00  0.00     0.004 C 
ATOM     15  C   UNL     1      -3.747   7.787   7.295  1.00  0.00     0.002 C 
ATOM     16  C   UNL     1      -3.564   6.493   6.504  1.00  0.00    -0.004 C 
ATOM     17  C   UNL     1      -2.638   8.701   6.783  1.00  0.00     0.009 C 
ATOM     18  C   UNL     1      -2.029   6.318   6.450  1.00  0.00     0.003 C 
ATOM     19  C   UNL     1      -1.453   7.773   6.393  1.00  0.00    -0.000 C 
ATOM     20  C   UNL     1      -1.502   5.424   7.618  1.00  0.00     0.080 C 
ATOM     21  C   UNL     1      -0.136   7.958   7.228  1.00  0.00    -0.020 C 
ATOM     22  C   UNL     1      -1.012   6.180   8.828  1.00  0.00     0.136 C 
ATOM     23  C   UNL     1      -0.439   7.573   8.713  1.00  0.00     0.065 C 
ATOM     24  C   UNL     1       0.369   9.435   7.196  1.00  0.00     0.010 C 
ATOM     25  C   UNL     1       0.983   7.069   6.578  1.00  0.00     0.012 C 
ATOM     26  O   UNL     1      -1.094   5.650   9.925  1.00  0.00    -0.299 OA
ATOM     27  C   UNL     1       0.771   7.799   9.653  1.00  0.00     0.043 C 
ATOM     28  C   UNL     1       1.599   9.637   8.100  1.00  0.00     0.032 C 
ATOM     29  C   UNL     1       1.302   9.241   9.558  1.00  0.00     0.115 C 
ATOM     30  H   UNL     1      -7.747   7.471   8.499  1.00  0.00     0.348 HD
ENDROOT
BRANCH   6  31
ATOM     31  O   UNL     1      -8.434   7.725   5.600  1.00  0.00    -0.384 OA
ATOM     32  H   UNL     1      -8.915   7.374   6.392  1.00  0.00     0.211 HD
ENDBRANCH   6  31
BRANCH  29  33
ATOM     33  O   UNL     1       0.365  10.123  10.124  1.00  0.00    -0.393 OA
ATOM     34  H   UNL     1      -0.360  10.239   9.454  1.00  0.00     0.210 HD
ENDBRANCH  29  33
TORSDOF 2
ENDMDL
MODEL 3
REMARK VINA RESULT:     1.199      2.047      7.928
REMARK INTER + INTRA:           1.269
REMARK INTER:                   1.269
REMARK INTRA:                   0.000
REMARK UNBOUND:                 0.000
REMARK SMILES C[C@@H]1CC[C@H]2[N@H+](C1)C[C@H]1[C@@H]3C[C@@H]4[C@@H](CC(=O)[C@H]5C[C@H](O)CC[C@@]54C)[C@@H]3CC[C@@H]1[C@@]2(C)O
REMARK SMILES IDX 5 1 6 2 8 3 7 4 4 5 29 6 3 7 28 8 30 9 2 10 27 11 9 12 1 13
REMARK SMILES IDX 26 14 10 15 25 16 11 17 13 18 12 19 14 20 23 21 15 22 17 23
REMARK SMILES IDX 22 24 24 25 16 26 18 27 21 28 19 29 31 31 20 33
REMARK H PARENT 6 30 31 32 20 34
REMARK Flexibility Score: inf
ROOT
ATOM      1  C   UNL     1      -6.934   8.046   9.448  1.00  0.00     0.216 C 
ATOM      2  N   UNL     1      -6.819   6.850   8.563  1.00  0.00    -0.330 N 
ATOM      3  C   UNL     1      -5.416   6.352   8.439  1.00  0.00     0.266 C 
ATOM      4  C   UNL     1      -7.660   5.718   9.039  1.00  0.00     0.265 C 
ATOM      5  C   UNL     1      -8.423   8.459   9.651  1.00  0.00     0.069 C 
ATOM      6  C   UNL     1      -6.084   9.271   8.905  1.00  0.00     0.117 C 
ATOM      7  C   UNL     1      -9.286   7.294  10.125  1.00  0.00     0.015 C 
ATOM      8  C   UNL     1      -4.862   8.767   8.055  1.00  0.00     0.036 C 
ATOM      9  C   UNL     1      -5.637  10.125  10.125  1.00  0.00     0.049 C 
ATOM     10  C   UNL     1      -9.146   6.083   9.197  1.00  0.00     0.041 C 
ATOM     11  C   UNL     1      -3.712   9.779   7.914  1.00  0.00     0.007 C 
ATOM     12  C   UNL     1      -4.328   7.439   8.613  1.00  0.00     0.054 C 
ATOM     13  C   UNL     1      -9.849   6.284   7.845  1.00  0.00     0.013 C 
ATOM     14  C   UNL     1      -2.662   9.320   6.891  1.00  0.00     0.004 C 
ATOM     15  C   UNL     1      -2.973   6.992   7.969  1.00  0.00     0.002 C 
ATOM     16  C   UNL     1      -2.536   7.774   6.731  1.00  0.00    -0.004 C 
ATOM     17  C   UNL     1      -1.772   7.069   8.907  1.00  0.00     0.009 C 
ATOM     18  C   UNL     1      -1.059   7.358   6.547  1.00  0.00     0.003 C 
ATOM     19  C   UNL     1      -0.513   7.133   7.998  1.00  0.00    -0.000 C 
ATOM     20  C   UNL     1      -0.910   6.147   5.570  1.00  0.00     0.080 C 
ATOM     21  C   UNL     1       0.476   5.918   8.113  1.00  0.00    -0.020 C 
ATOM     22  C   UNL     1      -0.832   4.797   6.236  1.00  0.00     0.136 C 
ATOM     23  C   UNL     1      -0.269   4.632   7.629  1.00  0.00     0.065 C 
ATOM     24  C   UNL     1       0.946   5.690   9.584  1.00  0.00     0.010 C 
ATOM     25  C   UNL     1       1.754   6.246   7.260  1.00  0.00     0.012 C 
ATOM     26  O   UNL     1      -1.245   3.818   5.633  1.00  0.00    -0.299 OA
ATOM     27  C   UNL     1       0.584   3.348   7.779  1.00  0.00     0.043 C 
ATOM     28  C   UNL     1       1.831   4.437   9.712  1.00  0.00     0.032 C 
ATOM     29  C   UNL     1       1.099   3.174   9.219  1.00  0.00     0.115 C 
ATOM     30  H   UNL     1      -7.145   7.120   7.606  1.00  0.00     0.348 HD
ENDROOT
BRANCH   6  31
ATOM     31  O   UNL     1      -6.897  10.065   8.066  1.00  0.00    -0.384 OA
ATOM     32  H   UNL     1      -7.609   9.492   7.680  1.00  0.00     0.211 HD
ENDBRANCH   6  31
BRANCH  29  33
ATOM     33  O   UNL     1       0.021   2.870  10.068  1.00  0.00    -0.393 OA
ATOM     34  H   UNL     1      -0.010   3.584  10.759  1.00  0.00     0.210 HD
ENDBRANCH  29  33
TORSDOF 2
ENDMDL
