MODEL 1
REMARK VINA RESULT:    -2.549      0.000      0.000
REMARK INTER + INTRA:          -4.460
REMARK INTER:                  -3.518
REMARK INTRA:                  -0.943
REMARK UNBOUND:                -0.943
REMARK SMILES CC[C@H](CC[C@H](C)[C@@H]1CC[C@@H]2[C@H]3CC=C4C[C@@H](O)CC[C@]4(C)[C@H]3CC[C@@]21C)C(C)C
REMARK SMILES IDX 5 1 4 2 3 3 2 4 1 5 28 6 29 7 30 8 6 9 7 10 8 11 9 12 26 13
REMARK SMILES IDX 10 14 11 15 25 16 27 17 12 18 24 19 23 20 13 21 21 22 14 23
REMARK SMILES IDX 15 24 20 25 22 26 16 27 19 28 17 29 18 30
REMARK H PARENT 18 31
REMARK Flexibility Score: inf
ROOT
ATOM      1  C   UNL     1     -23.402 -16.111 -12.250  1.00  0.00     0.004 C 
ENDROOT
BRANCH   1   2
ATOM      2  C   UNL     1     -22.723 -15.923 -13.628  1.00  0.00     0.004 C 
BRANCH   2   3
ATOM      3  C   UNL     1     -23.266 -14.750 -14.499  1.00  0.00    -0.009 C 
BRANCH   3   4
ATOM      4  C   UNL     1     -22.096 -13.876 -15.028  1.00  0.00     0.000 C 
ATOM      5  C   UNL     1     -20.864 -13.876 -14.117  1.00  0.00     0.004 C 
ENDBRANCH   3   4
BRANCH   3   6
ATOM      6  C   UNL     1     -24.222 -15.248 -15.637  1.00  0.00    -0.014 C 
ATOM      7  C   UNL     1     -23.866 -14.637 -17.003  1.00  0.00     0.007 C 
ATOM      8  C   UNL     1     -25.714 -15.032 -15.332  1.00  0.00     0.007 C 
ENDBRANCH   3   6
ENDBRANCH   2   3
ENDBRANCH   1   2
BRANCH   1   9
ATOM      9  C   UNL     1     -24.622 -17.071 -12.201  1.00  0.00    -0.011 C 
ATOM     10  C   UNL     1     -24.710 -17.717 -10.804  1.00  0.00     0.008 C 
BRANCH   9  11
ATOM     11  C   UNL     1     -24.786 -18.041 -13.439  1.00  0.00    -0.002 C 
ATOM     12  C   UNL     1     -26.214 -18.033 -13.980  1.00  0.00     0.005 C 
ATOM     13  C   UNL     1     -24.361 -19.552 -13.432  1.00  0.00    -0.026 C 
ATOM     14  C   UNL     1     -26.317 -19.216 -14.932  1.00  0.00     0.005 C 
ATOM     15  C   UNL     1     -25.048 -20.068 -14.742  1.00  0.00    -0.001 C 
ATOM     16  C   UNL     1     -24.877 -20.320 -12.182  1.00  0.00     0.007 C 
ATOM     17  C   UNL     1     -22.820 -19.687 -13.527  1.00  0.00     0.012 C 
ATOM     18  C   UNL     1     -25.367 -21.592 -14.845  1.00  0.00     0.000 C 
ATOM     19  C   UNL     1     -25.010 -21.838 -12.366  1.00  0.00     0.005 C 
ATOM     20  C   UNL     1     -25.962 -22.169 -13.542  1.00  0.00     0.003 C 
ATOM     21  C   UNL     1     -24.153 -22.417 -15.308  1.00  0.00     0.031 C 
ATOM     22  C   UNL     1     -26.365 -23.698 -13.708  1.00  0.00    -0.008 C 
ATOM     23  C   UNL     1     -24.466 -23.878 -15.378  1.00  0.00    -0.027 C 
ATOM     24  C   UNL     1     -25.402 -24.481 -14.614  1.00  0.00    -0.065 C 
ATOM     25  C   UNL     1     -27.773 -23.776 -14.384  1.00  0.00     0.014 C 
ATOM     26  C   UNL     1     -26.448 -24.388 -12.320  1.00  0.00     0.016 C 
ATOM     27  C   UNL     1     -25.777 -25.913 -14.940  1.00  0.00     0.063 C 
ATOM     28  C   UNL     1     -28.205 -25.205 -14.786  1.00  0.00     0.033 C 
ATOM     29  C   UNL     1     -27.144 -25.921 -15.640  1.00  0.00     0.118 C 
BRANCH  29  30
ATOM     30  O   UNL     1     -27.558 -27.243 -15.868  1.00  0.00    -0.393 OA
ATOM     31  H   UNL     1     -28.317 -27.415 -15.252  1.00  0.00     0.210 HD
ENDBRANCH  29  30
ENDBRANCH   9  11
ENDBRANCH   1   9
TORSDOF 7
ENDMDL
MODEL 2
REMARK VINA RESULT:    -1.828      1.186      2.378
REMARK INTER + INTRA:          -3.465
REMARK INTER:                  -3.227
REMARK INTRA:                  -0.238
REMARK UNBOUND:                -0.943
REMARK SMILES CC[C@H](CC[C@H](C)[C@@H]1CC[C@@H]2[C@H]3CC=C4C[C@@H](O)CC[C@]4(C)[C@H]3CC[C@@]21C)C(C)C
REMARK SMILES IDX 5 1 4 2 3 3 2 4 1 5 28 6 29 7 30 8 6 9 7 10 8 11 9 12 26 13
REMARK SMILES IDX 10 14 11 15 25 16 27 17 12 18 24 19 23 20 13 21 21 22 14 23
REMARK SMILES IDX 15 24 20 25 22 26 16 27 19 28 17 29 18 30
REMARK H PARENT 18 31
REMARK Flexibility Score: inf
ROOT
ATOM      1  C   UNL     1     -22.985 -15.792 -12.601  1.00  0.00     0.004 C 
ENDROOT
BRANCH   1   2
ATOM      2  C   UNL     1     -21.637 -16.438 -13.000  1.00  0.00     0.004 C 
BRANCH   2   3
ATOM      3  C   UNL     1     -20.543 -15.459 -13.528  1.00  0.00    -0.009 C 
BRANCH   3   4
ATOM      4  C   UNL     1     -21.143 -14.044 -13.757  1.00  0.00     0.000 C 
ATOM      5  C   UNL     1     -21.837 -13.878 -15.111  1.00  0.00     0.004 C 
ENDBRANCH   3   4
BRANCH   3   6
ATOM      6  C   UNL     1     -19.268 -15.445 -12.618  1.00  0.00    -0.014 C 
ATOM      7  C   UNL     1     -18.850 -14.018 -12.225  1.00  0.00     0.007 C 
ATOM      8  C   UNL     1     -18.071 -16.202 -13.218  1.00  0.00     0.007 C 
ENDBRANCH   3   6
ENDBRANCH   2   3
ENDBRANCH   1   2
BRANCH   1   9
ATOM      9  C   UNL     1     -24.232 -16.716 -12.622  1.00  0.00    -0.011 C 
ATOM     10  C   UNL     1     -24.571 -17.153 -11.183  1.00  0.00     0.008 C 
BRANCH   9  11
ATOM     11  C   UNL     1     -24.229 -17.852 -13.722  1.00  0.00    -0.002 C 
ATOM     12  C   UNL     1     -25.486 -17.806 -14.589  1.00  0.00     0.005 C 
ATOM     13  C   UNL     1     -24.005 -19.375 -13.411  1.00  0.00    -0.026 C 
ATOM     14  C   UNL     1     -25.514 -19.111 -15.370  1.00  0.00     0.005 C 
ATOM     15  C   UNL     1     -24.435 -20.030 -14.768  1.00  0.00    -0.001 C 
ATOM     16  C   UNL     1     -24.880 -19.886 -12.232  1.00  0.00     0.007 C 
ATOM     17  C   UNL     1     -22.511 -19.657 -13.112  1.00  0.00     0.012 C 
ATOM     18  C   UNL     1     -24.907 -21.517 -14.740  1.00  0.00     0.000 C 
ATOM     19  C   UNL     1     -25.152 -21.397 -12.238  1.00  0.00     0.005 C 
ATOM     20  C   UNL     1     -25.847 -21.826 -13.554  1.00  0.00     0.003 C 
ATOM     21  C   UNL     1     -23.730 -22.508 -14.781  1.00  0.00     0.031 C 
ATOM     22  C   UNL     1     -26.386 -23.321 -13.608  1.00  0.00    -0.008 C 
ATOM     23  C   UNL     1     -24.195 -23.929 -14.729  1.00  0.00    -0.027 C 
ATOM     24  C   UNL     1     -25.346 -24.318 -14.141  1.00  0.00    -0.065 C 
ATOM     25  C   UNL     1     -27.603 -23.382 -14.587  1.00  0.00     0.014 C 
ATOM     26  C   UNL     1     -26.864 -23.773 -12.202  1.00  0.00     0.016 C 
ATOM     27  C   UNL     1     -25.810 -25.746 -14.354  1.00  0.00     0.063 C 
ATOM     28  C   UNL     1     -28.105 -24.813 -14.888  1.00  0.00     0.033 C 
ATOM     29  C   UNL     1     -26.974 -25.746 -15.356  1.00  0.00     0.118 C 
BRANCH  29  30
ATOM     30  O   UNL     1     -27.483 -27.045 -15.499  1.00  0.00    -0.393 OA
ATOM     31  H   UNL     1     -27.247 -27.346 -16.415  1.00  0.00     0.210 HD
ENDBRANCH  29  30
ENDBRANCH   9  11
ENDBRANCH   1   9
TORSDOF 7
ENDMDL
MODEL 3
REMARK VINA RESULT:    -0.971      3.215      9.604
REMARK INTER + INTRA:          -2.283
REMARK INTER:                  -1.919
REMARK INTRA:                  -0.364
REMARK UNBOUND:                -0.943
REMARK SMILES CC[C@H](CC[C@H](C)[C@@H]1CC[C@@H]2[C@H]3CC=C4C[C@@H](O)CC[C@]4(C)[C@H]3CC[C@@]21C)C(C)C
REMARK SMILES IDX 5 1 4 2 3 3 2 4 1 5 28 6 29 7 30 8 6 9 7 10 8 11 9 12 26 13
REMARK SMILES IDX 10 14 11 15 25 16 27 17 12 18 24 19 23 20 13 21 21 22 14 23
REMARK SMILES IDX 15 24 20 25 22 26 16 27 19 28 17 29 18 30
REMARK H PARENT 18 31
REMARK Flexibility Score: inf
ROOT
ATOM      1  C   UNL     1     -26.803 -26.132 -15.120  1.00  0.00     0.004 C 
ENDROOT
BRANCH   1   2
ATOM      2  C   UNL     1     -27.654 -26.858 -16.188  1.00  0.00     0.004 C 
BRANCH   2   3
ATOM      3  C   UNL     1     -27.925 -28.372 -15.929  1.00  0.00    -0.009 C 
BRANCH   3   4
ATOM      4  C   UNL     1     -29.125 -28.553 -14.959  1.00  0.00     0.000 C 
ATOM      5  C   UNL     1     -28.845 -29.517 -13.803  1.00  0.00     0.004 C 
ENDBRANCH   3   4
BRANCH   3   6
ATOM      6  C   UNL     1     -28.083 -29.184 -17.260  1.00  0.00    -0.014 C 
ATOM      7  C   UNL     1     -28.405 -30.665 -17.002  1.00  0.00     0.007 C 
ATOM      8  C   UNL     1     -26.879 -29.059 -18.209  1.00  0.00     0.007 C 
ENDBRANCH   3   6
ENDBRANCH   2   3
ENDBRANCH   1   2
BRANCH   1   9
ATOM      9  C   UNL     1     -27.398 -24.826 -14.526  1.00  0.00    -0.011 C 
ATOM     10  C   UNL     1     -28.129 -24.045 -15.636  1.00  0.00     0.008 C 
BRANCH   9  11
ATOM     11  C   UNL     1     -26.432 -23.991 -13.593  1.00  0.00    -0.002 C 
ATOM     12  C   UNL     1     -27.208 -23.114 -12.612  1.00  0.00     0.005 C 
ATOM     13  C   UNL     1     -25.271 -23.077 -14.126  1.00  0.00    -0.026 C 
ATOM     14  C   UNL     1     -26.199 -22.146 -12.014  1.00  0.00     0.005 C 
ATOM     15  C   UNL     1     -24.902 -22.270 -12.835  1.00  0.00    -0.001 C 
ATOM     16  C   UNL     1     -25.725 -22.131 -15.274  1.00  0.00     0.007 C 
ATOM     17  C   UNL     1     -24.073 -23.937 -14.601  1.00  0.00     0.012 C 
ATOM     18  C   UNL     1     -24.210 -20.884 -13.016  1.00  0.00     0.000 C 
ATOM     19  C   UNL     1     -24.871 -20.867 -15.445  1.00  0.00     0.005 C 
ATOM     20  C   UNL     1     -24.850 -20.036 -14.138  1.00  0.00     0.003 C 
ATOM     21  C   UNL     1     -22.690 -21.008 -13.221  1.00  0.00     0.031 C 
ATOM     22  C   UNL     1     -24.187 -18.595 -14.234  1.00  0.00    -0.008 C 
ATOM     23  C   UNL     1     -22.042 -19.673 -13.419  1.00  0.00    -0.027 C 
ATOM     24  C   UNL     1     -22.678 -18.603 -13.941  1.00  0.00    -0.065 C 
ATOM     25  C   UNL     1     -24.842 -17.667 -13.160  1.00  0.00     0.014 C 
ATOM     26  C   UNL     1     -24.439 -17.977 -15.636  1.00  0.00     0.016 C 
ATOM     27  C   UNL     1     -21.983 -17.258 -13.878  1.00  0.00     0.063 C 
ATOM     28  C   UNL     1     -24.157 -16.289 -13.008  1.00  0.00     0.033 C 
ATOM     29  C   UNL     1     -22.640 -16.410 -12.779  1.00  0.00     0.118 C 
BRANCH  29  30
ATOM     30  O   UNL     1     -22.076 -15.125 -12.764  1.00  0.00    -0.393 OA
ATOM     31  H   UNL     1     -22.815 -14.487 -12.944  1.00  0.00     0.210 HD
ENDBRANCH  29  30
ENDBRANCH   9  11
ENDBRANCH   1   9
TORSDOF 7
ENDMDL
MODEL 4
REMARK VINA RESULT:    -0.745      3.355     10.116
REMARK INTER + INTRA:          -1.971
REMARK INTER:                  -2.834
REMARK INTRA:                   0.863
REMARK UNBOUND:                -0.943
REMARK SMILES CC[C@H](CC[C@H](C)[C@@H]1CC[C@@H]2[C@H]3CC=C4C[C@@H](O)CC[C@]4(C)[C@H]3CC[C@@]21C)C(C)C
REMARK SMILES IDX 5 1 4 2 3 3 2 4 1 5 28 6 29 7 30 8 6 9 7 10 8 11 9 12 26 13
REMARK SMILES IDX 10 14 11 15 25 16 27 17 12 18 24 19 23 20 13 21 21 22 14 23
REMARK SMILES IDX 15 24 20 25 22 26 16 27 19 28 17 29 18 30
REMARK H PARENT 18 31
REMARK Flexibility Score: inf
ROOT
ATOM      1  C   UNL     1     -28.033 -27.608 -15.297  1.00  0.00     0.004 C 
ENDROOT
BRANCH   1   2
ATOM      2  C   UNL     1     -28.984 -28.208 -16.359  1.00  0.00     0.004 C 
BRANCH   2   3
ATOM      3  C   UNL     1     -29.094 -29.763 -16.374  1.00  0.00    -0.009 C 
BRANCH   3   4
ATOM      4  C   UNL     1     -28.034 -30.376 -17.331  1.00  0.00     0.000 C 
ATOM      5  C   UNL     1     -28.595 -31.450 -18.268  1.00  0.00     0.004 C 
ENDBRANCH   3   4
BRANCH   3   6
ATOM      6  C   UNL     1     -29.045 -30.377 -14.933  1.00  0.00    -0.014 C 
ATOM      7  C   UNL     1     -29.124 -29.298 -13.839  1.00  0.00     0.007 C 
ATOM      8  C   UNL     1     -27.833 -31.291 -14.689  1.00  0.00     0.007 C 
ENDBRANCH   3   6
ENDBRANCH   2   3
ENDBRANCH   1   2
BRANCH   1   9
ATOM      9  C   UNL     1     -27.283 -26.306 -15.691  1.00  0.00    -0.011 C 
ATOM     10  C   UNL     1     -26.097 -26.657 -16.610  1.00  0.00     0.008 C 
BRANCH   9  11
ATOM     11  C   UNL     1     -26.987 -25.298 -14.509  1.00  0.00    -0.002 C 
ATOM     12  C   UNL     1     -28.171 -24.370 -14.245  1.00  0.00     0.005 C 
ATOM     13  C   UNL     1     -25.720 -24.372 -14.441  1.00  0.00    -0.026 C 
ATOM     14  C   UNL     1     -27.654 -23.266 -13.335  1.00  0.00     0.005 C 
ATOM     15  C   UNL     1     -26.120 -23.393 -13.286  1.00  0.00    -0.001 C 
ATOM     16  C   UNL     1     -25.461 -23.606 -15.769  1.00  0.00     0.007 C 
ATOM     17  C   UNL     1     -24.463 -25.193 -14.059  1.00  0.00     0.012 C 
ATOM     18  C   UNL     1     -25.435 -21.991 -13.251  1.00  0.00     0.000 C 
ATOM     19  C   UNL     1     -24.648 -22.312 -15.620  1.00  0.00     0.005 C 
ATOM     20  C   UNL     1     -25.346 -21.332 -14.645  1.00  0.00     0.003 C 
ATOM     21  C   UNL     1     -24.055 -22.028 -12.572  1.00  0.00     0.031 C 
ATOM     22  C   UNL     1     -24.733 -19.868 -14.563  1.00  0.00    -0.008 C 
ATOM     23  C   UNL     1     -23.399 -20.683 -12.567  1.00  0.00    -0.027 C 
ATOM     24  C   UNL     1     -23.636 -19.732 -13.495  1.00  0.00    -0.065 C 
ATOM     25  C   UNL     1     -25.867 -18.869 -14.164  1.00  0.00     0.014 C 
ATOM     26  C   UNL     1     -24.167 -19.442 -15.944  1.00  0.00     0.016 C 
ATOM     27  C   UNL     1     -23.084 -18.342 -13.251  1.00  0.00     0.063 C 
ATOM     28  C   UNL     1     -25.372 -17.437 -13.856  1.00  0.00     0.033 C 
ATOM     29  C   UNL     1     -24.233 -17.419 -12.820  1.00  0.00     0.118 C 
BRANCH  29  30
ATOM     30  O   UNL     1     -23.766 -16.104 -12.679  1.00  0.00    -0.393 OA
ATOM     31  H   UNL     1     -22.861 -16.077 -13.086  1.00  0.00     0.210 HD
ENDBRANCH  29  30
ENDBRANCH   9  11
ENDBRANCH   1   9
TORSDOF 7
ENDMDL
MODEL 5
REMARK VINA RESULT:    -0.577      1.728      2.881
REMARK INTER + INTRA:          -1.738
REMARK INTER:                  -3.279
REMARK INTRA:                   1.540
REMARK UNBOUND:                -0.943
REMARK SMILES CC[C@H](CC[C@H](C)[C@@H]1CC[C@@H]2[C@H]3CC=C4C[C@@H](O)CC[C@]4(C)[C@H]3CC[C@@]21C)C(C)C
REMARK SMILES IDX 5 1 4 2 3 3 2 4 1 5 28 6 29 7 30 8 6 9 7 10 8 11 9 12 26 13
REMARK SMILES IDX 10 14 11 15 25 16 27 17 12 18 24 19 23 20 13 21 21 22 14 23
REMARK SMILES IDX 15 24 20 25 22 26 16 27 19 28 17 29 18 30
REMARK H PARENT 18 31
REMARK Flexibility Score: inf
ROOT
ATOM      1  C   UNL     1     -23.561 -14.397 -13.434  1.00  0.00     0.004 C 
ENDROOT
BRANCH   1   2
ATOM      2  C   UNL     1     -23.032 -13.940 -14.813  1.00  0.00     0.004 C 
BRANCH   2   3
ATOM      3  C   UNL     1     -24.011 -14.124 -16.013  1.00  0.00    -0.009 C 
BRANCH   3   4
ATOM      4  C   UNL     1     -23.514 -15.258 -16.953  1.00  0.00     0.000 C 
ATOM      5  C   UNL     1     -24.005 -15.123 -18.397  1.00  0.00     0.004 C 
ENDBRANCH   3   4
BRANCH   3   6
ATOM      6  C   UNL     1     -25.494 -14.321 -15.546  1.00  0.00    -0.014 C 
ATOM      7  C   UNL     1     -25.708 -13.876 -14.090  1.00  0.00     0.007 C 
ATOM      8  C   UNL     1     -26.022 -15.751 -15.747  1.00  0.00     0.007 C 
ENDBRANCH   3   6
ENDBRANCH   2   3
ENDBRANCH   1   2
BRANCH   1   9
ATOM      9  C   UNL     1     -23.135 -15.813 -12.960  1.00  0.00    -0.011 C 
ATOM     10  C   UNL     1     -21.686 -16.089 -13.410  1.00  0.00     0.008 C 
BRANCH   9  11
ATOM     11  C   UNL     1     -24.185 -16.969 -13.210  1.00  0.00    -0.002 C 
ATOM     12  C   UNL     1     -24.785 -17.483 -11.902  1.00  0.00     0.005 C 
ATOM     13  C   UNL     1     -23.887 -18.257 -14.056  1.00  0.00    -0.026 C 
ATOM     14  C   UNL     1     -25.512 -18.774 -12.245  1.00  0.00     0.005 C 
ATOM     15  C   UNL     1     -25.114 -19.157 -13.682  1.00  0.00    -0.001 C 
ATOM     16  C   UNL     1     -22.545 -18.939 -13.666  1.00  0.00     0.007 C 
ATOM     17  C   UNL     1     -23.885 -17.929 -15.570  1.00  0.00     0.012 C 
ATOM     18  C   UNL     1     -24.956 -20.702 -13.834  1.00  0.00     0.000 C 
ATOM     19  C   UNL     1     -22.459 -20.435 -14.003  1.00  0.00     0.005 C 
ATOM     20  C   UNL     1     -23.599 -21.222 -13.310  1.00  0.00     0.003 C 
ATOM     21  C   UNL     1     -25.206 -21.179 -15.276  1.00  0.00     0.031 C 
ATOM     22  C   UNL     1     -23.507 -22.806 -13.390  1.00  0.00    -0.008 C 
ATOM     23  C   UNL     1     -25.027 -22.658 -15.414  1.00  0.00    -0.027 C 
ATOM     24  C   UNL     1     -24.212 -23.390 -14.624  1.00  0.00    -0.065 C 
ATOM     25  C   UNL     1     -24.223 -23.416 -12.141  1.00  0.00     0.014 C 
ATOM     26  C   UNL     1     -22.023 -23.262 -13.377  1.00  0.00     0.016 C 
ATOM     27  C   UNL     1     -24.293 -24.901 -14.719  1.00  0.00     0.063 C 
ATOM     28  C   UNL     1     -24.381 -24.953 -12.187  1.00  0.00     0.033 C 
ATOM     29  C   UNL     1     -25.043 -25.436 -13.491  1.00  0.00     0.118 C 
BRANCH  29  30
ATOM     30  O   UNL     1     -25.049 -26.839 -13.506  1.00  0.00    -0.393 OA
ATOM     31  H   UNL     1     -25.714 -27.114 -14.190  1.00  0.00     0.210 HD
ENDBRANCH  29  30
ENDBRANCH   9  11
ENDBRANCH   1   9
TORSDOF 7
ENDMDL
MODEL 6
REMARK VINA RESULT:    -0.434      1.978      4.100
REMARK INTER + INTRA:          -1.541
REMARK INTER:                  -2.739
REMARK INTRA:                   1.198
REMARK UNBOUND:                -0.943
REMARK SMILES CC[C@H](CC[C@H](C)[C@@H]1CC[C@@H]2[C@H]3CC=C4C[C@@H](O)CC[C@]4(C)[C@H]3CC[C@@]21C)C(C)C
REMARK SMILES IDX 5 1 4 2 3 3 2 4 1 5 28 6 29 7 30 8 6 9 7 10 8 11 9 12 26 13
REMARK SMILES IDX 10 14 11 15 25 16 27 17 12 18 24 19 23 20 13 21 21 22 14 23
REMARK SMILES IDX 15 24 20 25 22 26 16 27 19 28 17 29 18 30
REMARK H PARENT 18 31
REMARK Flexibility Score: inf
ROOT
ATOM      1  C   UNL     1     -22.786 -14.203 -14.627  1.00  0.00     0.004 C 
ENDROOT
BRANCH   1   2
ATOM      2  C   UNL     1     -21.934 -14.706 -13.439  1.00  0.00     0.004 C 
BRANCH   2   3
ATOM      3  C   UNL     1     -20.451 -15.063 -13.767  1.00  0.00    -0.009 C 
BRANCH   3   4
ATOM      4  C   UNL     1     -19.510 -13.887 -13.385  1.00  0.00     0.000 C 
ATOM      5  C   UNL     1     -19.102 -13.876 -11.910  1.00  0.00     0.004 C 
ENDBRANCH   3   4
BRANCH   3   6
ATOM      6  C   UNL     1     -20.014 -16.428 -13.136  1.00  0.00    -0.014 C 
ATOM      7  C   UNL     1     -18.518 -16.715 -13.351  1.00  0.00     0.007 C 
ATOM      8  C   UNL     1     -20.856 -17.626 -13.604  1.00  0.00     0.007 C 
ENDBRANCH   3   6
ENDBRANCH   2   3
ENDBRANCH   1   2
BRANCH   1   9
ATOM      9  C   UNL     1     -24.142 -14.922 -14.865  1.00  0.00    -0.011 C 
ATOM     10  C   UNL     1     -25.196 -13.891 -15.316  1.00  0.00     0.008 C 
BRANCH   9  11
ATOM     11  C   UNL     1     -24.587 -15.942 -13.741  1.00  0.00    -0.002 C 
ATOM     12  C   UNL     1     -23.461 -16.215 -12.745  1.00  0.00     0.005 C 
ATOM     13  C   UNL     1     -25.223 -17.347 -14.033  1.00  0.00    -0.026 C 
ATOM     14  C   UNL     1     -23.896 -17.424 -11.931  1.00  0.00     0.005 C 
ATOM     15  C   UNL     1     -25.137 -18.020 -12.621  1.00  0.00    -0.001 C 
ATOM     16  C   UNL     1     -24.430 -18.160 -15.097  1.00  0.00     0.007 C 
ATOM     17  C   UNL     1     -26.697 -17.197 -14.484  1.00  0.00     0.012 C 
ATOM     18  C   UNL     1     -25.127 -19.579 -12.558  1.00  0.00     0.000 C 
ATOM     19  C   UNL     1     -24.621 -19.681 -15.021  1.00  0.00     0.005 C 
ATOM     20  C   UNL     1     -24.213 -20.218 -13.626  1.00  0.00     0.003 C 
ATOM     21  C   UNL     1     -26.543 -20.179 -12.617  1.00  0.00     0.031 C 
ATOM     22  C   UNL     1     -24.150 -21.799 -13.475  1.00  0.00    -0.008 C 
ATOM     23  C   UNL     1     -26.519 -21.674 -12.581  1.00  0.00    -0.027 C 
ATOM     24  C   UNL     1     -25.485 -22.416 -13.030  1.00  0.00    -0.065 C 
ATOM     25  C   UNL     1     -23.105 -22.157 -12.369  1.00  0.00     0.014 C 
ATOM     26  C   UNL     1     -23.696 -22.451 -14.809  1.00  0.00     0.016 C 
ATOM     27  C   UNL     1     -25.488 -23.902 -12.730  1.00  0.00     0.063 C 
ATOM     28  C   UNL     1     -23.081 -23.653 -11.977  1.00  0.00     0.033 C 
ATOM     29  C   UNL     1     -24.478 -24.185 -11.609  1.00  0.00     0.118 C 
BRANCH  29  30
ATOM     30  O   UNL     1     -24.393 -25.566 -11.377  1.00  0.00    -0.393 OA
ATOM     31  H   UNL     1     -23.612 -25.896 -11.894  1.00  0.00     0.210 HD
ENDBRANCH  29  30
ENDBRANCH   9  11
ENDBRANCH   1   9
TORSDOF 7
ENDMDL
MODEL 7
REMARK VINA RESULT:    -0.241      1.554      2.495
REMARK INTER + INTRA:          -1.275
REMARK INTER:                  -0.901
REMARK INTRA:                  -0.374
REMARK UNBOUND:                -0.943
REMARK SMILES CC[C@H](CC[C@H](C)[C@@H]1CC[C@@H]2[C@H]3CC=C4C[C@@H](O)CC[C@]4(C)[C@H]3CC[C@@]21C)C(C)C
REMARK SMILES IDX 5 1 4 2 3 3 2 4 1 5 28 6 29 7 30 8 6 9 7 10 8 11 9 12 26 13
REMARK SMILES IDX 10 14 11 15 25 16 27 17 12 18 24 19 23 20 13 21 21 22 14 23
REMARK SMILES IDX 15 24 20 25 22 26 16 27 19 28 17 29 18 30
REMARK H PARENT 18 31
REMARK Flexibility Score: inf
ROOT
ATOM      1  C   UNL     1     -25.197 -15.861 -14.172  1.00  0.00     0.004 C 
ENDROOT
BRANCH   1   2
ATOM      2  C   UNL     1     -24.836 -14.390 -14.486  1.00  0.00     0.004 C 
BRANCH   2   3
ATOM      3  C   UNL     1     -24.035 -14.151 -15.802  1.00  0.00    -0.009 C 
BRANCH   3   4
ATOM      4  C   UNL     1     -22.546 -14.554 -15.614  1.00  0.00     0.000 C 
ATOM      5  C   UNL     1     -21.881 -13.915 -14.392  1.00  0.00     0.004 C 
ENDBRANCH   3   4
BRANCH   3   6
ATOM      6  C   UNL     1     -24.705 -14.840 -17.040  1.00  0.00    -0.014 C 
ATOM      7  C   UNL     1     -25.356 -16.185 -16.675  1.00  0.00     0.007 C 
ATOM      8  C   UNL     1     -23.758 -15.016 -18.239  1.00  0.00     0.007 C 
ENDBRANCH   3   6
ENDBRANCH   2   3
ENDBRANCH   1   2
BRANCH   1   9
ATOM      9  C   UNL     1     -24.780 -16.397 -12.775  1.00  0.00    -0.011 C 
ATOM     10  C   UNL     1     -24.263 -15.229 -11.912  1.00  0.00     0.008 C 
BRANCH   9  11
ATOM     11  C   UNL     1     -23.906 -17.715 -12.776  1.00  0.00    -0.002 C 
ATOM     12  C   UNL     1     -23.205 -17.930 -14.116  1.00  0.00     0.005 C 
ATOM     13  C   UNL     1     -24.453 -19.130 -12.370  1.00  0.00    -0.026 C 
ATOM     14  C   UNL     1     -22.677 -19.357 -14.098  1.00  0.00     0.005 C 
ATOM     15  C   UNL     1     -23.297 -20.059 -12.875  1.00  0.00    -0.001 C 
ATOM     16  C   UNL     1     -25.802 -19.478 -13.061  1.00  0.00     0.007 C 
ATOM     17  C   UNL     1     -24.613 -19.234 -10.833  1.00  0.00     0.012 C 
ATOM     18  C   UNL     1     -23.645 -21.547 -13.192  1.00  0.00     0.000 C 
ATOM     19  C   UNL     1     -26.097 -20.980 -13.182  1.00  0.00     0.005 C 
ATOM     20  C   UNL     1     -24.973 -21.701 -13.966  1.00  0.00     0.003 C 
ATOM     21  C   UNL     1     -23.637 -22.433 -11.934  1.00  0.00     0.031 C 
ATOM     22  C   UNL     1     -25.252 -23.216 -14.357  1.00  0.00    -0.008 C 
ATOM     23  C   UNL     1     -23.997 -23.851 -12.247  1.00  0.00    -0.027 C 
ATOM     24  C   UNL     1     -24.780 -24.212 -13.286  1.00  0.00    -0.065 C 
ATOM     25  C   UNL     1     -24.455 -23.555 -15.658  1.00  0.00     0.014 C 
ATOM     26  C   UNL     1     -26.763 -23.432 -14.636  1.00  0.00     0.016 C 
ATOM     27  C   UNL     1     -24.882 -25.686 -13.626  1.00  0.00     0.063 C 
ATOM     28  C   UNL     1     -24.477 -25.052 -16.045  1.00  0.00     0.033 C 
ATOM     29  C   UNL     1     -24.046 -25.964 -14.883  1.00  0.00     0.118 C 
BRANCH  29  30
ATOM     30  O   UNL     1     -24.199 -27.303 -15.274  1.00  0.00    -0.393 OA
ATOM     31  H   UNL     1     -23.296 -27.714 -15.247  1.00  0.00     0.210 HD
ENDBRANCH  29  30
ENDBRANCH   9  11
ENDBRANCH   1   9
TORSDOF 7
ENDMDL
