MODEL 1
REMARK VINA RESULT:    -7.693      0.000      0.000
REMARK INTER + INTRA:         -11.572
REMARK INTER:                 -10.617
REMARK INTRA:                  -0.956
REMARK UNBOUND:                -0.956
REMARK SMILES CC[C@@H](CC[C@@H](C)[C@@H]1CC[C@H]2[C@@H]3CC=C4C[C@H](O)CC[C@@]4(C)[C@H]3CC[C@@]21C)C(C)C
REMARK SMILES IDX 5 1 4 2 3 3 2 4 1 5 28 6 29 7 30 8 6 9 7 10 8 11 9 12 26 13
REMARK SMILES IDX 10 14 11 15 25 16 27 17 12 18 24 19 23 20 13 21 21 22 14 23
REMARK SMILES IDX 15 24 20 25 22 26 16 27 19 28 17 29 18 30
REMARK H PARENT 18 31
REMARK Flexibility Score: inf
ROOT
ATOM      1  C   UNL     1     -12.384  12.117 -11.068  1.00  0.00     0.004 C 
ENDROOT
BRANCH   1   2
ATOM      2  C   UNL     1     -11.661  13.230 -11.864  1.00  0.00     0.004 C 
BRANCH   2   3
ATOM      3  C   UNL     1     -11.780  13.195 -13.415  1.00  0.00    -0.009 C 
BRANCH   3   4
ATOM      4  C   UNL     1     -11.712  14.634 -14.012  1.00  0.00     0.000 C 
ATOM      5  C   UNL     1     -10.907  15.627 -13.176  1.00  0.00     0.004 C 
ENDBRANCH   3   4
BRANCH   3   6
ATOM      6  C   UNL     1     -13.060  12.375 -13.816  1.00  0.00    -0.014 C 
ATOM      7  C   UNL     1     -12.793  11.328 -14.910  1.00  0.00     0.007 C 
ATOM      8  C   UNL     1     -14.281  13.239 -14.169  1.00  0.00     0.007 C 
ENDBRANCH   3   6
ENDBRANCH   2   3
ENDBRANCH   1   2
BRANCH   1   9
ATOM      9  C   UNL     1     -12.561  12.405  -9.544  1.00  0.00    -0.011 C 
ATOM     10  C   UNL     1     -12.136  13.839  -9.154  1.00  0.00     0.008 C 
BRANCH   9  11
ATOM     11  C   UNL     1     -13.971  12.044  -8.943  1.00  0.00    -0.002 C 
ATOM     12  C   UNL     1     -14.302  12.855  -7.657  1.00  0.00     0.005 C 
ATOM     13  C   UNL     1     -14.329  10.560  -8.570  1.00  0.00    -0.026 C 
ATOM     14  C   UNL     1     -14.567  11.848  -6.523  1.00  0.00     0.005 C 
ATOM     15  C   UNL     1     -14.048  10.522  -7.061  1.00  0.00    -0.001 C 
ATOM     16  C   UNL     1     -13.525   9.409  -9.228  1.00  0.00     0.007 C 
ATOM     17  C   UNL     1     -15.845  10.367  -8.910  1.00  0.00     0.012 C 
ATOM     18  C   UNL     1     -14.518   9.208  -6.400  1.00  0.00     0.000 C 
ATOM     19  C   UNL     1     -13.848   8.031  -8.593  1.00  0.00     0.005 C 
ATOM     20  C   UNL     1     -13.718   8.030  -7.039  1.00  0.00     0.003 C 
ATOM     21  C   UNL     1     -14.260   9.203  -4.886  1.00  0.00     0.031 C 
ATOM     22  C   UNL     1     -13.945   6.627  -6.299  1.00  0.00    -0.008 C 
ATOM     23  C   UNL     1     -14.829   7.942  -4.315  1.00  0.00    -0.027 C 
ATOM     24  C   UNL     1     -14.750   6.776  -4.987  1.00  0.00    -0.065 C 
ATOM     25  C   UNL     1     -14.657   5.540  -7.186  1.00  0.00     0.014 C 
ATOM     26  C   UNL     1     -12.559   6.058  -5.904  1.00  0.00     0.016 C 
ATOM     27  C   UNL     1     -15.598   5.608  -4.537  1.00  0.00     0.063 C 
ATOM     28  C   UNL     1     -16.184   5.616  -7.062  1.00  0.00     0.033 C 
ATOM     29  C   UNL     1     -16.646   5.245  -5.627  1.00  0.00     0.118 C 
BRANCH  29  30
ATOM     30  O   UNL     1     -16.968   3.876  -5.562  1.00  0.00    -0.393 OA
ATOM     31  H   UNL     1     -16.804   3.583  -4.625  1.00  0.00     0.210 HD
ENDBRANCH  29  30
ENDBRANCH   9  11
ENDBRANCH   1   9
TORSDOF 7
ENDMDL
MODEL 2
REMARK VINA RESULT:    -7.397      1.432      2.557
REMARK INTER + INTRA:         -11.163
REMARK INTER:                  -9.509
REMARK INTRA:                  -1.654
REMARK UNBOUND:                -0.956
REMARK SMILES CC[C@@H](CC[C@@H](C)[C@@H]1CC[C@H]2[C@@H]3CC=C4C[C@H](O)CC[C@@]4(C)[C@H]3CC[C@@]21C)C(C)C
REMARK SMILES IDX 5 1 4 2 3 3 2 4 1 5 28 6 29 7 30 8 6 9 7 10 8 11 9 12 26 13
REMARK SMILES IDX 10 14 11 15 25 16 27 17 12 18 24 19 23 20 13 21 21 22 14 23
REMARK SMILES IDX 15 24 20 25 22 26 16 27 19 28 17 29 18 30
REMARK H PARENT 18 31
REMARK Flexibility Score: inf
ROOT
ATOM      1  C   UNL     1     -13.108  13.618  -8.480  1.00  0.00     0.004 C 
ENDROOT
BRANCH   1   2
ATOM      2  C   UNL     1     -12.132  12.846  -9.402  1.00  0.00     0.004 C 
BRANCH   2   3
ATOM      3  C   UNL     1     -12.542  12.672 -10.893  1.00  0.00    -0.009 C 
BRANCH   3   4
ATOM      4  C   UNL     1     -13.087  11.235 -11.157  1.00  0.00     0.000 C 
ATOM      5  C   UNL     1     -14.405  11.191 -11.927  1.00  0.00     0.004 C 
ENDBRANCH   3   4
BRANCH   3   6
ATOM      6  C   UNL     1     -11.340  13.101 -11.812  1.00  0.00    -0.014 C 
ATOM      7  C   UNL     1     -10.326  14.011 -11.100  1.00  0.00     0.007 C 
ATOM      8  C   UNL     1     -11.759  13.699 -13.164  1.00  0.00     0.007 C 
ENDBRANCH   3   6
ENDBRANCH   2   3
ENDBRANCH   1   2
BRANCH   1   9
ATOM      9  C   UNL     1     -13.720  12.776  -7.317  1.00  0.00    -0.011 C 
ATOM     10  C   UNL     1     -14.073  13.635  -6.080  1.00  0.00     0.008 C 
BRANCH   9  11
ATOM     11  C   UNL     1     -14.917  11.834  -7.717  1.00  0.00    -0.002 C 
ATOM     12  C   UNL     1     -16.240  12.197  -6.982  1.00  0.00     0.005 C 
ATOM     13  C   UNL     1     -14.798  10.275  -7.556  1.00  0.00    -0.026 C 
ATOM     14  C   UNL     1     -16.702  10.951  -6.205  1.00  0.00     0.005 C 
ATOM     15  C   UNL     1     -15.493  10.028  -6.208  1.00  0.00    -0.001 C 
ATOM     16  C   UNL     1     -13.388   9.636  -7.483  1.00  0.00     0.007 C 
ATOM     17  C   UNL     1     -15.572   9.642  -8.761  1.00  0.00     0.012 C 
ATOM     18  C   UNL     1     -15.692   8.527  -5.907  1.00  0.00     0.000 C 
ATOM     19  C   UNL     1     -13.444   8.132  -7.105  1.00  0.00     0.005 C 
ATOM     20  C   UNL     1     -14.284   7.857  -5.821  1.00  0.00     0.003 C 
ATOM     21  C   UNL     1     -16.417   8.301  -4.573  1.00  0.00     0.031 C 
ATOM     22  C   UNL     1     -14.327   6.343  -5.300  1.00  0.00    -0.008 C 
ATOM     23  C   UNL     1     -16.653   6.833  -4.407  1.00  0.00    -0.027 C 
ATOM     24  C   UNL     1     -15.731   5.930  -4.800  1.00  0.00    -0.065 C 
ATOM     25  C   UNL     1     -13.858   5.284  -6.363  1.00  0.00     0.014 C 
ATOM     26  C   UNL     1     -13.374   6.222  -4.084  1.00  0.00     0.016 C 
ATOM     27  C   UNL     1     -16.125   4.475  -4.910  1.00  0.00     0.063 C 
ATOM     28  C   UNL     1     -15.023   4.797  -7.234  1.00  0.00     0.033 C 
ATOM     29  C   UNL     1     -16.056   4.003  -6.390  1.00  0.00     0.118 C 
BRANCH  29  30
ATOM     30  O   UNL     1     -15.774   2.625  -6.453  1.00  0.00    -0.393 OA
ATOM     31  H   UNL     1     -16.552   2.151  -6.051  1.00  0.00     0.210 HD
ENDBRANCH  29  30
ENDBRANCH   9  11
ENDBRANCH   1   9
TORSDOF 7
ENDMDL
MODEL 3
REMARK VINA RESULT:    -7.236     14.652     16.714
REMARK INTER + INTRA:         -10.942
REMARK INTER:                  -8.780
REMARK INTRA:                  -2.162
REMARK UNBOUND:                -0.956
REMARK SMILES CC[C@@H](CC[C@@H](C)[C@@H]1CC[C@H]2[C@@H]3CC=C4C[C@H](O)CC[C@@]4(C)[C@H]3CC[C@@]21C)C(C)C
REMARK SMILES IDX 5 1 4 2 3 3 2 4 1 5 28 6 29 7 30 8 6 9 7 10 8 11 9 12 26 13
REMARK SMILES IDX 10 14 11 15 25 16 27 17 12 18 24 19 23 20 13 21 21 22 14 23
REMARK SMILES IDX 15 24 20 25 22 26 16 27 19 28 17 29 18 30
REMARK H PARENT 18 31
REMARK Flexibility Score: inf
ROOT
ATOM      1  C   UNL     1      -1.726   0.198 -14.667  1.00  0.00     0.004 C 
ENDROOT
BRANCH   1   2
ATOM      2  C   UNL     1      -0.343   0.016 -15.339  1.00  0.00     0.004 C 
BRANCH   2   3
ATOM      3  C   UNL     1       0.838   0.869 -14.792  1.00  0.00    -0.009 C 
BRANCH   3   4
ATOM      4  C   UNL     1       1.505   1.695 -15.935  1.00  0.00     0.000 C 
ATOM      5  C   UNL     1       0.552   2.104 -17.057  1.00  0.00     0.004 C 
ENDBRANCH   3   4
BRANCH   3   6
ATOM      6  C   UNL     1       1.820  -0.062 -13.992  1.00  0.00    -0.014 C 
ATOM      7  C   UNL     1       2.125  -1.386 -14.712  1.00  0.00     0.007 C 
ATOM      8  C   UNL     1       1.406  -0.314 -12.533  1.00  0.00     0.007 C 
ENDBRANCH   3   6
ENDBRANCH   2   3
ENDBRANCH   1   2
BRANCH   1   9
ATOM      9  C   UNL     1      -2.558   1.411 -15.190  1.00  0.00    -0.011 C 
ATOM     10  C   UNL     1      -3.993   1.015 -15.609  1.00  0.00     0.008 C 
BRANCH   9  11
ATOM     11  C   UNL     1      -2.566   2.682 -14.260  1.00  0.00    -0.002 C 
ATOM     12  C   UNL     1      -1.584   3.788 -14.744  1.00  0.00     0.005 C 
ATOM     13  C   UNL     1      -2.276   2.551 -12.721  1.00  0.00    -0.026 C 
ATOM     14  C   UNL     1      -0.595   4.072 -13.599  1.00  0.00     0.005 C 
ATOM     15  C   UNL     1      -0.785   2.911 -12.634  1.00  0.00    -0.001 C 
ATOM     16  C   UNL     1      -2.469   1.173 -12.038  1.00  0.00     0.007 C 
ATOM     17  C   UNL     1      -3.194   3.597 -12.003  1.00  0.00     0.012 C 
ATOM     18  C   UNL     1      -0.290   3.055 -11.179  1.00  0.00     0.000 C 
ATOM     19  C   UNL     1      -1.933   1.160 -10.581  1.00  0.00     0.005 C 
ATOM     20  C   UNL     1      -0.466   1.676 -10.467  1.00  0.00     0.003 C 
ATOM     21  C   UNL     1       1.193   3.447 -11.113  1.00  0.00     0.031 C 
ATOM     22  C   UNL     1       0.206   1.616  -9.014  1.00  0.00    -0.008 C 
ATOM     23  C   UNL     1       1.561   3.658  -9.678  1.00  0.00    -0.027 C 
ATOM     24  C   UNL     1       1.060   2.868  -8.707  1.00  0.00    -0.065 C 
ATOM     25  C   UNL     1      -0.822   1.428  -7.838  1.00  0.00     0.014 C 
ATOM     26  C   UNL     1       1.170   0.405  -8.976  1.00  0.00     0.016 C 
ATOM     27  C   UNL     1       1.198   3.299  -7.264  1.00  0.00     0.063 C 
ATOM     28  C   UNL     1      -1.340   2.773  -7.314  1.00  0.00     0.033 C 
ATOM     29  C   UNL     1      -0.200   3.588  -6.646  1.00  0.00     0.118 C 
BRANCH  29  30
ATOM     30  O   UNL     1      -0.183   3.350  -5.259  1.00  0.00    -0.393 OA
ATOM     31  H   UNL     1       0.315   4.103  -4.841  1.00  0.00     0.210 HD
ENDBRANCH  29  30
ENDBRANCH   9  11
ENDBRANCH   1   9
TORSDOF 7
ENDMDL
MODEL 4
REMARK VINA RESULT:    -7.016     14.502     16.446
REMARK INTER + INTRA:         -10.638
REMARK INTER:                  -9.785
REMARK INTRA:                  -0.853
REMARK UNBOUND:                -0.956
REMARK SMILES CC[C@@H](CC[C@@H](C)[C@@H]1CC[C@H]2[C@@H]3CC=C4C[C@H](O)CC[C@@]4(C)[C@H]3CC[C@@]21C)C(C)C
REMARK SMILES IDX 5 1 4 2 3 3 2 4 1 5 28 6 29 7 30 8 6 9 7 10 8 11 9 12 26 13
REMARK SMILES IDX 10 14 11 15 25 16 27 17 12 18 24 19 23 20 13 21 21 22 14 23
REMARK SMILES IDX 15 24 20 25 22 26 16 27 19 28 17 29 18 30
REMARK H PARENT 18 31
REMARK Flexibility Score: inf
ROOT
ATOM      1  C   UNL     1      -0.645   2.978 -16.255  1.00  0.00     0.004 C 
ENDROOT
BRANCH   1   2
ATOM      2  C   UNL     1      -0.419   1.448 -16.311  1.00  0.00     0.004 C 
BRANCH   2   3
ATOM      3  C   UNL     1       0.734   0.861 -15.447  1.00  0.00    -0.009 C 
BRANCH   3   4
ATOM      4  C   UNL     1       2.125   1.262 -16.028  1.00  0.00     0.000 C 
ATOM      5  C   UNL     1       2.107   1.632 -17.510  1.00  0.00     0.004 C 
ENDBRANCH   3   4
BRANCH   3   6
ATOM      6  C   UNL     1       0.513  -0.686 -15.273  1.00  0.00    -0.014 C 
ATOM      7  C   UNL     1       1.061  -1.233 -13.945  1.00  0.00     0.007 C 
ATOM      8  C   UNL     1       1.003  -1.533 -16.459  1.00  0.00     0.007 C 
ENDBRANCH   3   6
ENDBRANCH   2   3
ENDBRANCH   1   2
BRANCH   1   9
ATOM      9  C   UNL     1      -1.875   3.433 -15.409  1.00  0.00    -0.011 C 
ATOM     10  C   UNL     1      -3.004   4.040 -16.274  1.00  0.00     0.008 C 
BRANCH   9  11
ATOM     11  C   UNL     1      -2.441   2.363 -14.402  1.00  0.00    -0.002 C 
ATOM     12  C   UNL     1      -3.890   2.686 -13.933  1.00  0.00     0.005 C 
ATOM     13  C   UNL     1      -1.670   2.022 -13.076  1.00  0.00    -0.026 C 
ATOM     14  C   UNL     1      -3.872   2.796 -12.398  1.00  0.00     0.005 C 
ATOM     15  C   UNL     1      -2.396   2.891 -12.039  1.00  0.00    -0.001 C 
ATOM     16  C   UNL     1      -0.157   2.346 -12.986  1.00  0.00     0.007 C 
ATOM     17  C   UNL     1      -1.867   0.489 -12.827  1.00  0.00     0.012 C 
ATOM     18  C   UNL     1      -1.954   2.586 -10.591  1.00  0.00     0.000 C 
ATOM     19  C   UNL     1       0.400   2.156 -11.550  1.00  0.00     0.005 C 
ATOM     20  C   UNL     1      -0.432   2.912 -10.469  1.00  0.00     0.003 C 
ATOM     21  C   UNL     1      -2.714   3.440  -9.567  1.00  0.00     0.031 C 
ATOM     22  C   UNL     1       0.117   2.849  -8.966  1.00  0.00    -0.008 C 
ATOM     23  C   UNL     1      -2.296   3.015  -8.194  1.00  0.00    -0.027 C 
ATOM     24  C   UNL     1      -1.018   2.677  -7.930  1.00  0.00    -0.065 C 
ATOM     25  C   UNL     1       1.180   1.716  -8.716  1.00  0.00     0.014 C 
ATOM     26  C   UNL     1       0.807   4.198  -8.644  1.00  0.00     0.016 C 
ATOM     27  C   UNL     1      -0.698   1.960  -6.637  1.00  0.00     0.063 C 
ATOM     28  C   UNL     1       0.516   0.393  -8.308  1.00  0.00     0.033 C 
ATOM     29  C   UNL     1      -0.179   0.523  -6.927  1.00  0.00     0.118 C 
BRANCH  29  30
ATOM     30  O   UNL     1       0.692   0.100  -5.905  1.00  0.00    -0.393 OA
ATOM     31  H   UNL     1       1.090   0.920  -5.504  1.00  0.00     0.210 HD
ENDBRANCH  29  30
ENDBRANCH   9  11
ENDBRANCH   1   9
TORSDOF 7
ENDMDL
MODEL 5
REMARK VINA RESULT:    -6.790     13.873     16.231
REMARK INTER + INTRA:         -10.326
REMARK INTER:                  -9.704
REMARK INTRA:                  -0.621
REMARK UNBOUND:                -0.956
REMARK SMILES CC[C@@H](CC[C@@H](C)[C@@H]1CC[C@H]2[C@@H]3CC=C4C[C@H](O)CC[C@@]4(C)[C@H]3CC[C@@]21C)C(C)C
REMARK SMILES IDX 5 1 4 2 3 3 2 4 1 5 28 6 29 7 30 8 6 9 7 10 8 11 9 12 26 13
REMARK SMILES IDX 10 14 11 15 25 16 27 17 12 18 24 19 23 20 13 21 21 22 14 23
REMARK SMILES IDX 15 24 20 25 22 26 16 27 19 28 17 29 18 30
REMARK H PARENT 18 31
REMARK Flexibility Score: inf
ROOT
ATOM      1  C   UNL     1      -3.553   2.173 -16.024  1.00  0.00     0.004 C 
ENDROOT
BRANCH   1   2
ATOM      2  C   UNL     1      -4.481   2.724 -14.915  1.00  0.00     0.004 C 
BRANCH   2   3
ATOM      3  C   UNL     1      -4.265   2.190 -13.469  1.00  0.00    -0.009 C 
BRANCH   3   4
ATOM      4  C   UNL     1      -4.213   0.632 -13.452  1.00  0.00     0.000 C 
ATOM      5  C   UNL     1      -2.951   0.035 -14.073  1.00  0.00     0.004 C 
ENDBRANCH   3   4
BRANCH   3   6
ATOM      6  C   UNL     1      -5.345   2.824 -12.519  1.00  0.00    -0.014 C 
ATOM      7  C   UNL     1      -4.769   3.299 -11.175  1.00  0.00     0.007 C 
ATOM      8  C   UNL     1      -6.590   1.949 -12.303  1.00  0.00     0.007 C 
ENDBRANCH   3   6
ENDBRANCH   2   3
ENDBRANCH   1   2
BRANCH   1   9
ATOM      9  C   UNL     1      -2.648   3.239 -16.718  1.00  0.00    -0.011 C 
ATOM     10  C   UNL     1      -3.285   4.649 -16.725  1.00  0.00     0.008 C 
BRANCH   9  11
ATOM     11  C   UNL     1      -1.155   3.291 -16.221  1.00  0.00    -0.002 C 
ATOM     12  C   UNL     1      -0.308   2.090 -16.735  1.00  0.00     0.005 C 
ATOM     13  C   UNL     1      -0.822   3.374 -14.688  1.00  0.00    -0.026 C 
ATOM     14  C   UNL     1       0.258   1.356 -15.507  1.00  0.00     0.005 C 
ATOM     15  C   UNL     1      -0.537   1.907 -14.332  1.00  0.00    -0.001 C 
ATOM     16  C   UNL     1      -1.910   3.893 -13.713  1.00  0.00     0.007 C 
ATOM     17  C   UNL     1       0.444   4.286 -14.554  1.00  0.00     0.012 C 
ATOM     18  C   UNL     1       0.020   1.737 -12.902  1.00  0.00     0.000 C 
ATOM     19  C   UNL     1      -1.504   3.704 -12.227  1.00  0.00     0.005 C 
ATOM     20  C   UNL     1      -1.060   2.246 -11.896  1.00  0.00     0.003 C 
ATOM     21  C   UNL     1       0.329   0.269 -12.577  1.00  0.00     0.031 C 
ATOM     22  C   UNL     1      -0.708   1.931 -10.366  1.00  0.00    -0.008 C 
ATOM     23  C   UNL     1       0.951   0.208 -11.217  1.00  0.00    -0.027 C 
ATOM     24  C   UNL     1       0.528   1.013 -10.222  1.00  0.00    -0.065 C 
ATOM     25  C   UNL     1      -0.468   3.212  -9.485  1.00  0.00     0.014 C 
ATOM     26  C   UNL     1      -1.901   1.166  -9.741  1.00  0.00     0.016 C 
ATOM     27  C   UNL     1       1.372   1.148  -8.975  1.00  0.00     0.063 C 
ATOM     28  C   UNL     1       1.001   3.656  -9.514  1.00  0.00     0.033 C 
ATOM     29  C   UNL     1       1.916   2.599  -8.840  1.00  0.00     0.118 C 
BRANCH  29  30
ATOM     30  O   UNL     1       2.115   2.925  -7.486  1.00  0.00    -0.393 OA
ATOM     31  H   UNL     1       2.768   2.267  -7.121  1.00  0.00     0.210 HD
ENDBRANCH  29  30
ENDBRANCH   9  11
ENDBRANCH   1   9
TORSDOF 7
ENDMDL
MODEL 6
REMARK VINA RESULT:    -6.706      1.822      3.783
REMARK INTER + INTRA:         -10.210
REMARK INTER:                  -9.032
REMARK INTRA:                  -1.179
REMARK UNBOUND:                -0.956
REMARK SMILES CC[C@@H](CC[C@@H](C)[C@@H]1CC[C@H]2[C@@H]3CC=C4C[C@H](O)CC[C@@]4(C)[C@H]3CC[C@@]21C)C(C)C
REMARK SMILES IDX 5 1 4 2 3 3 2 4 1 5 28 6 29 7 30 8 6 9 7 10 8 11 9 12 26 13
REMARK SMILES IDX 10 14 11 15 25 16 27 17 12 18 24 19 23 20 13 21 21 22 14 23
REMARK SMILES IDX 15 24 20 25 22 26 16 27 19 28 17 29 18 30
REMARK H PARENT 18 31
REMARK Flexibility Score: inf
ROOT
ATOM      1  C   UNL     1     -13.833  12.941  -7.290  1.00  0.00     0.004 C 
ENDROOT
BRANCH   1   2
ATOM      2  C   UNL     1     -13.607  13.014  -8.819  1.00  0.00     0.004 C 
BRANCH   2   3
ATOM      3  C   UNL     1     -12.229  12.536  -9.363  1.00  0.00    -0.009 C 
BRANCH   3   4
ATOM      4  C   UNL     1     -11.351  13.748  -9.800  1.00  0.00     0.000 C 
ATOM      5  C   UNL     1     -10.587  13.537 -11.105  1.00  0.00     0.004 C 
ENDBRANCH   3   4
BRANCH   3   6
ATOM      6  C   UNL     1     -12.464  11.455 -10.481  1.00  0.00    -0.014 C 
ATOM      7  C   UNL     1     -13.757  11.679 -11.282  1.00  0.00     0.007 C 
ATOM      8  C   UNL     1     -12.370  10.002  -9.986  1.00  0.00     0.007 C 
ENDBRANCH   3   6
ENDBRANCH   2   3
ENDBRANCH   1   2
BRANCH   1   9
ATOM      9  C   UNL     1     -14.820  11.826  -6.822  1.00  0.00    -0.011 C 
ATOM     10  C   UNL     1     -15.606  11.194  -7.994  1.00  0.00     0.008 C 
BRANCH   9  11
ATOM     11  C   UNL     1     -14.201  10.719  -5.888  1.00  0.00    -0.002 C 
ATOM     12  C   UNL     1     -12.803  10.235  -6.373  1.00  0.00     0.005 C 
ATOM     13  C   UNL     1     -14.988   9.393  -5.586  1.00  0.00    -0.026 C 
ATOM     14  C   UNL     1     -12.886   8.716  -6.601  1.00  0.00     0.005 C 
ATOM     15  C   UNL     1     -14.376   8.409  -6.594  1.00  0.00    -0.001 C 
ATOM     16  C   UNL     1     -16.525   9.374  -5.782  1.00  0.00     0.007 C 
ATOM     17  C   UNL     1     -14.670   9.013  -4.100  1.00  0.00     0.012 C 
ATOM     18  C   UNL     1     -14.843   6.955  -6.366  1.00  0.00     0.000 C 
ATOM     19  C   UNL     1     -17.115   7.944  -5.657  1.00  0.00     0.005 C 
ATOM     20  C   UNL     1     -16.390   6.904  -6.566  1.00  0.00     0.003 C 
ATOM     21  C   UNL     1     -14.196   5.981  -7.362  1.00  0.00     0.031 C 
ATOM     22  C   UNL     1     -16.986   5.417  -6.573  1.00  0.00    -0.008 C 
ATOM     23  C   UNL     1     -14.625   4.592  -7.011  1.00  0.00    -0.027 C 
ATOM     24  C   UNL     1     -15.879   4.338  -6.584  1.00  0.00    -0.065 C 
ATOM     25  C   UNL     1     -17.956   5.107  -5.374  1.00  0.00     0.014 C 
ATOM     26  C   UNL     1     -17.799   5.227  -7.878  1.00  0.00     0.016 C 
ATOM     27  C   UNL     1     -16.182   3.001  -5.945  1.00  0.00     0.063 C 
ATOM     28  C   UNL     1     -17.198   4.573  -4.152  1.00  0.00     0.033 C 
ATOM     29  C   UNL     1     -16.566   3.187  -4.450  1.00  0.00     0.118 C 
BRANCH  29  30
ATOM     30  O   UNL     1     -17.434   2.160  -4.034  1.00  0.00    -0.393 OA
ATOM     31  H   UNL     1     -17.620   1.596  -4.833  1.00  0.00     0.210 HD
ENDBRANCH  29  30
ENDBRANCH   9  11
ENDBRANCH   1   9
TORSDOF 7
ENDMDL
MODEL 7
REMARK VINA RESULT:    -6.613      2.920      7.571
REMARK INTER + INTRA:         -10.081
REMARK INTER:                  -7.546
REMARK INTRA:                  -2.535
REMARK UNBOUND:                -0.956
REMARK SMILES CC[C@@H](CC[C@@H](C)[C@@H]1CC[C@H]2[C@@H]3CC=C4C[C@H](O)CC[C@@]4(C)[C@H]3CC[C@@]21C)C(C)C
REMARK SMILES IDX 5 1 4 2 3 3 2 4 1 5 28 6 29 7 30 8 6 9 7 10 8 11 9 12 26 13
REMARK SMILES IDX 10 14 11 15 25 16 27 17 12 18 24 19 23 20 13 21 21 22 14 23
REMARK SMILES IDX 15 24 20 25 22 26 16 27 19 28 17 29 18 30
REMARK H PARENT 18 31
REMARK Flexibility Score: inf
ROOT
ATOM      1  C   UNL     1     -16.276   8.772  -4.441  1.00  0.00     0.004 C 
ENDROOT
BRANCH   1   2
ATOM      2  C   UNL     1     -15.135   7.871  -4.970  1.00  0.00     0.004 C 
BRANCH   2   3
ATOM      3  C   UNL     1     -14.943   7.787  -6.512  1.00  0.00    -0.009 C 
BRANCH   3   4
ATOM      4  C   UNL     1     -16.040   6.889  -7.162  1.00  0.00     0.000 C 
ATOM      5  C   UNL     1     -16.964   7.622  -8.133  1.00  0.00     0.004 C 
ENDBRANCH   3   4
BRANCH   3   6
ATOM      6  C   UNL     1     -13.465   7.354  -6.826  1.00  0.00    -0.014 C 
ATOM      7  C   UNL     1     -13.356   5.927  -7.388  1.00  0.00     0.007 C 
ATOM      8  C   UNL     1     -12.484   7.561  -5.661  1.00  0.00     0.007 C 
ENDBRANCH   3   6
ENDBRANCH   2   3
ENDBRANCH   1   2
BRANCH   1   9
ATOM      9  C   UNL     1     -15.817  10.147  -3.862  1.00  0.00    -0.011 C 
ATOM     10  C   UNL     1     -14.389  10.098  -3.270  1.00  0.00     0.008 C 
BRANCH   9  11
ATOM     11  C   UNL     1     -15.994  11.383  -4.822  1.00  0.00    -0.002 C 
ATOM     12  C   UNL     1     -17.401  11.431  -5.486  1.00  0.00     0.005 C 
ATOM     13  C   UNL     1     -14.995  11.627  -6.009  1.00  0.00    -0.026 C 
ATOM     14  C   UNL     1     -17.199  11.423  -7.012  1.00  0.00     0.005 C 
ATOM     15  C   UNL     1     -15.745  11.017  -7.203  1.00  0.00    -0.001 C 
ATOM     16  C   UNL     1     -13.590  10.972  -5.951  1.00  0.00     0.007 C 
ATOM     17  C   UNL     1     -14.818  13.178  -6.132  1.00  0.00     0.012 C 
ATOM     18  C   UNL     1     -15.054  11.309  -8.552  1.00  0.00     0.000 C 
ATOM     19  C   UNL     1     -12.816  11.126  -7.287  1.00  0.00     0.005 C 
ATOM     20  C   UNL     1     -13.638  10.654  -8.526  1.00  0.00     0.003 C 
ATOM     21  C   UNL     1     -15.836  10.722  -9.736  1.00  0.00     0.031 C 
ATOM     22  C   UNL     1     -12.889  10.690  -9.941  1.00  0.00    -0.008 C 
ATOM     23  C   UNL     1     -15.153  11.131 -11.003  1.00  0.00    -0.027 C 
ATOM     24  C   UNL     1     -13.808  11.185 -11.082  1.00  0.00    -0.065 C 
ATOM     25  C   UNL     1     -11.582  11.565  -9.955  1.00  0.00     0.014 C 
ATOM     26  C   UNL     1     -12.473   9.244 -10.307  1.00  0.00     0.016 C 
ATOM     27  C   UNL     1     -13.168  11.895 -12.253  1.00  0.00     0.063 C 
ATOM     28  C   UNL     1     -11.880  13.028 -10.310  1.00  0.00     0.033 C 
ATOM     29  C   UNL     1     -12.393  13.154 -11.769  1.00  0.00     0.118 C 
BRANCH  29  30
ATOM     30  O   UNL     1     -11.320  13.434 -12.637  1.00  0.00    -0.393 OA
ATOM     31  H   UNL     1     -11.161  12.613 -13.178  1.00  0.00     0.210 HD
ENDBRANCH  29  30
ENDBRANCH   9  11
ENDBRANCH   1   9
TORSDOF 7
ENDMDL
MODEL 8
REMARK VINA RESULT:    -6.329      3.229      9.492
REMARK INTER + INTRA:          -9.690
REMARK INTER:                  -8.101
REMARK INTRA:                  -1.589
REMARK UNBOUND:                -0.956
REMARK SMILES CC[C@@H](CC[C@@H](C)[C@@H]1CC[C@H]2[C@@H]3CC=C4C[C@H](O)CC[C@@]4(C)[C@H]3CC[C@@]21C)C(C)C
REMARK SMILES IDX 5 1 4 2 3 3 2 4 1 5 28 6 29 7 30 8 6 9 7 10 8 11 9 12 26 13
REMARK SMILES IDX 10 14 11 15 25 16 27 17 12 18 24 19 23 20 13 21 21 22 14 23
REMARK SMILES IDX 15 24 20 25 22 26 16 27 19 28 17 29 18 30
REMARK H PARENT 18 31
REMARK Flexibility Score: inf
ROOT
ATOM      1  C   UNL     1     -16.037   3.823  -6.625  1.00  0.00     0.004 C 
ENDROOT
BRANCH   1   2
ATOM      2  C   UNL     1     -17.135   3.233  -5.706  1.00  0.00     0.004 C 
BRANCH   2   3
ATOM      3  C   UNL     1     -16.673   2.521  -4.403  1.00  0.00    -0.009 C 
BRANCH   3   4
ATOM      4  C   UNL     1     -17.434   1.174  -4.204  1.00  0.00     0.000 C 
ATOM      5  C   UNL     1     -17.832   0.476  -5.503  1.00  0.00     0.004 C 
ENDBRANCH   3   4
BRANCH   3   6
ATOM      6  C   UNL     1     -16.784   3.525  -3.198  1.00  0.00    -0.014 C 
ATOM      7  C   UNL     1     -17.969   4.497  -3.326  1.00  0.00     0.007 C 
ATOM      8  C   UNL     1     -15.484   4.282  -2.883  1.00  0.00     0.007 C 
ENDBRANCH   3   6
ENDBRANCH   2   3
ENDBRANCH   1   2
BRANCH   1   9
ATOM      9  C   UNL     1     -16.239   5.320  -7.018  1.00  0.00    -0.011 C 
ATOM     10  C   UNL     1     -17.723   5.754  -6.968  1.00  0.00     0.008 C 
BRANCH   9  11
ATOM     11  C   UNL     1     -15.317   6.352  -6.267  1.00  0.00    -0.002 C 
ATOM     12  C   UNL     1     -16.072   7.133  -5.152  1.00  0.00     0.005 C 
ATOM     13  C   UNL     1     -14.542   7.462  -7.063  1.00  0.00    -0.026 C 
ATOM     14  C   UNL     1     -15.955   8.634  -5.471  1.00  0.00     0.005 C 
ATOM     15  C   UNL     1     -15.462   8.682  -6.909  1.00  0.00    -0.001 C 
ATOM     16  C   UNL     1     -14.284   7.255  -8.578  1.00  0.00     0.007 C 
ATOM     17  C   UNL     1     -13.164   7.648  -6.344  1.00  0.00     0.012 C 
ATOM     18  C   UNL     1     -14.822   9.983  -7.441  1.00  0.00     0.000 C 
ATOM     19  C   UNL     1     -13.710   8.527  -9.255  1.00  0.00     0.005 C 
ATOM     20  C   UNL     1     -14.557   9.805  -8.970  1.00  0.00     0.003 C 
ATOM     21  C   UNL     1     -15.742  11.196  -7.248  1.00  0.00     0.031 C 
ATOM     22  C   UNL     1     -14.094  11.153  -9.700  1.00  0.00    -0.008 C 
ATOM     23  C   UNL     1     -15.010  12.420  -7.699  1.00  0.00    -0.027 C 
ATOM     24  C   UNL     1     -14.201  12.390  -8.778  1.00  0.00    -0.065 C 
ATOM     25  C   UNL     1     -12.632  11.102 -10.277  1.00  0.00     0.014 C 
ATOM     26  C   UNL     1     -15.047  11.410 -10.894  1.00  0.00     0.016 C 
ATOM     27  C   UNL     1     -13.246  13.538  -9.015  1.00  0.00     0.063 C 
ATOM     28  C   UNL     1     -11.594  11.553  -9.241  1.00  0.00     0.033 C 
ATOM     29  C   UNL     1     -11.774  13.055  -8.891  1.00  0.00     0.118 C 
BRANCH  29  30
ATOM     30  O   UNL     1     -10.929  13.843  -9.696  1.00  0.00    -0.393 OA
ATOM     31  H   UNL     1     -10.759  14.689  -9.198  1.00  0.00     0.210 HD
ENDBRANCH  29  30
ENDBRANCH   9  11
ENDBRANCH   1   9
TORSDOF 7
ENDMDL
MODEL 9
REMARK VINA RESULT:    -6.272      1.437      2.983
REMARK INTER + INTRA:          -9.611
REMARK INTER:                  -8.572
REMARK INTRA:                  -1.039
REMARK UNBOUND:                -0.956
REMARK SMILES CC[C@@H](CC[C@@H](C)[C@@H]1CC[C@H]2[C@@H]3CC=C4C[C@H](O)CC[C@@]4(C)[C@H]3CC[C@@]21C)C(C)C
REMARK SMILES IDX 5 1 4 2 3 3 2 4 1 5 28 6 29 7 30 8 6 9 7 10 8 11 9 12 26 13
REMARK SMILES IDX 10 14 11 15 25 16 27 17 12 18 24 19 23 20 13 21 21 22 14 23
REMARK SMILES IDX 15 24 20 25 22 26 16 27 19 28 17 29 18 30
REMARK H PARENT 18 31
REMARK Flexibility Score: inf
ROOT
ATOM      1  C   UNL     1     -11.897  13.027  -8.980  1.00  0.00     0.004 C 
ENDROOT
BRANCH   1   2
ATOM      2  C   UNL     1     -12.405  13.538 -10.350  1.00  0.00     0.004 C 
BRANCH   2   3
ATOM      3  C   UNL     1     -11.734  12.954 -11.626  1.00  0.00    -0.009 C 
BRANCH   3   4
ATOM      4  C   UNL     1     -10.555  13.858 -12.100  1.00  0.00     0.000 C 
ATOM      5  C   UNL     1     -10.970  15.267 -12.522  1.00  0.00     0.004 C 
ENDBRANCH   3   4
BRANCH   3   6
ATOM      6  C   UNL     1     -12.839  12.687 -12.713  1.00  0.00    -0.014 C 
ATOM      7  C   UNL     1     -13.691  11.442 -12.420  1.00  0.00     0.007 C 
ATOM      8  C   UNL     1     -12.313  12.665 -14.157  1.00  0.00     0.007 C 
ENDBRANCH   3   6
ENDBRANCH   2   3
ENDBRANCH   1   2
BRANCH   1   9
ATOM      9  C   UNL     1     -12.889  12.095  -8.215  1.00  0.00    -0.011 C 
ATOM     10  C   UNL     1     -14.353  12.270  -8.682  1.00  0.00     0.008 C 
BRANCH   9  11
ATOM     11  C   UNL     1     -12.487  10.573  -8.159  1.00  0.00    -0.002 C 
ATOM     12  C   UNL     1     -12.596   9.871  -9.544  1.00  0.00     0.005 C 
ATOM     13  C   UNL     1     -13.205   9.590  -7.166  1.00  0.00    -0.026 C 
ATOM     14  C   UNL     1     -13.568   8.687  -9.393  1.00  0.00     0.005 C 
ATOM     15  C   UNL     1     -14.265   8.931  -8.063  1.00  0.00    -0.001 C 
ATOM     16  C   UNL     1     -13.933  10.175  -5.929  1.00  0.00     0.007 C 
ATOM     17  C   UNL     1     -12.116   8.579  -6.672  1.00  0.00     0.012 C 
ATOM     18  C   UNL     1     -14.988   7.758  -7.367  1.00  0.00     0.000 C 
ATOM     19  C   UNL     1     -14.770   9.105  -5.180  1.00  0.00     0.005 C 
ATOM     20  C   UNL     1     -15.738   8.320  -6.119  1.00  0.00     0.003 C 
ATOM     21  C   UNL     1     -16.018   7.091  -8.289  1.00  0.00     0.031 C 
ATOM     22  C   UNL     1     -16.709   7.255  -5.422  1.00  0.00    -0.008 C 
ATOM     23  C   UNL     1     -16.599   5.912  -7.574  1.00  0.00    -0.027 C 
ATOM     24  C   UNL     1     -16.853   5.957  -6.250  1.00  0.00    -0.065 C 
ATOM     25  C   UNL     1     -16.283   6.855  -3.961  1.00  0.00     0.014 C 
ATOM     26  C   UNL     1     -18.125   7.877  -5.329  1.00  0.00     0.016 C 
ATOM     27  C   UNL     1     -17.136   4.669  -5.511  1.00  0.00     0.063 C 
ATOM     28  C   UNL     1     -15.315   5.664  -3.957  1.00  0.00     0.033 C 
ATOM     29  C   UNL     1     -16.013   4.378  -4.476  1.00  0.00     0.118 C 
BRANCH  29  30
ATOM     30  O   UNL     1     -16.522   3.634  -3.395  1.00  0.00    -0.393 OA
ATOM     31  H   UNL     1     -15.756   3.440  -2.789  1.00  0.00     0.210 HD
ENDBRANCH  29  30
ENDBRANCH   9  11
ENDBRANCH   1   9
TORSDOF 7
ENDMDL
