MODEL 1
REMARK VINA RESULT:    -6.667      0.000      0.000
REMARK INTER + INTRA:         -11.084
REMARK INTER:                  -9.200
REMARK INTRA:                  -1.884
REMARK UNBOUND:                -1.884
REMARK SMILES CC[C@@H](CC[C@@H](C)[C@H]1CC[C@@H]2[C@@H]3CC=C4C[C@@H](O)CC[C@@]4(C)[C@H]3CC[C@@]21C)C(C)C
REMARK SMILES IDX 5 1 4 2 3 3 2 4 1 5 28 6 29 7 30 8 6 9 7 10 8 11 9 12 26 13
REMARK SMILES IDX 10 14 11 15 25 16 27 17 12 18 24 19 23 20 13 21 21 22 14 23
REMARK SMILES IDX 15 24 20 25 22 26 16 27 19 28 17 29 18 30
REMARK H PARENT 18 31
REMARK Flexibility Score: inf
ROOT
ATOM      1  C   UNL     1      17.776  -5.275  17.426  1.00  0.00     0.004 C 
ENDROOT
BRANCH   1   2
ATOM      2  C   UNL     1      19.146  -5.155  16.724  1.00  0.00     0.004 C 
BRANCH   2   3
ATOM      3  C   UNL     1      20.190  -6.230  17.138  1.00  0.00    -0.009 C 
BRANCH   3   4
ATOM      4  C   UNL     1      21.396  -5.597  17.901  1.00  0.00     0.000 C 
ATOM      5  C   UNL     1      22.084  -4.495  17.095  1.00  0.00     0.004 C 
ENDBRANCH   3   4
BRANCH   3   6
ATOM      6  C   UNL     1      20.622  -7.080  15.900  1.00  0.00    -0.014 C 
ATOM      7  C   UNL     1      19.452  -7.895  15.326  1.00  0.00     0.007 C 
ATOM      8  C   UNL     1      21.837  -7.986  16.161  1.00  0.00     0.007 C 
ENDBRANCH   3   6
ENDBRANCH   2   3
ENDBRANCH   1   2
BRANCH   1   9
ATOM      9  C   UNL     1      16.946  -3.965  17.551  1.00  0.00    -0.011 C 
ATOM     10  C   UNL     1      15.457  -4.250  17.272  1.00  0.00     0.008 C 
BRANCH   9  11
ATOM     11  C   UNL     1      17.229  -3.067  18.819  1.00  0.00    -0.002 C 
ATOM     12  C   UNL     1      17.217  -3.928  20.101  1.00  0.00     0.005 C 
ATOM     13  C   UNL     1      18.550  -2.226  18.933  1.00  0.00    -0.026 C 
ATOM     14  C   UNL     1      18.648  -3.977  20.637  1.00  0.00     0.005 C 
ATOM     15  C   UNL     1      19.523  -3.179  19.654  1.00  0.00    -0.001 C 
ATOM     16  C   UNL     1      18.254  -0.985  19.839  1.00  0.00     0.007 C 
ATOM     17  C   UNL     1      19.131  -1.736  17.584  1.00  0.00     0.012 C 
ATOM     18  C   UNL     1      20.776  -2.487  20.276  1.00  0.00     0.000 C 
ATOM     19  C   UNL     1      19.514  -0.277  20.347  1.00  0.00     0.005 C 
ATOM     20  C   UNL     1      20.447  -1.240  21.125  1.00  0.00     0.003 C 
ATOM     21  C   UNL     1      21.570  -3.475  21.141  1.00  0.00     0.031 C 
ATOM     22  C   UNL     1      21.752  -0.538  21.726  1.00  0.00    -0.008 C 
ATOM     23  C   UNL     1      22.820  -2.842  21.657  1.00  0.00    -0.027 C 
ATOM     24  C   UNL     1      22.921  -1.525  21.933  1.00  0.00    -0.065 C 
ATOM     25  C   UNL     1      22.274   0.595  20.787  1.00  0.00     0.014 C 
ATOM     26  C   UNL     1      21.330   0.057  23.096  1.00  0.00     0.016 C 
ATOM     27  C   UNL     1      24.311  -1.025  22.286  1.00  0.00     0.063 C 
ATOM     28  C   UNL     1      23.712   1.125  21.032  1.00  0.00     0.033 C 
ATOM     29  C   UNL     1      24.469   0.501  22.222  1.00  0.00     0.118 C 
BRANCH  29  30
ATOM     30  O   UNL     1      25.832   0.853  22.173  1.00  0.00    -0.393 OA
ATOM     31  H   UNL     1      26.252   0.584  23.032  1.00  0.00     0.210 HD
ENDBRANCH  29  30
ENDBRANCH   9  11
ENDBRANCH   1   9
TORSDOF 7
ENDMDL
MODEL 2
REMARK VINA RESULT:    -6.377     12.048     16.504
REMARK INTER + INTRA:         -10.683
REMARK INTER:                  -9.472
REMARK INTRA:                  -1.212
REMARK UNBOUND:                -1.884
REMARK SMILES CC[C@@H](CC[C@@H](C)[C@H]1CC[C@@H]2[C@@H]3CC=C4C[C@@H](O)CC[C@@]4(C)[C@H]3CC[C@@]21C)C(C)C
REMARK SMILES IDX 5 1 4 2 3 3 2 4 1 5 28 6 29 7 30 8 6 9 7 10 8 11 9 12 26 13
REMARK SMILES IDX 10 14 11 15 25 16 27 17 12 18 24 19 23 20 13 21 21 22 14 23
REMARK SMILES IDX 15 24 20 25 22 26 16 27 19 28 17 29 18 30
REMARK H PARENT 18 31
REMARK Flexibility Score: inf
ROOT
ATOM      1  C   UNL     1      25.537  -6.003   8.277  1.00  0.00     0.004 C 
ENDROOT
BRANCH   1   2
ATOM      2  C   UNL     1      26.692  -5.823   9.286  1.00  0.00     0.004 C 
BRANCH   2   3
ATOM      3  C   UNL     1      26.684  -6.826  10.474  1.00  0.00    -0.009 C 
BRANCH   3   4
ATOM      4  C   UNL     1      28.105  -6.986  11.101  1.00  0.00     0.000 C 
ATOM      5  C   UNL     1      28.056  -7.526  12.530  1.00  0.00     0.004 C 
ENDBRANCH   3   4
BRANCH   3   6
ATOM      6  C   UNL     1      26.046  -8.184  10.041  1.00  0.00    -0.014 C 
ATOM      7  C   UNL     1      24.720  -8.455  10.771  1.00  0.00     0.007 C 
ATOM      8  C   UNL     1      26.994  -9.388  10.175  1.00  0.00     0.007 C 
ENDBRANCH   3   6
ENDBRANCH   2   3
ENDBRANCH   1   2
BRANCH   1   9
ATOM      9  C   UNL     1      25.905  -5.853   6.772  1.00  0.00    -0.011 C 
ATOM     10  C   UNL     1      27.229  -5.079   6.622  1.00  0.00     0.008 C 
BRANCH   9  11
ATOM     11  C   UNL     1      25.785  -7.153   5.882  1.00  0.00    -0.002 C 
ATOM     12  C   UNL     1      26.562  -8.321   6.530  1.00  0.00     0.005 C 
ATOM     13  C   UNL     1      24.382  -7.769   5.539  1.00  0.00    -0.026 C 
ATOM     14  C   UNL     1      25.536  -9.350   7.004  1.00  0.00     0.005 C 
ATOM     15  C   UNL     1      24.145  -8.782   6.676  1.00  0.00    -0.001 C 
ATOM     16  C   UNL     1      24.509  -8.524   4.175  1.00  0.00     0.007 C 
ATOM     17  C   UNL     1      23.226  -6.745   5.440  1.00  0.00     0.012 C 
ATOM     18  C   UNL     1      23.034  -9.840   6.388  1.00  0.00     0.000 C 
ATOM     19  C   UNL     1      23.347  -9.479   3.887  1.00  0.00     0.005 C 
ATOM     20  C   UNL     1      23.167 -10.530   5.013  1.00  0.00     0.003 C 
ATOM     21  C   UNL     1      23.015 -10.919   7.479  1.00  0.00     0.031 C 
ATOM     22  C   UNL     1      22.002 -11.588   4.736  1.00  0.00    -0.008 C 
ATOM     23  C   UNL     1      21.890 -11.876   7.257  1.00  0.00    -0.027 C 
ATOM     24  C   UNL     1      21.424 -12.197   6.032  1.00  0.00    -0.065 C 
ATOM     25  C   UNL     1      20.808 -10.935   3.969  1.00  0.00     0.014 C 
ATOM     26  C   UNL     1      22.636 -12.714   3.875  1.00  0.00     0.016 C 
ATOM     27  C   UNL     1      20.170 -13.053   6.002  1.00  0.00     0.063 C 
ATOM     28  C   UNL     1      19.464 -11.710   3.940  1.00  0.00     0.033 C 
ATOM     29  C   UNL     1      19.459 -13.083   4.641  1.00  0.00     0.118 C 
BRANCH  29  30
ATOM     30  O   UNL     1      18.140 -13.553   4.787  1.00  0.00    -0.393 OA
ATOM     31  H   UNL     1      17.955 -14.190   4.047  1.00  0.00     0.210 HD
ENDBRANCH  29  30
ENDBRANCH   9  11
ENDBRANCH   1   9
TORSDOF 7
ENDMDL
MODEL 3
REMARK VINA RESULT:    -6.226     13.617     16.692
REMARK INTER + INTRA:         -10.475
REMARK INTER:                  -8.742
REMARK INTRA:                  -1.734
REMARK UNBOUND:                -1.884
REMARK SMILES CC[C@@H](CC[C@@H](C)[C@H]1CC[C@@H]2[C@@H]3CC=C4C[C@@H](O)CC[C@@]4(C)[C@H]3CC[C@@]21C)C(C)C
REMARK SMILES IDX 5 1 4 2 3 3 2 4 1 5 28 6 29 7 30 8 6 9 7 10 8 11 9 12 26 13
REMARK SMILES IDX 10 14 11 15 25 16 27 17 12 18 24 19 23 20 13 21 21 22 14 23
REMARK SMILES IDX 15 24 20 25 22 26 16 27 19 28 17 29 18 30
REMARK H PARENT 18 31
REMARK Flexibility Score: inf
ROOT
ATOM      1  C   UNL     1      11.563 -13.155  17.916  1.00  0.00     0.004 C 
ENDROOT
BRANCH   1   2
ATOM      2  C   UNL     1      10.629 -12.009  17.470  1.00  0.00     0.004 C 
BRANCH   2   3
ATOM      3  C   UNL     1      10.436 -11.884  15.932  1.00  0.00    -0.009 C 
BRANCH   3   4
ATOM      4  C   UNL     1      11.593 -11.071  15.271  1.00  0.00     0.000 C 
ATOM      5  C   UNL     1      12.250 -11.826  14.115  1.00  0.00     0.004 C 
ENDBRANCH   3   4
BRANCH   3   6
ATOM      6  C   UNL     1       9.018 -11.317  15.602  1.00  0.00    -0.014 C 
ATOM      7  C   UNL     1       8.968  -9.786  15.729  1.00  0.00     0.007 C 
ATOM      8  C   UNL     1       7.883 -11.965  16.415  1.00  0.00     0.007 C 
ENDBRANCH   3   6
ENDBRANCH   2   3
ENDBRANCH   1   2
BRANCH   1   9
ATOM      9  C   UNL     1      10.875 -14.497  18.299  1.00  0.00    -0.011 C 
ATOM     10  C   UNL     1       9.451 -14.234  18.829  1.00  0.00     0.008 C 
BRANCH   9  11
ATOM     11  C   UNL     1      10.991 -15.675  17.252  1.00  0.00    -0.002 C 
ATOM     12  C   UNL     1      10.317 -15.279  15.920  1.00  0.00     0.005 C 
ATOM     13  C   UNL     1      12.393 -16.236  16.822  1.00  0.00    -0.026 C 
ATOM     14  C   UNL     1      11.421 -15.123  14.874  1.00  0.00     0.005 C 
ATOM     15  C   UNL     1      12.757 -15.387  15.589  1.00  0.00    -0.001 C 
ATOM     16  C   UNL     1      12.205 -17.730  16.400  1.00  0.00     0.007 C 
ATOM     17  C   UNL     1      13.491 -16.155  17.910  1.00  0.00     0.012 C 
ATOM     18  C   UNL     1      13.893 -15.981  14.697  1.00  0.00     0.000 C 
ATOM     19  C   UNL     1      13.387 -18.303  15.613  1.00  0.00     0.005 C 
ATOM     20  C   UNL     1      13.695 -17.471  14.341  1.00  0.00     0.003 C 
ATOM     21  C   UNL     1      14.039 -15.181  13.397  1.00  0.00     0.031 C 
ATOM     22  C   UNL     1      14.885 -18.058  13.451  1.00  0.00    -0.008 C 
ATOM     23  C   UNL     1      15.188 -15.688  12.589  1.00  0.00    -0.027 C 
ATOM     24  C   UNL     1      15.581 -16.979  12.593  1.00  0.00    -0.065 C 
ATOM     25  C   UNL     1      15.990 -18.716  14.337  1.00  0.00     0.014 C 
ATOM     26  C   UNL     1      14.245 -19.123  12.520  1.00  0.00     0.016 C 
ATOM     27  C   UNL     1      16.868 -17.284  11.847  1.00  0.00     0.063 C 
ATOM     28  C   UNL     1      17.363 -19.005  13.675  1.00  0.00     0.033 C 
ATOM     29  C   UNL     1      17.482 -18.651  12.180  1.00  0.00     0.118 C 
BRANCH  29  30
ATOM     30  O   UNL     1      18.828 -18.698  11.771  1.00  0.00    -0.393 OA
ATOM     31  H   UNL     1      18.902 -19.345  11.021  1.00  0.00     0.210 HD
ENDBRANCH  29  30
ENDBRANCH   9  11
ENDBRANCH   1   9
TORSDOF 7
ENDMDL
MODEL 4
REMARK VINA RESULT:    -5.984     13.526     17.193
REMARK INTER + INTRA:         -10.142
REMARK INTER:                  -8.275
REMARK INTRA:                  -1.868
REMARK UNBOUND:                -1.884
REMARK SMILES CC[C@@H](CC[C@@H](C)[C@H]1CC[C@@H]2[C@@H]3CC=C4C[C@@H](O)CC[C@@]4(C)[C@H]3CC[C@@]21C)C(C)C
REMARK SMILES IDX 5 1 4 2 3 3 2 4 1 5 28 6 29 7 30 8 6 9 7 10 8 11 9 12 26 13
REMARK SMILES IDX 10 14 11 15 25 16 27 17 12 18 24 19 23 20 13 21 21 22 14 23
REMARK SMILES IDX 15 24 20 25 22 26 16 27 19 28 17 29 18 30
REMARK H PARENT 18 31
REMARK Flexibility Score: inf
ROOT
ATOM      1  C   UNL     1       9.737 -14.761  18.693  1.00  0.00     0.004 C 
ENDROOT
BRANCH   1   2
ATOM      2  C   UNL     1      11.000 -13.878  18.596  1.00  0.00     0.004 C 
BRANCH   2   3
ATOM      3  C   UNL     1      10.907 -12.713  17.571  1.00  0.00    -0.009 C 
BRANCH   3   4
ATOM      4  C   UNL     1       9.451 -12.533  17.036  1.00  0.00     0.000 C 
ATOM      5  C   UNL     1       9.315 -12.932  15.567  1.00  0.00     0.004 C 
ENDBRANCH   3   4
BRANCH   3   6
ATOM      6  C   UNL     1      11.962 -12.897  16.434  1.00  0.00    -0.014 C 
ATOM      7  C   UNL     1      13.350 -13.255  16.990  1.00  0.00     0.007 C 
ATOM      8  C   UNL     1      12.056 -11.700  15.473  1.00  0.00     0.007 C 
ENDBRANCH   3   6
ENDBRANCH   2   3
ENDBRANCH   1   2
BRANCH   1   9
ATOM      9  C   UNL     1       9.971 -16.275  18.965  1.00  0.00    -0.011 C 
ATOM     10  C   UNL     1       8.910 -16.810  19.947  1.00  0.00     0.008 C 
BRANCH   9  11
ATOM     11  C   UNL     1      10.236 -17.187  17.702  1.00  0.00    -0.002 C 
ATOM     12  C   UNL     1       9.500 -16.622  16.468  1.00  0.00     0.005 C 
ATOM     13  C   UNL     1      11.696 -17.454  17.192  1.00  0.00    -0.026 C 
ATOM     14  C   UNL     1      10.562 -16.108  15.495  1.00  0.00     0.005 C 
ATOM     15  C   UNL     1      11.929 -16.330  16.164  1.00  0.00    -0.001 C 
ATOM     16  C   UNL     1      11.707 -18.843  16.471  1.00  0.00     0.007 C 
ATOM     17  C   UNL     1      12.784 -17.451  18.293  1.00  0.00     0.012 C 
ATOM     18  C   UNL     1      13.126 -16.572  15.191  1.00  0.00     0.000 C 
ATOM     19  C   UNL     1      12.948 -19.078  15.604  1.00  0.00     0.005 C 
ATOM     20  C   UNL     1      13.127 -17.969  14.534  1.00  0.00     0.003 C 
ATOM     21  C   UNL     1      13.149 -15.510  14.084  1.00  0.00     0.031 C 
ATOM     22  C   UNL     1      14.377 -18.197  13.565  1.00  0.00    -0.008 C 
ATOM     23  C   UNL     1      14.348 -15.682  13.210  1.00  0.00    -0.027 C 
ATOM     24  C   UNL     1      14.912 -16.881  12.957  1.00  0.00    -0.065 C 
ATOM     25  C   UNL     1      15.570 -18.867  14.318  1.00  0.00     0.014 C 
ATOM     26  C   UNL     1      13.877 -19.125  12.425  1.00  0.00     0.016 C 
ATOM     27  C   UNL     1      16.220 -16.851  12.188  1.00  0.00     0.063 C 
ATOM     28  C   UNL     1      16.963 -18.828  13.635  1.00  0.00     0.033 C 
ATOM     29  C   UNL     1      17.017 -18.163  12.245  1.00  0.00     0.118 C 
BRANCH  29  30
ATOM     30  O   UNL     1      18.353 -17.944  11.860  1.00  0.00    -0.393 OA
ATOM     31  H   UNL     1      18.378 -17.146  11.268  1.00  0.00     0.210 HD
ENDBRANCH  29  30
ENDBRANCH   9  11
ENDBRANCH   1   9
TORSDOF 7
ENDMDL
MODEL 5
REMARK VINA RESULT:    -5.876      2.155      3.524
REMARK INTER + INTRA:          -9.993
REMARK INTER:                 -10.019
REMARK INTRA:                   0.026
REMARK UNBOUND:                -1.884
REMARK SMILES CC[C@@H](CC[C@@H](C)[C@H]1CC[C@@H]2[C@@H]3CC=C4C[C@@H](O)CC[C@@]4(C)[C@H]3CC[C@@]21C)C(C)C
REMARK SMILES IDX 5 1 4 2 3 3 2 4 1 5 28 6 29 7 30 8 6 9 7 10 8 11 9 12 26 13
REMARK SMILES IDX 10 14 11 15 25 16 27 17 12 18 24 19 23 20 13 21 21 22 14 23
REMARK SMILES IDX 15 24 20 25 22 26 16 27 19 28 17 29 18 30
REMARK H PARENT 18 31
REMARK Flexibility Score: inf
ROOT
ATOM      1  C   UNL     1      16.605  -5.925  16.169  1.00  0.00     0.004 C 
ENDROOT
BRANCH   1   2
ATOM      2  C   UNL     1      15.832  -6.792  15.150  1.00  0.00     0.004 C 
BRANCH   2   3
ATOM      3  C   UNL     1      16.542  -8.114  14.746  1.00  0.00    -0.009 C 
BRANCH   3   4
ATOM      4  C   UNL     1      18.035  -7.870  14.358  1.00  0.00     0.000 C 
ATOM      5  C   UNL     1      18.934  -9.051  14.723  1.00  0.00     0.004 C 
ENDBRANCH   3   4
BRANCH   3   6
ATOM      6  C   UNL     1      15.731  -8.854  13.635  1.00  0.00    -0.014 C 
ATOM      7  C   UNL     1      14.248  -9.004  14.009  1.00  0.00     0.007 C 
ATOM      8  C   UNL     1      16.328 -10.214  13.230  1.00  0.00     0.007 C 
ENDBRANCH   3   6
ENDBRANCH   2   3
ENDBRANCH   1   2
BRANCH   1   9
ATOM      9  C   UNL     1      15.811  -4.760  16.827  1.00  0.00    -0.011 C 
ATOM     10  C   UNL     1      15.064  -5.264  18.077  1.00  0.00     0.008 C 
BRANCH   9  11
ATOM     11  C   UNL     1      16.584  -3.395  17.015  1.00  0.00    -0.002 C 
ATOM     12  C   UNL     1      15.669  -2.347  17.685  1.00  0.00     0.005 C 
ATOM     13  C   UNL     1      17.915  -3.330  17.846  1.00  0.00    -0.026 C 
ATOM     14  C   UNL     1      16.216  -2.088  19.090  1.00  0.00     0.005 C 
ATOM     15  C   UNL     1      17.433  -3.010  19.274  1.00  0.00    -0.001 C 
ATOM     16  C   UNL     1      18.769  -2.141  17.295  1.00  0.00     0.007 C 
ATOM     17  C   UNL     1      18.770  -4.620  17.811  1.00  0.00     0.012 C 
ATOM     18  C   UNL     1      18.543  -2.478  20.235  1.00  0.00     0.000 C 
ATOM     19  C   UNL     1      19.909  -1.716  18.226  1.00  0.00     0.005 C 
ATOM     20  C   UNL     1      19.393  -1.336  19.639  1.00  0.00     0.003 C 
ATOM     21  C   UNL     1      17.932  -1.996  21.557  1.00  0.00     0.031 C 
ATOM     22  C   UNL     1      20.537  -0.831  20.634  1.00  0.00    -0.008 C 
ATOM     23  C   UNL     1      19.000  -1.578  22.513  1.00  0.00    -0.027 C 
ATOM     24  C   UNL     1      20.176  -1.045  22.120  1.00  0.00    -0.065 C 
ATOM     25  C   UNL     1      21.885  -1.577  20.382  1.00  0.00     0.014 C 
ATOM     26  C   UNL     1      20.709   0.688  20.359  1.00  0.00     0.016 C 
ATOM     27  C   UNL     1      21.209  -0.837  23.213  1.00  0.00     0.063 C 
ATOM     28  C   UNL     1      22.979  -1.474  21.477  1.00  0.00     0.033 C 
ATOM     29  C   UNL     1      22.635  -0.595  22.697  1.00  0.00     0.118 C 
BRANCH  29  30
ATOM     30  O   UNL     1      23.572  -0.800  23.727  1.00  0.00    -0.393 OA
ATOM     31  H   UNL     1      24.380  -1.222  23.332  1.00  0.00     0.210 HD
ENDBRANCH  29  30
ENDBRANCH   9  11
ENDBRANCH   1   9
TORSDOF 7
ENDMDL
MODEL 6
REMARK VINA RESULT:    -5.751     12.292     17.493
REMARK INTER + INTRA:          -9.820
REMARK INTER:                  -8.770
REMARK INTRA:                  -1.050
REMARK UNBOUND:                -1.884
REMARK SMILES CC[C@@H](CC[C@@H](C)[C@H]1CC[C@@H]2[C@@H]3CC=C4C[C@@H](O)CC[C@@]4(C)[C@H]3CC[C@@]21C)C(C)C
REMARK SMILES IDX 5 1 4 2 3 3 2 4 1 5 28 6 29 7 30 8 6 9 7 10 8 11 9 12 26 13
REMARK SMILES IDX 10 14 11 15 25 16 27 17 12 18 24 19 23 20 13 21 21 22 14 23
REMARK SMILES IDX 15 24 20 25 22 26 16 27 19 28 17 29 18 30
REMARK H PARENT 18 31
REMARK Flexibility Score: inf
ROOT
ATOM      1  C   UNL     1      27.071  -8.706   7.975  1.00  0.00     0.004 C 
ENDROOT
BRANCH   1   2
ATOM      2  C   UNL     1      26.436  -7.448   8.606  1.00  0.00     0.004 C 
BRANCH   2   3
ATOM      3  C   UNL     1      26.082  -7.580  10.114  1.00  0.00    -0.009 C 
BRANCH   3   4
ATOM      4  C   UNL     1      26.905  -8.715  10.800  1.00  0.00     0.000 C 
ATOM      5  C   UNL     1      27.945  -8.171  11.780  1.00  0.00     0.004 C 
ENDBRANCH   3   4
BRANCH   3   6
ATOM      6  C   UNL     1      24.539  -7.738  10.303  1.00  0.00    -0.014 C 
ATOM      7  C   UNL     1      24.172  -9.096  10.921  1.00  0.00     0.007 C 
ATOM      8  C   UNL     1      23.726  -7.488   9.021  1.00  0.00     0.007 C 
ENDBRANCH   3   6
ENDBRANCH   2   3
ENDBRANCH   1   2
BRANCH   1   9
ATOM      9  C   UNL     1      27.001  -8.812   6.424  1.00  0.00    -0.011 C 
ATOM     10  C   UNL     1      27.982  -9.888   5.919  1.00  0.00     0.008 C 
BRANCH   9  11
ATOM     11  C   UNL     1      25.557  -8.869   5.784  1.00  0.00    -0.002 C 
ATOM     12  C   UNL     1      25.656  -9.003   4.248  1.00  0.00     0.005 C 
ATOM     13  C   UNL     1      24.533  -9.983   6.202  1.00  0.00    -0.026 C 
ATOM     14  C   UNL     1      25.157 -10.399   3.875  1.00  0.00     0.005 C 
ATOM     15  C   UNL     1      24.797 -11.114   5.189  1.00  0.00    -0.001 C 
ATOM     16  C   UNL     1      23.091  -9.413   5.997  1.00  0.00     0.007 C 
ATOM     17  C   UNL     1      24.673 -10.484   7.660  1.00  0.00     0.012 C 
ATOM     18  C   UNL     1      23.661 -12.180   5.088  1.00  0.00     0.000 C 
ATOM     19  C   UNL     1      21.997 -10.485   6.004  1.00  0.00     0.005 C 
ATOM     20  C   UNL     1      22.248 -11.577   4.932  1.00  0.00     0.003 C 
ATOM     21  C   UNL     1      23.917 -13.139   3.918  1.00  0.00     0.031 C 
ATOM     22  C   UNL     1      21.105 -12.691   4.859  1.00  0.00    -0.008 C 
ATOM     23  C   UNL     1      22.884 -14.217   3.880  1.00  0.00    -0.027 C 
ATOM     24  C   UNL     1      21.612 -14.035   4.292  1.00  0.00    -0.065 C 
ATOM     25  C   UNL     1      20.507 -12.991   6.270  1.00  0.00     0.014 C 
ATOM     26  C   UNL     1      20.004 -12.120   3.924  1.00  0.00     0.016 C 
ATOM     27  C   UNL     1      20.746 -15.281   4.342  1.00  0.00     0.063 C 
ATOM     28  C   UNL     1      19.659 -14.281   6.432  1.00  0.00     0.033 C 
ATOM     29  C   UNL     1      19.454 -15.120   5.155  1.00  0.00     0.118 C 
BRANCH  29  30
ATOM     30  O   UNL     1      18.917 -16.380   5.480  1.00  0.00    -0.393 OA
ATOM     31  H   UNL     1      18.311 -16.268   6.259  1.00  0.00     0.210 HD
ENDBRANCH  29  30
ENDBRANCH   9  11
ENDBRANCH   1   9
TORSDOF 7
ENDMDL
MODEL 7
REMARK VINA RESULT:    -5.740      1.694      2.975
REMARK INTER + INTRA:          -9.804
REMARK INTER:                  -9.506
REMARK INTRA:                  -0.298
REMARK UNBOUND:                -1.884
REMARK SMILES CC[C@@H](CC[C@@H](C)[C@H]1CC[C@@H]2[C@@H]3CC=C4C[C@@H](O)CC[C@@]4(C)[C@H]3CC[C@@]21C)C(C)C
REMARK SMILES IDX 5 1 4 2 3 3 2 4 1 5 28 6 29 7 30 8 6 9 7 10 8 11 9 12 26 13
REMARK SMILES IDX 10 14 11 15 25 16 27 17 12 18 24 19 23 20 13 21 21 22 14 23
REMARK SMILES IDX 15 24 20 25 22 26 16 27 19 28 17 29 18 30
REMARK H PARENT 18 31
REMARK Flexibility Score: inf
ROOT
ATOM      1  C   UNL     1      17.465  -6.250  15.894  1.00  0.00     0.004 C 
ENDROOT
BRANCH   1   2
ATOM      2  C   UNL     1      17.452  -7.412  14.878  1.00  0.00     0.004 C 
BRANCH   2   3
ATOM      3  C   UNL     1      18.530  -8.506  15.122  1.00  0.00    -0.009 C 
BRANCH   3   4
ATOM      4  C   UNL     1      19.968  -7.970  14.832  1.00  0.00     0.000 C 
ATOM      5  C   UNL     1      20.719  -7.592  16.109  1.00  0.00     0.004 C 
ENDBRANCH   3   4
BRANCH   3   6
ATOM      6  C   UNL     1      18.185  -9.804  14.325  1.00  0.00    -0.014 C 
ATOM      7  C   UNL     1      19.321 -10.215  13.375  1.00  0.00     0.007 C 
ATOM      8  C   UNL     1      16.846  -9.732  13.568  1.00  0.00     0.007 C 
ENDBRANCH   3   6
ENDBRANCH   2   3
ENDBRANCH   1   2
BRANCH   1   9
ATOM      9  C   UNL     1      16.145  -5.439  16.034  1.00  0.00    -0.011 C 
ATOM     10  C   UNL     1      14.958  -6.392  16.281  1.00  0.00     0.008 C 
BRANCH   9  11
ATOM     11  C   UNL     1      16.190  -4.170  16.974  1.00  0.00    -0.002 C 
ATOM     12  C   UNL     1      15.336  -4.407  18.239  1.00  0.00     0.005 C 
ATOM     13  C   UNL     1      17.554  -3.625  17.527  1.00  0.00    -0.026 C 
ATOM     14  C   UNL     1      16.292  -4.503  19.428  1.00  0.00     0.005 C 
ATOM     15  C   UNL     1      17.719  -4.362  18.870  1.00  0.00    -0.001 C 
ATOM     16  C   UNL     1      17.391  -2.090  17.782  1.00  0.00     0.007 C 
ATOM     17  C   UNL     1      18.773  -3.853  16.601  1.00  0.00     0.012 C 
ATOM     18  C   UNL     1      18.764  -3.728  19.841  1.00  0.00     0.000 C 
ATOM     19  C   UNL     1      18.494  -1.489  18.659  1.00  0.00     0.005 C 
ATOM     20  C   UNL     1      18.599  -2.205  20.031  1.00  0.00     0.003 C 
ATOM     21  C   UNL     1      18.707  -4.403  21.218  1.00  0.00     0.031 C 
ATOM     22  C   UNL     1      19.698  -1.580  21.008  1.00  0.00    -0.008 C 
ATOM     23  C   UNL     1      19.771  -3.864  22.116  1.00  0.00    -0.027 C 
ATOM     24  C   UNL     1      20.226  -2.596  22.044  1.00  0.00    -0.065 C 
ATOM     25  C   UNL     1      20.936  -1.055  20.215  1.00  0.00     0.014 C 
ATOM     26  C   UNL     1      19.001  -0.405  21.747  1.00  0.00     0.016 C 
ATOM     27  C   UNL     1      21.424  -2.270  22.918  1.00  0.00     0.063 C 
ATOM     28  C   UNL     1      22.230  -0.755  21.018  1.00  0.00     0.033 C 
ATOM     29  C   UNL     1      22.143  -0.966  22.543  1.00  0.00     0.118 C 
BRANCH  29  30
ATOM     30  O   UNL     1      23.429  -0.932  23.115  1.00  0.00    -0.393 OA
ATOM     31  H   UNL     1      23.439  -0.226  23.814  1.00  0.00     0.210 HD
ENDBRANCH  29  30
ENDBRANCH   9  11
ENDBRANCH   1   9
TORSDOF 7
ENDMDL
MODEL 8
REMARK VINA RESULT:    -5.708     14.443     16.932
REMARK INTER + INTRA:          -9.761
REMARK INTER:                  -8.224
REMARK INTRA:                  -1.537
REMARK UNBOUND:                -1.884
REMARK SMILES CC[C@@H](CC[C@@H](C)[C@H]1CC[C@@H]2[C@@H]3CC=C4C[C@@H](O)CC[C@@]4(C)[C@H]3CC[C@@]21C)C(C)C
REMARK SMILES IDX 5 1 4 2 3 3 2 4 1 5 28 6 29 7 30 8 6 9 7 10 8 11 9 12 26 13
REMARK SMILES IDX 10 14 11 15 25 16 27 17 12 18 24 19 23 20 13 21 21 22 14 23
REMARK SMILES IDX 15 24 20 25 22 26 16 27 19 28 17 29 18 30
REMARK H PARENT 18 31
REMARK Flexibility Score: inf
ROOT
ATOM      1  C   UNL     1      18.156 -15.687   6.870  1.00  0.00     0.004 C 
ENDROOT
BRANCH   1   2
ATOM      2  C   UNL     1      18.384 -16.499   8.163  1.00  0.00     0.004 C 
BRANCH   2   3
ATOM      3  C   UNL     1      18.215 -15.693   9.481  1.00  0.00    -0.009 C 
BRANCH   3   4
ATOM      4  C   UNL     1      19.210 -14.491   9.551  1.00  0.00     0.000 C 
ATOM      5  C   UNL     1      18.530 -13.195   9.993  1.00  0.00     0.004 C 
ENDBRANCH   3   4
BRANCH   3   6
ATOM      6  C   UNL     1      18.306 -16.640  10.720  1.00  0.00    -0.014 C 
ATOM      7  C   UNL     1      19.515 -16.309  11.610  1.00  0.00     0.007 C 
ATOM      8  C   UNL     1      18.292 -18.137  10.361  1.00  0.00     0.007 C 
ENDBRANCH   3   6
ENDBRANCH   2   3
ENDBRANCH   1   2
BRANCH   1   9
ATOM      9  C   UNL     1      19.318 -15.694   5.836  1.00  0.00    -0.011 C 
ATOM     10  C   UNL     1      19.133 -16.851   4.834  1.00  0.00     0.008 C 
BRANCH   9  11
ATOM     11  C   UNL     1      19.696 -14.303   5.188  1.00  0.00    -0.002 C 
ATOM     12  C   UNL     1      18.979 -13.153   5.928  1.00  0.00     0.005 C 
ATOM     13  C   UNL     1      21.191 -13.833   5.104  1.00  0.00    -0.026 C 
ATOM     14  C   UNL     1      20.045 -12.348   6.672  1.00  0.00     0.005 C 
ATOM     15  C   UNL     1      21.393 -13.040   6.410  1.00  0.00    -0.001 C 
ATOM     16  C   UNL     1      21.326 -12.874   3.875  1.00  0.00     0.007 C 
ATOM     17  C   UNL     1      22.228 -14.974   4.967  1.00  0.00     0.012 C 
ATOM     18  C   UNL     1      22.644 -12.105   6.421  1.00  0.00     0.000 C 
ATOM     19  C   UNL     1      22.616 -12.048   3.876  1.00  0.00     0.005 C 
ATOM     20  C   UNL     1      22.767 -11.208   5.171  1.00  0.00     0.003 C 
ATOM     21  C   UNL     1      22.644 -11.212   7.668  1.00  0.00     0.031 C 
ATOM     22  C   UNL     1      24.070 -10.283   5.198  1.00  0.00    -0.008 C 
ATOM     23  C   UNL     1      23.889 -10.388   7.730  1.00  0.00    -0.027 C 
ATOM     24  C   UNL     1      24.541  -9.954   6.631  1.00  0.00    -0.065 C 
ATOM     25  C   UNL     1      25.271 -10.966   4.470  1.00  0.00     0.014 C 
ATOM     26  C   UNL     1      23.682  -8.968   4.468  1.00  0.00     0.016 C 
ATOM     27  C   UNL     1      25.877  -9.275   6.878  1.00  0.00     0.063 C 
ATOM     28  C   UNL     1      26.686 -10.378   4.715  1.00  0.00     0.033 C 
ATOM     29  C   UNL     1      26.756  -9.137   5.626  1.00  0.00     0.118 C 
BRANCH  29  30
ATOM     30  O   UNL     1      28.090  -8.871   5.989  1.00  0.00    -0.393 OA
ATOM     31  H   UNL     1      28.408  -9.614   6.567  1.00  0.00     0.210 HD
ENDBRANCH  29  30
ENDBRANCH   9  11
ENDBRANCH   1   9
TORSDOF 7
ENDMDL
