MODEL 1
REMARK VINA RESULT:    -4.365      0.000      0.000
REMARK INTER + INTRA:         -12.395
REMARK INTER:                  -9.213
REMARK INTRA:                  -3.182
REMARK UNBOUND:                -3.182
REMARK SMILES CCC(=O)CCCCC[C@H]1NC(=O)[C@H]2CCCCN2C(=O)[C@H]([C@@H](C)CC)NC(=O)[C@@H](Cc2cn(OC)c3ccccc23)NC1=O
REMARK SMILES IDX 9 1 10 2 44 3 43 4 45 6 30 7 28 8 27 9 29 11 22 12 23 14
REMARK SMILES IDX 24 15 25 16 26 17 31 18 32 19 33 20 42 21 34 22 37 23 41 24
REMARK SMILES IDX 38 25 40 26 39 27 35 28 36 29 11 30 12 31 13 33 14 34 19 35
REMARK SMILES IDX 15 36 18 37 16 38 17 39 20 40 21 41 8 43 7 44 6 45 5 46 3 47
REMARK SMILES IDX 4 48 2 49 1 50
REMARK H PARENT 43 5 27 10 11 32
REMARK Flexibility Score: 80.00
ROOT
ATOM      1  C   UNL     1      16.642  14.298 -18.708  1.00  0.00     0.035 C 
ENDROOT
BRANCH   1   2
ATOM      2  C   UNL     1      16.513  15.196 -17.459  1.00  0.00     0.171 C 
BRANCH   2   3
ATOM      3  C   UNL     1      17.066  16.576 -17.686  1.00  0.00     0.243 C 
ATOM      4  N   UNL     1      16.363  17.727 -17.184  1.00  0.00    -0.342 N 
ATOM      5  H   UNL     1      15.360  17.618 -16.916  1.00  0.00     0.164 HD
ATOM      6  O   UNL     1      18.194  16.710 -18.234  1.00  0.00    -0.273 OA
BRANCH   4   7
ATOM      7  C   UNL     1      17.042  18.968 -16.790  1.00  0.00     0.175 C 
BRANCH   7   8
ATOM      8  C   UNL     1      18.419  18.649 -16.248  1.00  0.00     0.243 C 
ATOM      9  N   UNL     1      18.535  17.780 -15.108  1.00  0.00    -0.342 N 
ATOM     10  H   UNL     1      17.651  17.422 -14.681  1.00  0.00     0.164 HD
ATOM     11  O   UNL     1      19.452  19.164 -16.760  1.00  0.00    -0.273 OA
BRANCH   9  12
ATOM     12  C   UNL     1      19.815  17.259 -14.621  1.00  0.00     0.174 CG0
ATOM     13  G   UNL     1      19.790  15.742 -14.643  1.00  0.00     0.000 G0
BRANCH  12  14
ATOM     14  C   UNL     1      20.204  17.905 -13.258  1.00  0.00     0.018 C 
ATOM     15  C   UNL     1      21.456  18.781 -13.434  1.00  0.00     0.010 C 
BRANCH  14  16
ATOM     16  C   UNL     1      19.057  18.735 -12.625  1.00  0.00     0.002 C 
ATOM     17  C   UNL     1      19.374  20.227 -12.557  1.00  0.00     0.004 C 
ENDBRANCH  14  16
ENDBRANCH  12  14
ENDBRANCH   9  12
ENDBRANCH   7   8
BRANCH   7  18
ATOM     18  C   UNL     1      17.027  19.970 -17.966  1.00  0.00     0.073 C 
BRANCH  18  19
ATOM     19  C   UNL     1      15.678  20.087 -18.621  1.00  0.00    -0.016 A 
ATOM     20  C   UNL     1      14.642  20.912 -18.209  1.00  0.00     0.134 A 
ATOM     21  C   UNL     1      15.222  19.454 -19.765  1.00  0.00     0.006 A 
ATOM     22  N   UNL     1      13.586  20.802 -19.046  1.00  0.00    -0.191 N 
ATOM     23  C   UNL     1      13.940  19.902 -20.002  1.00  0.00     0.087 A 
ATOM     24  C   UNL     1      15.858  18.540 -20.608  1.00  0.00     0.011 A 
ATOM     25  C   UNL     1      13.209  19.418 -21.101  1.00  0.00     0.030 A 
ATOM     26  C   UNL     1      15.142  18.051 -21.710  1.00  0.00     0.001 A 
ATOM     27  C   UNL     1      13.822  18.482 -21.950  1.00  0.00     0.002 A 
BRANCH  22  28
ATOM     28  O   UNL     1      12.441  21.566 -18.888  1.00  0.00    -0.417 OA
ATOM     29  C   UNL     1      12.260  22.882 -19.388  1.00  0.00     0.313 C 
ENDBRANCH  22  28
ENDBRANCH  18  19
ENDBRANCH   7  18
ENDBRANCH   4   7
ENDBRANCH   2   3
BRANCH   2  30
ATOM     30  N   UNL     1      17.240  14.586 -16.343  1.00  0.00    -0.343 N 
ATOM     31  C   UNL     1      17.022  14.964 -14.973  1.00  0.00     0.243 C 
ATOM     32  H   UNL     1      18.034  13.944 -16.573  1.00  0.00     0.164 HD
ATOM     33  O   UNL     1      16.149  15.830 -14.692  1.00  0.00    -0.273 OA
BRANCH  31  34
ATOM     34  C   UNL     1      17.816  14.338 -13.843  1.00  0.00     0.174 C 
ATOM     35  N   UNL     1      19.174  14.905 -13.664  1.00  0.00    -0.329 N 
ATOM     36  C   UNL     1      17.907  12.806 -13.979  1.00  0.00     0.035 C 
ATOM     37  C   UNL     1      20.068  14.286 -12.667  1.00  0.00     0.120 C 
ATOM     38  C   UNL     1      18.688  12.155 -12.813  1.00  0.00     0.004 C 
ATOM     39  C   UNL     1      19.371  13.167 -11.878  1.00  0.00     0.022 C 
BRANCH  35  40
ATOM     40  C   UNL     1      19.794  15.730 -14.666  1.00  0.00     0.246 CG0
ATOM     41  O   UNL     1      20.348  15.168 -15.650  1.00  0.00    -0.272 OA
ATOM     42  G   UNL     1      19.816  17.245 -14.597  1.00  0.00     0.000 G0
ENDBRANCH  35  40
ENDBRANCH  31  34
ENDBRANCH   2  30
ENDBRANCH   1   2
BRANCH   1  43
ATOM     43  C   UNL     1      15.300  13.843 -19.317  1.00  0.00     0.003 C 
BRANCH  43  44
ATOM     44  C   UNL     1      14.381  14.983 -19.796  1.00  0.00     0.001 C 
BRANCH  44  45
ATOM     45  C   UNL     1      13.322  14.556 -20.838  1.00  0.00     0.008 C 
BRANCH  45  46
ATOM     46  C   UNL     1      13.667  14.976 -22.278  1.00  0.00     0.075 C 
BRANCH  46  47
ATOM     47  C   UNL     1      14.223  13.837 -23.089  1.00  0.00     0.132 C 
ATOM     48  O   UNL     1      13.591  12.792 -23.173  1.00  0.00    -0.300 OA
BRANCH  47  49
ATOM     49  C   UNL     1      15.528  13.980 -23.823  1.00  0.00     0.072 C 
ATOM     50  C   UNL     1      15.802  15.441 -24.162  1.00  0.00     0.012 C 
ENDBRANCH  47  49
ENDBRANCH  46  47
ENDBRANCH  45  46
ENDBRANCH  44  45
ENDBRANCH  43  44
ENDBRANCH   1  43
TORSDOF 12
ENDMDL
MODEL 2
REMARK VINA RESULT:    -4.336      2.268      6.424
REMARK INTER + INTRA:         -12.333
REMARK INTER:                 -10.055
REMARK INTRA:                  -2.278
REMARK UNBOUND:                -3.182
REMARK SMILES CCC(=O)CCCCC[C@H]1NC(=O)[C@H]2CCCCN2C(=O)[C@H]([C@@H](C)CC)NC(=O)[C@@H](Cc2cn(OC)c3ccccc23)NC1=O
REMARK SMILES IDX 9 1 10 2 44 3 43 4 45 6 30 7 28 8 27 9 29 11 22 12 23 14
REMARK SMILES IDX 24 15 25 16 26 17 31 18 32 19 33 20 42 21 34 22 37 23 41 24
REMARK SMILES IDX 38 25 40 26 39 27 35 28 36 29 11 30 12 31 13 33 14 34 19 35
REMARK SMILES IDX 15 36 18 37 16 38 17 39 20 40 21 41 8 43 7 44 6 45 5 46 3 47
REMARK SMILES IDX 4 48 2 49 1 50
REMARK H PARENT 43 5 27 10 11 32
REMARK Flexibility Score: 80.00
ROOT
ATOM      1  C   UNL     1      16.002  18.438 -18.522  1.00  0.00     0.035 C 
ENDROOT
BRANCH   1   2
ATOM      2  C   UNL     1      17.250  17.599 -18.174  1.00  0.00     0.171 C 
BRANCH   2   3
ATOM      3  C   UNL     1      16.916  16.156 -17.911  1.00  0.00     0.243 C 
ATOM      4  N   UNL     1      17.733  15.113 -18.472  1.00  0.00    -0.342 N 
ATOM      5  H   UNL     1      18.370  15.352 -19.263  1.00  0.00     0.164 HD
ATOM      6  O   UNL     1      15.975  15.871 -17.122  1.00  0.00    -0.273 OA
BRANCH   4   7
ATOM      7  C   UNL     1      17.908  13.804 -17.829  1.00  0.00     0.175 C 
BRANCH   7   8
ATOM      8  C   UNL     1      17.938  13.972 -16.325  1.00  0.00     0.243 C 
ATOM      9  N   UNL     1      18.959  14.795 -15.736  1.00  0.00    -0.342 N 
ATOM     10  H   UNL     1      19.660  15.229 -16.378  1.00  0.00     0.164 HD
ATOM     11  O   UNL     1      17.106  13.370 -15.589  1.00  0.00    -0.273 OA
BRANCH   9  12
ATOM     12  C   UNL     1      18.968  15.176 -14.321  1.00  0.00     0.174 CG0
ATOM     13  G   UNL     1      18.673  16.657 -14.187  1.00  0.00     0.000 G0
BRANCH  12  14
ATOM     14  C   UNL     1      20.268  14.683 -13.615  1.00  0.00     0.018 C 
ATOM     15  C   UNL     1      19.919  13.613 -12.567  1.00  0.00     0.010 C 
BRANCH  14  16
ATOM     16  C   UNL     1      21.330  14.136 -14.603  1.00  0.00     0.002 C 
ATOM     17  C   UNL     1      21.630  12.654 -14.388  1.00  0.00     0.004 C 
ENDBRANCH  14  16
ENDBRANCH  12  14
ENDBRANCH   9  12
ENDBRANCH   7   8
BRANCH   7  18
ATOM     18  C   UNL     1      16.836  12.818 -18.347  1.00  0.00     0.073 C 
BRANCH  18  19
ATOM     19  C   UNL     1      16.882  12.634 -19.840  1.00  0.00    -0.016 A 
ATOM     20  C   UNL     1      15.880  12.981 -20.734  1.00  0.00     0.134 A 
ATOM     21  C   UNL     1      17.921  12.144 -20.612  1.00  0.00     0.006 A 
ATOM     22  N   UNL     1      16.264  12.719 -22.003  1.00  0.00    -0.191 N 
ATOM     23  C   UNL     1      17.519  12.199 -21.930  1.00  0.00     0.087 A 
ATOM     24  C   UNL     1      19.183  11.677 -20.240  1.00  0.00     0.011 A 
ATOM     25  C   UNL     1      18.370  11.750 -22.954  1.00  0.00     0.030 A 
ATOM     26  C   UNL     1      20.045  11.228 -21.251  1.00  0.00     0.001 A 
ATOM     27  C   UNL     1      19.637  11.257 -22.599  1.00  0.00     0.002 A 
BRANCH  22  28
ATOM     28  O   UNL     1      15.464  13.028 -23.091  1.00  0.00    -0.417 OA
ATOM     29  C   UNL     1      14.216  13.701 -23.024  1.00  0.00     0.313 C 
ENDBRANCH  22  28
ENDBRANCH  18  19
ENDBRANCH   7  18
ENDBRANCH   4   7
ENDBRANCH   2   3
BRANCH   2  30
ATOM     30  N   UNL     1      17.887  18.150 -16.975  1.00  0.00    -0.343 N 
ATOM     31  C   UNL     1      19.284  17.971 -16.685  1.00  0.00     0.243 C 
ATOM     32  H   UNL     1      17.268  18.580 -16.250  1.00  0.00     0.164 HD
ATOM     33  O   UNL     1      20.019  17.346 -17.498  1.00  0.00    -0.273 OA
BRANCH  31  34
ATOM     34  C   UNL     1      19.907  18.524 -15.418  1.00  0.00     0.174 C 
ATOM     35  N   UNL     1      19.657  17.706 -14.207  1.00  0.00    -0.329 N 
ATOM     36  C   UNL     1      19.485  19.983 -15.156  1.00  0.00     0.035 C 
ATOM     37  C   UNL     1      20.122  18.220 -12.905  1.00  0.00     0.120 C 
ATOM     38  C   UNL     1      20.141  20.567 -13.883  1.00  0.00     0.004 C 
ATOM     39  C   UNL     1      20.910  19.531 -13.045  1.00  0.00     0.022 C 
BRANCH  35  40
ATOM     40  C   UNL     1      18.654  16.676 -14.176  1.00  0.00     0.246 CG0
ATOM     41  O   UNL     1      17.447  17.015 -14.042  1.00  0.00    -0.272 OA
ATOM     42  G   UNL     1      18.976  15.199 -14.297  1.00  0.00     0.000 G0
ENDBRANCH  35  40
ENDBRANCH  31  34
ENDBRANCH   2  30
ENDBRANCH   1   2
BRANCH   1  43
ATOM     43  C   UNL     1      15.521  18.303 -19.982  1.00  0.00     0.003 C 
BRANCH  43  44
ATOM     44  C   UNL     1      13.991  18.255 -20.163  1.00  0.00     0.001 C 
BRANCH  44  45
ATOM     45  C   UNL     1      13.373  19.553 -20.733  1.00  0.00     0.008 C 
BRANCH  45  46
ATOM     46  C   UNL     1      13.920  20.835 -20.081  1.00  0.00     0.075 C 
BRANCH  46  47
ATOM     47  C   UNL     1      12.848  21.622 -19.377  1.00  0.00     0.132 C 
ATOM     48  O   UNL     1      12.694  21.487 -18.170  1.00  0.00    -0.300 OA
BRANCH  47  49
ATOM     49  C   UNL     1      11.985  22.594 -20.134  1.00  0.00     0.072 C 
ATOM     50  C   UNL     1      12.685  23.064 -21.405  1.00  0.00     0.012 C 
ENDBRANCH  47  49
ENDBRANCH  46  47
ENDBRANCH  45  46
ENDBRANCH  44  45
ENDBRANCH  43  44
ENDBRANCH   1  43
TORSDOF 12
ENDMDL
MODEL 3
REMARK VINA RESULT:    -4.325      2.035      6.380
REMARK INTER + INTRA:         -12.311
REMARK INTER:                  -9.860
REMARK INTRA:                  -2.451
REMARK UNBOUND:                -3.182
REMARK SMILES CCC(=O)CCCCC[C@H]1NC(=O)[C@H]2CCCCN2C(=O)[C@H]([C@@H](C)CC)NC(=O)[C@@H](Cc2cn(OC)c3ccccc23)NC1=O
REMARK SMILES IDX 9 1 10 2 44 3 43 4 45 6 30 7 28 8 27 9 29 11 22 12 23 14
REMARK SMILES IDX 24 15 25 16 26 17 31 18 32 19 33 20 42 21 34 22 37 23 41 24
REMARK SMILES IDX 38 25 40 26 39 27 35 28 36 29 11 30 12 31 13 33 14 34 19 35
REMARK SMILES IDX 15 36 18 37 16 38 17 39 20 40 21 41 8 43 7 44 6 45 5 46 3 47
REMARK SMILES IDX 4 48 2 49 1 50
REMARK H PARENT 43 5 27 10 11 32
REMARK Flexibility Score: 80.00
ROOT
ATOM      1  C   UNL     1      16.337  19.094 -17.832  1.00  0.00     0.035 C 
ENDROOT
BRANCH   1   2
ATOM      2  C   UNL     1      17.518  18.180 -17.441  1.00  0.00     0.171 C 
BRANCH   2   3
ATOM      3  C   UNL     1      17.075  16.779 -17.119  1.00  0.00     0.243 C 
ATOM      4  N   UNL     1      17.821  15.654 -17.618  1.00  0.00    -0.342 N 
ATOM      5  H   UNL     1      18.485  15.809 -18.409  1.00  0.00     0.164 HD
ATOM      6  O   UNL     1      16.105  16.600 -16.334  1.00  0.00    -0.273 OA
BRANCH   4   7
ATOM      7  C   UNL     1      17.890  14.367 -16.915  1.00  0.00     0.175 C 
BRANCH   7   8
ATOM      8  C   UNL     1      17.902  14.600 -15.419  1.00  0.00     0.243 C 
ATOM      9  N   UNL     1      18.928  15.433 -14.852  1.00  0.00    -0.342 N 
ATOM     10  H   UNL     1      19.645  15.826 -15.501  1.00  0.00     0.164 HD
ATOM     11  O   UNL     1      17.050  14.045 -14.670  1.00  0.00    -0.273 OA
BRANCH   9  12
ATOM     12  C   UNL     1      18.923  15.875 -13.455  1.00  0.00     0.174 CG0
ATOM     13  G   UNL     1      18.806  17.386 -13.397  1.00  0.00     0.000 G0
BRANCH  12  14
ATOM     14  C   UNL     1      20.121  15.264 -12.667  1.00  0.00     0.018 C 
ATOM     15  C   UNL     1      19.771  13.838 -12.209  1.00  0.00     0.010 C 
BRANCH  14  16
ATOM     16  C   UNL     1      21.443  15.254 -13.477  1.00  0.00     0.002 C 
ATOM     17  C   UNL     1      22.015  13.850 -13.660  1.00  0.00     0.004 C 
ENDBRANCH  14  16
ENDBRANCH  12  14
ENDBRANCH   9  12
ENDBRANCH   7   8
BRANCH   7  18
ATOM     18  C   UNL     1      16.763  13.435 -17.414  1.00  0.00     0.073 C 
BRANCH  18  19
ATOM     19  C   UNL     1      16.862  13.129 -18.884  1.00  0.00    -0.016 A 
ATOM     20  C   UNL     1      17.677  12.166 -19.461  1.00  0.00     0.134 A 
ATOM     21  C   UNL     1      16.146  13.690 -19.927  1.00  0.00     0.006 A 
ATOM     22  N   UNL     1      17.488  12.125 -20.799  1.00  0.00    -0.191 N 
ATOM     23  C   UNL     1      16.550  13.066 -21.088  1.00  0.00     0.087 A 
ATOM     24  C   UNL     1      15.166  14.684 -19.919  1.00  0.00     0.011 A 
ATOM     25  C   UNL     1      16.000  13.442 -22.326  1.00  0.00     0.030 A 
ATOM     26  C   UNL     1      14.606  15.068 -21.147  1.00  0.00     0.001 A 
ATOM     27  C   UNL     1      15.027  14.454 -22.344  1.00  0.00     0.002 A 
BRANCH  22  28
ATOM     28  O   UNL     1      18.143  11.207 -21.606  1.00  0.00    -0.417 OA
ATOM     29  C   UNL     1      19.535  11.209 -21.883  1.00  0.00     0.313 C 
ENDBRANCH  22  28
ENDBRANCH  18  19
ENDBRANCH   7  18
ENDBRANCH   4   7
ENDBRANCH   2   3
BRANCH   2  30
ATOM     30  N   UNL     1      18.192  18.732 -16.263  1.00  0.00    -0.343 N 
ATOM     31  C   UNL     1      19.574  18.471 -15.964  1.00  0.00     0.243 C 
ATOM     32  H   UNL     1      17.604  19.229 -15.555  1.00  0.00     0.164 HD
ATOM     33  O   UNL     1      20.265  17.767 -16.751  1.00  0.00    -0.273 OA
BRANCH  31  34
ATOM     34  C   UNL     1      20.234  19.028 -14.718  1.00  0.00     0.174 C 
ATOM     35  N   UNL     1      19.885  18.310 -13.469  1.00  0.00    -0.329 N 
ATOM     36  C   UNL     1      19.962  20.535 -14.545  1.00  0.00     0.035 C 
ATOM     37  C   UNL     1      20.383  18.847 -12.189  1.00  0.00     0.120 C 
ATOM     38  C   UNL     1      20.658  21.120 -13.293  1.00  0.00     0.004 C 
ATOM     39  C   UNL     1      21.304  20.060 -12.386  1.00  0.00     0.022 C 
BRANCH  35  40
ATOM     40  C   UNL     1      18.780  17.392 -13.400  1.00  0.00     0.246 CG0
ATOM     41  O   UNL     1      17.615  17.859 -13.282  1.00  0.00    -0.272 OA
ATOM     42  G   UNL     1      18.948  15.885 -13.463  1.00  0.00     0.000 G0
ENDBRANCH  35  40
ENDBRANCH  31  34
ENDBRANCH   2  30
ENDBRANCH   1   2
BRANCH   1  43
ATOM     43  C   UNL     1      15.460  18.560 -18.982  1.00  0.00     0.003 C 
BRANCH  43  44
ATOM     44  C   UNL     1      14.290  19.475 -19.390  1.00  0.00     0.001 C 
BRANCH  44  45
ATOM     45  C   UNL     1      14.205  20.798 -18.593  1.00  0.00     0.008 C 
BRANCH  45  46
ATOM     46  C   UNL     1      14.302  22.056 -19.472  1.00  0.00     0.075 C 
BRANCH  46  47
ATOM     47  C   UNL     1      12.964  22.705 -19.696  1.00  0.00     0.132 C 
ATOM     48  O   UNL     1      12.150  22.739 -18.782  1.00  0.00    -0.300 OA
BRANCH  47  49
ATOM     49  C   UNL     1      12.626  23.337 -21.018  1.00  0.00     0.072 C 
ATOM     50  C   UNL     1      13.009  22.416 -22.172  1.00  0.00     0.012 C 
ENDBRANCH  47  49
ENDBRANCH  46  47
ENDBRANCH  45  46
ENDBRANCH  44  45
ENDBRANCH  43  44
ENDBRANCH   1  43
TORSDOF 12
ENDMDL
MODEL 4
REMARK VINA RESULT:    -4.254      4.240      8.151
REMARK INTER + INTRA:         -12.160
REMARK INTER:                  -9.330
REMARK INTRA:                  -2.830
REMARK UNBOUND:                -3.182
REMARK SMILES CCC(=O)CCCCC[C@H]1NC(=O)[C@H]2CCCCN2C(=O)[C@H]([C@@H](C)CC)NC(=O)[C@@H](Cc2cn(OC)c3ccccc23)NC1=O
REMARK SMILES IDX 9 1 10 2 44 3 43 4 45 6 30 7 28 8 27 9 29 11 22 12 23 14
REMARK SMILES IDX 24 15 25 16 26 17 31 18 32 19 33 20 42 21 34 22 37 23 41 24
REMARK SMILES IDX 38 25 40 26 39 27 35 28 36 29 11 30 12 31 13 33 14 34 19 35
REMARK SMILES IDX 15 36 18 37 16 38 17 39 20 40 21 41 8 43 7 44 6 45 5 46 3 47
REMARK SMILES IDX 4 48 2 49 1 50
REMARK H PARENT 43 5 27 10 11 32
REMARK Flexibility Score: 80.00
ROOT
ATOM      1  C   UNL     1      17.400  10.912 -17.850  1.00  0.00     0.035 C 
ENDROOT
BRANCH   1   2
ATOM      2  C   UNL     1      16.935  11.870 -18.967  1.00  0.00     0.171 C 
BRANCH   2   3
ATOM      3  C   UNL     1      16.463  13.192 -18.427  1.00  0.00     0.243 C 
ATOM      4  N   UNL     1      16.921  14.420 -19.023  1.00  0.00    -0.342 N 
ATOM      5  H   UNL     1      17.770  14.391 -19.629  1.00  0.00     0.164 HD
ATOM      6  O   UNL     1      15.593  13.215 -17.515  1.00  0.00    -0.273 OA
BRANCH   4   7
ATOM      7  C   UNL     1      16.118  15.650 -19.034  1.00  0.00     0.175 C 
BRANCH   7   8
ATOM      8  C   UNL     1      14.806  15.398 -19.746  1.00  0.00     0.243 C 
ATOM      9  N   UNL     1      14.789  14.532 -20.893  1.00  0.00    -0.342 N 
ATOM     10  H   UNL     1      15.700  14.127 -21.206  1.00  0.00     0.164 HD
ATOM     11  O   UNL     1      13.744  15.967 -19.366  1.00  0.00    -0.273 OA
BRANCH   9  12
ATOM     12  C   UNL     1      13.556  14.074 -21.538  1.00  0.00     0.174 CG0
ATOM     13  G   UNL     1      13.243  12.657 -21.095  1.00  0.00     0.000 G0
BRANCH  12  14
ATOM     14  C   UNL     1      13.609  14.300 -23.079  1.00  0.00     0.018 C 
ATOM     15  C   UNL     1      12.933  15.636 -23.434  1.00  0.00     0.010 C 
BRANCH  14  16
ATOM     16  C   UNL     1      15.049  14.262 -23.653  1.00  0.00     0.002 C 
ATOM     17  C   UNL     1      15.536  15.630 -24.123  1.00  0.00     0.004 C 
ENDBRANCH  14  16
ENDBRANCH  12  14
ENDBRANCH   9  12
ENDBRANCH   7   8
BRANCH   7  18
ATOM     18  C   UNL     1      15.978  16.198 -17.596  1.00  0.00     0.073 C 
BRANCH  18  19
ATOM     19  C   UNL     1      16.651  17.530 -17.408  1.00  0.00    -0.016 A 
ATOM     20  C   UNL     1      17.839  17.753 -16.727  1.00  0.00     0.134 A 
ATOM     21  C   UNL     1      16.266  18.763 -17.905  1.00  0.00     0.006 A 
ATOM     22  N   UNL     1      18.183  19.059 -16.786  1.00  0.00    -0.191 N 
ATOM     23  C   UNL     1      17.213  19.683 -17.507  1.00  0.00     0.087 A 
ATOM     24  C   UNL     1      15.165  19.120 -18.686  1.00  0.00     0.011 A 
ATOM     25  C   UNL     1      17.079  21.038 -17.855  1.00  0.00     0.030 A 
ATOM     26  C   UNL     1      15.020  20.469 -19.044  1.00  0.00     0.001 A 
ATOM     27  C   UNL     1      15.968  21.423 -18.624  1.00  0.00     0.002 A 
BRANCH  22  28
ATOM     28  O   UNL     1      19.360  19.535 -16.231  1.00  0.00    -0.417 OA
ATOM     29  C   UNL     1      20.383  18.728 -15.669  1.00  0.00     0.313 C 
ENDBRANCH  22  28
ENDBRANCH  18  19
ENDBRANCH   7  18
ENDBRANCH   4   7
ENDBRANCH   2   3
BRANCH   2  30
ATOM     30  N   UNL     1      15.831  11.255 -19.708  1.00  0.00    -0.343 N 
ATOM     31  C   UNL     1      15.769  11.244 -21.145  1.00  0.00     0.243 C 
ATOM     32  H   UNL     1      15.002  10.925 -19.161  1.00  0.00     0.164 HD
ATOM     33  O   UNL     1      16.709  11.750 -21.817  1.00  0.00    -0.273 OA
BRANCH  31  34
ATOM     34  C   UNL     1      14.595  10.629 -21.882  1.00  0.00     0.174 C 
ATOM     35  N   UNL     1      13.388  11.488 -21.932  1.00  0.00    -0.329 N 
ATOM     36  C   UNL     1      14.224   9.242 -21.323  1.00  0.00     0.035 C 
ATOM     37  C   UNL     1      12.157  10.934 -22.526  1.00  0.00     0.120 C 
ATOM     38  C   UNL     1      13.048   8.592 -22.090  1.00  0.00     0.004 C 
ATOM     39  C   UNL     1      12.373   9.528 -23.107  1.00  0.00     0.022 C 
BRANCH  35  40
ATOM     40  C   UNL     1      13.237  12.642 -21.086  1.00  0.00     0.246 CG0
ATOM     41  O   UNL     1      12.832  12.472 -19.904  1.00  0.00    -0.272 OA
ATOM     42  G   UNL     1      13.542  14.054 -21.547  1.00  0.00     0.000 G0
ENDBRANCH  35  40
ENDBRANCH  31  34
ENDBRANCH   2  30
ENDBRANCH   1   2
BRANCH   1  43
ATOM     43  C   UNL     1      18.905  10.987 -17.520  1.00  0.00     0.003 C 
BRANCH  43  44
ATOM     44  C   UNL     1      19.847  10.638 -18.689  1.00  0.00     0.001 C 
BRANCH  44  45
ATOM     45  C   UNL     1      19.855   9.141 -19.077  1.00  0.00     0.008 C 
BRANCH  45  46
ATOM     46  C   UNL     1      19.108   8.839 -20.388  1.00  0.00     0.075 C 
BRANCH  46  47
ATOM     47  C   UNL     1      18.355   7.538 -20.333  1.00  0.00     0.132 C 
ATOM     48  O   UNL     1      18.060   6.968 -21.376  1.00  0.00    -0.300 OA
BRANCH  47  49
ATOM     49  C   UNL     1      17.989   6.915 -19.014  1.00  0.00     0.072 C 
ATOM     50  C   UNL     1      16.522   7.171 -18.684  1.00  0.00     0.012 C 
ENDBRANCH  47  49
ENDBRANCH  46  47
ENDBRANCH  45  46
ENDBRANCH  44  45
ENDBRANCH  43  44
ENDBRANCH   1  43
TORSDOF 12
ENDMDL
MODEL 5
REMARK VINA RESULT:    -4.241      1.785      2.839
REMARK INTER + INTRA:         -12.133
REMARK INTER:                  -9.159
REMARK INTRA:                  -2.974
REMARK UNBOUND:                -3.182
REMARK SMILES CCC(=O)CCCCC[C@H]1NC(=O)[C@H]2CCCCN2C(=O)[C@H]([C@@H](C)CC)NC(=O)[C@@H](Cc2cn(OC)c3ccccc23)NC1=O
REMARK SMILES IDX 9 1 10 2 44 3 43 4 45 6 30 7 28 8 27 9 29 11 22 12 23 14
REMARK SMILES IDX 24 15 25 16 26 17 31 18 32 19 33 20 42 21 34 22 37 23 41 24
REMARK SMILES IDX 38 25 40 26 39 27 35 28 36 29 11 30 12 31 13 33 14 34 19 35
REMARK SMILES IDX 15 36 18 37 16 38 17 39 20 40 21 41 8 43 7 44 6 45 5 46 3 47
REMARK SMILES IDX 4 48 2 49 1 50
REMARK H PARENT 43 5 27 10 11 32
REMARK Flexibility Score: 80.00
ROOT
ATOM      1  C   UNL     1      16.698  14.575 -18.481  1.00  0.00     0.035 C 
ENDROOT
BRANCH   1   2
ATOM      2  C   UNL     1      16.642  15.506 -17.251  1.00  0.00     0.171 C 
BRANCH   2   3
ATOM      3  C   UNL     1      17.100  16.903 -17.568  1.00  0.00     0.243 C 
ATOM      4  N   UNL     1      16.360  18.034 -17.074  1.00  0.00    -0.342 N 
ATOM      5  H   UNL     1      15.382  17.881 -16.742  1.00  0.00     0.164 HD
ATOM      6  O   UNL     1      18.185  17.075 -18.187  1.00  0.00    -0.273 OA
BRANCH   4   7
ATOM      7  C   UNL     1      16.986  19.328 -16.773  1.00  0.00     0.175 C 
BRANCH   7   8
ATOM      8  C   UNL     1      18.379  19.107 -16.222  1.00  0.00     0.243 C 
ATOM      9  N   UNL     1      18.534  18.391 -14.985  1.00  0.00    -0.342 N 
ATOM     10  H   UNL     1      17.666  18.070 -14.500  1.00  0.00     0.164 HD
ATOM     11  O   UNL     1      19.391  19.575 -16.815  1.00  0.00    -0.273 OA
BRANCH   9  12
ATOM     12  C   UNL     1      19.833  17.960 -14.463  1.00  0.00     0.174 CG0
ATOM     13  G   UNL     1      19.963  16.454 -14.591  1.00  0.00     0.000 G0
BRANCH  12  14
ATOM     14  C   UNL     1      20.085  18.537 -13.037  1.00  0.00     0.018 C 
ATOM     15  C   UNL     1      21.595  18.571 -12.747  1.00  0.00     0.010 C 
BRANCH  14  16
ATOM     16  C   UNL     1      19.470  19.945 -12.830  1.00  0.00     0.002 C 
ATOM     17  C   UNL     1      20.354  21.063 -13.376  1.00  0.00     0.004 C 
ENDBRANCH  14  16
ENDBRANCH  12  14
ENDBRANCH   9  12
ENDBRANCH   7   8
BRANCH   7  18
ATOM     18  C   UNL     1      16.921  20.244 -18.016  1.00  0.00     0.073 C 
BRANCH  18  19
ATOM     19  C   UNL     1      15.567  20.246 -18.672  1.00  0.00    -0.016 A 
ATOM     20  C   UNL     1      14.485  21.033 -18.303  1.00  0.00     0.134 A 
ATOM     21  C   UNL     1      15.148  19.527 -19.778  1.00  0.00     0.006 A 
ATOM     22  N   UNL     1      13.437  20.817 -19.130  1.00  0.00    -0.191 N 
ATOM     23  C   UNL     1      13.842  19.886 -20.035  1.00  0.00     0.087 A 
ATOM     24  C   UNL     1      15.835  18.605 -20.570  1.00  0.00     0.011 A 
ATOM     25  C   UNL     1      13.140  19.301 -21.103  1.00  0.00     0.030 A 
ATOM     26  C   UNL     1      15.148  18.014 -21.641  1.00  0.00     0.001 A 
ATOM     27  C   UNL     1      13.806  18.356 -21.901  1.00  0.00     0.002 A 
BRANCH  22  28
ATOM     28  O   UNL     1      12.250  21.522 -19.010  1.00  0.00    -0.417 OA
ATOM     29  C   UNL     1      11.876  22.309 -17.890  1.00  0.00     0.313 C 
ENDBRANCH  22  28
ENDBRANCH  18  19
ENDBRANCH   7  18
ENDBRANCH   4   7
ENDBRANCH   2   3
BRANCH   2  30
ATOM     30  N   UNL     1      17.504  14.967 -16.195  1.00  0.00    -0.343 N 
ATOM     31  C   UNL     1      17.327  15.293 -14.805  1.00  0.00     0.243 C 
ATOM     32  H   UNL     1      18.351  14.428 -16.487  1.00  0.00     0.164 HD
ATOM     33  O   UNL     1      16.378  16.045 -14.453  1.00  0.00    -0.273 OA
BRANCH  31  34
ATOM     34  C   UNL     1      18.257  14.747 -13.739  1.00  0.00     0.174 C 
ATOM     35  N   UNL     1      19.530  15.494 -13.599  1.00  0.00    -0.329 N 
ATOM     36  C   UNL     1      18.553  13.249 -13.943  1.00  0.00     0.035 C 
ATOM     37  C   UNL     1      20.551  14.973 -12.671  1.00  0.00     0.120 C 
ATOM     38  C   UNL     1      19.476  12.675 -12.842  1.00  0.00     0.004 C 
ATOM     39  C   UNL     1      20.058  13.740 -11.898  1.00  0.00     0.022 C 
BRANCH  35  40
ATOM     40  C   UNL     1      19.978  16.433 -14.593  1.00  0.00     0.246 CG0
ATOM     41  O   UNL     1      20.536  15.988 -15.633  1.00  0.00    -0.272 OA
ATOM     42  G   UNL     1      19.811  17.934 -14.452  1.00  0.00     0.000 G0
ENDBRANCH  35  40
ENDBRANCH  31  34
ENDBRANCH   2  30
ENDBRANCH   1   2
BRANCH   1  43
ATOM     43  C   UNL     1      15.332  14.300 -19.144  1.00  0.00     0.003 C 
BRANCH  43  44
ATOM     44  C   UNL     1      14.124  14.948 -18.441  1.00  0.00     0.001 C 
BRANCH  44  45
ATOM     45  C   UNL     1      13.030  13.949 -17.998  1.00  0.00     0.008 C 
BRANCH  45  46
ATOM     46  C   UNL     1      13.587  12.691 -17.309  1.00  0.00     0.075 C 
BRANCH  46  47
ATOM     47  C   UNL     1      13.809  12.894 -15.835  1.00  0.00     0.132 C 
ATOM     48  O   UNL     1      14.760  12.351 -15.288  1.00  0.00    -0.300 OA
BRANCH  47  49
ATOM     49  C   UNL     1      12.895  13.780 -15.034  1.00  0.00     0.072 C 
ATOM     50  C   UNL     1      11.875  12.949 -14.262  1.00  0.00     0.012 C 
ENDBRANCH  47  49
ENDBRANCH  46  47
ENDBRANCH  45  46
ENDBRANCH  44  45
ENDBRANCH  43  44
ENDBRANCH   1  43
TORSDOF 12
ENDMDL
MODEL 6
REMARK VINA RESULT:    -4.143      4.485      8.348
REMARK INTER + INTRA:         -11.926
REMARK INTER:                  -8.706
REMARK INTRA:                  -3.220
REMARK UNBOUND:                -3.182
REMARK SMILES CCC(=O)CCCCC[C@H]1NC(=O)[C@H]2CCCCN2C(=O)[C@H]([C@@H](C)CC)NC(=O)[C@@H](Cc2cn(OC)c3ccccc23)NC1=O
REMARK SMILES IDX 9 1 10 2 44 3 43 4 45 6 30 7 28 8 27 9 29 11 22 12 23 14
REMARK SMILES IDX 24 15 25 16 26 17 31 18 32 19 33 20 42 21 34 22 37 23 41 24
REMARK SMILES IDX 38 25 40 26 39 27 35 28 36 29 11 30 12 31 13 33 14 34 19 35
REMARK SMILES IDX 15 36 18 37 16 38 17 39 20 40 21 41 8 43 7 44 6 45 5 46 3 47
REMARK SMILES IDX 4 48 2 49 1 50
REMARK H PARENT 43 5 27 10 11 32
REMARK Flexibility Score: 80.00
ROOT
ATOM      1  C   UNL     1      20.834  11.534 -17.663  1.00  0.00     0.035 C 
ENDROOT
BRANCH   1   2
ATOM      2  C   UNL     1      19.795  12.057 -18.676  1.00  0.00     0.171 C 
BRANCH   2   3
ATOM      3  C   UNL     1      18.775  12.961 -18.038  1.00  0.00     0.243 C 
ATOM      4  N   UNL     1      18.424  14.208 -18.664  1.00  0.00    -0.342 N 
ATOM      5  H   UNL     1      19.065  14.597 -19.391  1.00  0.00     0.164 HD
ATOM      6  O   UNL     1      18.164  12.574 -17.005  1.00  0.00    -0.273 OA
BRANCH   4   7
ATOM      7  C   UNL     1      17.100  14.827 -18.522  1.00  0.00     0.175 C 
BRANCH   7   8
ATOM      8  C   UNL     1      16.032  13.868 -19.004  1.00  0.00     0.243 C 
ATOM      9  N   UNL     1      16.208  13.208 -20.269  1.00  0.00    -0.342 N 
ATOM     10  H   UNL     1      17.065  13.440 -20.820  1.00  0.00     0.164 HD
ATOM     11  O   UNL     1      14.983  13.676 -18.329  1.00  0.00    -0.273 OA
BRANCH   9  12
ATOM     12  C   UNL     1      15.337  12.128 -20.740  1.00  0.00     0.174 CG0
ATOM     13  G   UNL     1      15.879  10.791 -20.270  1.00  0.00     0.000 G0
BRANCH  12  14
ATOM     14  C   UNL     1      15.074  12.245 -22.272  1.00  0.00     0.018 C 
ATOM     15  C   UNL     1      13.591  12.567 -22.523  1.00  0.00     0.010 C 
BRANCH  14  16
ATOM     16  C   UNL     1      15.974  13.298 -22.967  1.00  0.00     0.002 C 
ATOM     17  C   UNL     1      15.172  14.355 -23.723  1.00  0.00     0.004 C 
ENDBRANCH  14  16
ENDBRANCH  12  14
ENDBRANCH   9  12
ENDBRANCH   7   8
BRANCH   7  18
ATOM     18  C   UNL     1      16.909  15.332 -17.074  1.00  0.00     0.073 C 
BRANCH  18  19
ATOM     19  C   UNL     1      17.738  16.548 -16.763  1.00  0.00    -0.016 A 
ATOM     20  C   UNL     1      18.968  16.552 -16.122  1.00  0.00     0.134 A 
ATOM     21  C   UNL     1      17.479  17.869 -17.087  1.00  0.00     0.006 A 
ATOM     22  N   UNL     1      19.458  17.810 -16.042  1.00  0.00    -0.191 N 
ATOM     23  C   UNL     1      18.540  18.622 -16.631  1.00  0.00     0.087 A 
ATOM     24  C   UNL     1      16.398  18.439 -17.762  1.00  0.00     0.011 A 
ATOM     25  C   UNL     1      18.550  20.016 -16.806  1.00  0.00     0.030 A 
ATOM     26  C   UNL     1      16.396  19.830 -17.946  1.00  0.00     0.001 A 
ATOM     27  C   UNL     1      17.463  20.614 -17.465  1.00  0.00     0.002 A 
BRANCH  22  28
ATOM     28  O   UNL     1      20.702  18.080 -15.495  1.00  0.00    -0.417 OA
ATOM     29  C   UNL     1      21.393  17.243 -14.581  1.00  0.00     0.313 C 
ENDBRANCH  22  28
ENDBRANCH  18  19
ENDBRANCH   7  18
ENDBRANCH   4   7
ENDBRANCH   2   3
BRANCH   2  30
ATOM     30  N   UNL     1      19.090  10.923 -19.281  1.00  0.00    -0.343 N 
ATOM     31  C   UNL     1      18.730  10.883 -20.673  1.00  0.00     0.243 C 
ATOM     32  H   UNL     1      18.731  10.177 -18.641  1.00  0.00     0.164 HD
ATOM     33  O   UNL     1      19.052  11.838 -21.432  1.00  0.00    -0.273 OA
BRANCH  31  34
ATOM     34  C   UNL     1      17.970   9.710 -21.261  1.00  0.00     0.174 C 
ATOM     35  N   UNL     1      16.497   9.813 -21.137  1.00  0.00    -0.329 N 
ATOM     36  C   UNL     1      18.448   8.364 -20.682  1.00  0.00     0.035 C 
ATOM     37  C   UNL     1      15.674   8.670 -21.574  1.00  0.00     0.120 C 
ATOM     38  C   UNL     1      17.701   7.158 -21.300  1.00  0.00     0.004 C 
ATOM     39  C   UNL     1      16.520   7.552 -22.203  1.00  0.00     0.022 C 
BRANCH  35  40
ATOM     40  C   UNL     1      15.870  10.764 -20.259  1.00  0.00     0.246 CG0
ATOM     41  O   UNL     1      15.737  10.463 -19.042  1.00  0.00    -0.272 OA
ATOM     42  G   UNL     1      15.358  12.114 -20.726  1.00  0.00     0.000 G0
ENDBRANCH  35  40
ENDBRANCH  31  34
ENDBRANCH   2  30
ENDBRANCH   1   2
BRANCH   1  43
ATOM     43  C   UNL     1      20.703  10.035 -17.321  1.00  0.00     0.003 C 
BRANCH  43  44
ATOM     44  C   UNL     1      20.190   9.733 -15.899  1.00  0.00     0.001 C 
BRANCH  44  45
ATOM     45  C   UNL     1      18.692   9.356 -15.827  1.00  0.00     0.008 C 
BRANCH  45  46
ATOM     46  C   UNL     1      18.411   7.877 -16.143  1.00  0.00     0.075 C 
BRANCH  46  47
ATOM     47  C   UNL     1      16.947   7.604 -16.358  1.00  0.00     0.132 C 
ATOM     48  O   UNL     1      16.146   7.882 -15.474  1.00  0.00    -0.300 OA
BRANCH  47  49
ATOM     49  C   UNL     1      16.454   7.023 -17.654  1.00  0.00     0.072 C 
ATOM     50  C   UNL     1      17.144   5.696 -17.950  1.00  0.00     0.012 C 
ENDBRANCH  47  49
ENDBRANCH  46  47
ENDBRANCH  45  46
ENDBRANCH  44  45
ENDBRANCH  43  44
ENDBRANCH   1  43
TORSDOF 12
ENDMDL
MODEL 7
REMARK VINA RESULT:    -4.073      4.599      7.191
REMARK INTER + INTRA:         -11.780
REMARK INTER:                  -8.964
REMARK INTRA:                  -2.816
REMARK UNBOUND:                -3.182
REMARK SMILES CCC(=O)CCCCC[C@H]1NC(=O)[C@H]2CCCCN2C(=O)[C@H]([C@@H](C)CC)NC(=O)[C@@H](Cc2cn(OC)c3ccccc23)NC1=O
REMARK SMILES IDX 9 1 10 2 44 3 43 4 45 6 30 7 28 8 27 9 29 11 22 12 23 14
REMARK SMILES IDX 24 15 25 16 26 17 31 18 32 19 33 20 42 21 34 22 37 23 41 24
REMARK SMILES IDX 38 25 40 26 39 27 35 28 36 29 11 30 12 31 13 33 14 34 19 35
REMARK SMILES IDX 15 36 18 37 16 38 17 39 20 40 21 41 8 43 7 44 6 45 5 46 3 47
REMARK SMILES IDX 4 48 2 49 1 50
REMARK H PARENT 43 5 27 10 11 32
REMARK Flexibility Score: 80.00
ROOT
ATOM      1  C   UNL     1      18.950  11.221 -21.209  1.00  0.00     0.035 C 
ENDROOT
BRANCH   1   2
ATOM      2  C   UNL     1      18.521  11.483 -19.750  1.00  0.00     0.171 C 
BRANCH   2   3
ATOM      3  C   UNL     1      19.514  12.332 -19.004  1.00  0.00     0.243 C 
ATOM      4  N   UNL     1      19.057  13.418 -18.177  1.00  0.00    -0.342 N 
ATOM      5  H   UNL     1      18.086  13.774 -18.317  1.00  0.00     0.164 HD
ATOM      6  O   UNL     1      20.737  12.026 -19.033  1.00  0.00    -0.273 OA
BRANCH   4   7
ATOM      7  C   UNL     1      19.785  13.875 -16.987  1.00  0.00     0.175 C 
BRANCH   7   8
ATOM      8  C   UNL     1      20.421  12.691 -16.289  1.00  0.00     0.243 C 
ATOM      9  N   UNL     1      19.609  11.546 -15.981  1.00  0.00    -0.342 N 
ATOM     10  H   UNL     1      18.596  11.589 -16.233  1.00  0.00     0.164 HD
ATOM     11  O   UNL     1      21.636  12.718 -15.946  1.00  0.00    -0.273 OA
BRANCH   9  12
ATOM     12  C   UNL     1      20.158  10.282 -15.481  1.00  0.00     0.174 CG0
ATOM     13  G   UNL     1      19.791   9.155 -16.429  1.00  0.00     0.000 G0
BRANCH  12  14
ATOM     14  C   UNL     1      19.776  10.054 -13.988  1.00  0.00     0.018 C 
ATOM     15  C   UNL     1      21.001  10.306 -13.092  1.00  0.00     0.010 C 
BRANCH  14  16
ATOM     16  C   UNL     1      18.585  10.930 -13.521  1.00  0.00     0.002 C 
ATOM     17  C   UNL     1      17.323  10.116 -13.246  1.00  0.00     0.004 C 
ENDBRANCH  14  16
ENDBRANCH  12  14
ENDBRANCH   9  12
ENDBRANCH   7   8
BRANCH   7  18
ATOM     18  C   UNL     1      20.771  15.001 -17.375  1.00  0.00     0.073 C 
BRANCH  18  19
ATOM     19  C   UNL     1      20.375  16.343 -16.821  1.00  0.00    -0.016 A 
ATOM     20  C   UNL     1      19.438  17.205 -17.371  1.00  0.00     0.134 A 
ATOM     21  C   UNL     1      20.811  16.953 -15.658  1.00  0.00     0.006 A 
ATOM     22  N   UNL     1      19.293  18.305 -16.597  1.00  0.00    -0.191 N 
ATOM     23  C   UNL     1      20.142  18.153 -15.545  1.00  0.00     0.087 A 
ATOM     24  C   UNL     1      21.729  16.521 -14.699  1.00  0.00     0.011 A 
ATOM     25  C   UNL     1      20.392  19.008 -14.458  1.00  0.00     0.030 A 
ATOM     26  C   UNL     1      21.987  17.362 -13.607  1.00  0.00     0.001 A 
ATOM     27  C   UNL     1      21.327  18.602 -13.491  1.00  0.00     0.002 A 
BRANCH  22  28
ATOM     28  O   UNL     1      18.374  19.298 -16.896  1.00  0.00    -0.417 OA
ATOM     29  C   UNL     1      16.964  19.135 -16.890  1.00  0.00     0.313 C 
ENDBRANCH  22  28
ENDBRANCH  18  19
ENDBRANCH   7  18
ENDBRANCH   4   7
ENDBRANCH   2   3
BRANCH   2  30
ATOM     30  N   UNL     1      18.386  10.205 -19.045  1.00  0.00    -0.343 N 
ATOM     31  C   UNL     1      17.492  10.019 -17.935  1.00  0.00     0.243 C 
ATOM     32  H   UNL     1      19.062   9.443 -19.288  1.00  0.00     0.164 HD
ATOM     33  O   UNL     1      16.758  10.972 -17.553  1.00  0.00    -0.273 OA
BRANCH  31  34
ATOM     34  C   UNL     1      17.402   8.693 -17.204  1.00  0.00     0.174 C 
ATOM     35  N   UNL     1      18.564   8.395 -16.334  1.00  0.00    -0.329 N 
ATOM     36  C   UNL     1      17.159   7.517 -18.169  1.00  0.00     0.035 C 
ATOM     37  C   UNL     1      18.625   7.079 -15.671  1.00  0.00     0.120 C 
ATOM     38  C   UNL     1      17.033   6.164 -17.431  1.00  0.00     0.004 C 
ATOM     39  C   UNL     1      17.365   6.239 -15.931  1.00  0.00     0.022 C 
BRANCH  35  40
ATOM     40  C   UNL     1      19.797   9.130 -16.429  1.00  0.00     0.246 CG0
ATOM     41  O   UNL     1      20.618   8.813 -17.333  1.00  0.00    -0.272 OA
ATOM     42  G   UNL     1      20.159  10.269 -15.495  1.00  0.00     0.000 G0
ENDBRANCH  35  40
ENDBRANCH  31  34
ENDBRANCH   2  30
ENDBRANCH   1   2
BRANCH   1  43
ATOM     43  C   UNL     1      17.850  11.477 -22.260  1.00  0.00     0.003 C 
BRANCH  43  44
ATOM     44  C   UNL     1      16.508  10.770 -21.986  1.00  0.00     0.001 C 
BRANCH  44  45
ATOM     45  C   UNL     1      16.497   9.263 -22.332  1.00  0.00     0.008 C 
BRANCH  45  46
ATOM     46  C   UNL     1      15.234   8.528 -21.850  1.00  0.00     0.075 C 
BRANCH  46  47
ATOM     47  C   UNL     1      15.518   7.108 -21.440  1.00  0.00     0.132 C 
ATOM     48  O   UNL     1      14.640   6.451 -20.897  1.00  0.00    -0.300 OA
BRANCH  47  49
ATOM     49  C   UNL     1      16.856   6.479 -21.718  1.00  0.00     0.072 C 
ATOM     50  C   UNL     1      16.733   4.962 -21.804  1.00  0.00     0.012 C 
ENDBRANCH  47  49
ENDBRANCH  46  47
ENDBRANCH  45  46
ENDBRANCH  44  45
ENDBRANCH  43  44
ENDBRANCH   1  43
TORSDOF 12
ENDMDL
MODEL 8
REMARK VINA RESULT:    -4.058      5.355      7.551
REMARK INTER + INTRA:         -11.748
REMARK INTER:                  -9.174
REMARK INTRA:                  -2.574
REMARK UNBOUND:                -3.182
REMARK SMILES CCC(=O)CCCCC[C@H]1NC(=O)[C@H]2CCCCN2C(=O)[C@H]([C@@H](C)CC)NC(=O)[C@@H](Cc2cn(OC)c3ccccc23)NC1=O
REMARK SMILES IDX 9 1 10 2 44 3 43 4 45 6 30 7 28 8 27 9 29 11 22 12 23 14
REMARK SMILES IDX 24 15 25 16 26 17 31 18 32 19 33 20 42 21 34 22 37 23 41 24
REMARK SMILES IDX 38 25 40 26 39 27 35 28 36 29 11 30 12 31 13 33 14 34 19 35
REMARK SMILES IDX 15 36 18 37 16 38 17 39 20 40 21 41 8 43 7 44 6 45 5 46 3 47
REMARK SMILES IDX 4 48 2 49 1 50
REMARK H PARENT 43 5 27 10 11 32
REMARK Flexibility Score: 80.00
ROOT
ATOM      1  C   UNL     1      12.050   9.878 -21.187  1.00  0.00     0.035 C 
ENDROOT
BRANCH   1   2
ATOM      2  C   UNL     1      13.247  10.568 -20.499  1.00  0.00     0.171 C 
BRANCH   2   3
ATOM      3  C   UNL     1      13.868  11.631 -21.363  1.00  0.00     0.243 C 
ATOM      4  N   UNL     1      14.254  12.893 -20.788  1.00  0.00    -0.342 N 
ATOM      5  H   UNL     1      13.856  13.159 -19.860  1.00  0.00     0.164 HD
ATOM      6  O   UNL     1      14.135  11.374 -22.568  1.00  0.00    -0.273 OA
BRANCH   4   7
ATOM      7  C   UNL     1      15.364  13.702 -21.309  1.00  0.00     0.175 C 
BRANCH   7   8
ATOM      8  C   UNL     1      16.525  12.802 -21.675  1.00  0.00     0.243 C 
ATOM      9  N   UNL     1      17.266  12.158 -20.625  1.00  0.00    -0.342 N 
ATOM     10  H   UNL     1      16.984  12.361 -19.640  1.00  0.00     0.164 HD
ATOM     11  O   UNL     1      16.866  12.644 -22.881  1.00  0.00    -0.273 OA
BRANCH   9  12
ATOM     12  C   UNL     1      18.280  11.128 -20.871  1.00  0.00     0.174 CG0
ATOM     13  G   UNL     1      17.624   9.761 -20.893  1.00  0.00     0.000 G0
BRANCH  12  14
ATOM     14  C   UNL     1      19.484  11.280 -19.894  1.00  0.00     0.018 C 
ATOM     15  C   UNL     1      20.584  12.133 -20.550  1.00  0.00     0.010 C 
BRANCH  14  16
ATOM     16  C   UNL     1      19.087  11.885 -18.523  1.00  0.00     0.002 C 
ATOM     17  C   UNL     1      20.294  12.332 -17.701  1.00  0.00     0.004 C 
ENDBRANCH  14  16
ENDBRANCH  12  14
ENDBRANCH   9  12
ENDBRANCH   7   8
BRANCH   7  18
ATOM     18  C   UNL     1      14.860  14.606 -22.456  1.00  0.00     0.073 C 
BRANCH  18  19
ATOM     19  C   UNL     1      14.621  16.027 -22.021  1.00  0.00    -0.016 A 
ATOM     20  C   UNL     1      14.991  16.578 -20.804  1.00  0.00     0.134 A 
ATOM     21  C   UNL     1      14.047  17.059 -22.743  1.00  0.00     0.006 A 
ATOM     22  N   UNL     1      14.664  17.889 -20.757  1.00  0.00    -0.191 N 
ATOM     23  C   UNL     1      14.078  18.186 -21.948  1.00  0.00     0.087 A 
ATOM     24  C   UNL     1      13.525  17.077 -24.037  1.00  0.00     0.011 A 
ATOM     25  C   UNL     1      13.546  19.400 -22.414  1.00  0.00     0.030 A 
ATOM     26  C   UNL     1      12.992  18.283 -24.517  1.00  0.00     0.001 A 
ATOM     27  C   UNL     1      12.997  19.435 -23.707  1.00  0.00     0.002 A 
BRANCH  22  28
ATOM     28  O   UNL     1      14.978  18.686 -19.668  1.00  0.00    -0.417 OA
ATOM     29  C   UNL     1      16.007  18.417 -18.728  1.00  0.00     0.313 C 
ENDBRANCH  22  28
ENDBRANCH  18  19
ENDBRANCH   7  18
ENDBRANCH   4   7
ENDBRANCH   2   3
BRANCH   2  30
ATOM     30  N   UNL     1      14.273   9.569 -20.189  1.00  0.00    -0.343 N 
ATOM     31  C   UNL     1      15.277   9.772 -19.180  1.00  0.00     0.243 C 
ATOM     32  H   UNL     1      14.344   8.735 -20.817  1.00  0.00     0.164 HD
ATOM     33  O   UNL     1      15.275  10.832 -18.497  1.00  0.00    -0.273 OA
BRANCH  31  34
ATOM     34  C   UNL     1      16.346   8.732 -18.907  1.00  0.00     0.174 C 
ATOM     35  N   UNL     1      17.575   8.892 -19.721  1.00  0.00    -0.329 N 
ATOM     36  C   UNL     1      15.808   7.296 -19.054  1.00  0.00     0.035 C 
ATOM     37  C   UNL     1      18.627   7.864 -19.613  1.00  0.00     0.120 C 
ATOM     38  C   UNL     1      16.884   6.228 -18.745  1.00  0.00     0.004 C 
ATOM     39  C   UNL     1      18.296   6.804 -18.551  1.00  0.00     0.022 C 
BRANCH  35  40
ATOM     40  C   UNL     1      17.616   9.741 -20.881  1.00  0.00     0.246 CG0
ATOM     41  O   UNL     1      17.078   9.333 -21.946  1.00  0.00    -0.272 OA
ATOM     42  G   UNL     1      18.277  11.107 -20.887  1.00  0.00     0.000 G0
ENDBRANCH  35  40
ENDBRANCH  31  34
ENDBRANCH   2  30
ENDBRANCH   1   2
BRANCH   1  43
ATOM     43  C   UNL     1      12.138   8.338 -21.241  1.00  0.00     0.003 C 
BRANCH  43  44
ATOM     44  C   UNL     1      12.810   7.768 -22.505  1.00  0.00     0.001 C 
BRANCH  44  45
ATOM     45  C   UNL     1      12.221   6.423 -22.991  1.00  0.00     0.008 C 
BRANCH  45  46
ATOM     46  C   UNL     1      13.114   5.209 -22.678  1.00  0.00     0.075 C 
BRANCH  46  47
ATOM     47  C   UNL     1      14.397   5.224 -23.463  1.00  0.00     0.132 C 
ATOM     48  O   UNL     1      14.427   4.721 -24.579  1.00  0.00    -0.300 OA
BRANCH  47  49
ATOM     49  C   UNL     1      15.633   5.875 -22.906  1.00  0.00     0.072 C 
ATOM     50  C   UNL     1      16.421   4.893 -22.045  1.00  0.00     0.012 C 
ENDBRANCH  47  49
ENDBRANCH  46  47
ENDBRANCH  45  46
ENDBRANCH  44  45
ENDBRANCH  43  44
ENDBRANCH   1  43
TORSDOF 12
ENDMDL
MODEL 9
REMARK VINA RESULT:    -4.001      4.639      7.898
REMARK INTER + INTRA:         -11.626
REMARK INTER:                  -8.306
REMARK INTRA:                  -3.321
REMARK UNBOUND:                -3.182
REMARK SMILES CCC(=O)CCCCC[C@H]1NC(=O)[C@H]2CCCCN2C(=O)[C@H]([C@@H](C)CC)NC(=O)[C@@H](Cc2cn(OC)c3ccccc23)NC1=O
REMARK SMILES IDX 9 1 10 2 44 3 43 4 45 6 30 7 28 8 27 9 29 11 22 12 23 14
REMARK SMILES IDX 24 15 25 16 26 17 31 18 32 19 33 20 42 21 34 22 37 23 41 24
REMARK SMILES IDX 38 25 40 26 39 27 35 28 36 29 11 30 12 31 13 33 14 34 19 35
REMARK SMILES IDX 15 36 18 37 16 38 17 39 20 40 21 41 8 43 7 44 6 45 5 46 3 47
REMARK SMILES IDX 4 48 2 49 1 50
REMARK H PARENT 43 5 27 10 11 32
REMARK Flexibility Score: 80.00
ROOT
ATOM      1  C   UNL     1      16.760  12.733 -22.804  1.00  0.00     0.035 C 
ENDROOT
BRANCH   1   2
ATOM      2  C   UNL     1      16.512  12.036 -21.449  1.00  0.00     0.171 C 
BRANCH   2   3
ATOM      3  C   UNL     1      17.478  12.487 -20.388  1.00  0.00     0.243 C 
ATOM      4  N   UNL     1      17.004  12.789 -19.062  1.00  0.00    -0.342 N 
ATOM      5  H   UNL     1      15.983  12.957 -18.926  1.00  0.00     0.164 HD
ATOM      6  O   UNL     1      18.713  12.507 -20.640  1.00  0.00    -0.273 OA
BRANCH   4   7
ATOM      7  C   UNL     1      17.832  12.622 -17.861  1.00  0.00     0.175 C 
BRANCH   7   8
ATOM      8  C   UNL     1      18.682  11.376 -17.995  1.00  0.00     0.243 C 
ATOM      9  N   UNL     1      18.034  10.105 -18.170  1.00  0.00    -0.342 N 
ATOM     10  H   UNL     1      16.989  10.092 -18.172  1.00  0.00     0.164 HD
ATOM     11  O   UNL     1      19.941  11.440 -17.917  1.00  0.00    -0.273 OA
BRANCH   9  12
ATOM     12  C   UNL     1      18.755   8.872 -18.495  1.00  0.00     0.174 CG0
ATOM     13  G   UNL     1      18.464   8.472 -19.928  1.00  0.00     0.000 G0
BRANCH  12  14
ATOM     14  C   UNL     1      18.497   7.770 -17.424  1.00  0.00     0.018 C 
ATOM     15  C   UNL     1      19.296   8.084 -16.148  1.00  0.00     0.010 C 
BRANCH  14  16
ATOM     16  C   UNL     1      16.995   7.590 -17.082  1.00  0.00     0.002 C 
ATOM     17  C   UNL     1      16.750   7.358 -15.593  1.00  0.00     0.004 C 
ENDBRANCH  14  16
ENDBRANCH  12  14
ENDBRANCH   9  12
ENDBRANCH   7   8
BRANCH   7  18
ATOM     18  C   UNL     1      18.626  13.919 -17.587  1.00  0.00     0.073 C 
BRANCH  18  19
ATOM     19  C   UNL     1      17.880  14.890 -16.713  1.00  0.00    -0.016 A 
ATOM     20  C   UNL     1      16.821  14.580 -15.873  1.00  0.00     0.134 A 
ATOM     21  C   UNL     1      18.120  16.241 -16.532  1.00  0.00     0.006 A 
ATOM     22  N   UNL     1      16.411  15.679 -15.200  1.00  0.00    -0.191 N 
ATOM     23  C   UNL     1      17.207  16.704 -15.609  1.00  0.00     0.087 A 
ATOM     24  C   UNL     1      19.086  17.073 -17.103  1.00  0.00     0.011 A 
ATOM     25  C   UNL     1      17.199  18.057 -15.231  1.00  0.00     0.030 A 
ATOM     26  C   UNL     1      19.092  18.426 -16.735  1.00  0.00     0.001 A 
ATOM     27  C   UNL     1      18.149  18.916 -15.809  1.00  0.00     0.002 A 
BRANCH  22  28
ATOM     28  O   UNL     1      15.401  15.626 -14.253  1.00  0.00    -0.417 OA
ATOM     29  C   UNL     1      15.292  14.650 -13.228  1.00  0.00     0.313 C 
ENDBRANCH  22  28
ENDBRANCH  18  19
ENDBRANCH   7  18
ENDBRANCH   4   7
ENDBRANCH   2   3
BRANCH   2  30
ATOM     30  N   UNL     1      16.654  10.587 -21.614  1.00  0.00    -0.343 N 
ATOM     31  C   UNL     1      15.969   9.638 -20.779  1.00  0.00     0.243 C 
ATOM     32  H   UNL     1      17.379  10.243 -22.286  1.00  0.00     0.164 HD
ATOM     33  O   UNL     1      15.183  10.045 -19.880  1.00  0.00    -0.273 OA
BRANCH  31  34
ATOM     34  C   UNL     1      16.164   8.144 -20.953  1.00  0.00     0.174 C 
ATOM     35  N   UNL     1      17.413   7.617 -20.353  1.00  0.00    -0.329 N 
ATOM     36  C   UNL     1      16.078   7.719 -22.431  1.00  0.00     0.035 C 
ATOM     37  C   UNL     1      17.750   6.198 -20.568  1.00  0.00     0.120 C 
ATOM     38  C   UNL     1      16.243   6.192 -22.616  1.00  0.00     0.004 C 
ATOM     39  C   UNL     1      16.649   5.448 -21.332  1.00  0.00     0.022 C 
BRANCH  35  40
ATOM     40  C   UNL     1      18.485   8.483 -19.940  1.00  0.00     0.246 CG0
ATOM     41  O   UNL     1      19.246   8.962 -20.824  1.00  0.00    -0.272 OA
ATOM     42  G   UNL     1      18.746   8.848 -18.491  1.00  0.00     0.000 G0
ENDBRANCH  35  40
ENDBRANCH  31  34
ENDBRANCH   2  30
ENDBRANCH   1   2
BRANCH   1  43
ATOM     43  C   UNL     1      15.614  13.654 -23.274  1.00  0.00     0.003 C 
BRANCH  43  44
ATOM     44  C   UNL     1      14.250  13.390 -22.607  1.00  0.00     0.001 C 
BRANCH  44  45
ATOM     45  C   UNL     1      13.571  14.649 -22.020  1.00  0.00     0.008 C 
BRANCH  45  46
ATOM     46  C   UNL     1      13.403  14.604 -20.491  1.00  0.00     0.075 C 
BRANCH  46  47
ATOM     47  C   UNL     1      14.536  15.282 -19.770  1.00  0.00     0.132 C 
ATOM     48  O   UNL     1      14.910  14.844 -18.689  1.00  0.00    -0.300 OA
BRANCH  47  49
ATOM     49  C   UNL     1      15.232  16.470 -20.373  1.00  0.00     0.072 C 
ATOM     50  C   UNL     1      16.535  16.766 -19.637  1.00  0.00     0.012 C 
ENDBRANCH  47  49
ENDBRANCH  46  47
ENDBRANCH  45  46
ENDBRANCH  44  45
ENDBRANCH  43  44
ENDBRANCH   1  43
TORSDOF 12
ENDMDL
