MODEL 1
REMARK VINA RESULT:     0.002      0.000      0.000
REMARK INTER + INTRA:          -0.856
REMARK INTER:                   0.003
REMARK INTRA:                  -0.859
REMARK UNBOUND:                -0.859
REMARK SMILES CC[C@@H](CC[C@@H](C)[C@H]1CC[C@@H]2[C@H]3CC=C4C[C@H](O)CC[C@@]4(C)[C@H]3CC[C@@]21C)C(C)C
REMARK SMILES IDX 5 1 4 2 3 3 2 4 1 5 28 6 29 7 30 8 6 9 7 10 8 11 9 12 26 13
REMARK SMILES IDX 10 14 11 15 25 16 27 17 12 18 24 19 23 20 13 21 21 22 14 23
REMARK SMILES IDX 15 24 20 25 22 26 16 27 19 28 17 29 18 30
REMARK H PARENT 18 31
REMARK Flexibility Score: inf
ROOT
ATOM      1  C   UNL     1      28.642  33.283  23.442  1.00  0.00     0.004 C 
ENDROOT
BRANCH   1   2
ATOM      2  C   UNL     1      28.287  31.833  23.039  1.00  0.00     0.004 C 
BRANCH   2   3
ATOM      3  C   UNL     1      28.052  30.863  24.238  1.00  0.00    -0.009 C 
BRANCH   3   4
ATOM      4  C   UNL     1      28.965  31.204  25.451  1.00  0.00     0.000 C 
ATOM      5  C   UNL     1      28.952  30.133  26.548  1.00  0.00     0.004 C 
ENDBRANCH   3   4
BRANCH   3   6
ATOM      6  C   UNL     1      28.138  29.357  23.776  1.00  0.00    -0.014 C 
ATOM      7  C   UNL     1      26.772  28.706  23.494  1.00  0.00     0.007 C 
ATOM      8  C   UNL     1      29.014  29.206  22.516  1.00  0.00     0.007 C 
ENDBRANCH   3   6
ENDBRANCH   2   3
ENDBRANCH   1   2
BRANCH   1   9
ATOM      9  C   UNL     1      27.553  34.326  23.004  1.00  0.00    -0.011 C 
ATOM     10  C   UNL     1      27.012  35.047  24.253  1.00  0.00     0.008 C 
BRANCH   9  11
ATOM     11  C   UNL     1      27.971  35.394  21.910  1.00  0.00    -0.002 C 
ATOM     12  C   UNL     1      29.015  34.988  20.872  1.00  0.00     0.005 C 
ATOM     13  C   UNL     1      26.838  36.058  21.076  1.00  0.00    -0.026 C 
ATOM     14  C   UNL     1      29.031  36.148  19.896  1.00  0.00     0.005 C 
ATOM     15  C   UNL     1      27.592  36.705  19.863  1.00  0.00    -0.001 C 
ATOM     16  C   UNL     1      26.032  37.090  21.910  1.00  0.00     0.007 C 
ATOM     17  C   UNL     1      25.833  35.008  20.531  1.00  0.00     0.012 C 
ATOM     18  C   UNL     1      27.590  38.263  19.835  1.00  0.00     0.000 C 
ATOM     19  C   UNL     1      26.796  38.366  22.290  1.00  0.00     0.005 C 
ATOM     20  C   UNL     1      27.828  38.885  21.239  1.00  0.00     0.003 C 
ATOM     21  C   UNL     1      26.335  38.838  19.123  1.00  0.00     0.031 C 
ATOM     22  C   UNL     1      27.862  40.453  21.126  1.00  0.00    -0.008 C 
ATOM     23  C   UNL     1      25.894  40.208  19.596  1.00  0.00    -0.027 C 
ATOM     24  C   UNL     1      26.531  40.925  20.547  1.00  0.00    -0.065 C 
ATOM     25  C   UNL     1      28.102  41.113  22.522  1.00  0.00     0.014 C 
ATOM     26  C   UNL     1      29.013  40.897  20.179  1.00  0.00     0.016 C 
ATOM     27  C   UNL     1      25.842  42.125  21.151  1.00  0.00     0.063 C 
ATOM     28  C   UNL     1      27.949  42.653  22.527  1.00  0.00     0.033 C 
ATOM     29  C   UNL     1      26.853  43.205  21.578  1.00  0.00     0.118 C 
BRANCH  29  30
ATOM     30  O   UNL     1      27.455  43.780  20.444  1.00  0.00    -0.393 OA
ATOM     31  H   UNL     1      28.412  43.929  20.668  1.00  0.00     0.210 HD
ENDBRANCH  29  30
ENDBRANCH   9  11
ENDBRANCH   1   9
TORSDOF 7
ENDMDL
MODEL 2
REMARK VINA RESULT:     2.546      0.705      1.370
REMARK INTER + INTRA:           2.654
REMARK INTER:                   2.367
REMARK INTRA:                   0.287
REMARK UNBOUND:                -0.859
REMARK SMILES CC[C@@H](CC[C@@H](C)[C@H]1CC[C@@H]2[C@H]3CC=C4C[C@H](O)CC[C@@]4(C)[C@H]3CC[C@@]21C)C(C)C
REMARK SMILES IDX 5 1 4 2 3 3 2 4 1 5 28 6 29 7 30 8 6 9 7 10 8 11 9 12 26 13
REMARK SMILES IDX 10 14 11 15 25 16 27 17 12 18 24 19 23 20 13 21 21 22 14 23
REMARK SMILES IDX 15 24 20 25 22 26 16 27 19 28 17 29 18 30
REMARK H PARENT 18 31
REMARK Flexibility Score: inf
ROOT
ATOM      1  C   UNL     1      29.115  33.440  22.721  1.00  0.00     0.004 C 
ENDROOT
BRANCH   1   2
ATOM      2  C   UNL     1      28.914  32.040  22.096  1.00  0.00     0.004 C 
BRANCH   2   3
ATOM      3  C   UNL     1      29.055  30.853  23.098  1.00  0.00    -0.009 C 
BRANCH   3   4
ATOM      4  C   UNL     1      28.934  29.473  22.387  1.00  0.00     0.000 C 
ATOM      5  C   UNL     1      28.999  28.281  23.348  1.00  0.00     0.004 C 
ENDBRANCH   3   4
BRANCH   3   6
ATOM      6  C   UNL     1      28.081  31.027  24.326  1.00  0.00    -0.014 C 
ATOM      7  C   UNL     1      27.207  29.794  24.616  1.00  0.00     0.007 C 
ATOM      8  C   UNL     1      28.856  31.383  25.610  1.00  0.00     0.007 C 
ENDBRANCH   3   6
ENDBRANCH   2   3
ENDBRANCH   1   2
BRANCH   1   9
ATOM      9  C   UNL     1      27.938  34.429  22.406  1.00  0.00    -0.011 C 
ATOM     10  C   UNL     1      27.409  35.024  23.724  1.00  0.00     0.008 C 
BRANCH   9  11
ATOM     11  C   UNL     1      28.228  35.595  21.372  1.00  0.00    -0.002 C 
ATOM     12  C   UNL     1      29.125  35.286  20.175  1.00  0.00     0.005 C 
ATOM     13  C   UNL     1      27.007  36.338  20.756  1.00  0.00    -0.026 C 
ATOM     14  C   UNL     1      29.033  36.534  19.318  1.00  0.00     0.005 C 
ATOM     15  C   UNL     1      27.610  37.095  19.522  1.00  0.00    -0.001 C 
ATOM     16  C   UNL     1      26.330  37.288  21.779  1.00  0.00     0.007 C 
ATOM     17  C   UNL     1      25.926  35.347  20.249  1.00  0.00     0.012 C 
ATOM     18  C   UNL     1      27.627  38.648  19.640  1.00  0.00     0.000 C 
ATOM     19  C   UNL     1      27.155  38.520  22.176  1.00  0.00     0.005 C 
ATOM     20  C   UNL     1      28.052  39.134  21.054  1.00  0.00     0.003 C 
ATOM     21  C   UNL     1      26.301  39.291  19.152  1.00  0.00     0.031 C 
ATOM     22  C   UNL     1      28.094  40.706  21.085  1.00  0.00    -0.008 C 
ATOM     23  C   UNL     1      25.944  40.611  19.805  1.00  0.00    -0.027 C 
ATOM     24  C   UNL     1      26.707  41.234  20.728  1.00  0.00    -0.065 C 
ATOM     25  C   UNL     1      28.520  41.230  22.495  1.00  0.00     0.014 C 
ATOM     26  C   UNL     1      29.122  41.234  20.044  1.00  0.00     0.016 C 
ATOM     27  C   UNL     1      26.119  42.373  21.526  1.00  0.00     0.063 C 
ATOM     28  C   UNL     1      28.392  42.763  22.664  1.00  0.00     0.033 C 
ATOM     29  C   UNL     1      27.192  43.405  21.919  1.00  0.00     0.118 C 
BRANCH  29  30
ATOM     30  O   UNL     1      27.653  44.084  20.775  1.00  0.00    -0.393 OA
ATOM     31  H   UNL     1      28.596  44.342  20.953  1.00  0.00     0.210 HD
ENDBRANCH  29  30
ENDBRANCH   9  11
ENDBRANCH   1   9
TORSDOF 7
ENDMDL
