MODEL 1
REMARK VINA RESULT:     9.552      0.000      0.000
REMARK INTER + INTRA:          24.512
REMARK INTER:                  20.163
REMARK INTRA:                   4.349
REMARK UNBOUND:                 4.349
REMARK SMILES CCC(=O)CCCCC[C@H]1NC(=O)[C@@H]2CCCCN2C(=O)[C@@H]([C@@H](C)CC)NC(=O)[C@H](Cc2cn(OC)c3ccccc23)NC1=O
REMARK SMILES IDX 9 1 10 2 44 3 43 4 45 6 30 7 28 8 27 9 29 11 22 12 23 14
REMARK SMILES IDX 24 15 25 16 26 17 31 18 32 19 33 20 42 21 34 22 37 23 41 24
REMARK SMILES IDX 38 25 40 26 39 27 35 28 36 29 11 30 12 31 13 33 14 34 19 35
REMARK SMILES IDX 15 36 18 37 16 38 17 39 20 40 21 41 8 43 7 44 6 45 5 46 3 47
REMARK SMILES IDX 4 48 2 49 1 50
REMARK H PARENT 43 5 27 10 11 32
REMARK Flexibility Score: 80.00
ROOT
ATOM      1  C   UNL     1      15.367   3.792  54.811  1.00  0.00     0.035 C 
ENDROOT
BRANCH   1   2
ATOM      2  C   UNL     1      13.950   4.050  54.255  1.00  0.00     0.171 C 
BRANCH   2   3
ATOM      3  C   UNL     1      13.824   5.345  53.498  1.00  0.00     0.243 C 
ATOM      4  N   UNL     1      13.070   5.381  52.278  1.00  0.00    -0.342 N 
ATOM      5  H   UNL     1      12.939   4.482  51.757  1.00  0.00     0.164 HD
ATOM      6  O   UNL     1      14.281   6.412  53.991  1.00  0.00    -0.273 OA
BRANCH   4   7
ATOM      7  C   UNL     1      12.120   6.464  52.015  1.00  0.00     0.175 C 
BRANCH   7   8
ATOM      8  C   UNL     1      11.376   6.776  53.285  1.00  0.00     0.243 C 
ATOM      9  N   UNL     1      10.282   5.948  53.707  1.00  0.00    -0.342 N 
ATOM     10  H   UNL     1      10.063   5.086  53.152  1.00  0.00     0.164 HD
ATOM     11  O   UNL     1      11.702   7.795  53.957  1.00  0.00    -0.273 OA
BRANCH   9  12
ATOM     12  C   UNL     1       9.314   6.380  54.721  1.00  0.00     0.174 CG0
ATOM     13  G   UNL     1      10.013   6.356  56.068  1.00  0.00     0.000 G0
BRANCH  12  14
ATOM     14  C   UNL     1       8.767   7.794  54.377  1.00  0.00     0.018 C 
ATOM     15  C   UNL     1       7.476   7.667  53.541  1.00  0.00     0.010 C 
BRANCH  14  16
ATOM     16  C   UNL     1       8.503   8.617  55.664  1.00  0.00     0.002 C 
ATOM     17  C   UNL     1       8.757  10.115  55.481  1.00  0.00     0.004 C 
ENDBRANCH  14  16
ENDBRANCH  12  14
ENDBRANCH   9  12
ENDBRANCH   7   8
BRANCH   7  18
ATOM     18  C   UNL     1      11.132   6.075  50.905  1.00  0.00     0.073 C 
BRANCH  18  19
ATOM     19  C   UNL     1      10.442   7.285  50.345  1.00  0.00    -0.016 A 
ATOM     20  C   UNL     1       9.535   8.102  51.017  1.00  0.00     0.134 A 
ATOM     21  C   UNL     1      10.625   7.866  49.100  1.00  0.00     0.006 A 
ATOM     22  N   UNL     1       9.147   9.113  50.210  1.00  0.00    -0.191 N 
ATOM     23  C   UNL     1       9.822   8.979  49.051  1.00  0.00     0.087 A 
ATOM     24  C   UNL     1      11.451   7.514  48.032  1.00  0.00     0.011 A 
ATOM     25  C   UNL     1       9.808   9.824  47.939  1.00  0.00     0.030 A 
ATOM     26  C   UNL     1      11.445   8.337  46.892  1.00  0.00     0.001 A 
ATOM     27  C   UNL     1      10.632   9.489  46.846  1.00  0.00     0.002 A 
BRANCH  22  28
ATOM     28  O   UNL     1       8.277  10.124  50.559  1.00  0.00    -0.417 OA
ATOM     29  C   UNL     1       6.953   9.839  50.994  1.00  0.00     0.313 C 
ENDBRANCH  22  28
ENDBRANCH  18  19
ENDBRANCH   7  18
ENDBRANCH   4   7
ENDBRANCH   2   3
BRANCH   2  30
ATOM     30  N   UNL     1      12.932   4.000  55.313  1.00  0.00    -0.343 N 
ATOM     31  C   UNL     1      12.824   4.946  56.396  1.00  0.00     0.243 C 
ATOM     32  H   UNL     1      12.168   3.300  55.185  1.00  0.00     0.164 HD
ATOM     33  O   UNL     1      13.714   5.824  56.560  1.00  0.00    -0.273 OA
BRANCH  31  34
ATOM     34  C   UNL     1      11.652   4.920  57.352  1.00  0.00     0.174 C 
ATOM     35  N   UNL     1      10.372   5.043  56.614  1.00  0.00    -0.329 N 
ATOM     36  C   UNL     1      11.719   3.723  58.324  1.00  0.00     0.035 C 
ATOM     37  C   UNL     1       9.500   3.878  56.361  1.00  0.00     0.120 C 
ATOM     38  C   UNL     1      10.978   2.484  57.829  1.00  0.00     0.004 C 
ATOM     39  C   UNL     1       9.544   2.849  57.487  1.00  0.00     0.022 C 
BRANCH  35  40
ATOM     40  C   UNL     1      10.085   6.313  55.978  1.00  0.00     0.246 CG0
ATOM     41  O   UNL     1      10.561   7.373  56.476  1.00  0.00    -0.272 OA
ATOM     42  G   UNL     1       9.310   6.429  54.679  1.00  0.00     0.000 G0
ENDBRANCH  35  40
ENDBRANCH  31  34
ENDBRANCH   2  30
ENDBRANCH   1   2
BRANCH   1  43
ATOM     43  C   UNL     1      15.333   3.104  56.189  1.00  0.00     0.003 C 
BRANCH  43  44
ATOM     44  C   UNL     1      14.460   1.834  56.199  1.00  0.00     0.001 C 
BRANCH  44  45
ATOM     45  C   UNL     1      14.965   0.709  57.125  1.00  0.00     0.008 C 
BRANCH  45  46
ATOM     46  C   UNL     1      16.491   0.753  57.333  1.00  0.00     0.075 C 
BRANCH  46  47
ATOM     47  C   UNL     1      16.964  -0.214  58.390  1.00  0.00     0.132 C 
ATOM     48  O   UNL     1      17.835  -1.037  58.130  1.00  0.00    -0.300 OA
BRANCH  47  49
ATOM     49  C   UNL     1      16.426  -0.131  59.792  1.00  0.00     0.072 C 
ATOM     50  C   UNL     1      15.601   1.141  59.989  1.00  0.00     0.012 C 
ENDBRANCH  47  49
ENDBRANCH  46  47
ENDBRANCH  45  46
ENDBRANCH  44  45
ENDBRANCH  43  44
ENDBRANCH   1  43
TORSDOF 12
ENDMDL
MODEL 2
REMARK VINA RESULT:    12.134      2.283      5.152
REMARK INTER + INTRA:          29.961
REMARK INTER:                  27.162
REMARK INTRA:                   2.799
REMARK UNBOUND:                 4.349
REMARK SMILES CCC(=O)CCCCC[C@H]1NC(=O)[C@@H]2CCCCN2C(=O)[C@@H]([C@@H](C)CC)NC(=O)[C@H](Cc2cn(OC)c3ccccc23)NC1=O
REMARK SMILES IDX 9 1 10 2 44 3 43 4 45 6 30 7 28 8 27 9 29 11 22 12 23 14
REMARK SMILES IDX 24 15 25 16 26 17 31 18 32 19 33 20 42 21 34 22 37 23 41 24
REMARK SMILES IDX 38 25 40 26 39 27 35 28 36 29 11 30 12 31 13 33 14 34 19 35
REMARK SMILES IDX 15 36 18 37 16 38 17 39 20 40 21 41 8 43 7 44 6 45 5 46 3 47
REMARK SMILES IDX 4 48 2 49 1 50
REMARK H PARENT 43 5 27 10 11 32
REMARK Flexibility Score: 80.00
ROOT
ATOM      1  C   UNL     1      14.215   3.254  57.075  1.00  0.00     0.035 C 
ENDROOT
BRANCH   1   2
ATOM      2  C   UNL     1      13.395   4.521  56.745  1.00  0.00     0.171 C 
BRANCH   2   3
ATOM      3  C   UNL     1      12.185   4.703  57.622  1.00  0.00     0.243 C 
ATOM      4  N   UNL     1      11.114   5.551  57.182  1.00  0.00    -0.342 N 
ATOM      5  H   UNL     1      11.333   6.288  56.472  1.00  0.00     0.164 HD
ATOM      6  O   UNL     1      12.063   4.028  58.680  1.00  0.00    -0.273 OA
BRANCH   4   7
ATOM      7  C   UNL     1       9.719   5.123  57.309  1.00  0.00     0.175 C 
BRANCH   7   8
ATOM      8  C   UNL     1       9.373   4.239  56.141  1.00  0.00     0.243 C 
ATOM      9  N   UNL     1      10.412   3.661  55.335  1.00  0.00    -0.342 N 
ATOM     10  H   UNL     1      11.410   3.811  55.622  1.00  0.00     0.164 HD
ATOM     11  O   UNL     1       8.159   4.038  55.856  1.00  0.00    -0.273 OA
BRANCH   9  12
ATOM     12  C   UNL     1      10.153   3.090  54.009  1.00  0.00     0.174 CG0
ATOM     13  G   UNL     1      11.245   3.577  53.075  1.00  0.00     0.000 G0
BRANCH  12  14
ATOM     14  C   UNL     1      10.108   1.538  54.090  1.00  0.00     0.018 C 
ATOM     15  C   UNL     1      11.169   1.034  55.090  1.00  0.00     0.010 C 
BRANCH  14  16
ATOM     16  C   UNL     1       8.697   1.044  54.500  1.00  0.00     0.002 C 
ATOM     17  C   UNL     1       7.572   1.942  53.980  1.00  0.00     0.004 C 
ENDBRANCH  14  16
ENDBRANCH  12  14
ENDBRANCH   9  12
ENDBRANCH   7   8
BRANCH   7  18
ATOM     18  C   UNL     1       8.772   6.332  57.355  1.00  0.00     0.073 C 
BRANCH  18  19
ATOM     19  C   UNL     1       8.847   7.127  56.084  1.00  0.00    -0.016 A 
ATOM     20  C   UNL     1       7.930   7.096  55.037  1.00  0.00     0.134 A 
ATOM     21  C   UNL     1       9.782   8.091  55.740  1.00  0.00     0.006 A 
ATOM     22  N   UNL     1       8.304   7.968  54.075  1.00  0.00    -0.191 N 
ATOM     23  C   UNL     1       9.420   8.584  54.510  1.00  0.00     0.087 A 
ATOM     24  C   UNL     1      10.894   8.581  56.425  1.00  0.00     0.011 A 
ATOM     25  C   UNL     1      10.136   9.614  53.895  1.00  0.00     0.030 A 
ATOM     26  C   UNL     1      11.644   9.606  55.822  1.00  0.00     0.001 A 
ATOM     27  C   UNL     1      11.265  10.125  54.565  1.00  0.00     0.002 A 
BRANCH  22  28
ATOM     28  O   UNL     1       7.612   8.214  52.908  1.00  0.00    -0.417 OA
ATOM     29  C   UNL     1       7.715   9.466  52.241  1.00  0.00     0.313 C 
ENDBRANCH  22  28
ENDBRANCH  18  19
ENDBRANCH   7  18
ENDBRANCH   4   7
ENDBRANCH   2   3
BRANCH   2  30
ATOM     30  N   UNL     1      12.987   4.554  55.334  1.00  0.00    -0.343 N 
ATOM     31  C   UNL     1      12.998   5.732  54.502  1.00  0.00     0.243 C 
ATOM     32  H   UNL     1      12.801   3.630  54.886  1.00  0.00     0.164 HD
ATOM     33  O   UNL     1      13.251   6.860  55.007  1.00  0.00    -0.273 OA
BRANCH  31  34
ATOM     34  C   UNL     1      12.720   5.652  53.018  1.00  0.00     0.174 C 
ATOM     35  N   UNL     1      11.401   5.023  52.766  1.00  0.00    -0.329 N 
ATOM     36  C   UNL     1      12.928   7.009  52.312  1.00  0.00     0.035 C 
ATOM     37  C   UNL     1      10.212   5.818  52.401  1.00  0.00     0.120 C 
ATOM     38  C   UNL     1      11.661   7.855  52.217  1.00  0.00     0.004 C 
ATOM     39  C   UNL     1      10.554   7.047  51.563  1.00  0.00     0.022 C 
BRANCH  35  40
ATOM     40  C   UNL     1      11.262   3.613  53.073  1.00  0.00     0.246 CG0
ATOM     41  O   UNL     1      12.133   2.802  52.647  1.00  0.00    -0.272 OA
ATOM     42  G   UNL     1      10.164   3.067  53.966  1.00  0.00     0.000 G0
ENDBRANCH  35  40
ENDBRANCH  31  34
ENDBRANCH   2  30
ENDBRANCH   1   2
BRANCH   1  43
ATOM     43  C   UNL     1      13.321   2.091  57.543  1.00  0.00     0.003 C 
BRANCH  43  44
ATOM     44  C   UNL     1      14.127   0.929  58.157  1.00  0.00     0.001 C 
BRANCH  44  45
ATOM     45  C   UNL     1      15.023   1.321  59.349  1.00  0.00     0.008 C 
BRANCH  45  46
ATOM     46  C   UNL     1      16.108   0.268  59.646  1.00  0.00     0.075 C 
BRANCH  46  47
ATOM     47  C   UNL     1      17.025   0.028  58.472  1.00  0.00     0.132 C 
ATOM     48  O   UNL     1      17.973  -0.743  58.575  1.00  0.00    -0.300 OA
BRANCH  47  49
ATOM     49  C   UNL     1      16.744   0.673  57.143  1.00  0.00     0.072 C 
ATOM     50  C   UNL     1      16.633  -0.375  56.036  1.00  0.00     0.012 C 
ENDBRANCH  47  49
ENDBRANCH  46  47
ENDBRANCH  45  46
ENDBRANCH  44  45
ENDBRANCH  43  44
ENDBRANCH   1  43
TORSDOF 12
ENDMDL
