MODEL 1
REMARK VINA RESULT:    40.226      0.000      0.000
REMARK INTER + INTRA:          65.515
REMARK INTER:                  55.511
REMARK INTRA:                  10.003
REMARK UNBOUND:                10.003
REMARK SMILES CC[C@@H](CC[C@H](C)[C@@H]1CC[C@H]2[C@@H]3CC=C4C[C@@H](O)CC[C@]4(C)[C@@H]3CC[C@]21C)C(C)C
REMARK SMILES IDX 5 1 4 2 3 3 2 4 1 5 28 6 29 7 30 8 6 9 7 10 8 11 9 12 26 13
REMARK SMILES IDX 10 14 11 15 25 16 27 17 12 18 24 19 23 20 13 21 21 22 14 23
REMARK SMILES IDX 15 24 20 25 22 26 16 27 19 28 17 29 18 30
REMARK H PARENT 18 31
REMARK Flexibility Score: inf
ROOT
ATOM      1  C   UNL     1      -1.734  61.341  -6.002  1.00  0.00     0.004 C 
ENDROOT
BRANCH   1   2
ATOM      2  C   UNL     1      -2.830  61.210  -7.079  1.00  0.00     0.004 C 
BRANCH   2   3
ATOM      3  C   UNL     1      -4.284  61.305  -6.543  1.00  0.00    -0.009 C 
BRANCH   3   4
ATOM      4  C   UNL     1      -4.304  61.811  -5.072  1.00  0.00     0.000 C 
ATOM      5  C   UNL     1      -3.490  60.937  -4.117  1.00  0.00     0.004 C 
ENDBRANCH   3   4
BRANCH   3   6
ATOM      6  C   UNL     1      -5.113  60.001  -6.840  1.00  0.00    -0.014 C 
ATOM      7  C   UNL     1      -5.107  59.034  -5.644  1.00  0.00     0.007 C 
ATOM      8  C   UNL     1      -4.710  59.254  -8.124  1.00  0.00     0.007 C 
ENDBRANCH   3   6
ENDBRANCH   2   3
ENDBRANCH   1   2
BRANCH   1   9
ATOM      9  C   UNL     1      -1.025  59.980  -5.707  1.00  0.00    -0.011 C 
ATOM     10  C   UNL     1      -1.686  58.878  -6.554  1.00  0.00     0.008 C 
BRANCH   9  11
ATOM     11  C   UNL     1      -1.044  59.650  -4.170  1.00  0.00    -0.002 C 
ATOM     12  C   UNL     1      -2.309  58.876  -3.770  1.00  0.00     0.005 C 
ATOM     13  C   UNL     1      -0.982  60.831  -3.153  1.00  0.00    -0.026 C 
ATOM     14  C   UNL     1      -2.562  59.158  -2.293  1.00  0.00     0.005 C 
ATOM     15  C   UNL     1      -1.505  60.183  -1.835  1.00  0.00    -0.001 C 
ATOM     16  C   UNL     1       0.452  61.423  -2.997  1.00  0.00     0.007 C 
ATOM     17  C   UNL     1      -1.954  61.979  -3.550  1.00  0.00     0.012 C 
ATOM     18  C   UNL     1      -0.422  59.494  -0.925  1.00  0.00     0.000 C 
ATOM     19  C   UNL     1       0.854  61.633  -1.540  1.00  0.00     0.005 C 
ATOM     20  C   UNL     1       0.963  60.263  -0.838  1.00  0.00     0.003 C 
ATOM     21  C   UNL     1      -1.060  59.191   0.468  1.00  0.00     0.031 C 
ATOM     22  C   UNL     1       1.576  60.343   0.620  1.00  0.00    -0.008 C 
ATOM     23  C   UNL     1      -0.758  60.255   1.477  1.00  0.00    -0.027 C 
ATOM     24  C   UNL     1       0.464  60.810   1.578  1.00  0.00    -0.065 C 
ATOM     25  C   UNL     1       2.861  61.250   0.679  1.00  0.00     0.014 C 
ATOM     26  C   UNL     1       2.064  58.925   1.042  1.00  0.00     0.016 C 
ATOM     27  C   UNL     1       0.587  61.998   2.520  1.00  0.00     0.063 C 
ATOM     28  C   UNL     1       2.618  62.674   1.180  1.00  0.00     0.033 C 
ATOM     29  C   UNL     1       1.976  62.652   2.566  1.00  0.00     0.118 C 
BRANCH  29  30
ATOM     30  O   UNL     1       2.820  62.045   3.515  1.00  0.00    -0.393 OA
ATOM     31  H   UNL     1       3.540  62.685   3.754  1.00  0.00     0.210 HD
ENDBRANCH  29  30
ENDBRANCH   9  11
ENDBRANCH   1   9
TORSDOF 7
ENDMDL
MODEL 2
REMARK VINA RESULT:    43.056     16.210     20.265
REMARK INTER + INTRA:          69.420
REMARK INTER:                  69.692
REMARK INTRA:                  -0.272
REMARK UNBOUND:                10.003
REMARK SMILES CC[C@@H](CC[C@H](C)[C@@H]1CC[C@H]2[C@@H]3CC=C4C[C@@H](O)CC[C@]4(C)[C@@H]3CC[C@]21C)C(C)C
REMARK SMILES IDX 5 1 4 2 3 3 2 4 1 5 28 6 29 7 30 8 6 9 7 10 8 11 9 12 26 13
REMARK SMILES IDX 10 14 11 15 25 16 27 17 12 18 24 19 23 20 13 21 21 22 14 23
REMARK SMILES IDX 15 24 20 25 22 26 16 27 19 28 17 29 18 30
REMARK H PARENT 18 31
REMARK Flexibility Score: inf
ROOT
ATOM      1  C   UNL     1       6.772  77.295   6.135  1.00  0.00     0.004 C 
ENDROOT
BRANCH   1   2
ATOM      2  C   UNL     1       7.184  78.479   5.237  1.00  0.00     0.004 C 
BRANCH   2   3
ATOM      3  C   UNL     1       7.303  78.141   3.727  1.00  0.00    -0.009 C 
BRANCH   3   4
ATOM      4  C   UNL     1       8.352  79.055   3.032  1.00  0.00     0.000 C 
ATOM      5  C   UNL     1       9.788  78.786   3.483  1.00  0.00     0.004 C 
ENDBRANCH   3   4
BRANCH   3   6
ATOM      6  C   UNL     1       5.897  78.044   3.028  1.00  0.00    -0.014 C 
ATOM      7  C   UNL     1       5.447  76.585   2.844  1.00  0.00     0.007 C 
ATOM      8  C   UNL     1       5.781  78.803   1.693  1.00  0.00     0.007 C 
ENDBRANCH   3   6
ENDBRANCH   2   3
ENDBRANCH   1   2
BRANCH   1   9
ATOM      9  C   UNL     1       6.137  77.765   7.484  1.00  0.00    -0.011 C 
ATOM     10  C   UNL     1       6.305  76.649   8.532  1.00  0.00     0.008 C 
BRANCH   9  11
ATOM     11  C   UNL     1       4.635  78.185   7.289  1.00  0.00    -0.002 C 
ATOM     12  C   UNL     1       4.157  79.125   8.405  1.00  0.00     0.005 C 
ATOM     13  C   UNL     1       3.548  77.067   7.239  1.00  0.00    -0.026 C 
ATOM     14  C   UNL     1       2.645  78.962   8.515  1.00  0.00     0.005 C 
ATOM     15  C   UNL     1       2.231  77.850   7.531  1.00  0.00    -0.001 C 
ATOM     16  C   UNL     1       3.506  76.320   5.872  1.00  0.00     0.007 C 
ATOM     17  C   UNL     1       3.753  76.020   8.372  1.00  0.00     0.012 C 
ATOM     18  C   UNL     1       1.496  78.459   6.280  1.00  0.00     0.000 C 
ATOM     19  C   UNL     1       2.091  76.152   5.329  1.00  0.00     0.005 C 
ATOM     20  C   UNL     1       1.505  77.538   4.988  1.00  0.00     0.003 C 
ATOM     21  C   UNL     1       0.068  78.916   6.715  1.00  0.00     0.031 C 
ATOM     22  C   UNL     1       0.120  77.473   4.223  1.00  0.00    -0.008 C 
ATOM     23  C   UNL     1      -0.977  77.886   6.417  1.00  0.00    -0.027 C 
ATOM     24  C   UNL     1      -0.984  77.198   5.261  1.00  0.00    -0.065 C 
ATOM     25  C   UNL     1       0.135  76.426   3.048  1.00  0.00     0.014 C 
ATOM     26  C   UNL     1      -0.143  78.845   3.535  1.00  0.00     0.016 C 
ATOM     27  C   UNL     1      -1.990  76.062   5.160  1.00  0.00     0.063 C 
ATOM     28  C   UNL     1      -0.491  75.072   3.387  1.00  0.00     0.033 C 
ATOM     29  C   UNL     1      -1.933  75.252   3.857  1.00  0.00     0.118 C 
BRANCH  29  30
ATOM     30  O   UNL     1      -2.738  75.811   2.846  1.00  0.00    -0.393 OA
ATOM     31  H   UNL     1      -3.297  75.091   2.453  1.00  0.00     0.210 HD
ENDBRANCH  29  30
ENDBRANCH   9  11
ENDBRANCH   1   9
TORSDOF 7
ENDMDL
