MODEL 1
REMARK VINA RESULT:    -0.398      0.000      0.000
REMARK INTER + INTRA:           0.013
REMARK INTER:                  -0.468
REMARK INTRA:                   0.481
REMARK UNBOUND:                 0.481
REMARK SMILES Oc1ccc(-c2[o+]c3cc(O)cc(O)c3cc2O)cc1
REMARK SMILES IDX 6 1 7 2 8 3 9 4 10 5 12 6 13 7 15 8 16 9 17 10 5 11 4 12
REMARK SMILES IDX 3 13 2 14 19 15 20 16 1 17 18 19 11 21 14 23
REMARK H PARENT 1 18 18 20 11 22 14 24
REMARK Flexibility Score: inf
ROOT
ATOM      1  C   UNL     1      10.626 -32.585  14.290  1.00  0.00     0.401 A 
ATOM      2  O   UNL     1      10.168 -33.695  13.714  1.00  0.00    -0.202 OA
ATOM      3  C   UNL     1       8.965 -34.201  13.960  1.00  0.00     0.368 A 
ATOM      4  C   UNL     1       8.572 -35.371  13.303  1.00  0.00     0.162 A 
ATOM      5  C   UNL     1       7.314 -35.923  13.539  1.00  0.00     0.128 A 
ATOM      6  C   UNL     1       6.437 -35.304  14.439  1.00  0.00     0.093 A 
ATOM      7  C   UNL     1       6.807 -34.131  15.108  1.00  0.00     0.136 A 
ATOM      8  C   UNL     1       8.088 -33.567  14.873  1.00  0.00     0.125 A 
ATOM      9  C   UNL     1       8.548 -32.403  15.510  1.00  0.00     0.078 A 
ATOM     10  C   UNL     1       9.826 -31.910  15.230  1.00  0.00     0.223 A 
ENDROOT
BRANCH   1  11
ATOM     11  C   UNL     1      11.982 -32.115  13.926  1.00  0.00     0.084 A 
ATOM     12  C   UNL     1      12.877 -32.936  13.217  1.00  0.00     0.022 A 
ATOM     13  C   UNL     1      14.161 -32.478  12.906  1.00  0.00     0.047 A 
ATOM     14  C   UNL     1      14.571 -31.204  13.310  1.00  0.00     0.115 A 
ATOM     15  C   UNL     1      12.409 -30.844  14.347  1.00  0.00     0.022 A 
ATOM     16  C   UNL     1      13.693 -30.389  14.034  1.00  0.00     0.047 A 
BRANCH  14  17
ATOM     17  O   UNL     1      15.853 -30.760  12.992  1.00  0.00    -0.508 OA
ATOM     18  H   UNL     1      16.518 -31.357  12.516  1.00  0.00     0.293 HD
ENDBRANCH  14  17
ENDBRANCH   1  11
BRANCH  10  19
ATOM     19  O   UNL     1      10.302 -30.782  15.899  1.00  0.00    -0.500 OA
ATOM     20  H   UNL     1      11.240 -30.430  15.748  1.00  0.00     0.294 HD
ENDBRANCH  10  19
BRANCH   5  21
ATOM     21  O   UNL     1       6.940 -37.090  12.875  1.00  0.00    -0.507 OA
ATOM     22  H   UNL     1       7.565 -37.555  12.229  1.00  0.00     0.293 HD
ENDBRANCH   5  21
BRANCH   7  23
ATOM     23  O   UNL     1       5.875 -33.571  15.988  1.00  0.00    -0.507 OA
ATOM     24  H   UNL     1       5.766 -32.581  16.148  1.00  0.00     0.293 HD
ENDBRANCH   7  23
TORSDOF 5
ENDMDL
MODEL 2
REMARK VINA RESULT:     0.295      1.153      6.598
REMARK INTER + INTRA:           0.828
REMARK INTER:                   0.502
REMARK INTRA:                   0.325
REMARK UNBOUND:                 0.481
REMARK SMILES Oc1ccc(-c2[o+]c3cc(O)cc(O)c3cc2O)cc1
REMARK SMILES IDX 6 1 7 2 8 3 9 4 10 5 12 6 13 7 15 8 16 9 17 10 5 11 4 12
REMARK SMILES IDX 3 13 2 14 19 15 20 16 1 17 18 19 11 21 14 23
REMARK H PARENT 1 18 18 20 11 22 14 24
REMARK Flexibility Score: inf
ROOT
ATOM      1  C   UNL     1       9.731 -33.151  14.501  1.00  0.00     0.401 A 
ATOM      2  O   UNL     1      10.892 -33.159  13.852  1.00  0.00    -0.202 OA
ATOM      3  C   UNL     1      11.874 -32.300  14.105  1.00  0.00     0.368 A 
ATOM      4  C   UNL     1      13.061 -32.390  13.371  1.00  0.00     0.162 A 
ATOM      5  C   UNL     1      14.110 -31.505  13.617  1.00  0.00     0.128 A 
ATOM      6  C   UNL     1      13.976 -30.520  14.603  1.00  0.00     0.093 A 
ATOM      7  C   UNL     1      12.797 -30.411  15.352  1.00  0.00     0.136 A 
ATOM      8  C   UNL     1      11.727 -31.307  15.103  1.00  0.00     0.125 A 
ATOM      9  C   UNL     1      10.505 -31.263  15.794  1.00  0.00     0.078 A 
ATOM     10  C   UNL     1       9.493 -32.179  15.490  1.00  0.00     0.223 A 
ENDROOT
BRANCH   1  11
ATOM     11  C   UNL     1       8.716 -34.167  14.135  1.00  0.00     0.084 A 
ATOM     12  C   UNL     1       7.346 -33.950  14.363  1.00  0.00     0.022 A 
ATOM     13  C   UNL     1       6.409 -34.934  14.031  1.00  0.00     0.047 A 
ATOM     14  C   UNL     1       6.830 -36.149  13.483  1.00  0.00     0.115 A 
ATOM     15  C   UNL     1       9.133 -35.399  13.604  1.00  0.00     0.022 A 
ATOM     16  C   UNL     1       8.195 -36.381  13.272  1.00  0.00     0.047 A 
BRANCH  14  17
ATOM     17  O   UNL     1       5.886 -37.120  13.155  1.00  0.00    -0.508 OA
ATOM     18  H   UNL     1       6.114 -37.896  12.544  1.00  0.00     0.293 HD
ENDBRANCH  14  17
ENDBRANCH   1  11
BRANCH  10  19
ATOM     19  O   UNL     1       8.262 -32.103  16.142  1.00  0.00    -0.500 OA
ATOM     20  H   UNL     1       7.915 -32.863  16.715  1.00  0.00     0.294 HD
ENDBRANCH  10  19
BRANCH   5  21
ATOM     21  O   UNL     1      15.286 -31.610  12.876  1.00  0.00    -0.507 OA
ATOM     22  H   UNL     1      15.278 -31.922  11.913  1.00  0.00     0.293 HD
ENDBRANCH   5  21
BRANCH   7  23
ATOM     23  O   UNL     1      12.742 -29.404  16.321  1.00  0.00    -0.507 OA
ATOM     24  H   UNL     1      12.381 -29.530  17.255  1.00  0.00     0.293 HD
ENDBRANCH   7  23
TORSDOF 5
ENDMDL
MODEL 3
REMARK VINA RESULT:     0.897      1.602      2.978
REMARK INTER + INTRA:           1.535
REMARK INTER:                   1.621
REMARK INTRA:                  -0.085
REMARK UNBOUND:                 0.481
REMARK SMILES Oc1ccc(-c2[o+]c3cc(O)cc(O)c3cc2O)cc1
REMARK SMILES IDX 6 1 7 2 8 3 9 4 10 5 12 6 13 7 15 8 16 9 17 10 5 11 4 12
REMARK SMILES IDX 3 13 2 14 19 15 20 16 1 17 18 19 11 21 14 23
REMARK H PARENT 1 18 18 20 11 22 14 24
REMARK Flexibility Score: inf
ROOT
ATOM      1  C   UNL     1      11.729 -32.129  14.054  1.00  0.00     0.401 A 
ATOM      2  O   UNL     1      10.494 -31.868  14.473  1.00  0.00    -0.202 OA
ATOM      3  C   UNL     1       9.477 -32.709  14.316  1.00  0.00     0.368 A 
ATOM      4  C   UNL     1       8.214 -32.346  14.794  1.00  0.00     0.162 A 
ATOM      5  C   UNL     1       7.130 -33.209  14.647  1.00  0.00     0.128 A 
ATOM      6  C   UNL     1       7.305 -34.448  14.018  1.00  0.00     0.093 A 
ATOM      7  C   UNL     1       8.560 -34.835  13.532  1.00  0.00     0.136 A 
ATOM      8  C   UNL     1       9.666 -33.958  13.677  1.00  0.00     0.125 A 
ATOM      9  C   UNL     1      10.955 -34.256  13.208  1.00  0.00     0.078 A 
ATOM     10  C   UNL     1      11.995 -33.338  13.384  1.00  0.00     0.223 A 
ENDROOT
BRANCH   1  11
ATOM     11  C   UNL     1      12.781 -31.115  14.296  1.00  0.00     0.084 A 
ATOM     12  C   UNL     1      13.519 -30.557  13.237  1.00  0.00     0.022 A 
ATOM     13  C   UNL     1      14.523 -29.618  13.492  1.00  0.00     0.047 A 
ATOM     14  C   UNL     1      14.813 -29.237  14.805  1.00  0.00     0.115 A 
ATOM     15  C   UNL     1      13.092 -30.743  15.615  1.00  0.00     0.022 A 
ATOM     16  C   UNL     1      14.096 -29.804  15.867  1.00  0.00     0.047 A 
BRANCH  14  17
ATOM     17  O   UNL     1      15.815 -28.299  15.046  1.00  0.00    -0.508 OA
ATOM     18  H   UNL     1      16.521 -28.088  14.351  1.00  0.00     0.293 HD
ENDBRANCH  14  17
ENDBRANCH   1  11
BRANCH  10  19
ATOM     19  O   UNL     1      13.264 -33.613  12.875  1.00  0.00    -0.500 OA
ATOM     20  H   UNL     1      13.904 -34.241  13.348  1.00  0.00     0.294 HD
ENDBRANCH  10  19
BRANCH   5  21
ATOM     21  O   UNL     1       5.879 -32.830  15.129  1.00  0.00    -0.507 OA
ATOM     22  H   UNL     1       5.609 -31.857  15.195  1.00  0.00     0.293 HD
ENDBRANCH   5  21
BRANCH   7  23
ATOM     23  O   UNL     1       8.654 -36.089  12.919  1.00  0.00    -0.507 OA
ATOM     24  H   UNL     1       8.895 -36.233  11.950  1.00  0.00     0.293 HD
ENDBRANCH   7  23
TORSDOF 5
ENDMDL
