MODEL 1
REMARK VINA RESULT:    55.576      0.000      0.000
REMARK INTER + INTRA:          77.196
REMARK INTER:                  76.694
REMARK INTRA:                   0.502
REMARK UNBOUND:                 0.502
REMARK SMILES CC[C@H](CC[C@@H](C)[C@@H]1CC[C@@H]2[C@H]3CC=C4C[C@@H](O)CC[C@]4(C)[C@@H]3CC[C@@]21C)C(C)C
REMARK SMILES IDX 5 1 4 2 3 3 2 4 1 5 28 6 29 7 30 8 6 9 7 10 8 11 9 12 26 13
REMARK SMILES IDX 10 14 11 15 25 16 27 17 12 18 24 19 23 20 13 21 21 22 14 23
REMARK SMILES IDX 15 24 20 25 22 26 16 27 19 28 17 29 18 30
REMARK H PARENT 18 31
REMARK Flexibility Score: inf
ROOT
ATOM      1  C   UNL     1     -25.867 -50.725  27.037  1.00  0.00     0.004 C 
ENDROOT
BRANCH   1   2
ATOM      2  C   UNL     1     -24.421 -51.002  27.516  1.00  0.00     0.004 C 
BRANCH   2   3
ATOM      3  C   UNL     1     -24.263 -50.964  29.062  1.00  0.00    -0.009 C 
BRANCH   3   4
ATOM      4  C   UNL     1     -23.643 -49.623  29.565  1.00  0.00     0.000 C 
ATOM      5  C   UNL     1     -22.397 -49.133  28.813  1.00  0.00     0.004 C 
ENDBRANCH   3   4
BRANCH   3   6
ATOM      6  C   UNL     1     -25.572 -51.390  29.819  1.00  0.00    -0.014 C 
ATOM      7  C   UNL     1     -26.879 -51.055  29.080  1.00  0.00     0.007 C 
ATOM      8  C   UNL     1     -25.622 -50.814  31.242  1.00  0.00     0.007 C 
ENDBRANCH   3   6
ENDBRANCH   2   3
ENDBRANCH   1   2
BRANCH   1   9
ATOM      9  C   UNL     1     -25.931 -49.593  25.974  1.00  0.00    -0.011 C 
ATOM     10  C   UNL     1     -27.123 -49.764  25.016  1.00  0.00     0.008 C 
BRANCH   9  11
ATOM     11  C   UNL     1     -25.795 -48.116  26.498  1.00  0.00    -0.002 C 
ATOM     12  C   UNL     1     -27.124 -47.400  26.700  1.00  0.00     0.005 C 
ATOM     13  C   UNL     1     -24.873 -47.057  25.805  1.00  0.00    -0.026 C 
ATOM     14  C   UNL     1     -26.729 -45.991  27.090  1.00  0.00     0.005 C 
ATOM     15  C   UNL     1     -25.433 -45.680  26.315  1.00  0.00    -0.001 C 
ATOM     16  C   UNL     1     -24.943 -47.118  24.260  1.00  0.00     0.007 C 
ATOM     17  C   UNL     1     -23.397 -47.224  26.271  1.00  0.00     0.012 C 
ATOM     18  C   UNL     1     -25.689 -44.602  25.207  1.00  0.00     0.000 C 
ATOM     19  C   UNL     1     -24.175 -45.967  23.600  1.00  0.00     0.005 C 
ATOM     20  C   UNL     1     -24.561 -44.558  24.144  1.00  0.00     0.003 C 
ATOM     21  C   UNL     1     -25.796 -43.210  25.861  1.00  0.00     0.031 C 
ATOM     22  C   UNL     1     -24.841 -43.477  23.016  1.00  0.00    -0.008 C 
ATOM     23  C   UNL     1     -25.930 -42.112  24.857  1.00  0.00    -0.027 C 
ATOM     24  C   UNL     1     -25.441 -42.187  23.602  1.00  0.00    -0.065 C 
ATOM     25  C   UNL     1     -25.858 -43.974  21.931  1.00  0.00     0.014 C 
ATOM     26  C   UNL     1     -23.480 -43.145  22.347  1.00  0.00     0.016 C 
ATOM     27  C   UNL     1     -25.802 -41.079  22.634  1.00  0.00     0.063 C 
ATOM     28  C   UNL     1     -26.303 -42.880  20.933  1.00  0.00     0.033 C 
ATOM     29  C   UNL     1     -26.833 -41.619  21.632  1.00  0.00     0.118 C 
BRANCH  29  30
ATOM     30  O   UNL     1     -27.123 -40.643  20.664  1.00  0.00    -0.393 OA
ATOM     31  H   UNL     1     -28.107 -40.642  20.542  1.00  0.00     0.210 HD
ENDBRANCH  29  30
ENDBRANCH   9  11
ENDBRANCH   1   9
TORSDOF 7
ENDMDL
MODEL 2
REMARK VINA RESULT:    58.052      1.800      3.362
REMARK INTER + INTRA:          80.613
REMARK INTER:                  81.359
REMARK INTRA:                  -0.746
REMARK UNBOUND:                 0.502
REMARK SMILES CC[C@H](CC[C@@H](C)[C@@H]1CC[C@@H]2[C@H]3CC=C4C[C@@H](O)CC[C@]4(C)[C@@H]3CC[C@@]21C)C(C)C
REMARK SMILES IDX 5 1 4 2 3 3 2 4 1 5 28 6 29 7 30 8 6 9 7 10 8 11 9 12 26 13
REMARK SMILES IDX 10 14 11 15 25 16 27 17 12 18 24 19 23 20 13 21 21 22 14 23
REMARK SMILES IDX 15 24 20 25 22 26 16 27 19 28 17 29 18 30
REMARK H PARENT 18 31
REMARK Flexibility Score: inf
ROOT
ATOM      1  C   UNL     1     -25.509 -48.943  27.388  1.00  0.00     0.004 C 
ENDROOT
BRANCH   1   2
ATOM      2  C   UNL     1     -24.752 -49.892  28.349  1.00  0.00     0.004 C 
BRANCH   2   3
ATOM      3  C   UNL     1     -25.692 -50.761  29.230  1.00  0.00    -0.009 C 
BRANCH   3   4
ATOM      4  C   UNL     1     -26.053 -52.121  28.556  1.00  0.00     0.000 C 
ATOM      5  C   UNL     1     -27.118 -52.062  27.449  1.00  0.00     0.004 C 
ENDBRANCH   3   4
BRANCH   3   6
ATOM      6  C   UNL     1     -25.187 -50.893  30.712  1.00  0.00    -0.014 C 
ATOM      7  C   UNL     1     -24.302 -52.122  30.981  1.00  0.00     0.007 C 
ATOM      8  C   UNL     1     -26.350 -50.866  31.716  1.00  0.00     0.007 C 
ENDBRANCH   3   6
ENDBRANCH   2   3
ENDBRANCH   1   2
BRANCH   1   9
ATOM      9  C   UNL     1     -24.546 -48.069  26.539  1.00  0.00    -0.011 C 
ATOM     10  C   UNL     1     -23.127 -48.659  26.481  1.00  0.00     0.008 C 
BRANCH   9  11
ATOM     11  C   UNL     1     -25.060 -47.613  25.123  1.00  0.00    -0.002 C 
ATOM     12  C   UNL     1     -24.071 -47.857  23.991  1.00  0.00     0.005 C 
ATOM     13  C   UNL     1     -25.629 -46.179  24.854  1.00  0.00    -0.026 C 
ATOM     14  C   UNL     1     -24.738 -47.243  22.779  1.00  0.00     0.005 C 
ATOM     15  C   UNL     1     -25.521 -46.020  23.294  1.00  0.00    -0.001 C 
ATOM     16  C   UNL     1     -24.814 -45.067  25.559  1.00  0.00     0.007 C 
ATOM     17  C   UNL     1     -27.122 -46.091  25.285  1.00  0.00     0.012 C 
ATOM     18  C   UNL     1     -24.866 -44.686  22.796  1.00  0.00     0.000 C 
ATOM     19  C   UNL     1     -25.274 -43.664  25.147  1.00  0.00     0.005 C 
ATOM     20  C   UNL     1     -25.337 -43.450  23.604  1.00  0.00     0.003 C 
ATOM     21  C   UNL     1     -25.224 -44.463  21.312  1.00  0.00     0.031 C 
ATOM     22  C   UNL     1     -24.652 -42.108  23.103  1.00  0.00    -0.008 C 
ATOM     23  C   UNL     1     -24.727 -43.153  20.792  1.00  0.00    -0.027 C 
ATOM     24  C   UNL     1     -24.538 -42.066  21.569  1.00  0.00    -0.065 C 
ATOM     25  C   UNL     1     -23.195 -41.924  23.651  1.00  0.00     0.014 C 
ATOM     26  C   UNL     1     -25.544 -40.930  23.577  1.00  0.00     0.016 C 
ATOM     27  C   UNL     1     -23.862 -40.862  20.949  1.00  0.00     0.063 C 
ATOM     28  C   UNL     1     -22.430 -40.733  23.027  1.00  0.00     0.033 C 
ATOM     29  C   UNL     1     -22.429 -40.768  21.491  1.00  0.00     0.118 C 
BRANCH  29  30
ATOM     30  O   UNL     1     -21.802 -39.609  21.005  1.00  0.00    -0.393 OA
ATOM     31  H   UNL     1     -20.967 -39.494  21.525  1.00  0.00     0.210 HD
ENDBRANCH  29  30
ENDBRANCH   9  11
ENDBRANCH   1   9
TORSDOF 7
ENDMDL
