MODEL 1
REMARK VINA RESULT:    -9.074      0.000      0.000
REMARK INTER + INTRA:         -14.794
REMARK INTER:                 -12.522
REMARK INTRA:                  -2.273
REMARK UNBOUND:                -2.273
REMARK SMILES CC[C@H](CC[C@@H](C)[C@@H]1CC[C@H]2[C@@H]3CC=C4C[C@H](O)CC[C@@]4(C)[C@@H]3CC[C@]21C)C(C)C
REMARK SMILES IDX 5 1 4 2 3 3 2 4 1 5 28 6 29 7 30 8 6 9 7 10 8 11 9 12 26 13
REMARK SMILES IDX 10 14 11 15 25 16 27 17 12 18 24 19 23 20 13 21 21 22 14 23
REMARK SMILES IDX 15 24 20 25 22 26 16 27 19 28 17 29 18 30
REMARK H PARENT 18 31
REMARK Flexibility Score: inf
ROOT
ATOM      1  C   UNL     1      12.273  71.875  -2.619  1.00  0.00     0.004 C 
ENDROOT
BRANCH   1   2
ATOM      2  C   UNL     1      10.747  72.073  -2.462  1.00  0.00     0.004 C 
BRANCH   2   3
ATOM      3  C   UNL     1       9.956  72.440  -3.751  1.00  0.00    -0.009 C 
BRANCH   3   4
ATOM      4  C   UNL     1       9.424  73.906  -3.766  1.00  0.00     0.000 C 
ATOM      5  C   UNL     1       8.571  74.320  -2.565  1.00  0.00     0.004 C 
ENDBRANCH   3   4
BRANCH   3   6
ATOM      6  C   UNL     1      10.700  71.967  -5.049  1.00  0.00    -0.014 C 
ATOM      7  C   UNL     1      11.412  73.076  -5.847  1.00  0.00     0.007 C 
ATOM      8  C   UNL     1       9.801  71.136  -5.978  1.00  0.00     0.007 C 
ENDBRANCH   3   6
ENDBRANCH   2   3
ENDBRANCH   1   2
BRANCH   1   9
ATOM      9  C   UNL     1      13.136  73.166  -2.493  1.00  0.00    -0.011 C 
ATOM     10  C   UNL     1      14.284  73.182  -3.514  1.00  0.00     0.008 C 
BRANCH   9  11
ATOM     11  C   UNL     1      12.355  74.534  -2.455  1.00  0.00    -0.002 C 
ATOM     12  C   UNL     1      12.856  75.559  -3.468  1.00  0.00     0.005 C 
ATOM     13  C   UNL     1      12.145  75.347  -1.132  1.00  0.00    -0.026 C 
ATOM     14  C   UNL     1      12.034  76.792  -3.170  1.00  0.00     0.005 C 
ATOM     15  C   UNL     1      11.849  76.812  -1.638  1.00  0.00    -0.001 C 
ATOM     16  C   UNL     1      10.982  74.758  -0.291  1.00  0.00     0.007 C 
ATOM     17  C   UNL     1      13.432  75.373  -0.262  1.00  0.00     0.012 C 
ATOM     18  C   UNL     1      10.492  77.519  -1.239  1.00  0.00     0.000 C 
ATOM     19  C   UNL     1      10.414  75.786   0.681  1.00  0.00     0.005 C 
ATOM     20  C   UNL     1       9.641  76.867  -0.089  1.00  0.00     0.003 C 
ATOM     21  C   UNL     1      10.740  79.017  -1.002  1.00  0.00     0.031 C 
ATOM     22  C   UNL     1       8.853  77.878   0.862  1.00  0.00    -0.008 C 
ATOM     23  C   UNL     1       9.457  79.725  -0.705  1.00  0.00    -0.027 C 
ATOM     24  C   UNL     1       8.548  79.197   0.133  1.00  0.00    -0.065 C 
ATOM     25  C   UNL     1       7.511  77.194   1.298  1.00  0.00     0.014 C 
ATOM     26  C   UNL     1       9.670  78.233   2.138  1.00  0.00     0.016 C 
ATOM     27  C   UNL     1       7.399  80.083   0.578  1.00  0.00     0.063 C 
ATOM     28  C   UNL     1       6.502  78.153   1.936  1.00  0.00     0.033 C 
ATOM     29  C   UNL     1       6.153  79.273   0.950  1.00  0.00     0.118 C 
BRANCH  29  30
ATOM     30  O   UNL     1       5.157  80.112   1.481  1.00  0.00    -0.393 OA
ATOM     31  H   UNL     1       5.134  79.972   2.464  1.00  0.00     0.210 HD
ENDBRANCH  29  30
ENDBRANCH   9  11
ENDBRANCH   1   9
TORSDOF 7
ENDMDL
MODEL 2
REMARK VINA RESULT:    -8.759      0.739      1.346
REMARK INTER + INTRA:         -14.360
REMARK INTER:                 -12.417
REMARK INTRA:                  -1.943
REMARK UNBOUND:                -2.273
REMARK SMILES CC[C@H](CC[C@@H](C)[C@@H]1CC[C@H]2[C@@H]3CC=C4C[C@H](O)CC[C@@]4(C)[C@@H]3CC[C@]21C)C(C)C
REMARK SMILES IDX 5 1 4 2 3 3 2 4 1 5 28 6 29 7 30 8 6 9 7 10 8 11 9 12 26 13
REMARK SMILES IDX 10 14 11 15 25 16 27 17 12 18 24 19 23 20 13 21 21 22 14 23
REMARK SMILES IDX 15 24 20 25 22 26 16 27 19 28 17 29 18 30
REMARK H PARENT 18 31
REMARK Flexibility Score: inf
ROOT
ATOM      1  C   UNL     1      12.695  72.252  -2.930  1.00  0.00     0.004 C 
ENDROOT
BRANCH   1   2
ATOM      2  C   UNL     1      11.774  72.014  -4.149  1.00  0.00     0.004 C 
BRANCH   2   3
ATOM      3  C   UNL     1      10.243  72.001  -3.875  1.00  0.00    -0.009 C 
BRANCH   3   4
ATOM      4  C   UNL     1       9.875  71.818  -2.370  1.00  0.00     0.000 C 
ATOM      5  C   UNL     1      10.243  70.467  -1.752  1.00  0.00     0.004 C 
ENDBRANCH   3   4
BRANCH   3   6
ATOM      6  C   UNL     1       9.503  73.165  -4.624  1.00  0.00    -0.014 C 
ATOM      7  C   UNL     1      10.209  73.697  -5.886  1.00  0.00     0.007 C 
ATOM      8  C   UNL     1       9.130  74.327  -3.691  1.00  0.00     0.007 C 
ENDBRANCH   3   6
ENDBRANCH   2   3
ENDBRANCH   1   2
BRANCH   1   9
ATOM      9  C   UNL     1      13.530  73.567  -2.964  1.00  0.00    -0.011 C 
ATOM     10  C   UNL     1      14.480  73.603  -4.171  1.00  0.00     0.008 C 
BRANCH   9  11
ATOM     11  C   UNL     1      12.731  74.914  -2.796  1.00  0.00    -0.002 C 
ATOM     12  C   UNL     1      13.283  76.067  -3.628  1.00  0.00     0.005 C 
ATOM     13  C   UNL     1      12.426  75.542  -1.392  1.00  0.00    -0.026 C 
ATOM     14  C   UNL     1      12.427  77.245  -3.224  1.00  0.00     0.005 C 
ATOM     15  C   UNL     1      12.144  77.060  -1.717  1.00  0.00    -0.001 C 
ATOM     16  C   UNL     1      11.219  74.841  -0.715  1.00  0.00     0.007 C 
ATOM     17  C   UNL     1      13.654  75.457  -0.445  1.00  0.00     0.012 C 
ATOM     18  C   UNL     1      10.755  77.701  -1.317  1.00  0.00     0.000 C 
ATOM     19  C   UNL     1      10.577  75.728   0.346  1.00  0.00     0.005 C 
ATOM     20  C   UNL     1       9.841  76.899  -0.323  1.00  0.00     0.003 C 
ATOM     21  C   UNL     1      10.968  79.156  -0.868  1.00  0.00     0.031 C 
ATOM     22  C   UNL     1       8.980  77.770   0.701  1.00  0.00    -0.008 C 
ATOM     23  C   UNL     1       9.660  79.812  -0.564  1.00  0.00    -0.027 C 
ATOM     24  C   UNL     1       8.706  79.173   0.135  1.00  0.00    -0.065 C 
ATOM     25  C   UNL     1       7.623  77.029   0.954  1.00  0.00     0.014 C 
ATOM     26  C   UNL     1       9.710  77.956   2.063  1.00  0.00     0.016 C 
ATOM     27  C   UNL     1       7.519  79.987   0.618  1.00  0.00     0.063 C 
ATOM     28  C   UNL     1       6.562  77.889   1.646  1.00  0.00     0.033 C 
ATOM     29  C   UNL     1       6.262  79.129   0.797  1.00  0.00     0.118 C 
BRANCH  29  30
ATOM     30  O   UNL     1       5.224  79.886   1.369  1.00  0.00    -0.393 OA
ATOM     31  H   UNL     1       4.471  79.906   0.721  1.00  0.00     0.210 HD
ENDBRANCH  29  30
ENDBRANCH   9  11
ENDBRANCH   1   9
TORSDOF 7
ENDMDL
MODEL 3
REMARK VINA RESULT:    -7.506      1.557      2.815
REMARK INTER + INTRA:         -12.631
REMARK INTER:                 -12.549
REMARK INTRA:                  -0.082
REMARK UNBOUND:                -2.273
REMARK SMILES CC[C@H](CC[C@@H](C)[C@@H]1CC[C@H]2[C@@H]3CC=C4C[C@H](O)CC[C@@]4(C)[C@@H]3CC[C@]21C)C(C)C
REMARK SMILES IDX 5 1 4 2 3 3 2 4 1 5 28 6 29 7 30 8 6 9 7 10 8 11 9 12 26 13
REMARK SMILES IDX 10 14 11 15 25 16 27 17 12 18 24 19 23 20 13 21 21 22 14 23
REMARK SMILES IDX 15 24 20 25 22 26 16 27 19 28 17 29 18 30
REMARK H PARENT 18 31
REMARK Flexibility Score: inf
ROOT
ATOM      1  C   UNL     1      13.098  72.644  -4.269  1.00  0.00     0.004 C 
ENDROOT
BRANCH   1   2
ATOM      2  C   UNL     1      12.238  73.008  -5.503  1.00  0.00     0.004 C 
BRANCH   2   3
ATOM      3  C   UNL     1      10.700  72.825  -5.360  1.00  0.00    -0.009 C 
BRANCH   3   4
ATOM      4  C   UNL     1       9.866  73.774  -6.273  1.00  0.00     0.000 C 
ATOM      5  C   UNL     1       8.738  74.544  -5.582  1.00  0.00     0.004 C 
ENDBRANCH   3   4
BRANCH   3   6
ATOM      6  C   UNL     1      10.286  71.311  -5.386  1.00  0.00    -0.014 C 
ATOM      7  C   UNL     1       9.179  70.942  -6.391  1.00  0.00     0.007 C 
ATOM      8  C   UNL     1       9.942  70.766  -3.991  1.00  0.00     0.007 C 
ENDBRANCH   3   6
ENDBRANCH   2   3
ENDBRANCH   1   2
BRANCH   1   9
ATOM      9  C   UNL     1      13.313  73.792  -3.237  1.00  0.00    -0.011 C 
ATOM     10  C   UNL     1      13.855  75.063  -3.909  1.00  0.00     0.008 C 
BRANCH   9  11
ATOM     11  C   UNL     1      12.112  74.099  -2.265  1.00  0.00    -0.002 C 
ATOM     12  C   UNL     1      10.964  73.101  -2.367  1.00  0.00     0.005 C 
ATOM     13  C   UNL     1      11.419  75.504  -2.201  1.00  0.00    -0.026 C 
ATOM     14  C   UNL     1       9.916  73.659  -1.431  1.00  0.00     0.005 C 
ATOM     15  C   UNL     1      10.007  75.194  -1.567  1.00  0.00    -0.001 C 
ATOM     16  C   UNL     1      12.250  76.502  -1.353  1.00  0.00     0.007 C 
ATOM     17  C   UNL     1      11.205  76.105  -3.618  1.00  0.00     0.012 C 
ATOM     18  C   UNL     1       9.579  75.910  -0.224  1.00  0.00     0.000 C 
ATOM     19  C   UNL     1      11.392  77.651  -0.836  1.00  0.00     0.005 C 
ATOM     20  C   UNL     1      10.431  77.143   0.249  1.00  0.00     0.003 C 
ATOM     21  C   UNL     1       8.074  76.222  -0.263  1.00  0.00     0.031 C 
ATOM     22  C   UNL     1       9.629  78.314   0.980  1.00  0.00    -0.008 C 
ATOM     23  C   UNL     1       7.626  76.824   1.030  1.00  0.00    -0.027 C 
ATOM     24  C   UNL     1       8.351  77.774   1.645  1.00  0.00    -0.065 C 
ATOM     25  C   UNL     1      10.565  78.942   2.069  1.00  0.00     0.014 C 
ATOM     26  C   UNL     1       9.197  79.431  -0.013  1.00  0.00     0.016 C 
ATOM     27  C   UNL     1       7.711  78.510   2.808  1.00  0.00     0.063 C 
ATOM     28  C   UNL     1       9.838  79.846   3.069  1.00  0.00     0.033 C 
ATOM     29  C   UNL     1       8.751  79.048   3.797  1.00  0.00     0.118 C 
BRANCH  29  30
ATOM     30  O   UNL     1       8.133  79.833   4.786  1.00  0.00    -0.393 OA
ATOM     31  H   UNL     1       8.800  80.497   5.107  1.00  0.00     0.210 HD
ENDBRANCH  29  30
ENDBRANCH   9  11
ENDBRANCH   1   9
TORSDOF 7
ENDMDL
MODEL 4
REMARK VINA RESULT:    -7.201      1.861      4.216
REMARK INTER + INTRA:         -12.210
REMARK INTER:                 -11.096
REMARK INTRA:                  -1.114
REMARK UNBOUND:                -2.273
REMARK SMILES CC[C@H](CC[C@@H](C)[C@@H]1CC[C@H]2[C@@H]3CC=C4C[C@H](O)CC[C@@]4(C)[C@@H]3CC[C@]21C)C(C)C
REMARK SMILES IDX 5 1 4 2 3 3 2 4 1 5 28 6 29 7 30 8 6 9 7 10 8 11 9 12 26 13
REMARK SMILES IDX 10 14 11 15 25 16 27 17 12 18 24 19 23 20 13 21 21 22 14 23
REMARK SMILES IDX 15 24 20 25 22 26 16 27 19 28 17 29 18 30
REMARK H PARENT 18 31
REMARK Flexibility Score: inf
ROOT
ATOM      1  C   UNL     1      11.956  72.080  -5.381  1.00  0.00     0.004 C 
ENDROOT
BRANCH   1   2
ATOM      2  C   UNL     1      13.227  72.915  -5.665  1.00  0.00     0.004 C 
BRANCH   2   3
ATOM      3  C   UNL     1      13.777  73.771  -4.488  1.00  0.00    -0.009 C 
BRANCH   3   4
ATOM      4  C   UNL     1      13.226  75.230  -4.461  1.00  0.00     0.000 C 
ATOM      5  C   UNL     1      14.277  76.338  -4.372  1.00  0.00     0.004 C 
ENDBRANCH   3   4
BRANCH   3   6
ATOM      6  C   UNL     1      13.726  72.993  -3.125  1.00  0.00    -0.014 C 
ATOM      7  C   UNL     1      12.981  73.707  -1.981  1.00  0.00     0.007 C 
ATOM      8  C   UNL     1      15.115  72.534  -2.653  1.00  0.00     0.007 C 
ENDBRANCH   3   6
ENDBRANCH   2   3
ENDBRANCH   1   2
BRANCH   1   9
ATOM      9  C   UNL     1      10.641  72.897  -5.206  1.00  0.00    -0.011 C 
ATOM     10  C   UNL     1       9.457  72.222  -5.916  1.00  0.00     0.008 C 
BRANCH   9  11
ATOM     11  C   UNL     1      10.278  73.343  -3.739  1.00  0.00    -0.002 C 
ATOM     12  C   UNL     1       9.449  72.320  -2.970  1.00  0.00     0.005 C 
ATOM     13  C   UNL     1       9.608  74.724  -3.421  1.00  0.00    -0.026 C 
ATOM     14  C   UNL     1       9.152  73.010  -1.658  1.00  0.00     0.005 C 
ATOM     15  C   UNL     1       8.948  74.500  -2.006  1.00  0.00    -0.001 C 
ATOM     16  C   UNL     1      10.655  75.869  -3.419  1.00  0.00     0.007 C 
ATOM     17  C   UNL     1       8.488  75.069  -4.442  1.00  0.00     0.012 C 
ATOM     18  C   UNL     1       9.363  75.428  -0.794  1.00  0.00     0.000 C 
ATOM     19  C   UNL     1      10.171  77.072  -2.620  1.00  0.00     0.005 C 
ATOM     20  C   UNL     1      10.164  76.739  -1.120  1.00  0.00     0.003 C 
ATOM     21  C   UNL     1       8.136  75.699   0.092  1.00  0.00     0.031 C 
ATOM     22  C   UNL     1       9.853  78.003  -0.195  1.00  0.00    -0.008 C 
ATOM     23  C   UNL     1       8.518  76.505   1.292  1.00  0.00    -0.027 C 
ATOM     24  C   UNL     1       9.344  77.561   1.187  1.00  0.00    -0.065 C 
ATOM     25  C   UNL     1      11.176  78.827  -0.031  1.00  0.00     0.014 C 
ATOM     26  C   UNL     1       8.763  78.924  -0.816  1.00  0.00     0.016 C 
ATOM     27  C   UNL     1       9.480  78.472   2.393  1.00  0.00     0.063 C 
ATOM     28  C   UNL     1      11.123  79.874   1.085  1.00  0.00     0.033 C 
ATOM     29  C   UNL     1      10.833  79.192   2.426  1.00  0.00     0.118 C 
BRANCH  29  30
ATOM     30  O   UNL     1      10.873  80.123   3.479  1.00  0.00    -0.393 OA
ATOM     31  H   UNL     1      10.691  79.635   4.324  1.00  0.00     0.210 HD
ENDBRANCH  29  30
ENDBRANCH   9  11
ENDBRANCH   1   9
TORSDOF 7
ENDMDL
MODEL 5
REMARK VINA RESULT:    -7.193      2.750      7.457
REMARK INTER + INTRA:         -12.198
REMARK INTER:                 -10.200
REMARK INTRA:                  -1.998
REMARK UNBOUND:                -2.273
REMARK SMILES CC[C@H](CC[C@@H](C)[C@@H]1CC[C@H]2[C@@H]3CC=C4C[C@H](O)CC[C@@]4(C)[C@@H]3CC[C@]21C)C(C)C
REMARK SMILES IDX 5 1 4 2 3 3 2 4 1 5 28 6 29 7 30 8 6 9 7 10 8 11 9 12 26 13
REMARK SMILES IDX 10 14 11 15 25 16 27 17 12 18 24 19 23 20 13 21 21 22 14 23
REMARK SMILES IDX 15 24 20 25 22 26 16 27 19 28 17 29 18 30
REMARK H PARENT 18 31
REMARK Flexibility Score: inf
ROOT
ATOM      1  C   UNL     1       8.710  80.099   0.536  1.00  0.00     0.004 C 
ENDROOT
BRANCH   1   2
ATOM      2  C   UNL     1       7.565  79.109   0.216  1.00  0.00     0.004 C 
BRANCH   2   3
ATOM      3  C   UNL     1       7.287  78.001   1.273  1.00  0.00    -0.009 C 
BRANCH   3   4
ATOM      4  C   UNL     1       6.657  78.536   2.595  1.00  0.00     0.000 C 
ATOM      5  C   UNL     1       7.609  78.662   3.785  1.00  0.00     0.004 C 
ENDBRANCH   3   4
BRANCH   3   6
ATOM      6  C   UNL     1       6.586  76.749   0.637  1.00  0.00    -0.014 C 
ATOM      7  C   UNL     1       5.671  75.948   1.583  1.00  0.00     0.007 C 
ATOM      8  C   UNL     1       7.576  75.809  -0.069  1.00  0.00     0.007 C 
ENDBRANCH   3   6
ENDBRANCH   2   3
ENDBRANCH   1   2
BRANCH   1   9
ATOM      9  C   UNL     1      10.119  79.460   0.721  1.00  0.00    -0.011 C 
ATOM     10  C   UNL     1      10.715  79.793   2.098  1.00  0.00     0.008 C 
BRANCH   9  11
ATOM     11  C   UNL     1      10.251  77.930   0.369  1.00  0.00    -0.002 C 
ATOM     12  C   UNL     1      10.732  77.069   1.533  1.00  0.00     0.005 C 
ATOM     13  C   UNL     1      11.062  77.418  -0.871  1.00  0.00    -0.026 C 
ATOM     14  C   UNL     1      10.872  75.691   0.928  1.00  0.00     0.005 C 
ATOM     15  C   UNL     1      11.381  75.915  -0.512  1.00  0.00    -0.001 C 
ATOM     16  C   UNL     1      10.237  77.560  -2.177  1.00  0.00     0.007 C 
ATOM     17  C   UNL     1      12.403  78.185  -1.038  1.00  0.00     0.012 C 
ATOM     18  C   UNL     1      10.891  74.760  -1.475  1.00  0.00     0.000 C 
ATOM     19  C   UNL     1      10.743  76.621  -3.266  1.00  0.00     0.005 C 
ATOM     20  C   UNL     1      10.397  75.167  -2.910  1.00  0.00     0.003 C 
ATOM     21  C   UNL     1      11.945  73.642  -1.517  1.00  0.00     0.031 C 
ATOM     22  C   UNL     1      10.720  74.136  -4.085  1.00  0.00    -0.008 C 
ATOM     23  C   UNL     1      11.469  72.498  -2.354  1.00  0.00    -0.027 C 
ATOM     24  C   UNL     1      10.864  72.706  -3.537  1.00  0.00    -0.065 C 
ATOM     25  C   UNL     1       9.543  74.188  -5.119  1.00  0.00     0.014 C 
ATOM     26  C   UNL     1      12.047  74.486  -4.818  1.00  0.00     0.016 C 
ATOM     27  C   UNL     1      10.642  71.504  -4.437  1.00  0.00     0.063 C 
ATOM     28  C   UNL     1       9.544  73.030  -6.122  1.00  0.00     0.033 C 
ATOM     29  C   UNL     1       9.446  71.695  -5.375  1.00  0.00     0.118 C 
BRANCH  29  30
ATOM     30  O   UNL     1       9.351  70.623  -6.281  1.00  0.00    -0.393 OA
ATOM     31  H   UNL     1       8.638  70.013  -5.955  1.00  0.00     0.210 HD
ENDBRANCH  29  30
ENDBRANCH   9  11
ENDBRANCH   1   9
TORSDOF 7
ENDMDL
MODEL 6
REMARK VINA RESULT:    -7.160      2.783      7.637
REMARK INTER + INTRA:         -12.153
REMARK INTER:                 -10.289
REMARK INTRA:                  -1.864
REMARK UNBOUND:                -2.273
REMARK SMILES CC[C@H](CC[C@@H](C)[C@@H]1CC[C@H]2[C@@H]3CC=C4C[C@H](O)CC[C@@]4(C)[C@@H]3CC[C@]21C)C(C)C
REMARK SMILES IDX 5 1 4 2 3 3 2 4 1 5 28 6 29 7 30 8 6 9 7 10 8 11 9 12 26 13
REMARK SMILES IDX 10 14 11 15 25 16 27 17 12 18 24 19 23 20 13 21 21 22 14 23
REMARK SMILES IDX 15 24 20 25 22 26 16 27 19 28 17 29 18 30
REMARK H PARENT 18 31
REMARK Flexibility Score: inf
ROOT
ATOM      1  C   UNL     1      11.407  80.082   0.279  1.00  0.00     0.004 C 
ENDROOT
BRANCH   1   2
ATOM      2  C   UNL     1      10.759  79.499   1.558  1.00  0.00     0.004 C 
BRANCH   2   3
ATOM      3  C   UNL     1       9.463  78.661   1.362  1.00  0.00    -0.009 C 
BRANCH   3   4
ATOM      4  C   UNL     1       9.720  77.130   1.213  1.00  0.00     0.000 C 
ATOM      5  C   UNL     1       9.291  76.508  -0.117  1.00  0.00     0.004 C 
ENDBRANCH   3   4
BRANCH   3   6
ATOM      6  C   UNL     1       8.341  79.072   2.381  1.00  0.00    -0.014 C 
ATOM      7  C   UNL     1       8.607  78.692   3.850  1.00  0.00     0.007 C 
ATOM      8  C   UNL     1       6.945  78.593   1.950  1.00  0.00     0.007 C 
ENDBRANCH   3   6
ENDBRANCH   2   3
ENDBRANCH   1   2
BRANCH   1   9
ATOM      9  C   UNL     1      12.720  79.385  -0.187  1.00  0.00    -0.011 C 
ATOM     10  C   UNL     1      13.900  79.725   0.737  1.00  0.00     0.008 C 
BRANCH   9  11
ATOM     11  C   UNL     1      12.629  77.842  -0.492  1.00  0.00    -0.002 C 
ATOM     12  C   UNL     1      13.423  76.973   0.478  1.00  0.00     0.005 C 
ATOM     13  C   UNL     1      12.934  77.245  -1.909  1.00  0.00    -0.026 C 
ATOM     14  C   UNL     1      13.262  75.576  -0.076  1.00  0.00     0.005 C 
ATOM     15  C   UNL     1      13.263  75.730  -1.612  1.00  0.00    -0.001 C 
ATOM     16  C   UNL     1      11.723  77.418  -2.863  1.00  0.00     0.007 C 
ATOM     17  C   UNL     1      14.182  77.906  -2.555  1.00  0.00     0.012 C 
ATOM     18  C   UNL     1      12.403  74.594  -2.297  1.00  0.00     0.000 C 
ATOM     19  C   UNL     1      11.768  76.421  -4.015  1.00  0.00     0.005 C 
ATOM     20  C   UNL     1      11.475  75.005  -3.497  1.00  0.00     0.003 C 
ATOM     21  C   UNL     1      13.308  73.400  -2.643  1.00  0.00     0.031 C 
ATOM     22  C   UNL     1      11.313  73.927  -4.663  1.00  0.00    -0.008 C 
ATOM     23  C   UNL     1      12.504  72.277  -3.217  1.00  0.00    -0.027 C 
ATOM     24  C   UNL     1      11.546  72.503  -4.133  1.00  0.00    -0.065 C 
ATOM     25  C   UNL     1       9.860  74.044  -5.239  1.00  0.00     0.014 C 
ATOM     26  C   UNL     1      12.329  74.163  -5.818  1.00  0.00     0.016 C 
ATOM     27  C   UNL     1      10.956  71.301  -4.848  1.00  0.00     0.063 C 
ATOM     28  C   UNL     1       9.446  72.868  -6.128  1.00  0.00     0.033 C 
ATOM     29  C   UNL     1       9.526  71.560  -5.333  1.00  0.00     0.118 C 
BRANCH  29  30
ATOM     30  O   UNL     1       9.061  70.479  -6.103  1.00  0.00    -0.393 OA
ATOM     31  H   UNL     1       9.409  69.643  -5.695  1.00  0.00     0.210 HD
ENDBRANCH  29  30
ENDBRANCH   9  11
ENDBRANCH   1   9
TORSDOF 7
ENDMDL
MODEL 7
REMARK VINA RESULT:    -7.077      2.757      7.312
REMARK INTER + INTRA:         -12.039
REMARK INTER:                  -9.974
REMARK INTRA:                  -2.065
REMARK UNBOUND:                -2.273
REMARK SMILES CC[C@H](CC[C@@H](C)[C@@H]1CC[C@H]2[C@@H]3CC=C4C[C@H](O)CC[C@@]4(C)[C@@H]3CC[C@]21C)C(C)C
REMARK SMILES IDX 5 1 4 2 3 3 2 4 1 5 28 6 29 7 30 8 6 9 7 10 8 11 9 12 26 13
REMARK SMILES IDX 10 14 11 15 25 16 27 17 12 18 24 19 23 20 13 21 21 22 14 23
REMARK SMILES IDX 15 24 20 25 22 26 16 27 19 28 17 29 18 30
REMARK H PARENT 18 31
REMARK Flexibility Score: inf
ROOT
ATOM      1  C   UNL     1      11.302  79.771   0.646  1.00  0.00     0.004 C 
ENDROOT
BRANCH   1   2
ATOM      2  C   UNL     1       9.977  79.125   0.178  1.00  0.00     0.004 C 
BRANCH   2   3
ATOM      3  C   UNL     1       9.374  78.026   1.099  1.00  0.00    -0.009 C 
BRANCH   3   4
ATOM      4  C   UNL     1       8.390  78.577   2.176  1.00  0.00     0.000 C 
ATOM      5  C   UNL     1       9.018  78.972   3.514  1.00  0.00     0.004 C 
ENDBRANCH   3   4
BRANCH   3   6
ATOM      6  C   UNL     1       8.867  76.787   0.278  1.00  0.00    -0.014 C 
ATOM      7  C   UNL     1       7.413  76.359   0.553  1.00  0.00     0.007 C 
ATOM      8  C   UNL     1       9.809  75.578   0.387  1.00  0.00     0.007 C 
ENDBRANCH   3   6
ENDBRANCH   2   3
ENDBRANCH   1   2
BRANCH   1   9
ATOM      9  C   UNL     1      12.598  79.190   0.003  1.00  0.00    -0.011 C 
ATOM     10  C   UNL     1      13.848  79.562   0.815  1.00  0.00     0.008 C 
BRANCH   9  11
ATOM     11  C   UNL     1      12.570  77.663  -0.380  1.00  0.00    -0.002 C 
ATOM     12  C   UNL     1      13.473  76.792   0.488  1.00  0.00     0.005 C 
ATOM     13  C   UNL     1      12.812  77.157  -1.844  1.00  0.00    -0.026 C 
ATOM     14  C   UNL     1      13.352  75.418  -0.130  1.00  0.00     0.005 C 
ATOM     15  C   UNL     1      13.242  75.651  -1.652  1.00  0.00    -0.001 C 
ATOM     16  C   UNL     1      11.533  77.309  -2.708  1.00  0.00     0.007 C 
ATOM     17  C   UNL     1      13.977  77.922  -2.531  1.00  0.00     0.012 C 
ATOM     18  C   UNL     1      12.401  74.504  -2.343  1.00  0.00     0.000 C 
ATOM     19  C   UNL     1      11.555  76.377  -3.914  1.00  0.00     0.005 C 
ATOM     20  C   UNL     1      11.375  74.922  -3.457  1.00  0.00     0.003 C 
ATOM     21  C   UNL     1      13.345  73.384  -2.811  1.00  0.00     0.031 C 
ATOM     22  C   UNL     1      11.194  73.898  -4.668  1.00  0.00    -0.008 C 
ATOM     23  C   UNL     1      12.567  72.247  -3.393  1.00  0.00    -0.027 C 
ATOM     24  C   UNL     1      11.540  72.464  -4.232  1.00  0.00    -0.065 C 
ATOM     25  C   UNL     1       9.702  73.959  -5.143  1.00  0.00     0.014 C 
ATOM     26  C   UNL     1      12.117  74.250  -5.870  1.00  0.00     0.016 C 
ATOM     27  C   UNL     1      10.970  71.268  -4.974  1.00  0.00     0.063 C 
ATOM     28  C   UNL     1       9.295  72.809  -6.068  1.00  0.00     0.033 C 
ATOM     29  C   UNL     1       9.498  71.469  -5.353  1.00  0.00     0.118 C 
BRANCH  29  30
ATOM     30  O   UNL     1       9.042  70.404  -6.150  1.00  0.00    -0.393 OA
ATOM     31  H   UNL     1       8.538  70.790  -6.913  1.00  0.00     0.210 HD
ENDBRANCH  29  30
ENDBRANCH   9  11
ENDBRANCH   1   9
TORSDOF 7
ENDMDL
MODEL 8
REMARK VINA RESULT:    -6.630      1.437      2.424
REMARK INTER + INTRA:         -11.422
REMARK INTER:                 -10.466
REMARK INTRA:                  -0.956
REMARK UNBOUND:                -2.273
REMARK SMILES CC[C@H](CC[C@@H](C)[C@@H]1CC[C@H]2[C@@H]3CC=C4C[C@H](O)CC[C@@]4(C)[C@@H]3CC[C@]21C)C(C)C
REMARK SMILES IDX 5 1 4 2 3 3 2 4 1 5 28 6 29 7 30 8 6 9 7 10 8 11 9 12 26 13
REMARK SMILES IDX 10 14 11 15 25 16 27 17 12 18 24 19 23 20 13 21 21 22 14 23
REMARK SMILES IDX 15 24 20 25 22 26 16 27 19 28 17 29 18 30
REMARK H PARENT 18 31
REMARK Flexibility Score: inf
ROOT
ATOM      1  C   UNL     1      13.606  72.855  -3.932  1.00  0.00     0.004 C 
ENDROOT
BRANCH   1   2
ATOM      2  C   UNL     1      12.507  72.093  -3.156  1.00  0.00     0.004 C 
BRANCH   2   3
ATOM      3  C   UNL     1      11.054  72.223  -3.697  1.00  0.00    -0.009 C 
BRANCH   3   4
ATOM      4  C   UNL     1      10.842  71.565  -5.095  1.00  0.00     0.000 C 
ATOM      5  C   UNL     1       9.554  71.948  -5.826  1.00  0.00     0.004 C 
ENDBRANCH   3   4
BRANCH   3   6
ATOM      6  C   UNL     1       9.987  71.867  -2.603  1.00  0.00    -0.014 C 
ATOM      7  C   UNL     1       9.539  73.036  -1.706  1.00  0.00     0.007 C 
ATOM      8  C   UNL     1      10.400  70.663  -1.742  1.00  0.00     0.007 C 
ENDBRANCH   3   6
ENDBRANCH   2   3
ENDBRANCH   1   2
BRANCH   1   9
ATOM      9  C   UNL     1      13.713  74.379  -3.625  1.00  0.00    -0.011 C 
ATOM     10  C   UNL     1      14.450  75.131  -4.744  1.00  0.00     0.008 C 
BRANCH   9  11
ATOM     11  C   UNL     1      12.383  75.106  -3.196  1.00  0.00    -0.002 C 
ATOM     12  C   UNL     1      11.391  75.303  -4.338  1.00  0.00     0.005 C 
ATOM     13  C   UNL     1      12.381  76.470  -2.423  1.00  0.00    -0.026 C 
ATOM     14  C   UNL     1      10.269  76.095  -3.708  1.00  0.00     0.005 C 
ATOM     15  C   UNL     1      10.944  77.057  -2.707  1.00  0.00    -0.001 C 
ATOM     16  C   UNL     1      12.652  76.257  -0.910  1.00  0.00     0.007 C 
ATOM     17  C   UNL     1      13.441  77.454  -2.989  1.00  0.00     0.012 C 
ATOM     18  C   UNL     1       9.981  77.387  -1.497  1.00  0.00     0.000 C 
ATOM     19  C   UNL     1      12.143  77.427  -0.077  1.00  0.00     0.005 C 
ATOM     20  C   UNL     1      10.607  77.429  -0.057  1.00  0.00     0.003 C 
ATOM     21  C   UNL     1       9.167  78.652  -1.817  1.00  0.00     0.031 C 
ATOM     22  C   UNL     1       9.991  78.507   0.947  1.00  0.00    -0.008 C 
ATOM     23  C   UNL     1       8.187  78.939  -0.724  1.00  0.00    -0.027 C 
ATOM     24  C   UNL     1       8.538  78.844   0.570  1.00  0.00    -0.065 C 
ATOM     25  C   UNL     1      10.034  77.908   2.395  1.00  0.00     0.014 C 
ATOM     26  C   UNL     1      10.793  79.840   0.933  1.00  0.00     0.016 C 
ATOM     27  C   UNL     1       7.574  79.393   1.605  1.00  0.00     0.063 C 
ATOM     28  C   UNL     1       9.186  78.676   3.412  1.00  0.00     0.033 C 
ATOM     29  C   UNL     1       7.721  78.694   2.962  1.00  0.00     0.118 C 
BRANCH  29  30
ATOM     30  O   UNL     1       6.909  79.314   3.928  1.00  0.00    -0.393 OA
ATOM     31  H   UNL     1       6.250  78.643   4.247  1.00  0.00     0.210 HD
ENDBRANCH  29  30
ENDBRANCH   9  11
ENDBRANCH   1   9
TORSDOF 7
ENDMDL
MODEL 9
REMARK VINA RESULT:    -6.405      3.124      7.813
REMARK INTER + INTRA:         -11.111
REMARK INTER:                  -9.391
REMARK INTRA:                  -1.720
REMARK UNBOUND:                -2.273
REMARK SMILES CC[C@H](CC[C@@H](C)[C@@H]1CC[C@H]2[C@@H]3CC=C4C[C@H](O)CC[C@@]4(C)[C@@H]3CC[C@]21C)C(C)C
REMARK SMILES IDX 5 1 4 2 3 3 2 4 1 5 28 6 29 7 30 8 6 9 7 10 8 11 9 12 26 13
REMARK SMILES IDX 10 14 11 15 25 16 27 17 12 18 24 19 23 20 13 21 21 22 14 23
REMARK SMILES IDX 15 24 20 25 22 26 16 27 19 28 17 29 18 30
REMARK H PARENT 18 31
REMARK Flexibility Score: inf
ROOT
ATOM      1  C   UNL     1      10.266  79.930   1.471  1.00  0.00     0.004 C 
ENDROOT
BRANCH   1   2
ATOM      2  C   UNL     1      11.793  80.125   1.321  1.00  0.00     0.004 C 
BRANCH   2   3
ATOM      3  C   UNL     1      12.416  79.722  -0.047  1.00  0.00    -0.009 C 
BRANCH   3   4
ATOM      4  C   UNL     1      11.546  80.125  -1.277  1.00  0.00     0.000 C 
ATOM      5  C   UNL     1      10.905  78.970  -2.049  1.00  0.00     0.004 C 
ENDBRANCH   3   4
BRANCH   3   6
ATOM      6  C   UNL     1      13.937  80.097  -0.131  1.00  0.00    -0.014 C 
ATOM      7  C   UNL     1      14.731  79.404  -1.254  1.00  0.00     0.007 C 
ATOM      8  C   UNL     1      14.663  79.934   1.214  1.00  0.00     0.007 C 
ENDBRANCH   3   6
ENDBRANCH   2   3
ENDBRANCH   1   2
BRANCH   1   9
ATOM      9  C   UNL     1       9.810  78.509   1.920  1.00  0.00    -0.011 C 
ATOM     10  C   UNL     1       8.645  78.577   2.919  1.00  0.00     0.008 C 
BRANCH   9  11
ATOM     11  C   UNL     1       9.551  77.458   0.775  1.00  0.00    -0.002 C 
ATOM     12  C   UNL     1       8.103  76.986   0.687  1.00  0.00     0.005 C 
ATOM     13  C   UNL     1      10.408  76.155   0.619  1.00  0.00    -0.026 C 
ATOM     14  C   UNL     1       8.133  75.931  -0.395  1.00  0.00     0.005 C 
ATOM     15  C   UNL     1       9.482  75.200  -0.230  1.00  0.00    -0.001 C 
ATOM     16  C   UNL     1      11.761  76.453  -0.078  1.00  0.00     0.007 C 
ATOM     17  C   UNL     1      10.688  75.482   1.992  1.00  0.00     0.012 C 
ATOM     18  C   UNL     1       9.998  74.640  -1.616  1.00  0.00     0.000 C 
ATOM     19  C   UNL     1      12.356  75.200  -0.711  1.00  0.00     0.005 C 
ATOM     20  C   UNL     1      11.529  74.787  -1.937  1.00  0.00     0.003 C 
ATOM     21  C   UNL     1       9.498  73.199  -1.809  1.00  0.00     0.031 C 
ATOM     22  C   UNL     1      12.191  73.598  -2.772  1.00  0.00    -0.008 C 
ATOM     23  C   UNL     1       9.901  72.675  -3.150  1.00  0.00    -0.027 C 
ATOM     24  C   UNL     1      11.139  72.878  -3.634  1.00  0.00    -0.065 C 
ATOM     25  C   UNL     1      13.302  74.206  -3.695  1.00  0.00     0.014 C 
ATOM     26  C   UNL     1      12.840  72.528  -1.846  1.00  0.00     0.016 C 
ATOM     27  C   UNL     1      11.548  72.106  -4.874  1.00  0.00     0.063 C 
ATOM     28  C   UNL     1      13.796  73.253  -4.787  1.00  0.00     0.033 C 
ATOM     29  C   UNL     1      12.625  72.836  -5.684  1.00  0.00     0.118 C 
BRANCH  29  30
ATOM     30  O   UNL     1      13.073  72.035  -6.749  1.00  0.00    -0.393 OA
ATOM     31  H   UNL     1      13.789  71.441  -6.401  1.00  0.00     0.210 HD
ENDBRANCH  29  30
ENDBRANCH   9  11
ENDBRANCH   1   9
TORSDOF 7
ENDMDL
