MODEL 1
REMARK VINA RESULT:    -7.220      0.000      0.000
REMARK INTER + INTRA:         -11.741
REMARK INTER:                  -9.964
REMARK INTRA:                  -1.777
REMARK UNBOUND:                -1.777
REMARK SMILES CC[C@H](CC[C@H](C)[C@@H]1CC[C@@H]2[C@H]3CC=C4C[C@@H](O)CC[C@]4(C)[C@@H]3CC[C@]21C)C(C)C
REMARK SMILES IDX 5 1 4 2 3 3 2 4 1 5 28 6 29 7 30 8 6 9 7 10 8 11 9 12 26 13
REMARK SMILES IDX 10 14 11 15 25 16 27 17 12 18 24 19 23 20 13 21 21 22 14 23
REMARK SMILES IDX 15 24 20 25 22 26 16 27 19 28 17 29 18 30
REMARK H PARENT 18 31
REMARK Flexibility Score: inf
ROOT
ATOM      1  C   UNL     1       8.461  18.040  46.480  1.00  0.00     0.004 C 
ENDROOT
BRANCH   1   2
ATOM      2  C   UNL     1       8.709  17.645  45.005  1.00  0.00     0.004 C 
BRANCH   2   3
ATOM      3  C   UNL     1       8.371  18.748  43.961  1.00  0.00    -0.009 C 
BRANCH   3   4
ATOM      4  C   UNL     1       9.575  19.167  43.065  1.00  0.00     0.000 C 
ATOM      5  C   UNL     1       9.272  19.358  41.578  1.00  0.00     0.004 C 
ENDBRANCH   3   4
BRANCH   3   6
ATOM      6  C   UNL     1       7.031  18.442  43.201  1.00  0.00    -0.014 C 
ATOM      7  C   UNL     1       6.579  16.979  43.338  1.00  0.00     0.007 C 
ATOM      8  C   UNL     1       5.862  19.399  43.506  1.00  0.00     0.007 C 
ENDBRANCH   3   6
ENDBRANCH   2   3
ENDBRANCH   1   2
BRANCH   1   9
ATOM      9  C   UNL     1       7.211  17.398  47.131  1.00  0.00    -0.011 C 
ATOM     10  C   UNL     1       7.151  15.875  46.859  1.00  0.00     0.008 C 
BRANCH   9  11
ATOM     11  C   UNL     1       5.910  18.225  46.805  1.00  0.00    -0.002 C 
ATOM     12  C   UNL     1       5.914  19.656  47.410  1.00  0.00     0.005 C 
ATOM     13  C   UNL     1       4.477  17.660  47.091  1.00  0.00    -0.026 C 
ATOM     14  C   UNL     1       4.455  19.993  47.755  1.00  0.00     0.005 C 
ATOM     15  C   UNL     1       3.649  18.951  46.991  1.00  0.00    -0.001 C 
ATOM     16  C   UNL     1       3.911  16.698  46.014  1.00  0.00     0.007 C 
ATOM     17  C   UNL     1       4.400  16.997  48.500  1.00  0.00     0.012 C 
ATOM     18  C   UNL     1       2.158  18.763  47.346  1.00  0.00     0.000 C 
ATOM     19  C   UNL     1       2.395  16.423  46.234  1.00  0.00     0.005 C 
ATOM     20  C   UNL     1       1.528  17.722  46.377  1.00  0.00     0.003 C 
ATOM     21  C   UNL     1       1.396  20.088  47.183  1.00  0.00     0.031 C 
ATOM     22  C   UNL     1      -0.004  17.456  46.714  1.00  0.00    -0.008 C 
ATOM     23  C   UNL     1      -0.066  19.900  47.447  1.00  0.00    -0.027 C 
ATOM     24  C   UNL     1      -0.709  18.726  47.245  1.00  0.00    -0.065 C 
ATOM     25  C   UNL     1      -0.168  16.340  47.794  1.00  0.00     0.014 C 
ATOM     26  C   UNL     1      -0.711  17.013  45.408  1.00  0.00     0.016 C 
ATOM     27  C   UNL     1      -2.128  18.588  47.759  1.00  0.00     0.063 C 
ATOM     28  C   UNL     1      -1.605  16.192  48.337  1.00  0.00     0.033 C 
ATOM     29  C   UNL     1      -2.161  17.524  48.863  1.00  0.00     0.118 C 
BRANCH  29  30
ATOM     30  O   UNL     1      -3.485  17.352  49.304  1.00  0.00    -0.393 OA
ATOM     31  H   UNL     1      -4.047  17.282  48.488  1.00  0.00     0.210 HD
ENDBRANCH  29  30
ENDBRANCH   9  11
ENDBRANCH   1   9
TORSDOF 7
ENDMDL
MODEL 2
REMARK VINA RESULT:    -6.908      5.228      8.735
REMARK INTER + INTRA:         -11.309
REMARK INTER:                  -9.912
REMARK INTRA:                  -1.397
REMARK UNBOUND:                -1.777
REMARK SMILES CC[C@H](CC[C@H](C)[C@@H]1CC[C@@H]2[C@H]3CC=C4C[C@@H](O)CC[C@]4(C)[C@@H]3CC[C@]21C)C(C)C
REMARK SMILES IDX 5 1 4 2 3 3 2 4 1 5 28 6 29 7 30 8 6 9 7 10 8 11 9 12 26 13
REMARK SMILES IDX 10 14 11 15 25 16 27 17 12 18 24 19 23 20 13 21 21 22 14 23
REMARK SMILES IDX 15 24 20 25 22 26 16 27 19 28 17 29 18 30
REMARK H PARENT 18 31
REMARK Flexibility Score: inf
ROOT
ATOM      1  C   UNL     1       0.733  18.518  46.740  1.00  0.00     0.004 C 
ENDROOT
BRANCH   1   2
ATOM      2  C   UNL     1       0.816  17.114  47.387  1.00  0.00     0.004 C 
BRANCH   2   3
ATOM      3  C   UNL     1      -0.375  16.168  47.062  1.00  0.00    -0.009 C 
BRANCH   3   4
ATOM      4  C   UNL     1      -1.306  15.875  48.277  1.00  0.00     0.000 C 
ATOM      5  C   UNL     1      -1.083  16.741  49.519  1.00  0.00     0.004 C 
ENDBRANCH   3   4
BRANCH   3   6
ATOM      6  C   UNL     1      -1.103  16.580  45.732  1.00  0.00    -0.014 C 
ATOM      7  C   UNL     1      -0.534  15.876  44.489  1.00  0.00     0.007 C 
ATOM      8  C   UNL     1      -2.641  16.473  45.757  1.00  0.00     0.007 C 
ENDBRANCH   3   6
ENDBRANCH   2   3
ENDBRANCH   1   2
BRANCH   1   9
ATOM      9  C   UNL     1       1.279  19.676  47.612  1.00  0.00    -0.011 C 
ATOM     10  C   UNL     1       2.712  19.379  48.115  1.00  0.00     0.008 C 
BRANCH   9  11
ATOM     11  C   UNL     1       0.226  20.117  48.698  1.00  0.00    -0.002 C 
ATOM     12  C   UNL     1      -1.249  19.906  48.258  1.00  0.00     0.005 C 
ATOM     13  C   UNL     1       0.262  21.538  49.356  1.00  0.00    -0.026 C 
ATOM     14  C   UNL     1      -2.068  21.032  48.908  1.00  0.00     0.005 C 
ATOM     15  C   UNL     1      -1.142  21.585  49.982  1.00  0.00    -0.001 C 
ATOM     16  C   UNL     1       1.264  21.708  50.527  1.00  0.00     0.007 C 
ATOM     17  C   UNL     1       0.487  22.651  48.288  1.00  0.00     0.012 C 
ATOM     18  C   UNL     1      -1.488  22.943  50.632  1.00  0.00     0.000 C 
ATOM     19  C   UNL     1       1.026  23.040  51.295  1.00  0.00     0.005 C 
ATOM     20  C   UNL     1      -0.458  23.251  51.756  1.00  0.00     0.003 C 
ATOM     21  C   UNL     1      -2.887  22.892  51.267  1.00  0.00     0.031 C 
ATOM     22  C   UNL     1      -0.740  24.658  52.443  1.00  0.00    -0.008 C 
ATOM     23  C   UNL     1      -3.202  24.177  51.969  1.00  0.00    -0.027 C 
ATOM     24  C   UNL     1      -2.251  24.982  52.499  1.00  0.00    -0.065 C 
ATOM     25  C   UNL     1      -0.037  25.821  51.675  1.00  0.00     0.014 C 
ATOM     26  C   UNL     1      -0.197  24.599  53.893  1.00  0.00     0.016 C 
ATOM     27  C   UNL     1      -2.665  26.358  52.980  1.00  0.00     0.063 C 
ATOM     28  C   UNL     1      -0.453  27.232  52.145  1.00  0.00     0.033 C 
ATOM     29  C   UNL     1      -1.978  27.420  52.113  1.00  0.00     0.118 C 
BRANCH  29  30
ATOM     30  O   UNL     1      -2.313  28.699  52.591  1.00  0.00    -0.393 OA
ATOM     31  H   UNL     1      -1.576  29.306  52.314  1.00  0.00     0.210 HD
ENDBRANCH  29  30
ENDBRANCH   9  11
ENDBRANCH   1   9
TORSDOF 7
ENDMDL
MODEL 3
REMARK VINA RESULT:    -6.599      5.431      9.081
REMARK INTER + INTRA:         -10.883
REMARK INTER:                  -9.078
REMARK INTRA:                  -1.805
REMARK UNBOUND:                -1.777
REMARK SMILES CC[C@H](CC[C@H](C)[C@@H]1CC[C@@H]2[C@H]3CC=C4C[C@@H](O)CC[C@]4(C)[C@@H]3CC[C@]21C)C(C)C
REMARK SMILES IDX 5 1 4 2 3 3 2 4 1 5 28 6 29 7 30 8 6 9 7 10 8 11 9 12 26 13
REMARK SMILES IDX 10 14 11 15 25 16 27 17 12 18 24 19 23 20 13 21 21 22 14 23
REMARK SMILES IDX 15 24 20 25 22 26 16 27 19 28 17 29 18 30
REMARK H PARENT 18 31
REMARK Flexibility Score: inf
ROOT
ATOM      1  C   UNL     1       0.721  19.205  48.095  1.00  0.00     0.004 C 
ENDROOT
BRANCH   1   2
ATOM      2  C   UNL     1       0.127  18.702  46.757  1.00  0.00     0.004 C 
BRANCH   2   3
ATOM      3  C   UNL     1      -1.318  18.134  46.850  1.00  0.00    -0.009 C 
BRANCH   3   4
ATOM      4  C   UNL     1      -1.481  16.706  46.248  1.00  0.00     0.000 C 
ATOM      5  C   UNL     1      -0.635  16.397  45.012  1.00  0.00     0.004 C 
ENDBRANCH   3   4
BRANCH   3   6
ATOM      6  C   UNL     1      -1.937  18.344  48.279  1.00  0.00    -0.014 C 
ATOM      7  C   UNL     1      -3.159  19.277  48.277  1.00  0.00     0.007 C 
ATOM      8  C   UNL     1      -2.245  17.054  49.065  1.00  0.00     0.007 C 
ENDBRANCH   3   6
ENDBRANCH   2   3
ENDBRANCH   1   2
BRANCH   1   9
ATOM      9  C   UNL     1       1.393  20.600  48.032  1.00  0.00    -0.011 C 
ATOM     10  C   UNL     1       2.930  20.494  48.176  1.00  0.00     0.008 C 
BRANCH   9  11
ATOM     11  C   UNL     1       0.664  21.627  48.978  1.00  0.00    -0.002 C 
ATOM     12  C   UNL     1      -0.159  20.955  50.111  1.00  0.00     0.005 C 
ATOM     13  C   UNL     1      -0.259  22.760  48.414  1.00  0.00    -0.026 C 
ATOM     14  C   UNL     1      -1.371  21.862  50.374  1.00  0.00     0.005 C 
ATOM     15  C   UNL     1      -0.999  23.174  49.697  1.00  0.00    -0.001 C 
ATOM     16  C   UNL     1       0.474  24.030  47.909  1.00  0.00     0.007 C 
ATOM     17  C   UNL     1      -1.216  22.215  47.311  1.00  0.00     0.012 C 
ATOM     18  C   UNL     1      -2.105  24.227  49.465  1.00  0.00     0.000 C 
ATOM     19  C   UNL     1      -0.521  25.197  47.644  1.00  0.00     0.005 C 
ATOM     20  C   UNL     1      -1.472  25.508  48.851  1.00  0.00     0.003 C 
ATOM     21  C   UNL     1      -2.766  24.613  50.798  1.00  0.00     0.031 C 
ATOM     22  C   UNL     1      -2.569  26.622  48.554  1.00  0.00    -0.008 C 
ATOM     23  C   UNL     1      -3.785  25.691  50.597  1.00  0.00    -0.027 C 
ATOM     24  C   UNL     1      -3.713  26.598  49.594  1.00  0.00    -0.065 C 
ATOM     25  C   UNL     1      -3.210  26.433  47.143  1.00  0.00     0.014 C 
ATOM     26  C   UNL     1      -1.875  28.006  48.620  1.00  0.00     0.016 C 
ATOM     27  C   UNL     1      -4.911  27.495  49.351  1.00  0.00     0.063 C 
ATOM     28  C   UNL     1      -4.438  27.331  46.881  1.00  0.00     0.033 C 
ATOM     29  C   UNL     1      -5.506  27.175  47.975  1.00  0.00     0.118 C 
BRANCH  29  30
ATOM     30  O   UNL     1      -6.584  28.043  47.721  1.00  0.00    -0.393 OA
ATOM     31  H   UNL     1      -7.208  27.550  47.123  1.00  0.00     0.210 HD
ENDBRANCH  29  30
ENDBRANCH   9  11
ENDBRANCH   1   9
TORSDOF 7
ENDMDL
MODEL 4
REMARK VINA RESULT:    -6.558      4.607      9.337
REMARK INTER + INTRA:         -10.827
REMARK INTER:                  -9.617
REMARK INTRA:                  -1.210
REMARK UNBOUND:                -1.777
REMARK SMILES CC[C@H](CC[C@H](C)[C@@H]1CC[C@@H]2[C@H]3CC=C4C[C@@H](O)CC[C@]4(C)[C@@H]3CC[C@]21C)C(C)C
REMARK SMILES IDX 5 1 4 2 3 3 2 4 1 5 28 6 29 7 30 8 6 9 7 10 8 11 9 12 26 13
REMARK SMILES IDX 10 14 11 15 25 16 27 17 12 18 24 19 23 20 13 21 21 22 14 23
REMARK SMILES IDX 15 24 20 25 22 26 16 27 19 28 17 29 18 30
REMARK H PARENT 18 31
REMARK Flexibility Score: inf
ROOT
ATOM      1  C   UNL     1      -0.975  24.237  50.407  1.00  0.00     0.004 C 
ENDROOT
BRANCH   1   2
ATOM      2  C   UNL     1      -1.206  25.276  51.531  1.00  0.00     0.004 C 
BRANCH   2   3
ATOM      3  C   UNL     1      -0.212  25.188  52.724  1.00  0.00    -0.009 C 
BRANCH   3   4
ATOM      4  C   UNL     1      -0.884  25.319  54.124  1.00  0.00     0.000 C 
ATOM      5  C   UNL     1      -2.386  25.609  54.124  1.00  0.00     0.004 C 
ENDBRANCH   3   4
BRANCH   3   6
ATOM      6  C   UNL     1       0.791  23.990  52.562  1.00  0.00    -0.014 C 
ATOM      7  C   UNL     1       2.215  24.439  52.197  1.00  0.00     0.007 C 
ATOM      8  C   UNL     1       0.824  22.989  53.734  1.00  0.00     0.007 C 
ENDBRANCH   3   6
ENDBRANCH   2   3
ENDBRANCH   1   2
BRANCH   1   9
ATOM      9  C   UNL     1      -2.121  23.214  50.212  1.00  0.00    -0.011 C 
ATOM     10  C   UNL     1      -2.709  22.758  51.570  1.00  0.00     0.008 C 
BRANCH   9  11
ATOM     11  C   UNL     1      -1.706  22.076  49.205  1.00  0.00    -0.002 C 
ATOM     12  C   UNL     1      -2.616  20.820  49.273  1.00  0.00     0.005 C 
ATOM     13  C   UNL     1      -0.241  21.522  49.142  1.00  0.00    -0.026 C 
ATOM     14  C   UNL     1      -1.722  19.610  48.960  1.00  0.00     0.005 C 
ATOM     15  C   UNL     1      -0.474  20.227  48.347  1.00  0.00    -0.001 C 
ATOM     16  C   UNL     1       0.759  22.367  48.311  1.00  0.00     0.007 C 
ATOM     17  C   UNL     1       0.329  21.264  50.569  1.00  0.00     0.012 C 
ATOM     18  C   UNL     1       0.790  19.351  48.202  1.00  0.00     0.000 C 
ATOM     19  C   UNL     1       2.090  21.601  48.066  1.00  0.00     0.005 C 
ATOM     20  C   UNL     1       1.896  20.164  47.469  1.00  0.00     0.003 C 
ATOM     21  C   UNL     1       0.483  18.100  47.363  1.00  0.00     0.031 C 
ATOM     22  C   UNL     1       3.241  19.326  47.320  1.00  0.00    -0.008 C 
ATOM     23  C   UNL     1       1.720  17.283  47.148  1.00  0.00    -0.027 C 
ATOM     24  C   UNL     1       2.964  17.817  47.129  1.00  0.00    -0.065 C 
ATOM     25  C   UNL     1       4.156  19.483  48.575  1.00  0.00     0.014 C 
ATOM     26  C   UNL     1       3.993  19.848  46.070  1.00  0.00     0.016 C 
ATOM     27  C   UNL     1       4.149  16.872  47.133  1.00  0.00     0.063 C 
ATOM     28  C   UNL     1       5.363  18.521  48.602  1.00  0.00     0.033 C 
ATOM     29  C   UNL     1       4.933  17.055  48.438  1.00  0.00     0.118 C 
BRANCH  29  30
ATOM     30  O   UNL     1       6.065  16.222  48.422  1.00  0.00    -0.393 OA
ATOM     31  H   UNL     1       5.959  15.616  47.641  1.00  0.00     0.210 HD
ENDBRANCH  29  30
ENDBRANCH   9  11
ENDBRANCH   1   9
TORSDOF 7
ENDMDL
MODEL 5
REMARK VINA RESULT:    -6.542      3.945      6.036
REMARK INTER + INTRA:         -10.804
REMARK INTER:                  -9.087
REMARK INTRA:                  -1.717
REMARK UNBOUND:                -1.777
REMARK SMILES CC[C@H](CC[C@H](C)[C@@H]1CC[C@@H]2[C@H]3CC=C4C[C@@H](O)CC[C@]4(C)[C@@H]3CC[C@]21C)C(C)C
REMARK SMILES IDX 5 1 4 2 3 3 2 4 1 5 28 6 29 7 30 8 6 9 7 10 8 11 9 12 26 13
REMARK SMILES IDX 10 14 11 15 25 16 27 17 12 18 24 19 23 20 13 21 21 22 14 23
REMARK SMILES IDX 15 24 20 25 22 26 16 27 19 28 17 29 18 30
REMARK H PARENT 18 31
REMARK Flexibility Score: inf
ROOT
ATOM      1  C   UNL     1       4.428  19.740  45.904  1.00  0.00     0.004 C 
ENDROOT
BRANCH   1   2
ATOM      2  C   UNL     1       5.750  18.942  45.803  1.00  0.00     0.004 C 
BRANCH   2   3
ATOM      3  C   UNL     1       5.592  17.395  45.845  1.00  0.00    -0.009 C 
BRANCH   3   4
ATOM      4  C   UNL     1       6.796  16.650  46.494  1.00  0.00     0.000 C 
ATOM      5  C   UNL     1       7.727  17.501  47.359  1.00  0.00     0.004 C 
ENDBRANCH   3   4
BRANCH   3   6
ATOM      6  C   UNL     1       4.170  16.968  46.361  1.00  0.00    -0.014 C 
ATOM      7  C   UNL     1       3.517  15.877  45.497  1.00  0.00     0.007 C 
ATOM      8  C   UNL     1       4.091  16.593  47.854  1.00  0.00     0.007 C 
ENDBRANCH   3   6
ENDBRANCH   2   3
ENDBRANCH   1   2
BRANCH   1   9
ATOM      9  C   UNL     1       4.293  20.632  47.163  1.00  0.00    -0.011 C 
ATOM     10  C   UNL     1       5.586  20.608  48.014  1.00  0.00     0.008 C 
BRANCH   9  11
ATOM     11  C   UNL     1       2.943  20.345  47.923  1.00  0.00    -0.002 C 
ATOM     12  C   UNL     1       1.896  19.581  47.067  1.00  0.00     0.005 C 
ATOM     13  C   UNL     1       2.139  21.483  48.639  1.00  0.00    -0.026 C 
ATOM     14  C   UNL     1       0.513  20.079  47.513  1.00  0.00     0.005 C 
ATOM     15  C   UNL     1       0.786  20.779  48.836  1.00  0.00    -0.001 C 
ATOM     16  C   UNL     1       2.638  21.866  50.056  1.00  0.00     0.007 C 
ATOM     17  C   UNL     1       2.036  22.754  47.742  1.00  0.00     0.012 C 
ATOM     18  C   UNL     1      -0.310  21.692  49.430  1.00  0.00     0.000 C 
ATOM     19  C   UNL     1       1.620  22.782  50.793  1.00  0.00     0.005 C 
ATOM     20  C   UNL     1       0.158  22.217  50.819  1.00  0.00     0.003 C 
ATOM     21  C   UNL     1      -1.613  20.904  49.633  1.00  0.00     0.031 C 
ATOM     22  C   UNL     1      -0.915  23.195  51.470  1.00  0.00    -0.008 C 
ATOM     23  C   UNL     1      -2.658  21.757  50.282  1.00  0.00    -0.027 C 
ATOM     24  C   UNL     1      -2.363  22.790  51.106  1.00  0.00    -0.065 C 
ATOM     25  C   UNL     1      -0.705  24.669  51.000  1.00  0.00     0.014 C 
ATOM     26  C   UNL     1      -0.757  23.120  53.010  1.00  0.00     0.016 C 
ATOM     27  C   UNL     1      -3.485  23.720  51.521  1.00  0.00     0.063 C 
ATOM     28  C   UNL     1      -1.844  25.629  51.405  1.00  0.00     0.033 C 
ATOM     29  C   UNL     1      -3.218  25.116  50.947  1.00  0.00     0.118 C 
BRANCH  29  30
ATOM     30  O   UNL     1      -4.227  25.997  51.376  1.00  0.00    -0.393 OA
ATOM     31  H   UNL     1      -5.037  25.443  51.534  1.00  0.00     0.210 HD
ENDBRANCH  29  30
ENDBRANCH   9  11
ENDBRANCH   1   9
TORSDOF 7
ENDMDL
MODEL 6
REMARK VINA RESULT:    -6.466      1.772      3.380
REMARK INTER + INTRA:         -10.700
REMARK INTER:                  -9.013
REMARK INTRA:                  -1.687
REMARK UNBOUND:                -1.777
REMARK SMILES CC[C@H](CC[C@H](C)[C@@H]1CC[C@@H]2[C@H]3CC=C4C[C@@H](O)CC[C@]4(C)[C@@H]3CC[C@]21C)C(C)C
REMARK SMILES IDX 5 1 4 2 3 3 2 4 1 5 28 6 29 7 30 8 6 9 7 10 8 11 9 12 26 13
REMARK SMILES IDX 10 14 11 15 25 16 27 17 12 18 24 19 23 20 13 21 21 22 14 23
REMARK SMILES IDX 15 24 20 25 22 26 16 27 19 28 17 29 18 30
REMARK H PARENT 18 31
REMARK Flexibility Score: inf
ROOT
ATOM      1  C   UNL     1       7.654  16.494  44.186  1.00  0.00     0.004 C 
ENDROOT
BRANCH   1   2
ATOM      2  C   UNL     1       7.417  17.193  42.826  1.00  0.00     0.004 C 
BRANCH   2   3
ATOM      3  C   UNL     1       8.284  18.460  42.576  1.00  0.00    -0.009 C 
BRANCH   3   4
ATOM      4  C   UNL     1       9.449  18.245  41.564  1.00  0.00     0.000 C 
ATOM      5  C   UNL     1      10.837  18.682  42.034  1.00  0.00     0.004 C 
ENDBRANCH   3   4
BRANCH   3   6
ATOM      6  C   UNL     1       7.398  19.735  42.332  1.00  0.00    -0.014 C 
ATOM      7  C   UNL     1       7.708  20.882  43.307  1.00  0.00     0.007 C 
ATOM      8  C   UNL     1       7.368  20.253  40.880  1.00  0.00     0.007 C 
ENDBRANCH   3   6
ENDBRANCH   2   3
ENDBRANCH   1   2
BRANCH   1   9
ATOM      9  C   UNL     1       7.589  17.424  45.424  1.00  0.00    -0.011 C 
ATOM     10  C   UNL     1       8.897  17.358  46.249  1.00  0.00     0.008 C 
BRANCH   9  11
ATOM     11  C   UNL     1       6.243  17.225  46.217  1.00  0.00    -0.002 C 
ATOM     12  C   UNL     1       5.500  15.908  45.862  1.00  0.00     0.005 C 
ATOM     13  C   UNL     1       5.133  18.330  46.253  1.00  0.00    -0.026 C 
ATOM     14  C   UNL     1       3.997  16.203  45.987  1.00  0.00     0.005 C 
ATOM     15  C   UNL     1       3.944  17.506  46.774  1.00  0.00    -0.001 C 
ATOM     16  C   UNL     1       5.355  19.468  47.282  1.00  0.00     0.007 C 
ATOM     17  C   UNL     1       4.882  18.927  44.835  1.00  0.00     0.012 C 
ATOM     18  C   UNL     1       2.614  18.291  46.817  1.00  0.00     0.000 C 
ATOM     19  C   UNL     1       4.081  20.345  47.448  1.00  0.00     0.005 C 
ATOM     20  C   UNL     1       2.779  19.525  47.750  1.00  0.00     0.003 C 
ATOM     21  C   UNL     1       1.490  17.411  47.385  1.00  0.00     0.031 C 
ATOM     22  C   UNL     1       1.450  20.399  47.810  1.00  0.00    -0.008 C 
ATOM     23  C   UNL     1       0.215  18.185  47.507  1.00  0.00    -0.027 C 
ATOM     24  C   UNL     1       0.179  19.526  47.694  1.00  0.00    -0.065 C 
ATOM     25  C   UNL     1       1.405  21.452  46.658  1.00  0.00     0.014 C 
ATOM     26  C   UNL     1       1.420  21.130  49.175  1.00  0.00     0.016 C 
ATOM     27  C   UNL     1      -1.158  20.231  47.575  1.00  0.00     0.063 C 
ATOM     28  C   UNL     1       0.047  22.173  46.515  1.00  0.00     0.033 C 
ATOM     29  C   UNL     1      -1.118  21.182  46.373  1.00  0.00     0.118 C 
BRANCH  29  30
ATOM     30  O   UNL     1      -2.335  21.880  46.291  1.00  0.00    -0.393 OA
ATOM     31  H   UNL     1      -2.169  22.670  45.711  1.00  0.00     0.210 HD
ENDBRANCH  29  30
ENDBRANCH   9  11
ENDBRANCH   1   9
TORSDOF 7
ENDMDL
MODEL 7
REMARK VINA RESULT:    -6.435      4.498      7.478
REMARK INTER + INTRA:         -10.658
REMARK INTER:                  -9.771
REMARK INTRA:                  -0.886
REMARK UNBOUND:                -1.777
REMARK SMILES CC[C@H](CC[C@H](C)[C@@H]1CC[C@@H]2[C@H]3CC=C4C[C@@H](O)CC[C@]4(C)[C@@H]3CC[C@]21C)C(C)C
REMARK SMILES IDX 5 1 4 2 3 3 2 4 1 5 28 6 29 7 30 8 6 9 7 10 8 11 9 12 26 13
REMARK SMILES IDX 10 14 11 15 25 16 27 17 12 18 24 19 23 20 13 21 21 22 14 23
REMARK SMILES IDX 15 24 20 25 22 26 16 27 19 28 17 29 18 30
REMARK H PARENT 18 31
REMARK Flexibility Score: inf
ROOT
ATOM      1  C   UNL     1       1.777  19.131  46.945  1.00  0.00     0.004 C 
ENDROOT
BRANCH   1   2
ATOM      2  C   UNL     1       3.029  18.799  47.792  1.00  0.00     0.004 C 
BRANCH   2   3
ATOM      3  C   UNL     1       3.637  17.389  47.545  1.00  0.00    -0.009 C 
BRANCH   3   4
ATOM      4  C   UNL     1       3.863  17.047  46.042  1.00  0.00     0.000 C 
ATOM      5  C   UNL     1       3.047  15.879  45.487  1.00  0.00     0.004 C 
ENDBRANCH   3   4
BRANCH   3   6
ATOM      6  C   UNL     1       4.853  17.102  48.498  1.00  0.00    -0.014 C 
ATOM      7  C   UNL     1       5.979  16.306  47.818  1.00  0.00     0.007 C 
ATOM      8  C   UNL     1       5.428  18.333  49.228  1.00  0.00     0.007 C 
ENDBRANCH   3   6
ENDBRANCH   2   3
ENDBRANCH   1   2
BRANCH   1   9
ATOM      9  C   UNL     1       0.478  18.410  47.383  1.00  0.00    -0.011 C 
ATOM     10  C   UNL     1      -0.417  18.070  46.166  1.00  0.00     0.008 C 
BRANCH   9  11
ATOM     11  C   UNL     1      -0.216  19.161  48.581  1.00  0.00    -0.002 C 
ATOM     12  C   UNL     1      -1.566  18.527  49.016  1.00  0.00     0.005 C 
ATOM     13  C   UNL     1      -0.476  20.705  48.549  1.00  0.00    -0.026 C 
ATOM     14  C   UNL     1      -2.460  19.680  49.497  1.00  0.00     0.005 C 
ATOM     15  C   UNL     1      -1.489  20.835  49.699  1.00  0.00    -0.001 C 
ATOM     16  C   UNL     1       0.733  21.596  48.935  1.00  0.00     0.007 C 
ATOM     17  C   UNL     1      -1.058  21.154  47.175  1.00  0.00     0.012 C 
ATOM     18  C   UNL     1      -2.060  22.261  49.867  1.00  0.00     0.000 C 
ATOM     19  C   UNL     1       0.307  23.075  49.156  1.00  0.00     0.005 C 
ATOM     20  C   UNL     1      -0.892  23.250  50.151  1.00  0.00     0.003 C 
ATOM     21  C   UNL     1      -3.029  22.314  51.058  1.00  0.00     0.031 C 
ATOM     22  C   UNL     1      -1.412  24.746  50.300  1.00  0.00    -0.008 C 
ATOM     23  C   UNL     1      -3.528  23.708  51.281  1.00  0.00    -0.027 C 
ATOM     24  C   UNL     1      -2.817  24.810  50.944  1.00  0.00    -0.065 C 
ATOM     25  C   UNL     1      -1.495  25.464  48.915  1.00  0.00     0.014 C 
ATOM     26  C   UNL     1      -0.419  25.509  51.213  1.00  0.00     0.016 C 
ATOM     27  C   UNL     1      -3.510  26.156  51.003  1.00  0.00     0.063 C 
ATOM     28  C   UNL     1      -2.207  26.833  48.955  1.00  0.00     0.033 C 
ATOM     29  C   UNL     1      -3.605  26.735  49.587  1.00  0.00     0.118 C 
BRANCH  29  30
ATOM     30  O   UNL     1      -4.196  28.010  49.643  1.00  0.00    -0.393 OA
ATOM     31  H   UNL     1      -4.051  28.428  48.753  1.00  0.00     0.210 HD
ENDBRANCH  29  30
ENDBRANCH   9  11
ENDBRANCH   1   9
TORSDOF 7
ENDMDL
MODEL 8
REMARK VINA RESULT:    -6.430      4.208      9.171
REMARK INTER + INTRA:         -10.650
REMARK INTER:                  -9.411
REMARK INTRA:                  -1.239
REMARK UNBOUND:                -1.777
REMARK SMILES CC[C@H](CC[C@H](C)[C@@H]1CC[C@@H]2[C@H]3CC=C4C[C@@H](O)CC[C@]4(C)[C@@H]3CC[C@]21C)C(C)C
REMARK SMILES IDX 5 1 4 2 3 3 2 4 1 5 28 6 29 7 30 8 6 9 7 10 8 11 9 12 26 13
REMARK SMILES IDX 10 14 11 15 25 16 27 17 12 18 24 19 23 20 13 21 21 22 14 23
REMARK SMILES IDX 15 24 20 25 22 26 16 27 19 28 17 29 18 30
REMARK H PARENT 18 31
REMARK Flexibility Score: inf
ROOT
ATOM      1  C   UNL     1      -1.349  22.747  49.459  1.00  0.00     0.004 C 
ENDROOT
BRANCH   1   2
ATOM      2  C   UNL     1      -2.380  22.576  50.601  1.00  0.00     0.004 C 
BRANCH   2   3
ATOM      3  C   UNL     1      -1.979  23.230  51.954  1.00  0.00    -0.009 C 
BRANCH   3   4
ATOM      4  C   UNL     1      -0.442  23.363  52.167  1.00  0.00     0.000 C 
ATOM      5  C   UNL     1       0.204  22.321  53.081  1.00  0.00     0.004 C 
ENDBRANCH   3   4
BRANCH   3   6
ATOM      6  C   UNL     1      -2.821  24.524  52.250  1.00  0.00    -0.014 C 
ATOM      7  C   UNL     1      -2.393  25.241  53.540  1.00  0.00     0.007 C 
ATOM      8  C   UNL     1      -2.926  25.527  51.084  1.00  0.00     0.007 C 
ENDBRANCH   3   6
ENDBRANCH   2   3
ENDBRANCH   1   2
BRANCH   1   9
ATOM      9  C   UNL     1      -0.996  21.448  48.693  1.00  0.00    -0.011 C 
ATOM     10  C   UNL     1      -2.140  20.409  48.784  1.00  0.00     0.008 C 
BRANCH   9  11
ATOM     11  C   UNL     1       0.448  20.942  49.065  1.00  0.00    -0.002 C 
ATOM     12  C   UNL     1       1.387  22.064  49.588  1.00  0.00     0.005 C 
ATOM     13  C   UNL     1       1.317  20.111  48.061  1.00  0.00    -0.026 C 
ATOM     14  C   UNL     1       2.807  21.701  49.126  1.00  0.00     0.005 C 
ATOM     15  C   UNL     1       2.699  20.237  48.726  1.00  0.00    -0.001 C 
ATOM     16  C   UNL     1       1.003  18.593  48.000  1.00  0.00     0.007 C 
ATOM     17  C   UNL     1       1.275  20.727  46.630  1.00  0.00     0.012 C 
ATOM     18  C   UNL     1       3.845  19.608  47.903  1.00  0.00     0.000 C 
ATOM     19  C   UNL     1       2.092  17.815  47.208  1.00  0.00     0.005 C 
ATOM     20  C   UNL     1       3.556  18.093  47.697  1.00  0.00     0.003 C 
ATOM     21  C   UNL     1       5.179  19.740  48.653  1.00  0.00     0.031 C 
ATOM     22  C   UNL     1       4.686  17.392  46.823  1.00  0.00    -0.008 C 
ATOM     23  C   UNL     1       6.284  19.064  47.903  1.00  0.00    -0.027 C 
ATOM     24  C   UNL     1       6.080  18.012  47.076  1.00  0.00    -0.065 C 
ATOM     25  C   UNL     1       4.386  17.512  45.296  1.00  0.00     0.014 C 
ATOM     26  C   UNL     1       4.736  15.894  47.219  1.00  0.00     0.016 C 
ATOM     27  C   UNL     1       7.229  17.556  46.199  1.00  0.00     0.063 C 
ATOM     28  C   UNL     1       5.549  17.062  44.386  1.00  0.00     0.033 C 
ATOM     29  C   UNL     1       6.860  17.787  44.729  1.00  0.00     0.118 C 
BRANCH  29  30
ATOM     30  O   UNL     1       7.899  17.314  43.908  1.00  0.00    -0.393 OA
ATOM     31  H   UNL     1       8.415  18.112  43.617  1.00  0.00     0.210 HD
ENDBRANCH  29  30
ENDBRANCH   9  11
ENDBRANCH   1   9
TORSDOF 7
ENDMDL
MODEL 9
REMARK VINA RESULT:    -6.373      3.172      6.469
REMARK INTER + INTRA:         -10.571
REMARK INTER:                  -9.469
REMARK INTRA:                  -1.102
REMARK UNBOUND:                -1.777
REMARK SMILES CC[C@H](CC[C@H](C)[C@@H]1CC[C@@H]2[C@H]3CC=C4C[C@@H](O)CC[C@]4(C)[C@@H]3CC[C@]21C)C(C)C
REMARK SMILES IDX 5 1 4 2 3 3 2 4 1 5 28 6 29 7 30 8 6 9 7 10 8 11 9 12 26 13
REMARK SMILES IDX 10 14 11 15 25 16 27 17 12 18 24 19 23 20 13 21 21 22 14 23
REMARK SMILES IDX 15 24 20 25 22 26 16 27 19 28 17 29 18 30
REMARK H PARENT 18 31
REMARK Flexibility Score: inf
ROOT
ATOM      1  C   UNL     1       1.323  16.509  45.715  1.00  0.00     0.004 C 
ENDROOT
BRANCH   1   2
ATOM      2  C   UNL     1       2.424  15.953  46.650  1.00  0.00     0.004 C 
BRANCH   2   3
ATOM      3  C   UNL     1       3.607  16.925  46.926  1.00  0.00    -0.009 C 
BRANCH   3   4
ATOM      4  C   UNL     1       4.663  16.373  47.930  1.00  0.00     0.000 C 
ATOM      5  C   UNL     1       5.321  17.404  48.849  1.00  0.00     0.004 C 
ENDBRANCH   3   4
BRANCH   3   6
ATOM      6  C   UNL     1       4.185  17.534  45.598  1.00  0.00    -0.014 C 
ATOM      7  C   UNL     1       4.407  19.053  45.677  1.00  0.00     0.007 C 
ATOM      8  C   UNL     1       5.438  16.833  45.037  1.00  0.00     0.007 C 
ENDBRANCH   3   6
ENDBRANCH   2   3
ENDBRANCH   1   2
BRANCH   1   9
ATOM      9  C   UNL     1      -0.130  16.204  46.157  1.00  0.00    -0.011 C 
ATOM     10  C   UNL     1      -1.097  16.191  44.948  1.00  0.00     0.008 C 
BRANCH   9  11
ATOM     11  C   UNL     1      -0.550  17.093  47.387  1.00  0.00    -0.002 C 
ATOM     12  C   UNL     1      -1.999  16.828  47.882  1.00  0.00     0.005 C 
ATOM     13  C   UNL     1      -0.399  18.653  47.371  1.00  0.00    -0.026 C 
ATOM     14  C   UNL     1      -2.538  18.168  48.406  1.00  0.00     0.005 C 
ATOM     15  C   UNL     1      -1.291  19.026  48.566  1.00  0.00    -0.001 C 
ATOM     16  C   UNL     1       1.017  19.191  47.703  1.00  0.00     0.007 C 
ATOM     17  C   UNL     1      -0.903  19.257  46.025  1.00  0.00     0.012 C 
ATOM     18  C   UNL     1      -1.462  20.549  48.763  1.00  0.00     0.000 C 
ATOM     19  C   UNL     1       1.002  20.727  47.946  1.00  0.00     0.005 C 
ATOM     20  C   UNL     1      -0.065  21.195  48.995  1.00  0.00     0.003 C 
ATOM     21  C   UNL     1      -2.331  20.836  49.997  1.00  0.00     0.031 C 
ATOM     22  C   UNL     1      -0.169  22.773  49.170  1.00  0.00    -0.008 C 
ATOM     23  C   UNL     1      -2.438  22.309  50.246  1.00  0.00    -0.027 C 
ATOM     24  C   UNL     1      -1.479  23.192  49.879  1.00  0.00    -0.065 C 
ATOM     25  C   UNL     1      -0.123  23.506  47.793  1.00  0.00     0.014 C 
ATOM     26  C   UNL     1       1.027  23.237  50.039  1.00  0.00     0.016 C 
ATOM     27  C   UNL     1      -1.793  24.671  49.973  1.00  0.00     0.063 C 
ATOM     28  C   UNL     1      -0.450  25.013  47.868  1.00  0.00     0.033 C 
ATOM     29  C   UNL     1      -1.795  25.275  48.563  1.00  0.00     0.118 C 
BRANCH  29  30
ATOM     30  O   UNL     1      -2.030  26.658  48.649  1.00  0.00    -0.393 OA
ATOM     31  H   UNL     1      -2.386  26.828  49.562  1.00  0.00     0.210 HD
ENDBRANCH  29  30
ENDBRANCH   9  11
ENDBRANCH   1   9
TORSDOF 7
ENDMDL
