MODEL 1
REMARK VINA RESULT:    48.949      0.000      0.000
REMARK INTER + INTRA:          69.469
REMARK INTER:                  67.549
REMARK INTRA:                   1.920
REMARK UNBOUND:                 1.920
REMARK SMILES CC[C@H](CC[C@@H](C)[C@H]1CC[C@@H]2[C@@H]3CC=C4C[C@@H](O)CC[C@]4(C)[C@@H]3CC[C@@]21C)C(C)C
REMARK SMILES IDX 5 1 4 2 3 3 2 4 1 5 28 6 29 7 30 8 6 9 7 10 8 11 9 12 26 13
REMARK SMILES IDX 10 14 11 15 25 16 27 17 12 18 24 19 23 20 13 21 21 22 14 23
REMARK SMILES IDX 15 24 20 25 22 26 16 27 19 28 17 29 18 30
REMARK H PARENT 18 31
REMARK Flexibility Score: inf
ROOT
ATOM      1  C   UNL     1     -36.587  21.248   4.898  1.00  0.00     0.004 C 
ENDROOT
BRANCH   1   2
ATOM      2  C   UNL     1     -38.015  21.061   5.438  1.00  0.00     0.004 C 
BRANCH   2   3
ATOM      3  C   UNL     1     -38.107  20.534   6.904  1.00  0.00    -0.009 C 
BRANCH   3   4
ATOM      4  C   UNL     1     -37.121  19.358   7.186  1.00  0.00     0.000 C 
ATOM      5  C   UNL     1     -37.428  18.569   8.460  1.00  0.00     0.004 C 
ENDBRANCH   3   4
BRANCH   3   6
ATOM      6  C   UNL     1     -37.952  21.715   7.931  1.00  0.00    -0.014 C 
ATOM      7  C   UNL     1     -38.125  23.102   7.277  1.00  0.00     0.007 C 
ATOM      8  C   UNL     1     -36.588  21.683   8.652  1.00  0.00     0.007 C 
ENDBRANCH   3   6
ENDBRANCH   2   3
ENDBRANCH   1   2
BRANCH   1   9
ATOM      9  C   UNL     1     -36.223  22.683   4.394  1.00  0.00    -0.011 C 
ATOM     10  C   UNL     1     -37.575  23.383   4.140  1.00  0.00     0.008 C 
BRANCH   9  11
ATOM     11  C   UNL     1     -35.245  23.460   5.372  1.00  0.00    -0.002 C 
ATOM     12  C   UNL     1     -36.015  24.198   6.481  1.00  0.00     0.005 C 
ATOM     13  C   UNL     1     -34.106  22.717   6.180  1.00  0.00    -0.026 C 
ATOM     14  C   UNL     1     -34.951  24.732   7.410  1.00  0.00     0.005 C 
ATOM     15  C   UNL     1     -33.855  23.666   7.410  1.00  0.00    -0.001 C 
ATOM     16  C   UNL     1     -32.821  22.549   5.318  1.00  0.00     0.007 C 
ATOM     17  C   UNL     1     -34.540  21.322   6.728  1.00  0.00     0.012 C 
ATOM     18  C   UNL     1     -32.411  24.226   7.554  1.00  0.00     0.000 C 
ATOM     19  C   UNL     1     -31.546  22.262   6.132  1.00  0.00     0.005 C 
ATOM     20  C   UNL     1     -31.392  23.063   7.465  1.00  0.00     0.003 C 
ATOM     21  C   UNL     1     -32.040  25.413   6.616  1.00  0.00     0.031 C 
ATOM     22  C   UNL     1     -29.935  23.597   7.711  1.00  0.00    -0.008 C 
ATOM     23  C   UNL     1     -30.589  25.466   6.179  1.00  0.00    -0.027 C 
ATOM     24  C   UNL     1     -29.621  24.646   6.651  1.00  0.00    -0.065 C 
ATOM     25  C   UNL     1     -28.898  22.433   7.638  1.00  0.00     0.014 C 
ATOM     26  C   UNL     1     -29.834  24.247   9.121  1.00  0.00     0.016 C 
ATOM     27  C   UNL     1     -28.263  24.646   5.980  1.00  0.00     0.063 C 
ATOM     28  C   UNL     1     -27.425  22.901   7.678  1.00  0.00     0.033 C 
ATOM     29  C   UNL     1     -27.145  24.243   6.955  1.00  0.00     0.118 C 
BRANCH  29  30
ATOM     30  O   UNL     1     -26.957  25.263   7.905  1.00  0.00    -0.393 OA
ATOM     31  H   UNL     1     -27.857  25.530   8.228  1.00  0.00     0.210 HD
ENDBRANCH  29  30
ENDBRANCH   9  11
ENDBRANCH   1   9
TORSDOF 7
ENDMDL
