MODEL 1
REMARK VINA RESULT:    -6.867      0.000      0.000
REMARK INTER + INTRA:         -10.838
REMARK INTER:                  -9.476
REMARK INTRA:                  -1.362
REMARK UNBOUND:                -1.362
REMARK SMILES CC[C@H](CC[C@H](C)[C@H]1CC[C@H]2[C@@H]3CC=C4C[C@H](O)CC[C@]4(C)[C@H]3CC[C@@]12C)C(C)C
REMARK SMILES IDX 5 1 4 2 3 3 2 4 1 5 28 6 29 7 30 8 6 9 7 10 8 11 9 12 26 13
REMARK SMILES IDX 10 14 11 15 25 16 27 17 12 18 24 19 23 20 13 21 21 22 14 23
REMARK SMILES IDX 15 24 20 25 22 26 16 27 19 28 17 29 18 30
REMARK H PARENT 18 31
REMARK Flexibility Score: inf
ROOT
ATOM      1  C   UNL     1     117.023 126.713 129.393  1.00  0.00     0.004 C 
ENDROOT
BRANCH   1   2
ATOM      2  C   UNL     1     118.173 127.726 129.193  1.00  0.00     0.004 C 
BRANCH   2   3
ATOM      3  C   UNL     1     118.156 128.929 130.186  1.00  0.00    -0.009 C 
BRANCH   3   4
ATOM      4  C   UNL     1     117.922 128.481 131.657  1.00  0.00     0.000 C 
ATOM      5  C   UNL     1     116.584 128.894 132.287  1.00  0.00     0.004 C 
ENDBRANCH   3   4
BRANCH   3   6
ATOM      6  C   UNL     1     119.349 129.921 129.962  1.00  0.00    -0.014 C 
ATOM      7  C   UNL     1     118.986 131.238 129.254  1.00  0.00     0.007 C 
ATOM      8  C   UNL     1     120.532 129.249 129.247  1.00  0.00     0.007 C 
ENDBRANCH   3   6
ENDBRANCH   2   3
ENDBRANCH   1   2
BRANCH   1   9
ATOM      9  C   UNL     1     117.495 125.246 129.643  1.00  0.00    -0.011 C 
ATOM     10  C   UNL     1     117.090 124.758 131.046  1.00  0.00     0.008 C 
BRANCH   9  11
ATOM     11  C   UNL     1     119.005 124.930 129.341  1.00  0.00    -0.002 C 
ATOM     12  C   UNL     1     119.670 124.043 130.386  1.00  0.00     0.005 C 
ATOM     13  C   UNL     1     119.479 124.371 127.955  1.00  0.00    -0.026 C 
ATOM     14  C   UNL     1     121.030 123.721 129.804  1.00  0.00     0.005 C 
ATOM     15  C   UNL     1     120.867 123.708 128.269  1.00  0.00    -0.001 C 
ATOM     16  C   UNL     1     118.506 123.322 127.361  1.00  0.00     0.007 C 
ATOM     17  C   UNL     1     119.674 125.535 126.942  1.00  0.00     0.012 C 
ATOM     18  C   UNL     1     121.065 122.267 127.690  1.00  0.00     0.000 C 
ATOM     19  C   UNL     1     119.058 122.666 126.091  1.00  0.00     0.005 C 
ATOM     20  C   UNL     1     120.514 122.128 126.245  1.00  0.00     0.003 C 
ATOM     21  C   UNL     1     122.566 121.900 127.709  1.00  0.00     0.031 C 
ATOM     22  C   UNL     1     120.712 120.665 125.681  1.00  0.00    -0.008 C 
ATOM     23  C   UNL     1     122.911 120.676 126.912  1.00  0.00    -0.027 C 
ATOM     24  C   UNL     1     122.159 120.205 125.895  1.00  0.00    -0.065 C 
ATOM     25  C   UNL     1     120.399 120.681 124.152  1.00  0.00     0.014 C 
ATOM     26  C   UNL     1     119.793 119.634 126.397  1.00  0.00     0.016 C 
ATOM     27  C   UNL     1     122.679 119.009 125.116  1.00  0.00     0.063 C 
ATOM     28  C   UNL     1     120.845 119.414 123.404  1.00  0.00     0.033 C 
ATOM     29  C   UNL     1     122.333 119.104 123.622  1.00  0.00     0.118 C 
BRANCH  29  30
ATOM     30  O   UNL     1     123.151 120.035 122.955  1.00  0.00    -0.393 OA
ATOM     31  H   UNL     1     123.309 119.707 122.032  1.00  0.00     0.210 HD
ENDBRANCH  29  30
ENDBRANCH   9  11
ENDBRANCH   1   9
TORSDOF 7
ENDMDL
MODEL 2
REMARK VINA RESULT:    -6.849      4.008      5.245
REMARK INTER + INTRA:         -10.813
REMARK INTER:                  -9.879
REMARK INTRA:                  -0.934
REMARK UNBOUND:                -1.362
REMARK SMILES CC[C@H](CC[C@H](C)[C@H]1CC[C@H]2[C@@H]3CC=C4C[C@H](O)CC[C@]4(C)[C@H]3CC[C@@]12C)C(C)C
REMARK SMILES IDX 5 1 4 2 3 3 2 4 1 5 28 6 29 7 30 8 6 9 7 10 8 11 9 12 26 13
REMARK SMILES IDX 10 14 11 15 25 16 27 17 12 18 24 19 23 20 13 21 21 22 14 23
REMARK SMILES IDX 15 24 20 25 22 26 16 27 19 28 17 29 18 30
REMARK H PARENT 18 31
REMARK Flexibility Score: inf
ROOT
ATOM      1  C   UNL     1     119.892 129.294 128.755  1.00  0.00     0.004 C 
ENDROOT
BRANCH   1   2
ATOM      2  C   UNL     1     120.072 130.519 129.680  1.00  0.00     0.004 C 
BRANCH   2   3
ATOM      3  C   UNL     1     120.546 131.816 128.953  1.00  0.00    -0.009 C 
BRANCH   3   4
ATOM      4  C   UNL     1     119.453 132.922 128.939  1.00  0.00     0.000 C 
ATOM      5  C   UNL     1     118.722 133.137 127.607  1.00  0.00     0.004 C 
ENDBRANCH   3   4
BRANCH   3   6
ATOM      6  C   UNL     1     121.974 132.280 129.404  1.00  0.00    -0.014 C 
ATOM      7  C   UNL     1     122.108 133.778 129.725  1.00  0.00     0.007 C 
ATOM      8  C   UNL     1     123.060 131.857 128.403  1.00  0.00     0.007 C 
ENDBRANCH   3   6
ENDBRANCH   2   3
ENDBRANCH   1   2
BRANCH   1   9
ATOM      9  C   UNL     1     118.825 128.267 129.249  1.00  0.00    -0.011 C 
ATOM     10  C   UNL     1     117.856 128.908 130.260  1.00  0.00     0.008 C 
BRANCH   9  11
ATOM     11  C   UNL     1     119.364 126.885 129.769  1.00  0.00    -0.002 C 
ATOM     12  C   UNL     1     119.220 126.695 131.274  1.00  0.00     0.005 C 
ATOM     13  C   UNL     1     118.922 125.524 129.130  1.00  0.00    -0.026 C 
ATOM     14  C   UNL     1     119.618 125.254 131.515  1.00  0.00     0.005 C 
ATOM     15  C   UNL     1     119.228 124.465 130.247  1.00  0.00    -0.001 C 
ATOM     16  C   UNL     1     117.418 125.489 128.758  1.00  0.00     0.007 C 
ATOM     17  C   UNL     1     119.778 125.215 127.870  1.00  0.00     0.012 C 
ATOM     18  C   UNL     1     118.072 123.451 130.544  1.00  0.00     0.000 C 
ATOM     19  C   UNL     1     116.963 124.104 128.288  1.00  0.00     0.005 C 
ATOM     20  C   UNL     1     117.379 122.947 129.248  1.00  0.00     0.003 C 
ATOM     21  C   UNL     1     118.625 122.246 131.336  1.00  0.00     0.031 C 
ATOM     22  C   UNL     1     116.208 121.936 129.567  1.00  0.00    -0.008 C 
ATOM     23  C   UNL     1     117.685 121.078 131.419  1.00  0.00    -0.027 C 
ATOM     24  C   UNL     1     116.692 120.850 130.535  1.00  0.00    -0.065 C 
ATOM     25  C   UNL     1     115.758 121.268 128.229  1.00  0.00     0.014 C 
ATOM     26  C   UNL     1     114.994 122.640 130.239  1.00  0.00     0.016 C 
ATOM     27  C   UNL     1     115.877 119.578 130.689  1.00  0.00     0.063 C 
ATOM     28  C   UNL     1     114.849 120.042 128.411  1.00  0.00     0.033 C 
ATOM     29  C   UNL     1     115.479 118.984 129.329  1.00  0.00     0.118 C 
BRANCH  29  30
ATOM     30  O   UNL     1     116.564 118.344 128.701  1.00  0.00    -0.393 OA
ATOM     31  H   UNL     1     117.385 118.533 129.226  1.00  0.00     0.210 HD
ENDBRANCH  29  30
ENDBRANCH   9  11
ENDBRANCH   1   9
TORSDOF 7
ENDMDL
MODEL 3
REMARK VINA RESULT:    -6.784      4.004      8.015
REMARK INTER + INTRA:         -10.724
REMARK INTER:                  -9.074
REMARK INTRA:                  -1.650
REMARK UNBOUND:                -1.362
REMARK SMILES CC[C@H](CC[C@H](C)[C@H]1CC[C@H]2[C@@H]3CC=C4C[C@H](O)CC[C@]4(C)[C@H]3CC[C@@]12C)C(C)C
REMARK SMILES IDX 5 1 4 2 3 3 2 4 1 5 28 6 29 7 30 8 6 9 7 10 8 11 9 12 26 13
REMARK SMILES IDX 10 14 11 15 25 16 27 17 12 18 24 19 23 20 13 21 21 22 14 23
REMARK SMILES IDX 15 24 20 25 22 26 16 27 19 28 17 29 18 30
REMARK H PARENT 18 31
REMARK Flexibility Score: inf
ROOT
ATOM      1  C   UNL     1     115.693 119.475 129.266  1.00  0.00     0.004 C 
ENDROOT
BRANCH   1   2
ATOM      2  C   UNL     1     114.757 120.647 128.892  1.00  0.00     0.004 C 
BRANCH   2   3
ATOM      3  C   UNL     1     114.840 121.091 127.399  1.00  0.00    -0.009 C 
BRANCH   3   4
ATOM      4  C   UNL     1     113.645 120.561 126.555  1.00  0.00     0.000 C 
ATOM      5  C   UNL     1     113.205 121.440 125.376  1.00  0.00     0.004 C 
ENDBRANCH   3   4
BRANCH   3   6
ATOM      6  C   UNL     1     115.163 122.615 127.233  1.00  0.00    -0.014 C 
ATOM      7  C   UNL     1     116.658 122.978 127.254  1.00  0.00     0.007 C 
ATOM      8  C   UNL     1     114.398 123.480 128.248  1.00  0.00     0.007 C 
ENDBRANCH   3   6
ENDBRANCH   2   3
ENDBRANCH   1   2
BRANCH   1   9
ATOM      9  C   UNL     1     116.421 119.647 130.636  1.00  0.00    -0.011 C 
ATOM     10  C   UNL     1     115.445 120.100 131.737  1.00  0.00     0.008 C 
BRANCH   9  11
ATOM     11  C   UNL     1     117.729 120.519 130.635  1.00  0.00    -0.002 C 
ATOM     12  C   UNL     1     118.396 120.626 129.269  1.00  0.00     0.005 C 
ATOM     13  C   UNL     1     117.765 121.968 131.234  1.00  0.00    -0.026 C 
ATOM     14  C   UNL     1     119.500 121.644 129.464  1.00  0.00     0.005 C 
ATOM     15  C   UNL     1     119.014 122.628 130.549  1.00  0.00    -0.001 C 
ATOM     16  C   UNL     1     116.488 122.785 130.920  1.00  0.00     0.007 C 
ATOM     17  C   UNL     1     117.984 121.910 132.772  1.00  0.00     0.012 C 
ATOM     18  C   UNL     1     118.773 124.056 129.953  1.00  0.00     0.000 C 
ATOM     19  C   UNL     1     116.603 124.246 131.368  1.00  0.00     0.005 C 
ATOM     20  C   UNL     1     117.910 124.949 130.886  1.00  0.00     0.003 C 
ATOM     21  C   UNL     1     120.129 124.745 129.687  1.00  0.00     0.031 C 
ATOM     22  C   UNL     1     117.666 126.381 130.263  1.00  0.00    -0.008 C 
ATOM     23  C   UNL     1     120.027 126.215 129.399  1.00  0.00    -0.027 C 
ATOM     24  C   UNL     1     118.993 126.988 129.792  1.00  0.00    -0.065 C 
ATOM     25  C   UNL     1     117.045 127.296 131.364  1.00  0.00     0.014 C 
ATOM     26  C   UNL     1     116.722 126.328 129.027  1.00  0.00     0.016 C 
ATOM     27  C   UNL     1     119.067 128.478 129.512  1.00  0.00     0.063 C 
ATOM     28  C   UNL     1     117.040 128.792 131.012  1.00  0.00     0.033 C 
ATOM     29  C   UNL     1     118.439 129.306 130.643  1.00  0.00     0.118 C 
BRANCH  29  30
ATOM     30  O   UNL     1     119.275 129.364 131.774  1.00  0.00    -0.393 OA
ATOM     31  H   UNL     1     118.960 128.690 132.431  1.00  0.00     0.210 HD
ENDBRANCH  29  30
ENDBRANCH   9  11
ENDBRANCH   1   9
TORSDOF 7
ENDMDL
MODEL 4
REMARK VINA RESULT:    -6.718      3.722      5.758
REMARK INTER + INTRA:         -10.632
REMARK INTER:                  -9.650
REMARK INTRA:                  -0.983
REMARK UNBOUND:                -1.362
REMARK SMILES CC[C@H](CC[C@H](C)[C@H]1CC[C@H]2[C@@H]3CC=C4C[C@H](O)CC[C@]4(C)[C@H]3CC[C@@]12C)C(C)C
REMARK SMILES IDX 5 1 4 2 3 3 2 4 1 5 28 6 29 7 30 8 6 9 7 10 8 11 9 12 26 13
REMARK SMILES IDX 10 14 11 15 25 16 27 17 12 18 24 19 23 20 13 21 21 22 14 23
REMARK SMILES IDX 15 24 20 25 22 26 16 27 19 28 17 29 18 30
REMARK H PARENT 18 31
REMARK Flexibility Score: inf
ROOT
ATOM      1  C   UNL     1     120.559 129.662 129.413  1.00  0.00     0.004 C 
ENDROOT
BRANCH   1   2
ATOM      2  C   UNL     1     120.805 130.888 128.505  1.00  0.00     0.004 C 
BRANCH   2   3
ATOM      3  C   UNL     1     121.058 132.223 129.274  1.00  0.00    -0.009 C 
BRANCH   3   4
ATOM      4  C   UNL     1     122.545 132.675 129.206  1.00  0.00     0.000 C 
ATOM      5  C   UNL     1     123.368 132.126 128.033  1.00  0.00     0.004 C 
ENDBRANCH   3   4
BRANCH   3   6
ATOM      6  C   UNL     1     119.999 133.328 128.939  1.00  0.00    -0.014 C 
ATOM      7  C   UNL     1     119.342 133.213 127.553  1.00  0.00     0.007 C 
ATOM      8  C   UNL     1     120.561 134.745 129.138  1.00  0.00     0.007 C 
ENDBRANCH   3   6
ENDBRANCH   2   3
ENDBRANCH   1   2
BRANCH   1   9
ATOM      9  C   UNL     1     119.068 129.204 129.484  1.00  0.00    -0.011 C 
ATOM     10  C   UNL     1     118.121 130.406 129.660  1.00  0.00     0.008 C 
BRANCH   9  11
ATOM     11  C   UNL     1     118.730 128.054 130.500  1.00  0.00    -0.002 C 
ATOM     12  C   UNL     1     117.351 128.179 131.135  1.00  0.00     0.005 C 
ATOM     13  C   UNL     1     118.885 126.539 130.127  1.00  0.00    -0.026 C 
ATOM     14  C   UNL     1     117.172 126.892 131.913  1.00  0.00     0.005 C 
ATOM     15  C   UNL     1     117.959 125.800 131.157  1.00  0.00    -0.001 C 
ATOM     16  C   UNL     1     118.434 126.224 128.679  1.00  0.00     0.007 C 
ATOM     17  C   UNL     1     120.357 126.082 130.328  1.00  0.00     0.012 C 
ATOM     18  C   UNL     1     116.995 124.730 130.542  1.00  0.00     0.000 C 
ATOM     19  C   UNL     1     118.435 124.721 128.381  1.00  0.00     0.005 C 
ATOM     20  C   UNL     1     117.687 123.868 129.451  1.00  0.00     0.003 C 
ATOM     21  C   UNL     1     116.454 123.812 131.660  1.00  0.00     0.031 C 
ATOM     22  C   UNL     1     116.697 122.802 128.833  1.00  0.00    -0.008 C 
ATOM     23  C   UNL     1     115.763 122.575 131.162  1.00  0.00    -0.027 C 
ATOM     24  C   UNL     1     115.986 122.028 129.949  1.00  0.00    -0.065 C 
ATOM     25  C   UNL     1     117.528 121.805 127.965  1.00  0.00     0.014 C 
ATOM     26  C   UNL     1     115.593 123.467 127.960  1.00  0.00     0.016 C 
ATOM     27  C   UNL     1     115.285 120.723 129.615  1.00  0.00     0.063 C 
ATOM     28  C   UNL     1     116.762 120.538 127.555  1.00  0.00     0.033 C 
ATOM     29  C   UNL     1     116.171 119.799 128.764  1.00  0.00     0.118 C 
BRANCH  29  30
ATOM     30  O   UNL     1     117.179 119.189 129.533  1.00  0.00    -0.393 OA
ATOM     31  H   UNL     1     118.053 119.575 129.264  1.00  0.00     0.210 HD
ENDBRANCH  29  30
ENDBRANCH   9  11
ENDBRANCH   1   9
TORSDOF 7
ENDMDL
MODEL 5
REMARK VINA RESULT:    -6.689      4.060      6.893
REMARK INTER + INTRA:         -10.592
REMARK INTER:                  -8.895
REMARK INTRA:                  -1.697
REMARK UNBOUND:                -1.362
REMARK SMILES CC[C@H](CC[C@H](C)[C@H]1CC[C@H]2[C@@H]3CC=C4C[C@H](O)CC[C@]4(C)[C@H]3CC[C@@]12C)C(C)C
REMARK SMILES IDX 5 1 4 2 3 3 2 4 1 5 28 6 29 7 30 8 6 9 7 10 8 11 9 12 26 13
REMARK SMILES IDX 10 14 11 15 25 16 27 17 12 18 24 19 23 20 13 21 21 22 14 23
REMARK SMILES IDX 15 24 20 25 22 26 16 27 19 28 17 29 18 30
REMARK H PARENT 18 31
REMARK Flexibility Score: inf
ROOT
ATOM      1  C   UNL     1     115.709 122.858 128.042  1.00  0.00     0.004 C 
ENDROOT
BRANCH   1   2
ATOM      2  C   UNL     1     116.686 123.076 126.864  1.00  0.00     0.004 C 
BRANCH   2   3
ATOM      3  C   UNL     1     117.389 124.469 126.854  1.00  0.00    -0.009 C 
BRANCH   3   4
ATOM      4  C   UNL     1     117.103 125.287 128.147  1.00  0.00     0.000 C 
ATOM      5  C   UNL     1     116.246 126.548 127.976  1.00  0.00     0.004 C 
ENDBRANCH   3   4
BRANCH   3   6
ATOM      6  C   UNL     1     118.893 124.390 126.421  1.00  0.00    -0.014 C 
ATOM      7  C   UNL     1     119.459 122.968 126.263  1.00  0.00     0.007 C 
ATOM      8  C   UNL     1     119.802 125.219 127.342  1.00  0.00     0.007 C 
ENDBRANCH   3   6
ENDBRANCH   2   3
ENDBRANCH   1   2
BRANCH   1   9
ATOM      9  C   UNL     1     115.879 121.489 128.773  1.00  0.00    -0.011 C 
ATOM     10  C   UNL     1     114.707 120.540 128.465  1.00  0.00     0.008 C 
BRANCH   9  11
ATOM     11  C   UNL     1     116.181 121.546 130.315  1.00  0.00    -0.002 C 
ATOM     12  C   UNL     1     116.298 120.174 130.969  1.00  0.00     0.005 C 
ATOM     13  C   UNL     1     117.361 122.393 130.903  1.00  0.00    -0.026 C 
ATOM     14  C   UNL     1     116.769 120.464 132.379  1.00  0.00     0.005 C 
ATOM     15  C   UNL     1     117.627 121.745 132.308  1.00  0.00    -0.001 C 
ATOM     16  C   UNL     1     118.642 122.333 130.034  1.00  0.00     0.007 C 
ATOM     17  C   UNL     1     116.923 123.873 131.087  1.00  0.00     0.012 C 
ATOM     18  C   UNL     1     119.129 121.439 132.629  1.00  0.00     0.000 C 
ATOM     19  C   UNL     1     119.833 123.029 130.700  1.00  0.00     0.005 C 
ATOM     20  C   UNL     1     120.077 122.583 132.174  1.00  0.00     0.003 C 
ATOM     21  C   UNL     1     119.299 121.199 134.145  1.00  0.00     0.031 C 
ATOM     22  C   UNL     1     121.589 122.252 132.495  1.00  0.00    -0.008 C 
ATOM     23  C   UNL     1     120.727 121.192 134.612  1.00  0.00    -0.027 C 
ATOM     24  C   UNL     1     121.735 121.798 133.952  1.00  0.00    -0.065 C 
ATOM     25  C   UNL     1     122.433 123.546 132.272  1.00  0.00     0.014 C 
ATOM     26  C   UNL     1     122.138 121.104 131.599  1.00  0.00     0.016 C 
ATOM     27  C   UNL     1     123.114 121.789 134.589  1.00  0.00     0.063 C 
ATOM     28  C   UNL     1     123.860 123.473 132.838  1.00  0.00     0.033 C 
ATOM     29  C   UNL     1     123.875 123.097 134.327  1.00  0.00     0.118 C 
BRANCH  29  30
ATOM     30  O   UNL     1     123.392 124.151 135.125  1.00  0.00    -0.393 OA
ATOM     31  H   UNL     1     123.011 124.846 134.527  1.00  0.00     0.210 HD
ENDBRANCH  29  30
ENDBRANCH   9  11
ENDBRANCH   1   9
TORSDOF 7
ENDMDL
MODEL 6
REMARK VINA RESULT:    -6.582      4.029      6.987
REMARK INTER + INTRA:         -10.445
REMARK INTER:                  -8.163
REMARK INTRA:                  -2.283
REMARK UNBOUND:                -1.362
REMARK SMILES CC[C@H](CC[C@H](C)[C@H]1CC[C@H]2[C@@H]3CC=C4C[C@H](O)CC[C@]4(C)[C@H]3CC[C@@]12C)C(C)C
REMARK SMILES IDX 5 1 4 2 3 3 2 4 1 5 28 6 29 7 30 8 6 9 7 10 8 11 9 12 26 13
REMARK SMILES IDX 10 14 11 15 25 16 27 17 12 18 24 19 23 20 13 21 21 22 14 23
REMARK SMILES IDX 15 24 20 25 22 26 16 27 19 28 17 29 18 30
REMARK H PARENT 18 31
REMARK Flexibility Score: inf
ROOT
ATOM      1  C   UNL     1     115.779 122.683 128.118  1.00  0.00     0.004 C 
ENDROOT
BRANCH   1   2
ATOM      2  C   UNL     1     116.316 123.519 126.934  1.00  0.00     0.004 C 
BRANCH   2   3
ATOM      3  C   UNL     1     117.765 124.065 127.130  1.00  0.00    -0.009 C 
BRANCH   3   4
ATOM      4  C   UNL     1     118.748 123.542 126.044  1.00  0.00     0.000 C 
ATOM      5  C   UNL     1     119.693 122.410 126.471  1.00  0.00     0.004 C 
ENDBRANCH   3   4
BRANCH   3   6
ATOM      6  C   UNL     1     117.805 125.609 127.393  1.00  0.00    -0.014 C 
ATOM      7  C   UNL     1     119.014 126.108 128.203  1.00  0.00     0.007 C 
ATOM      8  C   UNL     1     116.501 126.120 128.026  1.00  0.00     0.007 C 
ENDBRANCH   3   6
ENDBRANCH   2   3
ENDBRANCH   1   2
BRANCH   1   9
ATOM      9  C   UNL     1     116.809 121.667 128.705  1.00  0.00    -0.011 C 
ATOM     10  C   UNL     1     116.480 120.225 128.277  1.00  0.00     0.008 C 
BRANCH   9  11
ATOM     11  C   UNL     1     117.086 121.757 130.250  1.00  0.00    -0.002 C 
ATOM     12  C   UNL     1     117.279 120.402 130.920  1.00  0.00     0.005 C 
ATOM     13  C   UNL     1     118.202 122.682 130.845  1.00  0.00    -0.026 C 
ATOM     14  C   UNL     1     117.712 120.735 132.333  1.00  0.00     0.005 C 
ATOM     15  C   UNL     1     118.490 122.066 132.259  1.00  0.00    -0.001 C 
ATOM     16  C   UNL     1     119.496 122.694 129.993  1.00  0.00     0.007 C 
ATOM     17  C   UNL     1     117.671 124.134 131.007  1.00  0.00     0.012 C 
ATOM     18  C   UNL     1     120.004 121.857 132.603  1.00  0.00     0.000 C 
ATOM     19  C   UNL     1     120.633 123.469 130.666  1.00  0.00     0.005 C 
ATOM     20  C   UNL     1     120.884 123.053 132.148  1.00  0.00     0.003 C 
ATOM     21  C   UNL     1     120.168 121.643 134.124  1.00  0.00     0.031 C 
ATOM     22  C   UNL     1     122.409 122.821 132.492  1.00  0.00    -0.008 C 
ATOM     23  C   UNL     1     121.586 121.729 134.609  1.00  0.00    -0.027 C 
ATOM     24  C   UNL     1     122.564 122.390 133.955  1.00  0.00    -0.065 C 
ATOM     25  C   UNL     1     123.174 124.163 132.267  1.00  0.00     0.014 C 
ATOM     26  C   UNL     1     123.041 121.700 131.616  1.00  0.00     0.016 C 
ATOM     27  C   UNL     1     123.932 122.474 134.611  1.00  0.00     0.063 C 
ATOM     28  C   UNL     1     124.595 124.184 132.852  1.00  0.00     0.033 C 
ATOM     29  C   UNL     1     124.614 123.825 134.344  1.00  0.00     0.118 C 
BRANCH  29  30
ATOM     30  O   UNL     1     124.055 124.854 135.125  1.00  0.00    -0.393 OA
ATOM     31  H   UNL     1     123.903 124.505 136.041  1.00  0.00     0.210 HD
ENDBRANCH  29  30
ENDBRANCH   9  11
ENDBRANCH   1   9
TORSDOF 7
ENDMDL
MODEL 7
REMARK VINA RESULT:    -6.575      3.447      5.731
REMARK INTER + INTRA:         -10.435
REMARK INTER:                  -8.485
REMARK INTRA:                  -1.950
REMARK UNBOUND:                -1.362
REMARK SMILES CC[C@H](CC[C@H](C)[C@H]1CC[C@H]2[C@@H]3CC=C4C[C@H](O)CC[C@]4(C)[C@H]3CC[C@@]12C)C(C)C
REMARK SMILES IDX 5 1 4 2 3 3 2 4 1 5 28 6 29 7 30 8 6 9 7 10 8 11 9 12 26 13
REMARK SMILES IDX 10 14 11 15 25 16 27 17 12 18 24 19 23 20 13 21 21 22 14 23
REMARK SMILES IDX 15 24 20 25 22 26 16 27 19 28 17 29 18 30
REMARK H PARENT 18 31
REMARK Flexibility Score: inf
ROOT
ATOM      1  C   UNL     1     116.819 121.556 133.373  1.00  0.00     0.004 C 
ENDROOT
BRANCH   1   2
ATOM      2  C   UNL     1     117.549 120.203 133.527  1.00  0.00     0.004 C 
BRANCH   2   3
ATOM      3  C   UNL     1     119.086 120.262 133.264  1.00  0.00    -0.009 C 
BRANCH   3   4
ATOM      4  C   UNL     1     119.593 119.050 132.432  1.00  0.00     0.000 C 
ATOM      5  C   UNL     1     120.854 118.347 132.955  1.00  0.00     0.004 C 
ENDBRANCH   3   4
BRANCH   3   6
ATOM      6  C   UNL     1     119.566 121.671 132.772  1.00  0.00    -0.014 C 
ATOM      7  C   UNL     1     120.177 121.701 131.360  1.00  0.00     0.007 C 
ATOM      8  C   UNL     1     120.523 122.337 133.773  1.00  0.00     0.007 C 
ENDBRANCH   3   6
ENDBRANCH   2   3
ENDBRANCH   1   2
BRANCH   1   9
ATOM      9  C   UNL     1     115.635 121.535 132.356  1.00  0.00    -0.011 C 
ATOM     10  C   UNL     1     115.038 120.123 132.219  1.00  0.00     0.008 C 
BRANCH   9  11
ATOM     11  C   UNL     1     115.903 122.183 130.949  1.00  0.00    -0.002 C 
ATOM     12  C   UNL     1     116.930 123.309 130.975  1.00  0.00     0.005 C 
ATOM     13  C   UNL     1     116.257 121.321 129.688  1.00  0.00    -0.026 C 
ATOM     14  C   UNL     1     117.163 123.645 129.517  1.00  0.00     0.005 C 
ATOM     15  C   UNL     1     116.957 122.339 128.719  1.00  0.00    -0.001 C 
ATOM     16  C   UNL     1     117.213 120.144 130.008  1.00  0.00     0.007 C 
ATOM     17  C   UNL     1     114.961 120.777 129.024  1.00  0.00     0.012 C 
ATOM     18  C   UNL     1     118.301 121.844 128.086  1.00  0.00     0.000 C 
ATOM     19  C   UNL     1     117.680 119.410 128.747  1.00  0.00     0.005 C 
ATOM     20  C   UNL     1     118.233 120.358 127.638  1.00  0.00     0.003 C 
ATOM     21  C   UNL     1     118.665 122.732 126.876  1.00  0.00     0.031 C 
ATOM     22  C   UNL     1     119.600 119.872 127.013  1.00  0.00    -0.008 C 
ATOM     23  C   UNL     1     119.763 122.180 126.013  1.00  0.00    -0.027 C 
ATOM     24  C   UNL     1     120.085 120.871 125.955  1.00  0.00    -0.065 C 
ATOM     25  C   UNL     1     119.367 118.483 126.340  1.00  0.00     0.014 C 
ATOM     26  C   UNL     1     120.724 119.757 128.083  1.00  0.00     0.016 C 
ATOM     27  C   UNL     1     121.156 120.441 124.968  1.00  0.00     0.063 C 
ATOM     28  C   UNL     1     120.513 118.026 125.425  1.00  0.00     0.033 C 
ATOM     29  C   UNL     1     120.849 119.069 124.349  1.00  0.00     0.118 C 
BRANCH  29  30
ATOM     30  O   UNL     1     119.832 119.149 123.380  1.00  0.00    -0.393 OA
ATOM     31  H   UNL     1     119.955 118.405 122.735  1.00  0.00     0.210 HD
ENDBRANCH  29  30
ENDBRANCH   9  11
ENDBRANCH   1   9
TORSDOF 7
ENDMDL
MODEL 8
REMARK VINA RESULT:    -6.573      1.997      4.283
REMARK INTER + INTRA:         -10.433
REMARK INTER:                  -8.841
REMARK INTRA:                  -1.592
REMARK UNBOUND:                -1.362
REMARK SMILES CC[C@H](CC[C@H](C)[C@H]1CC[C@H]2[C@@H]3CC=C4C[C@H](O)CC[C@]4(C)[C@H]3CC[C@@]12C)C(C)C
REMARK SMILES IDX 5 1 4 2 3 3 2 4 1 5 28 6 29 7 30 8 6 9 7 10 8 11 9 12 26 13
REMARK SMILES IDX 10 14 11 15 25 16 27 17 12 18 24 19 23 20 13 21 21 22 14 23
REMARK SMILES IDX 15 24 20 25 22 26 16 27 19 28 17 29 18 30
REMARK H PARENT 18 31
REMARK Flexibility Score: inf
ROOT
ATOM      1  C   UNL     1     116.648 123.757 129.807  1.00  0.00     0.004 C 
ENDROOT
BRANCH   1   2
ATOM      2  C   UNL     1     116.369 123.150 131.201  1.00  0.00     0.004 C 
BRANCH   2   3
ATOM      3  C   UNL     1     116.394 121.591 131.245  1.00  0.00    -0.009 C 
BRANCH   3   4
ATOM      4  C   UNL     1     115.062 120.991 131.779  1.00  0.00     0.000 C 
ATOM      5  C   UNL     1     115.128 120.305 133.150  1.00  0.00     0.004 C 
ENDBRANCH   3   4
BRANCH   3   6
ATOM      6  C   UNL     1     116.943 120.952 129.923  1.00  0.00    -0.014 C 
ATOM      7  C   UNL     1     116.072 119.837 129.320  1.00  0.00     0.007 C 
ATOM      8  C   UNL     1     118.391 120.463 130.077  1.00  0.00     0.007 C 
ENDBRANCH   3   6
ENDBRANCH   2   3
ENDBRANCH   1   2
BRANCH   1   9
ATOM      9  C   UNL     1     117.603 124.992 129.823  1.00  0.00    -0.011 C 
ATOM     10  C   UNL     1     117.023 126.160 129.004  1.00  0.00     0.008 C 
BRANCH   9  11
ATOM     11  C   UNL     1     119.107 124.725 129.455  1.00  0.00    -0.002 C 
ATOM     12  C   UNL     1     119.839 123.844 130.460  1.00  0.00     0.005 C 
ATOM     13  C   UNL     1     119.540 124.200 128.043  1.00  0.00    -0.026 C 
ATOM     14  C   UNL     1     121.184 123.570 129.818  1.00  0.00     0.005 C 
ATOM     15  C   UNL     1     120.958 123.574 128.291  1.00  0.00    -0.001 C 
ATOM     16  C   UNL     1     118.575 123.130 127.473  1.00  0.00     0.007 C 
ATOM     17  C   UNL     1     119.661 125.382 127.041  1.00  0.00     0.012 C 
ATOM     18  C   UNL     1     121.175 122.147 127.683  1.00  0.00     0.000 C 
ATOM     19  C   UNL     1     119.093 122.508 126.172  1.00  0.00     0.005 C 
ATOM     20  C   UNL     1     120.570 122.012 126.259  1.00  0.00     0.003 C 
ATOM     21  C   UNL     1     122.685 121.824 127.636  1.00  0.00     0.031 C 
ATOM     22  C   UNL     1     120.787 120.563 125.666  1.00  0.00    -0.008 C 
ATOM     23  C   UNL     1     123.033 120.621 126.807  1.00  0.00    -0.027 C 
ATOM     24  C   UNL     1     122.254 120.143 125.815  1.00  0.00    -0.065 C 
ATOM     25  C   UNL     1     120.411 120.590 124.151  1.00  0.00     0.014 C 
ATOM     26  C   UNL     1     119.927 119.495 126.403  1.00  0.00     0.016 C 
ATOM     27  C   UNL     1     122.776 118.974 124.997  1.00  0.00     0.063 C 
ATOM     28  C   UNL     1     120.862 119.348 123.367  1.00  0.00     0.033 C 
ATOM     29  C   UNL     1     122.366 119.079 123.520  1.00  0.00     0.118 C 
BRANCH  29  30
ATOM     30  O   UNL     1     123.129 120.043 122.835  1.00  0.00    -0.393 OA
ATOM     31  H   UNL     1     124.067 119.984 123.154  1.00  0.00     0.210 HD
ENDBRANCH  29  30
ENDBRANCH   9  11
ENDBRANCH   1   9
TORSDOF 7
ENDMDL
MODEL 9
REMARK VINA RESULT:    -6.477      3.479      7.618
REMARK INTER + INTRA:         -10.300
REMARK INTER:                  -8.210
REMARK INTRA:                  -2.090
REMARK UNBOUND:                -1.362
REMARK SMILES CC[C@H](CC[C@H](C)[C@H]1CC[C@H]2[C@@H]3CC=C4C[C@H](O)CC[C@]4(C)[C@H]3CC[C@@]12C)C(C)C
REMARK SMILES IDX 5 1 4 2 3 3 2 4 1 5 28 6 29 7 30 8 6 9 7 10 8 11 9 12 26 13
REMARK SMILES IDX 10 14 11 15 25 16 27 17 12 18 24 19 23 20 13 21 21 22 14 23
REMARK SMILES IDX 15 24 20 25 22 26 16 27 19 28 17 29 18 30
REMARK H PARENT 18 31
REMARK Flexibility Score: inf
ROOT
ATOM      1  C   UNL     1     117.041 119.010 128.920  1.00  0.00     0.004 C 
ENDROOT
BRANCH   1   2
ATOM      2  C   UNL     1     116.097 119.496 130.044  1.00  0.00     0.004 C 
BRANCH   2   3
ATOM      3  C   UNL     1     115.099 120.616 129.612  1.00  0.00    -0.009 C 
BRANCH   3   4
ATOM      4  C   UNL     1     114.959 121.732 130.687  1.00  0.00     0.000 C 
ATOM      5  C   UNL     1     115.396 121.361 132.111  1.00  0.00     0.004 C 
ENDBRANCH   3   4
BRANCH   3   6
ATOM      6  C   UNL     1     115.339 121.114 128.146  1.00  0.00    -0.014 C 
ATOM      7  C   UNL     1     115.751 122.590 128.012  1.00  0.00     0.007 C 
ATOM      8  C   UNL     1     114.139 120.818 127.233  1.00  0.00     0.007 C 
ENDBRANCH   3   6
ENDBRANCH   2   3
ENDBRANCH   1   2
BRANCH   1   9
ATOM      9  C   UNL     1     118.558 119.081 129.281  1.00  0.00    -0.011 C 
ATOM     10  C   UNL     1     118.775 119.022 130.805  1.00  0.00     0.008 C 
BRANCH   9  11
ATOM     11  C   UNL     1     119.385 120.247 128.629  1.00  0.00    -0.002 C 
ATOM     12  C   UNL     1     118.874 120.670 127.257  1.00  0.00     0.005 C 
ATOM     13  C   UNL     1     119.692 121.581 129.392  1.00  0.00    -0.026 C 
ATOM     14  C   UNL     1     119.683 121.904 126.914  1.00  0.00     0.005 C 
ATOM     15  C   UNL     1     120.014 122.606 128.248  1.00  0.00    -0.001 C 
ATOM     16  C   UNL     1     118.495 122.083 130.238  1.00  0.00     0.007 C 
ATOM     17  C   UNL     1     120.939 121.407 130.303  1.00  0.00     0.012 C 
ATOM     18  C   UNL     1     119.282 123.986 128.359  1.00  0.00     0.000 C 
ATOM     19  C   UNL     1     118.748 123.466 130.847  1.00  0.00     0.005 C 
ATOM     20  C   UNL     1     119.251 124.523 129.816  1.00  0.00     0.003 C 
ATOM     21  C   UNL     1     119.974 125.018 127.442  1.00  0.00     0.031 C 
ATOM     22  C   UNL     1     118.498 125.909 129.912  1.00  0.00    -0.008 C 
ATOM     23  C   UNL     1     119.553 126.439 127.686  1.00  0.00    -0.027 C 
ATOM     24  C   UNL     1     119.032 126.878 128.851  1.00  0.00    -0.065 C 
ATOM     25  C   UNL     1     118.753 126.510 131.331  1.00  0.00     0.014 C 
ATOM     26  C   UNL     1     116.968 125.761 129.670  1.00  0.00     0.016 C 
ATOM     27  C   UNL     1     118.738 128.362 128.988  1.00  0.00     0.063 C 
ATOM     28  C   UNL     1     118.351 127.986 131.471  1.00  0.00     0.033 C 
ATOM     29  C   UNL     1     119.018 128.873 130.409  1.00  0.00     0.118 C 
BRANCH  29  30
ATOM     30  O   UNL     1     120.397 129.011 130.652  1.00  0.00    -0.393 OA
ATOM     31  H   UNL     1     120.719 129.820 130.177  1.00  0.00     0.210 HD
ENDBRANCH  29  30
ENDBRANCH   9  11
ENDBRANCH   1   9
TORSDOF 7
ENDMDL
