MODEL 1
REMARK VINA RESULT:    -5.653      0.000      0.000
REMARK INTER + INTRA:         -15.908
REMARK INTER:                 -11.932
REMARK INTRA:                  -3.976
REMARK UNBOUND:                -3.976
REMARK SMILES CCC(=O)CCCCC[C@H]1NC(=O)[C@H]2CCCCN2C(=O)[C@@H]([C@@H](C)CC)NC(=O)[C@H](Cc2cn(OC)c3ccccc23)NC1=O
REMARK SMILES IDX 9 1 10 2 44 3 43 4 45 6 30 7 28 8 27 9 29 11 22 12 23 14
REMARK SMILES IDX 24 15 25 16 26 17 31 18 32 19 33 20 42 21 34 22 37 23 41 24
REMARK SMILES IDX 38 25 40 26 39 27 35 28 36 29 11 30 12 31 13 33 14 34 19 35
REMARK SMILES IDX 15 36 18 37 16 38 17 39 20 40 21 41 8 43 7 44 6 45 5 46 3 47
REMARK SMILES IDX 4 48 2 49 1 50
REMARK H PARENT 43 5 27 10 11 32
REMARK Flexibility Score: 80.00
ROOT
ATOM      1  C   UNL     1      14.836  47.295  28.005  1.00  0.00     0.035 C 
ENDROOT
BRANCH   1   2
ATOM      2  C   UNL     1      14.201  48.413  28.857  1.00  0.00     0.171 C 
BRANCH   2   3
ATOM      3  C   UNL     1      15.238  49.130  29.672  1.00  0.00     0.243 C 
ATOM      4  N   UNL     1      15.153  49.150  31.106  1.00  0.00    -0.342 N 
ATOM      5  H   UNL     1      14.813  48.287  31.583  1.00  0.00     0.164 HD
ATOM      6  O   UNL     1      16.178  49.727  29.085  1.00  0.00    -0.273 OA
BRANCH   4   7
ATOM      7  C   UNL     1      15.093  50.398  31.880  1.00  0.00     0.175 C 
BRANCH   7   8
ATOM      8  C   UNL     1      13.649  50.658  32.278  1.00  0.00     0.243 C 
ATOM      9  N   UNL     1      12.647  49.625  32.285  1.00  0.00    -0.342 N 
ATOM     10  H   UNL     1      12.909  48.652  32.034  1.00  0.00     0.164 HD
ATOM     11  O   UNL     1      13.309  51.842  32.540  1.00  0.00    -0.273 OA
BRANCH   9  12
ATOM     12  C   UNL     1      11.242  49.833  32.665  1.00  0.00     0.174 CG0
ATOM     13  G   UNL     1      10.339  49.101  31.677  1.00  0.00     0.000 G0
BRANCH  12  14
ATOM     14  C   UNL     1      10.967  49.566  34.187  1.00  0.00     0.018 C 
ATOM     15  C   UNL     1      12.099  48.756  34.858  1.00  0.00     0.010 C 
BRANCH  14  16
ATOM     16  C   UNL     1      10.796  50.907  34.957  1.00  0.00     0.002 C 
ATOM     17  C   UNL     1      10.364  50.703  36.414  1.00  0.00     0.004 C 
ENDBRANCH  14  16
ENDBRANCH  12  14
ENDBRANCH   9  12
ENDBRANCH   7   8
BRANCH   7  18
ATOM     18  C   UNL     1      15.812  51.543  31.117  1.00  0.00     0.073 C 
BRANCH  18  19
ATOM     19  C   UNL     1      16.974  52.139  31.868  1.00  0.00    -0.016 A 
ATOM     20  C   UNL     1      17.121  52.191  33.249  1.00  0.00     0.134 A 
ATOM     21  C   UNL     1      18.001  52.916  31.361  1.00  0.00     0.006 A 
ATOM     22  N   UNL     1      18.195  52.936  33.591  1.00  0.00    -0.191 N 
ATOM     23  C   UNL     1      18.741  53.382  32.430  1.00  0.00     0.087 A 
ATOM     24  C   UNL     1      18.290  53.277  30.045  1.00  0.00     0.011 A 
ATOM     25  C   UNL     1      19.849  54.219  32.217  1.00  0.00     0.030 A 
ATOM     26  C   UNL     1      19.397  54.110  29.816  1.00  0.00     0.001 A 
ATOM     27  C   UNL     1      20.175  54.573  30.896  1.00  0.00     0.002 A 
BRANCH  22  28
ATOM     28  O   UNL     1      18.525  53.191  34.913  1.00  0.00    -0.417 OA
ATOM     29  C   UNL     1      17.651  53.764  35.875  1.00  0.00     0.313 C 
ENDBRANCH  22  28
ENDBRANCH  18  19
ENDBRANCH   7  18
ENDBRANCH   4   7
ENDBRANCH   2   3
BRANCH   2  30
ATOM     30  N   UNL     1      13.173  47.872  29.753  1.00  0.00    -0.343 N 
ATOM     31  C   UNL     1      11.779  47.849  29.387  1.00  0.00     0.243 C 
ATOM     32  H   UNL     1      13.464  47.578  30.708  1.00  0.00     0.164 HD
ATOM     33  O   UNL     1      11.409  48.457  28.348  1.00  0.00    -0.273 OA
BRANCH  31  34
ATOM     34  C   UNL     1      10.745  47.049  30.169  1.00  0.00     0.174 C 
ATOM     35  N   UNL     1      10.380  47.646  31.483  1.00  0.00    -0.329 N 
ATOM     36  C   UNL     1      11.168  45.571  30.353  1.00  0.00     0.035 C 
ATOM     37  C   UNL     1       9.344  46.896  32.215  1.00  0.00     0.120 C 
ATOM     38  C   UNL     1      10.066  44.780  31.062  1.00  0.00     0.004 C 
ATOM     39  C   UNL     1       9.740  45.431  32.406  1.00  0.00     0.022 C 
BRANCH  35  40
ATOM     40  C   UNL     1      10.352  49.082  31.655  1.00  0.00     0.246 CG0
ATOM     41  O   UNL     1       9.640  49.775  30.872  1.00  0.00    -0.272 OA
ATOM     42  G   UNL     1      11.244  49.830  32.643  1.00  0.00     0.000 G0
ENDBRANCH  35  40
ENDBRANCH  31  34
ENDBRANCH   2  30
ENDBRANCH   1   2
BRANCH   1  43
ATOM     43  C   UNL     1      14.968  45.988  28.802  1.00  0.00     0.003 C 
BRANCH  43  44
ATOM     44  C   UNL     1      16.328  45.891  29.504  1.00  0.00     0.001 C 
BRANCH  44  45
ATOM     45  C   UNL     1      16.150  45.473  30.971  1.00  0.00     0.008 C 
BRANCH  45  46
ATOM     46  C   UNL     1      14.713  45.021  31.253  1.00  0.00     0.075 C 
BRANCH  46  47
ATOM     47  C   UNL     1      14.178  45.706  32.491  1.00  0.00     0.132 C 
ATOM     48  O   UNL     1      13.760  46.849  32.379  1.00  0.00    -0.300 OA
BRANCH  47  49
ATOM     49  C   UNL     1      14.094  45.050  33.854  1.00  0.00     0.072 C 
ATOM     50  C   UNL     1      12.785  44.321  34.146  1.00  0.00     0.012 C 
ENDBRANCH  47  49
ENDBRANCH  46  47
ENDBRANCH  45  46
ENDBRANCH  44  45
ENDBRANCH  43  44
ENDBRANCH   1  43
TORSDOF 12
ENDMDL
MODEL 2
REMARK VINA RESULT:    -5.601      1.813      2.363
REMARK INTER + INTRA:         -15.799
REMARK INTER:                 -13.434
REMARK INTRA:                  -2.365
REMARK UNBOUND:                -3.976
REMARK SMILES CCC(=O)CCCCC[C@H]1NC(=O)[C@H]2CCCCN2C(=O)[C@@H]([C@@H](C)CC)NC(=O)[C@H](Cc2cn(OC)c3ccccc23)NC1=O
REMARK SMILES IDX 9 1 10 2 44 3 43 4 45 6 30 7 28 8 27 9 29 11 22 12 23 14
REMARK SMILES IDX 24 15 25 16 26 17 31 18 32 19 33 20 42 21 34 22 37 23 41 24
REMARK SMILES IDX 38 25 40 26 39 27 35 28 36 29 11 30 12 31 13 33 14 34 19 35
REMARK SMILES IDX 15 36 18 37 16 38 17 39 20 40 21 41 8 43 7 44 6 45 5 46 3 47
REMARK SMILES IDX 4 48 2 49 1 50
REMARK H PARENT 43 5 27 10 11 32
REMARK Flexibility Score: 80.00
ROOT
ATOM      1  C   UNL     1      14.878  47.269  28.092  1.00  0.00     0.035 C 
ENDROOT
BRANCH   1   2
ATOM      2  C   UNL     1      14.113  48.306  28.940  1.00  0.00     0.171 C 
BRANCH   2   3
ATOM      3  C   UNL     1      15.043  49.055  29.850  1.00  0.00     0.243 C 
ATOM      4  N   UNL     1      14.795  49.106  31.264  1.00  0.00    -0.342 N 
ATOM      5  H   UNL     1      14.413  48.249  31.720  1.00  0.00     0.164 HD
ATOM      6  O   UNL     1      16.036  49.652  29.359  1.00  0.00    -0.273 OA
BRANCH   4   7
ATOM      7  C   UNL     1      14.633  50.370  31.996  1.00  0.00     0.175 C 
BRANCH   7   8
ATOM      8  C   UNL     1      13.161  50.562  32.322  1.00  0.00     0.243 C 
ATOM      9  N   UNL     1      12.216  49.476  32.317  1.00  0.00    -0.342 N 
ATOM     10  H   UNL     1      12.541  48.512  32.109  1.00  0.00     0.164 HD
ATOM     11  O   UNL     1      12.747  51.732  32.532  1.00  0.00    -0.273 OA
BRANCH   9  12
ATOM     12  C   UNL     1      10.787  49.618  32.629  1.00  0.00     0.174 CG0
ATOM     13  G   UNL     1       9.966  48.875  31.579  1.00  0.00     0.000 G0
BRANCH  12  14
ATOM     14  C   UNL     1      10.445  49.302  34.128  1.00  0.00     0.018 C 
ATOM     15  C   UNL     1      11.628  48.648  34.877  1.00  0.00     0.010 C 
BRANCH  14  16
ATOM     16  C   UNL     1      10.039  50.600  34.883  1.00  0.00     0.002 C 
ATOM     17  C   UNL     1       9.501  51.688  33.945  1.00  0.00     0.004 C 
ENDBRANCH  14  16
ENDBRANCH  12  14
ENDBRANCH   9  12
ENDBRANCH   7   8
BRANCH   7  18
ATOM     18  C   UNL     1      15.324  51.531  31.232  1.00  0.00     0.073 C 
BRANCH  18  19
ATOM     19  C   UNL     1      16.519  52.105  31.947  1.00  0.00    -0.016 A 
ATOM     20  C   UNL     1      16.666  52.241  33.322  1.00  0.00     0.134 A 
ATOM     21  C   UNL     1      17.590  52.785  31.395  1.00  0.00     0.006 A 
ATOM     22  N   UNL     1      17.783  52.942  33.619  1.00  0.00    -0.191 N 
ATOM     23  C   UNL     1      18.355  53.277  32.434  1.00  0.00     0.087 A 
ATOM     24  C   UNL     1      17.902  53.039  30.059  1.00  0.00     0.011 A 
ATOM     25  C   UNL     1      19.512  54.030  32.172  1.00  0.00     0.030 A 
ATOM     26  C   UNL     1      19.057  53.788  29.781  1.00  0.00     0.001 A 
ATOM     27  C   UNL     1      19.860  54.275  30.831  1.00  0.00     0.002 A 
BRANCH  22  28
ATOM     28  O   UNL     1      18.125  53.264  34.923  1.00  0.00    -0.417 OA
ATOM     29  C   UNL     1      17.323  53.002  36.066  1.00  0.00     0.313 C 
ENDBRANCH  22  28
ENDBRANCH  18  19
ENDBRANCH   7  18
ENDBRANCH   4   7
ENDBRANCH   2   3
BRANCH   2  30
ATOM     30  N   UNL     1      13.068  47.661  29.742  1.00  0.00    -0.343 N 
ATOM     31  C   UNL     1      11.671  47.778  29.409  1.00  0.00     0.243 C 
ATOM     32  H   UNL     1      13.354  47.180  30.621  1.00  0.00     0.164 HD
ATOM     33  O   UNL     1      11.321  48.587  28.510  1.00  0.00    -0.273 OA
BRANCH  31  34
ATOM     34  C   UNL     1      10.604  46.901  30.053  1.00  0.00     0.174 C 
ATOM     35  N   UNL     1      10.081  47.425  31.344  1.00  0.00    -0.329 N 
ATOM     36  C   UNL     1      11.078  45.437  30.223  1.00  0.00     0.035 C 
ATOM     37  C   UNL     1       9.015  46.600  31.939  1.00  0.00     0.120 C 
ATOM     38  C   UNL     1       9.950  44.569  30.787  1.00  0.00     0.004 C 
ATOM     39  C   UNL     1       9.461  45.148  32.114  1.00  0.00     0.022 C 
BRANCH  35  40
ATOM     40  C   UNL     1       9.967  48.850  31.566  1.00  0.00     0.246 CG0
ATOM     41  O   UNL     1       9.240  49.531  30.785  1.00  0.00    -0.272 OA
ATOM     42  G   UNL     1      10.784  49.610  32.607  1.00  0.00     0.000 G0
ENDBRANCH  35  40
ENDBRANCH  31  34
ENDBRANCH   2  30
ENDBRANCH   1   2
BRANCH   1  43
ATOM     43  C   UNL     1      15.318  46.065  28.941  1.00  0.00     0.003 C 
BRANCH  43  44
ATOM     44  C   UNL     1      14.951  44.737  28.268  1.00  0.00     0.001 C 
BRANCH  44  45
ATOM     45  C   UNL     1      14.015  43.917  29.166  1.00  0.00     0.008 C 
BRANCH  45  46
ATOM     46  C   UNL     1      14.031  42.432  28.783  1.00  0.00     0.075 C 
BRANCH  46  47
ATOM     47  C   UNL     1      12.971  42.145  27.743  1.00  0.00     0.132 C 
ATOM     48  O   UNL     1      11.991  42.873  27.706  1.00  0.00    -0.300 OA
BRANCH  47  49
ATOM     49  C   UNL     1      13.067  41.034  26.719  1.00  0.00     0.072 C 
ATOM     50  C   UNL     1      14.285  40.123  26.857  1.00  0.00     0.012 C 
ENDBRANCH  47  49
ENDBRANCH  46  47
ENDBRANCH  45  46
ENDBRANCH  44  45
ENDBRANCH  43  44
ENDBRANCH   1  43
TORSDOF 12
ENDMDL
MODEL 3
REMARK VINA RESULT:    -5.584      2.518      5.600
REMARK INTER + INTRA:         -15.762
REMARK INTER:                 -13.701
REMARK INTRA:                  -2.061
REMARK UNBOUND:                -3.976
REMARK SMILES CCC(=O)CCCCC[C@H]1NC(=O)[C@H]2CCCCN2C(=O)[C@@H]([C@@H](C)CC)NC(=O)[C@H](Cc2cn(OC)c3ccccc23)NC1=O
REMARK SMILES IDX 9 1 10 2 44 3 43 4 45 6 30 7 28 8 27 9 29 11 22 12 23 14
REMARK SMILES IDX 24 15 25 16 26 17 31 18 32 19 33 20 42 21 34 22 37 23 41 24
REMARK SMILES IDX 38 25 40 26 39 27 35 28 36 29 11 30 12 31 13 33 14 34 19 35
REMARK SMILES IDX 15 36 18 37 16 38 17 39 20 40 21 41 8 43 7 44 6 45 5 46 3 47
REMARK SMILES IDX 4 48 2 49 1 50
REMARK H PARENT 43 5 27 10 11 32
REMARK Flexibility Score: 80.00
ROOT
ATOM      1  C   UNL     1       9.922  48.245  29.593  1.00  0.00     0.035 C 
ENDROOT
BRANCH   1   2
ATOM      2  C   UNL     1       9.891  47.320  30.826  1.00  0.00     0.171 C 
BRANCH   2   3
ATOM      3  C   UNL     1      10.945  47.708  31.823  1.00  0.00     0.243 C 
ATOM      4  N   UNL     1      11.580  48.993  31.750  1.00  0.00    -0.342 N 
ATOM      5  H   UNL     1      10.993  49.808  31.469  1.00  0.00     0.164 HD
ATOM      6  O   UNL     1      11.276  46.887  32.718  1.00  0.00    -0.273 OA
BRANCH   4   7
ATOM      7  C   UNL     1      13.035  49.153  31.617  1.00  0.00     0.175 C 
BRANCH   7   8
ATOM      8  C   UNL     1      13.700  47.809  31.867  1.00  0.00     0.243 C 
ATOM      9  N   UNL     1      13.714  46.756  30.885  1.00  0.00    -0.342 N 
ATOM     10  H   UNL     1      13.279  46.912  29.956  1.00  0.00     0.164 HD
ATOM     11  O   UNL     1      14.192  47.592  33.005  1.00  0.00    -0.273 OA
BRANCH   9  12
ATOM     12  C   UNL     1      14.349  45.445  31.085  1.00  0.00     0.174 CG0
ATOM     13  G   UNL     1      13.285  44.353  31.003  1.00  0.00     0.000 G0
BRANCH  12  14
ATOM     14  C   UNL     1      15.628  45.234  30.201  1.00  0.00     0.018 C 
ATOM     15  C   UNL     1      15.615  46.108  28.927  1.00  0.00     0.010 C 
BRANCH  14  16
ATOM     16  C   UNL     1      16.915  45.564  31.012  1.00  0.00     0.002 C 
ATOM     17  C   UNL     1      17.481  46.952  30.686  1.00  0.00     0.004 C 
ENDBRANCH  14  16
ENDBRANCH  12  14
ENDBRANCH   9  12
ENDBRANCH   7   8
BRANCH   7  18
ATOM     18  C   UNL     1      13.531  50.337  32.491  1.00  0.00     0.073 C 
BRANCH  18  19
ATOM     19  C   UNL     1      15.020  50.561  32.424  1.00  0.00    -0.016 A 
ATOM     20  C   UNL     1      15.832  50.999  33.463  1.00  0.00     0.134 A 
ATOM     21  C   UNL     1      15.824  50.578  31.298  1.00  0.00     0.006 A 
ATOM     22  N   UNL     1      17.084  51.250  33.022  1.00  0.00    -0.191 N 
ATOM     23  C   UNL     1      17.083  50.989  31.689  1.00  0.00     0.087 A 
ATOM     24  C   UNL     1      15.511  50.310  29.966  1.00  0.00     0.011 A 
ATOM     25  C   UNL     1      18.115  51.117  30.744  1.00  0.00     0.030 A 
ATOM     26  C   UNL     1      16.533  50.429  29.010  1.00  0.00     0.001 A 
ATOM     27  C   UNL     1      17.829  50.824  29.399  1.00  0.00     0.002 A 
BRANCH  22  28
ATOM     28  O   UNL     1      18.071  51.754  33.854  1.00  0.00    -0.417 OA
ATOM     29  C   UNL     1      17.965  52.950  34.613  1.00  0.00     0.313 C 
ENDBRANCH  22  28
ENDBRANCH  18  19
ENDBRANCH   7  18
ENDBRANCH   4   7
ENDBRANCH   2   3
BRANCH   2  30
ATOM     30  N   UNL     1      10.086  45.919  30.438  1.00  0.00    -0.343 N 
ATOM     31  C   UNL     1      11.063  45.530  29.452  1.00  0.00     0.243 C 
ATOM     32  H   UNL     1       9.435  45.208  30.834  1.00  0.00     0.164 HD
ATOM     33  O   UNL     1      11.648  46.423  28.785  1.00  0.00    -0.273 OA
BRANCH  31  34
ATOM     34  C   UNL     1      11.473  44.078  29.241  1.00  0.00     0.174 C 
ATOM     35  N   UNL     1      12.802  43.730  29.814  1.00  0.00    -0.329 N 
ATOM     36  C   UNL     1      11.409  43.664  27.750  1.00  0.00     0.035 C 
ATOM     37  C   UNL     1      13.174  42.314  29.651  1.00  0.00     0.120 C 
ATOM     38  C   UNL     1      11.738  42.178  27.590  1.00  0.00     0.004 C 
ATOM     39  C   UNL     1      13.115  41.883  28.185  1.00  0.00     0.022 C 
BRANCH  35  40
ATOM     40  C   UNL     1      13.267  44.364  31.029  1.00  0.00     0.246 CG0
ATOM     41  O   UNL     1      12.687  44.087  32.119  1.00  0.00    -0.272 OA
ATOM     42  G   UNL     1      14.331  45.458  31.056  1.00  0.00     0.000 G0
ENDBRANCH  35  40
ENDBRANCH  31  34
ENDBRANCH   2  30
ENDBRANCH   1   2
BRANCH   1  43
ATOM     43  C   UNL     1       8.619  49.050  29.460  1.00  0.00     0.003 C 
BRANCH  43  44
ATOM     44  C   UNL     1       8.859  50.406  28.787  1.00  0.00     0.001 C 
BRANCH  44  45
ATOM     45  C   UNL     1       8.729  51.546  29.806  1.00  0.00     0.008 C 
BRANCH  45  46
ATOM     46  C   UNL     1       8.102  51.056  31.116  1.00  0.00     0.075 C 
BRANCH  46  47
ATOM     47  C   UNL     1       8.946  51.484  32.297  1.00  0.00     0.132 C 
ATOM     48  O   UNL     1      10.161  51.483  32.164  1.00  0.00    -0.300 OA
BRANCH  47  49
ATOM     49  C   UNL     1       8.378  51.952  33.620  1.00  0.00     0.072 C 
ATOM     50  C   UNL     1       8.524  50.967  34.777  1.00  0.00     0.012 C 
ENDBRANCH  47  49
ENDBRANCH  46  47
ENDBRANCH  45  46
ENDBRANCH  44  45
ENDBRANCH  43  44
ENDBRANCH   1  43
TORSDOF 12
ENDMDL
MODEL 4
REMARK VINA RESULT:    -5.560      1.335      2.057
REMARK INTER + INTRA:         -15.711
REMARK INTER:                 -12.972
REMARK INTRA:                  -2.739
REMARK UNBOUND:                -3.976
REMARK SMILES CCC(=O)CCCCC[C@H]1NC(=O)[C@H]2CCCCN2C(=O)[C@@H]([C@@H](C)CC)NC(=O)[C@H](Cc2cn(OC)c3ccccc23)NC1=O
REMARK SMILES IDX 9 1 10 2 44 3 43 4 45 6 30 7 28 8 27 9 29 11 22 12 23 14
REMARK SMILES IDX 24 15 25 16 26 17 31 18 32 19 33 20 42 21 34 22 37 23 41 24
REMARK SMILES IDX 38 25 40 26 39 27 35 28 36 29 11 30 12 31 13 33 14 34 19 35
REMARK SMILES IDX 15 36 18 37 16 38 17 39 20 40 21 41 8 43 7 44 6 45 5 46 3 47
REMARK SMILES IDX 4 48 2 49 1 50
REMARK H PARENT 43 5 27 10 11 32
REMARK Flexibility Score: 80.00
ROOT
ATOM      1  C   UNL     1      15.111  47.348  28.508  1.00  0.00     0.035 C 
ENDROOT
BRANCH   1   2
ATOM      2  C   UNL     1      14.233  48.386  29.237  1.00  0.00     0.171 C 
BRANCH   2   3
ATOM      3  C   UNL     1      15.052  49.227  30.174  1.00  0.00     0.243 C 
ATOM      4  N   UNL     1      14.692  49.335  31.561  1.00  0.00    -0.342 N 
ATOM      5  H   UNL     1      14.316  48.483  32.031  1.00  0.00     0.164 HD
ATOM      6  O   UNL     1      16.052  49.848  29.729  1.00  0.00    -0.273 OA
BRANCH   4   7
ATOM      7  C   UNL     1      14.413  50.624  32.210  1.00  0.00     0.175 C 
BRANCH   7   8
ATOM      8  C   UNL     1      12.919  50.728  32.470  1.00  0.00     0.243 C 
ATOM      9  N   UNL     1      12.010  49.640  32.220  1.00  0.00    -0.342 N 
ATOM     10  H   UNL     1      12.375  48.734  31.871  1.00  0.00     0.164 HD
ATOM     11  O   UNL     1      12.459  51.836  32.852  1.00  0.00    -0.273 OA
BRANCH   9  12
ATOM     12  C   UNL     1      10.561  49.698  32.462  1.00  0.00     0.174 CG0
ATOM     13  G   UNL     1       9.844  48.824  31.436  1.00  0.00     0.000 G0
BRANCH  12  14
ATOM     14  C   UNL     1      10.173  49.465  33.964  1.00  0.00     0.018 C 
ATOM     15  C   UNL     1      11.345  48.894  34.794  1.00  0.00     0.010 C 
BRANCH  14  16
ATOM     16  C   UNL     1       9.704  50.794  34.623  1.00  0.00     0.002 C 
ATOM     17  C   UNL     1       8.184  50.854  34.820  1.00  0.00     0.004 C 
ENDBRANCH  14  16
ENDBRANCH  12  14
ENDBRANCH   9  12
ENDBRANCH   7   8
BRANCH   7  18
ATOM     18  C   UNL     1      15.051  51.785  31.402  1.00  0.00     0.073 C 
BRANCH  18  19
ATOM     19  C   UNL     1      16.354  52.282  31.974  1.00  0.00    -0.016 A 
ATOM     20  C   UNL     1      16.642  52.465  33.321  1.00  0.00     0.134 A 
ATOM     21  C   UNL     1      17.421  52.838  31.292  1.00  0.00     0.006 A 
ATOM     22  N   UNL     1      17.837  53.076  33.478  1.00  0.00    -0.191 N 
ATOM     23  C   UNL     1      18.321  53.304  32.229  1.00  0.00     0.087 A 
ATOM     24  C   UNL     1      17.625  53.003  29.921  1.00  0.00     0.011 A 
ATOM     25  C   UNL     1      19.507  53.939  31.824  1.00  0.00     0.030 A 
ATOM     26  C   UNL     1      18.808  53.632  29.500  1.00  0.00     0.001 A 
ATOM     27  C   UNL     1      19.745  54.091  30.446  1.00  0.00     0.002 A 
BRANCH  22  28
ATOM     28  O   UNL     1      18.329  53.424  34.726  1.00  0.00    -0.417 OA
ATOM     29  C   UNL     1      18.237  54.718  35.306  1.00  0.00     0.313 C 
ENDBRANCH  22  28
ENDBRANCH  18  19
ENDBRANCH   7  18
ENDBRANCH   4   7
ENDBRANCH   2   3
BRANCH   2  30
ATOM     30  N   UNL     1      13.159  47.730  29.991  1.00  0.00    -0.343 N 
ATOM     31  C   UNL     1      11.797  47.715  29.522  1.00  0.00     0.243 C 
ATOM     32  H   UNL     1      13.390  47.341  30.930  1.00  0.00     0.164 HD
ATOM     33  O   UNL     1      11.485  48.423  28.528  1.00  0.00    -0.273 OA
BRANCH  31  34
ATOM     34  C   UNL     1      10.734  46.814  30.136  1.00  0.00     0.174 C 
ATOM     35  N   UNL     1      10.066  47.388  31.335  1.00  0.00    -0.329 N 
ATOM     36  C   UNL     1      11.280  45.400  30.455  1.00  0.00     0.035 C 
ATOM     37  C   UNL     1       9.004  46.536  31.897  1.00  0.00     0.120 C 
ATOM     38  C   UNL     1      10.162  44.498  30.984  1.00  0.00     0.004 C 
ATOM     39  C   UNL     1       9.522  45.133  32.218  1.00  0.00     0.022 C 
BRANCH  35  40
ATOM     40  C   UNL     1       9.844  48.814  31.440  1.00  0.00     0.246 CG0
ATOM     41  O   UNL     1       9.127  49.384  30.567  1.00  0.00    -0.272 OA
ATOM     42  G   UNL     1      10.541  49.703  32.467  1.00  0.00     0.000 G0
ENDBRANCH  35  40
ENDBRANCH  31  34
ENDBRANCH   2  30
ENDBRANCH   1   2
BRANCH   1  43
ATOM     43  C   UNL     1      14.693  45.911  28.861  1.00  0.00     0.003 C 
BRANCH  43  44
ATOM     44  C   UNL     1      15.630  45.293  29.905  1.00  0.00     0.001 C 
BRANCH  44  45
ATOM     45  C   UNL     1      16.904  46.136  30.055  1.00  0.00     0.008 C 
BRANCH  45  46
ATOM     46  C   UNL     1      17.214  46.421  31.529  1.00  0.00     0.075 C 
BRANCH  46  47
ATOM     47  C   UNL     1      18.019  47.696  31.661  1.00  0.00     0.132 C 
ATOM     48  O   UNL     1      17.689  48.495  32.525  1.00  0.00    -0.300 OA
BRANCH  47  49
ATOM     49  C   UNL     1      19.231  48.025  30.816  1.00  0.00     0.072 C 
ATOM     50  C   UNL     1      19.104  49.279  29.954  1.00  0.00     0.012 C 
ENDBRANCH  47  49
ENDBRANCH  46  47
ENDBRANCH  45  46
ENDBRANCH  44  45
ENDBRANCH  43  44
ENDBRANCH   1  43
TORSDOF 12
ENDMDL
MODEL 5
REMARK VINA RESULT:    -5.342      2.438      7.899
REMARK INTER + INTRA:         -15.252
REMARK INTER:                 -13.206
REMARK INTRA:                  -2.046
REMARK UNBOUND:                -3.976
REMARK SMILES CCC(=O)CCCCC[C@H]1NC(=O)[C@H]2CCCCN2C(=O)[C@@H]([C@@H](C)CC)NC(=O)[C@H](Cc2cn(OC)c3ccccc23)NC1=O
REMARK SMILES IDX 9 1 10 2 44 3 43 4 45 6 30 7 28 8 27 9 29 11 22 12 23 14
REMARK SMILES IDX 24 15 25 16 26 17 31 18 32 19 33 20 42 21 34 22 37 23 41 24
REMARK SMILES IDX 38 25 40 26 39 27 35 28 36 29 11 30 12 31 13 33 14 34 19 35
REMARK SMILES IDX 15 36 18 37 16 38 17 39 20 40 21 41 8 43 7 44 6 45 5 46 3 47
REMARK SMILES IDX 4 48 2 49 1 50
REMARK H PARENT 43 5 27 10 11 32
REMARK Flexibility Score: 80.00
ROOT
ATOM      1  C   UNL     1      15.289  49.727  28.695  1.00  0.00     0.035 C 
ENDROOT
BRANCH   1   2
ATOM      2  C   UNL     1      16.309  49.078  29.652  1.00  0.00     0.171 C 
BRANCH   2   3
ATOM      3  C   UNL     1      15.676  48.742  30.972  1.00  0.00     0.243 C 
ATOM      4  N   UNL     1      14.247  48.714  31.110  1.00  0.00    -0.342 N 
ATOM      5  H   UNL     1      13.690  48.347  30.308  1.00  0.00     0.164 HD
ATOM      6  O   UNL     1      16.414  48.497  31.963  1.00  0.00    -0.273 OA
BRANCH   4   7
ATOM      7  C   UNL     1      13.528  49.545  32.086  1.00  0.00     0.175 C 
BRANCH   7   8
ATOM      8  C   UNL     1      14.528  50.107  33.083  1.00  0.00     0.243 C 
ATOM      9  N   UNL     1      15.369  51.237  32.786  1.00  0.00    -0.342 N 
ATOM     10  H   UNL     1      15.285  51.714  31.868  1.00  0.00     0.164 HD
ATOM     11  O   UNL     1      14.671  49.509  34.182  1.00  0.00    -0.273 OA
BRANCH   9  12
ATOM     12  C   UNL     1      16.346  51.813  33.722  1.00  0.00     0.174 CG0
ATOM     13  G   UNL     1      17.750  51.658  33.144  1.00  0.00     0.000 G0
BRANCH  12  14
ATOM     14  C   UNL     1      15.955  53.249  34.220  1.00  0.00     0.018 C 
ATOM     15  C   UNL     1      14.630  53.747  33.601  1.00  0.00     0.010 C 
BRANCH  14  16
ATOM     16  C   UNL     1      15.815  53.273  35.769  1.00  0.00     0.002 C 
ATOM     17  C   UNL     1      14.762  54.277  36.254  1.00  0.00     0.004 C 
ENDBRANCH  14  16
ENDBRANCH  12  14
ENDBRANCH   9  12
ENDBRANCH   7   8
BRANCH   7  18
ATOM     18  C   UNL     1      12.329  48.761  32.684  1.00  0.00     0.073 C 
BRANCH  18  19
ATOM     19  C   UNL     1      11.281  48.384  31.670  1.00  0.00    -0.016 A 
ATOM     20  C   UNL     1      10.461  49.260  30.970  1.00  0.00     0.134 A 
ATOM     21  C   UNL     1      10.790  47.120  31.390  1.00  0.00     0.006 A 
ATOM     22  N   UNL     1       9.526  48.586  30.265  1.00  0.00    -0.191 N 
ATOM     23  C   UNL     1       9.727  47.267  30.520  1.00  0.00     0.087 A 
ATOM     24  C   UNL     1      11.179  45.875  31.883  1.00  0.00     0.011 A 
ATOM     25  C   UNL     1       9.016  46.142  30.070  1.00  0.00     0.030 A 
ATOM     26  C   UNL     1      10.481  44.740  31.439  1.00  0.00     0.001 A 
ATOM     27  C   UNL     1       9.409  44.874  30.533  1.00  0.00     0.002 A 
BRANCH  22  28
ATOM     28  O   UNL     1       8.549  49.235  29.527  1.00  0.00    -0.417 OA
ATOM     29  C   UNL     1       8.629  50.578  29.072  1.00  0.00     0.313 C 
ENDBRANCH  22  28
ENDBRANCH  18  19
ENDBRANCH   7  18
ENDBRANCH   4   7
ENDBRANCH   2   3
BRANCH   2  30
ATOM     30  N   UNL     1      17.456  49.964  29.879  1.00  0.00    -0.343 N 
ATOM     31  C   UNL     1      17.291  51.357  30.207  1.00  0.00     0.243 C 
ATOM     32  H   UNL     1      18.410  49.578  29.713  1.00  0.00     0.164 HD
ATOM     33  O   UNL     1      16.144  51.871  30.134  1.00  0.00    -0.273 OA
BRANCH  31  34
ATOM     34  C   UNL     1      18.442  52.216  30.715  1.00  0.00     0.174 C 
ATOM     35  N   UNL     1      18.348  52.569  32.158  1.00  0.00    -0.329 N 
ATOM     36  C   UNL     1      18.636  53.495  29.864  1.00  0.00     0.035 C 
ATOM     37  C   UNL     1      19.487  53.358  32.658  1.00  0.00     0.120 C 
ATOM     38  C   UNL     1      19.855  54.283  30.348  1.00  0.00     0.004 C 
ATOM     39  C   UNL     1      19.699  54.626  31.829  1.00  0.00     0.022 C 
BRANCH  35  40
ATOM     40  C   UNL     1      17.764  51.643  33.104  1.00  0.00     0.246 CG0
ATOM     41  O   UNL     1      18.383  50.572  33.368  1.00  0.00    -0.272 OA
ATOM     42  G   UNL     1      16.371  51.816  33.704  1.00  0.00     0.000 G0
ENDBRANCH  35  40
ENDBRANCH  31  34
ENDBRANCH   2  30
ENDBRANCH   1   2
BRANCH   1  43
ATOM     43  C   UNL     1      14.884  48.763  27.568  1.00  0.00     0.003 C 
BRANCH  43  44
ATOM     44  C   UNL     1      15.041  47.299  27.995  1.00  0.00     0.001 C 
BRANCH  44  45
ATOM     45  C   UNL     1      13.677  46.690  28.350  1.00  0.00     0.008 C 
BRANCH  45  46
ATOM     46  C   UNL     1      13.820  45.241  28.828  1.00  0.00     0.075 C 
BRANCH  46  47
ATOM     47  C   UNL     1      12.617  44.426  28.406  1.00  0.00     0.132 C 
ATOM     48  O   UNL     1      11.633  45.024  27.998  1.00  0.00    -0.300 OA
BRANCH  47  49
ATOM     49  C   UNL     1      12.572  42.912  28.420  1.00  0.00     0.072 C 
ATOM     50  C   UNL     1      13.859  42.217  27.983  1.00  0.00     0.012 C 
ENDBRANCH  47  49
ENDBRANCH  46  47
ENDBRANCH  45  46
ENDBRANCH  44  45
ENDBRANCH  43  44
ENDBRANCH   1  43
TORSDOF 12
ENDMDL
MODEL 6
REMARK VINA RESULT:    -5.241      2.512      8.005
REMARK INTER + INTRA:         -15.037
REMARK INTER:                 -12.360
REMARK INTRA:                  -2.677
REMARK UNBOUND:                -3.976
REMARK SMILES CCC(=O)CCCCC[C@H]1NC(=O)[C@H]2CCCCN2C(=O)[C@@H]([C@@H](C)CC)NC(=O)[C@H](Cc2cn(OC)c3ccccc23)NC1=O
REMARK SMILES IDX 9 1 10 2 44 3 43 4 45 6 30 7 28 8 27 9 29 11 22 12 23 14
REMARK SMILES IDX 24 15 25 16 26 17 31 18 32 19 33 20 42 21 34 22 37 23 41 24
REMARK SMILES IDX 38 25 40 26 39 27 35 28 36 29 11 30 12 31 13 33 14 34 19 35
REMARK SMILES IDX 15 36 18 37 16 38 17 39 20 40 21 41 8 43 7 44 6 45 5 46 3 47
REMARK SMILES IDX 4 48 2 49 1 50
REMARK H PARENT 43 5 27 10 11 32
REMARK Flexibility Score: 80.00
ROOT
ATOM      1  C   UNL     1      15.429  49.724  29.116  1.00  0.00     0.035 C 
ENDROOT
BRANCH   1   2
ATOM      2  C   UNL     1      16.709  49.099  29.708  1.00  0.00     0.171 C 
BRANCH   2   3
ATOM      3  C   UNL     1      16.458  48.546  31.081  1.00  0.00     0.243 C 
ATOM      4  N   UNL     1      15.117  48.336  31.549  1.00  0.00    -0.342 N 
ATOM      5  H   UNL     1      14.411  47.998  30.860  1.00  0.00     0.164 HD
ATOM      6  O   UNL     1      17.438  48.279  31.824  1.00  0.00    -0.273 OA
BRANCH   4   7
ATOM      7  C   UNL     1      14.597  48.962  32.773  1.00  0.00     0.175 C 
BRANCH   7   8
ATOM      8  C   UNL     1      15.748  49.620  33.514  1.00  0.00     0.243 C 
ATOM      9  N   UNL     1      16.207  50.951  33.213  1.00  0.00    -0.342 N 
ATOM     10  H   UNL     1      15.727  51.507  32.479  1.00  0.00     0.164 HD
ATOM     11  O   UNL     1      16.367  48.940  34.375  1.00  0.00    -0.273 OA
BRANCH   9  12
ATOM     12  C   UNL     1      17.313  51.625  33.908  1.00  0.00     0.174 CG0
ATOM     13  G   UNL     1      18.553  51.606  33.018  1.00  0.00     0.000 G0
BRANCH  12  14
ATOM     14  C   UNL     1      16.911  53.017  34.509  1.00  0.00     0.018 C 
ATOM     15  C   UNL     1      15.487  53.450  34.095  1.00  0.00     0.010 C 
BRANCH  14  16
ATOM     16  C   UNL     1      16.985  52.986  36.063  1.00  0.00     0.002 C 
ATOM     17  C   UNL     1      17.477  51.638  36.605  1.00  0.00     0.004 C 
ENDBRANCH  14  16
ENDBRANCH  12  14
ENDBRANCH   9  12
ENDBRANCH   7   8
BRANCH   7  18
ATOM     18  C   UNL     1      13.750  47.944  33.584  1.00  0.00     0.073 C 
BRANCH  18  19
ATOM     19  C   UNL     1      12.281  47.970  33.249  1.00  0.00    -0.016 A 
ATOM     20  C   UNL     1      11.404  49.022  33.483  1.00  0.00     0.134 A 
ATOM     21  C   UNL     1      11.486  46.912  32.846  1.00  0.00     0.006 A 
ATOM     22  N   UNL     1      10.131  48.655  33.214  1.00  0.00    -0.191 N 
ATOM     23  C   UNL     1      10.179  47.356  32.820  1.00  0.00     0.087 A 
ATOM     24  C   UNL     1      11.827  45.590  32.556  1.00  0.00     0.011 A 
ATOM     25  C   UNL     1       9.138  46.484  32.458  1.00  0.00     0.030 A 
ATOM     26  C   UNL     1      10.798  44.708  32.189  1.00  0.00     0.001 A 
ATOM     27  C   UNL     1       9.462  45.155  32.135  1.00  0.00     0.002 A 
BRANCH  22  28
ATOM     28  O   UNL     1       9.059  49.508  33.423  1.00  0.00    -0.417 OA
ATOM     29  C   UNL     1       8.926  50.805  32.857  1.00  0.00     0.313 C 
ENDBRANCH  22  28
ENDBRANCH  18  19
ENDBRANCH   7  18
ENDBRANCH   4   7
ENDBRANCH   2   3
BRANCH   2  30
ATOM     30  N   UNL     1      17.793  50.085  29.776  1.00  0.00    -0.343 N 
ATOM     31  C   UNL     1      17.573  51.430  30.244  1.00  0.00     0.243 C 
ATOM     32  H   UNL     1      18.723  49.814  29.392  1.00  0.00     0.164 HD
ATOM     33  O   UNL     1      16.393  51.823  30.442  1.00  0.00    -0.273 OA
BRANCH  31  34
ATOM     34  C   UNL     1      18.721  52.372  30.584  1.00  0.00     0.174 C 
ATOM     35  N   UNL     1      18.872  52.648  32.039  1.00  0.00    -0.329 N 
ATOM     36  C   UNL     1      18.639  53.701  29.793  1.00  0.00     0.035 C 
ATOM     37  C   UNL     1      20.013  53.520  32.368  1.00  0.00     0.120 C 
ATOM     38  C   UNL     1      19.855  54.580  30.093  1.00  0.00     0.004 C 
ATOM     39  C   UNL     1      19.954  54.838  31.596  1.00  0.00     0.022 C 
BRANCH  35  40
ATOM     40  C   UNL     1      18.561  51.628  33.016  1.00  0.00     0.246 CG0
ATOM     41  O   UNL     1      19.305  50.607  33.087  1.00  0.00    -0.272 OA
ATOM     42  G   UNL     1      17.302  51.642  33.879  1.00  0.00     0.000 G0
ENDBRANCH  35  40
ENDBRANCH  31  34
ENDBRANCH   2  30
ENDBRANCH   1   2
BRANCH   1  43
ATOM     43  C   UNL     1      15.062  49.083  27.768  1.00  0.00     0.003 C 
BRANCH  43  44
ATOM     44  C   UNL     1      14.331  47.749  27.960  1.00  0.00     0.001 C 
BRANCH  44  45
ATOM     45  C   UNL     1      12.815  47.970  28.044  1.00  0.00     0.008 C 
BRANCH  45  46
ATOM     46  C   UNL     1      12.139  46.888  28.895  1.00  0.00     0.075 C 
BRANCH  46  47
ATOM     47  C   UNL     1      10.683  47.232  29.125  1.00  0.00     0.132 C 
ATOM     48  O   UNL     1       9.857  46.339  29.004  1.00  0.00    -0.300 OA
BRANCH  47  49
ATOM     49  C   UNL     1      10.190  48.604  29.534  1.00  0.00     0.072 C 
ATOM     50  C   UNL     1       8.673  48.770  29.562  1.00  0.00     0.012 C 
ENDBRANCH  47  49
ENDBRANCH  46  47
ENDBRANCH  45  46
ENDBRANCH  44  45
ENDBRANCH  43  44
ENDBRANCH   1  43
TORSDOF 12
ENDMDL
MODEL 7
REMARK VINA RESULT:    -5.117      2.749      6.601
REMARK INTER + INTRA:         -14.777
REMARK INTER:                 -11.139
REMARK INTRA:                  -3.637
REMARK UNBOUND:                -3.976
REMARK SMILES CCC(=O)CCCCC[C@H]1NC(=O)[C@H]2CCCCN2C(=O)[C@@H]([C@@H](C)CC)NC(=O)[C@H](Cc2cn(OC)c3ccccc23)NC1=O
REMARK SMILES IDX 9 1 10 2 44 3 43 4 45 6 30 7 28 8 27 9 29 11 22 12 23 14
REMARK SMILES IDX 24 15 25 16 26 17 31 18 32 19 33 20 42 21 34 22 37 23 41 24
REMARK SMILES IDX 38 25 40 26 39 27 35 28 36 29 11 30 12 31 13 33 14 34 19 35
REMARK SMILES IDX 15 36 18 37 16 38 17 39 20 40 21 41 8 43 7 44 6 45 5 46 3 47
REMARK SMILES IDX 4 48 2 49 1 50
REMARK H PARENT 43 5 27 10 11 32
REMARK Flexibility Score: 80.00
ROOT
ATOM      1  C   UNL     1      10.985  45.783  33.879  1.00  0.00     0.035 C 
ENDROOT
BRANCH   1   2
ATOM      2  C   UNL     1      12.264  46.642  33.826  1.00  0.00     0.171 C 
BRANCH   2   3
ATOM      3  C   UNL     1      11.942  48.104  33.928  1.00  0.00     0.243 C 
ATOM      4  N   UNL     1      12.021  48.952  32.771  1.00  0.00    -0.342 N 
ATOM      5  H   UNL     1      11.720  48.551  31.857  1.00  0.00     0.164 HD
ATOM      6  O   UNL     1      11.614  48.585  35.045  1.00  0.00    -0.273 OA
BRANCH   4   7
ATOM      7  C   UNL     1      12.878  50.145  32.718  1.00  0.00     0.175 C 
BRANCH   7   8
ATOM      8  C   UNL     1      14.303  49.711  32.420  1.00  0.00     0.243 C 
ATOM      9  N   UNL     1      14.661  48.983  31.230  1.00  0.00    -0.342 N 
ATOM     10  H   UNL     1      13.932  48.758  30.526  1.00  0.00     0.164 HD
ATOM     11  O   UNL     1      15.187  49.938  33.287  1.00  0.00    -0.273 OA
BRANCH   9  12
ATOM     12  C   UNL     1      16.026  48.548  30.902  1.00  0.00     0.174 CG0
ATOM     13  G   UNL     1      16.163  47.056  31.192  1.00  0.00     0.000 G0
BRANCH  12  14
ATOM     14  C   UNL     1      16.506  49.027  29.487  1.00  0.00     0.018 C 
ATOM     15  C   UNL     1      15.378  49.710  28.682  1.00  0.00     0.010 C 
BRANCH  14  16
ATOM     16  C   UNL     1      17.692  50.026  29.619  1.00  0.00     0.002 C 
ATOM     17  C   UNL     1      17.591  50.903  30.873  1.00  0.00     0.004 C 
ENDBRANCH  14  16
ENDBRANCH  12  14
ENDBRANCH   9  12
ENDBRANCH   7   8
BRANCH   7  18
ATOM     18  C   UNL     1      12.676  51.013  33.989  1.00  0.00     0.073 C 
BRANCH  18  19
ATOM     19  C   UNL     1      11.670  52.122  33.817  1.00  0.00    -0.016 A 
ATOM     20  C   UNL     1      10.558  52.100  32.985  1.00  0.00     0.134 A 
ATOM     21  C   UNL     1      11.759  53.424  34.276  1.00  0.00     0.006 A 
ATOM     22  N   UNL     1       9.963  53.312  32.945  1.00  0.00    -0.191 N 
ATOM     23  C   UNL     1      10.700  54.130  33.741  1.00  0.00     0.087 A 
ATOM     24  C   UNL     1      12.726  54.031  35.078  1.00  0.00     0.011 A 
ATOM     25  C   UNL     1      10.540  55.497  34.024  1.00  0.00     0.030 A 
ATOM     26  C   UNL     1      12.578  55.395  35.374  1.00  0.00     0.001 A 
ATOM     27  C   UNL     1      11.488  56.122  34.854  1.00  0.00     0.002 A 
BRANCH  22  28
ATOM     28  O   UNL     1       8.864  53.568  32.140  1.00  0.00    -0.417 OA
ATOM     29  C   UNL     1       7.716  52.737  32.040  1.00  0.00     0.313 C 
ENDBRANCH  22  28
ENDBRANCH  18  19
ENDBRANCH   7  18
ENDBRANCH   4   7
ENDBRANCH   2   3
BRANCH   2  30
ATOM     30  N   UNL     1      13.010  46.398  32.586  1.00  0.00    -0.343 N 
ATOM     31  C   UNL     1      14.077  45.432  32.515  1.00  0.00     0.243 C 
ATOM     32  H   UNL     1      12.806  47.008  31.766  1.00  0.00     0.164 HD
ATOM     33  O   UNL     1      14.494  44.902  33.579  1.00  0.00    -0.273 OA
BRANCH  31  34
ATOM     34  C   UNL     1      14.668  44.967  31.190  1.00  0.00     0.174 C 
ATOM     35  N   UNL     1      15.416  46.022  30.453  1.00  0.00    -0.329 N 
ATOM     36  C   UNL     1      13.602  44.325  30.269  1.00  0.00     0.035 C 
ATOM     37  C   UNL     1      16.028  45.557  29.197  1.00  0.00     0.120 C 
ATOM     38  C   UNL     1      14.250  43.790  28.989  1.00  0.00     0.004 C 
ATOM     39  C   UNL     1      14.993  44.916  28.271  1.00  0.00     0.022 C 
BRANCH  35  40
ATOM     40  C   UNL     1      16.156  47.036  31.173  1.00  0.00     0.246 CG0
ATOM     41  O   UNL     1      16.884  46.681  32.145  1.00  0.00    -0.272 OA
ATOM     42  G   UNL     1      16.006  48.532  30.915  1.00  0.00     0.000 G0
ENDBRANCH  35  40
ENDBRANCH  31  34
ENDBRANCH   2  30
ENDBRANCH   1   2
BRANCH   1  43
ATOM     43  C   UNL     1      10.480  45.439  32.468  1.00  0.00     0.003 C 
BRANCH  43  44
ATOM     44  C   UNL     1       9.395  46.418  32.003  1.00  0.00     0.001 C 
BRANCH  44  45
ATOM     45  C   UNL     1       9.005  46.140  30.545  1.00  0.00     0.008 C 
BRANCH  45  46
ATOM     46  C   UNL     1      10.210  46.275  29.608  1.00  0.00     0.075 C 
BRANCH  46  47
ATOM     47  C   UNL     1      10.700  47.707  29.583  1.00  0.00     0.132 C 
ATOM     48  O   UNL     1      11.853  47.925  29.922  1.00  0.00    -0.300 OA
BRANCH  47  49
ATOM     49  C   UNL     1       9.861  48.881  29.125  1.00  0.00     0.072 C 
ATOM     50  C   UNL     1       9.166  49.660  30.240  1.00  0.00     0.012 C 
ENDBRANCH  47  49
ENDBRANCH  46  47
ENDBRANCH  45  46
ENDBRANCH  44  45
ENDBRANCH  43  44
ENDBRANCH   1  43
TORSDOF 12
ENDMDL
MODEL 8
REMARK VINA RESULT:    -5.063      2.845      8.410
REMARK INTER + INTRA:         -14.663
REMARK INTER:                 -12.185
REMARK INTRA:                  -2.478
REMARK UNBOUND:                -3.976
REMARK SMILES CCC(=O)CCCCC[C@H]1NC(=O)[C@H]2CCCCN2C(=O)[C@@H]([C@@H](C)CC)NC(=O)[C@H](Cc2cn(OC)c3ccccc23)NC1=O
REMARK SMILES IDX 9 1 10 2 44 3 43 4 45 6 30 7 28 8 27 9 29 11 22 12 23 14
REMARK SMILES IDX 24 15 25 16 26 17 31 18 32 19 33 20 42 21 34 22 37 23 41 24
REMARK SMILES IDX 38 25 40 26 39 27 35 28 36 29 11 30 12 31 13 33 14 34 19 35
REMARK SMILES IDX 15 36 18 37 16 38 17 39 20 40 21 41 8 43 7 44 6 45 5 46 3 47
REMARK SMILES IDX 4 48 2 49 1 50
REMARK H PARENT 43 5 27 10 11 32
REMARK Flexibility Score: 80.00
ROOT
ATOM      1  C   UNL     1      14.904  48.604  29.049  1.00  0.00     0.035 C 
ENDROOT
BRANCH   1   2
ATOM      2  C   UNL     1      16.300  47.959  29.163  1.00  0.00     0.171 C 
BRANCH   2   3
ATOM      3  C   UNL     1      16.311  46.865  30.191  1.00  0.00     0.243 C 
ATOM      4  N   UNL     1      15.082  46.271  30.638  1.00  0.00    -0.342 N 
ATOM      5  H   UNL     1      14.326  46.134  29.932  1.00  0.00     0.164 HD
ATOM      6  O   UNL     1      17.411  46.481  30.668  1.00  0.00    -0.273 OA
BRANCH   4   7
ATOM      7  C   UNL     1      14.676  46.257  32.050  1.00  0.00     0.175 C 
BRANCH   7   8
ATOM      8  C   UNL     1      15.808  46.822  32.892  1.00  0.00     0.243 C 
ATOM      9  N   UNL     1      16.157  48.218  32.887  1.00  0.00    -0.342 N 
ATOM     10  H   UNL     1      15.607  48.884  32.311  1.00  0.00     0.164 HD
ATOM     11  O   UNL     1      16.509  46.017  33.560  1.00  0.00    -0.273 OA
BRANCH   9  12
ATOM     12  C   UNL     1      17.241  48.805  33.688  1.00  0.00     0.174 CG0
ATOM     13  G   UNL     1      18.328  49.331  32.755  1.00  0.00     0.000 G0
BRANCH  12  14
ATOM     14  C   UNL     1      16.730  49.800  34.789  1.00  0.00     0.018 C 
ATOM     15  C   UNL     1      15.270  50.247  34.548  1.00  0.00     0.010 C 
BRANCH  14  16
ATOM     16  C   UNL     1      16.821  49.151  36.200  1.00  0.00     0.002 C 
ATOM     17  C   UNL     1      18.267  48.968  36.676  1.00  0.00     0.004 C 
ENDBRANCH  14  16
ENDBRANCH  12  14
ENDBRANCH   9  12
ENDBRANCH   7   8
BRANCH   7  18
ATOM     18  C   UNL     1      14.160  44.848  32.450  1.00  0.00     0.073 C 
BRANCH  18  19
ATOM     19  C   UNL     1      13.024  44.350  31.594  1.00  0.00    -0.016 A 
ATOM     20  C   UNL     1      13.140  43.591  30.436  1.00  0.00     0.134 A 
ATOM     21  C   UNL     1      11.689  44.708  31.665  1.00  0.00     0.006 A 
ATOM     22  N   UNL     1      11.941  43.455  29.828  1.00  0.00    -0.191 N 
ATOM     23  C   UNL     1      11.045  44.141  30.584  1.00  0.00     0.087 A 
ATOM     24  C   UNL     1      11.027  45.531  32.576  1.00  0.00     0.011 A 
ATOM     25  C   UNL     1       9.669  44.349  30.386  1.00  0.00     0.030 A 
ATOM     26  C   UNL     1       9.651  45.746  32.394  1.00  0.00     0.001 A 
ATOM     27  C   UNL     1       8.976  45.153  31.308  1.00  0.00     0.002 A 
BRANCH  22  28
ATOM     28  O   UNL     1      11.798  42.789  28.621  1.00  0.00    -0.417 OA
ATOM     29  C   UNL     1      12.861  42.472  27.734  1.00  0.00     0.313 C 
ENDBRANCH  22  28
ENDBRANCH  18  19
ENDBRANCH   7  18
ENDBRANCH   4   7
ENDBRANCH   2   3
BRANCH   2  30
ATOM     30  N   UNL     1      17.315  48.960  29.512  1.00  0.00    -0.343 N 
ATOM     31  C   UNL     1      16.990  50.142  30.270  1.00  0.00     0.243 C 
ATOM     32  H   UNL     1      18.274  48.838  29.123  1.00  0.00     0.164 HD
ATOM     33  O   UNL     1      15.782  50.411  30.496  1.00  0.00    -0.273 OA
BRANCH  31  34
ATOM     34  C   UNL     1      18.062  51.039  30.877  1.00  0.00     0.174 C 
ATOM     35  N   UNL     1      18.396  50.718  32.291  1.00  0.00    -0.329 N 
ATOM     36  C   UNL     1      17.712  52.541  30.739  1.00  0.00     0.035 C 
ATOM     37  C   UNL     1      19.467  51.555  32.860  1.00  0.00     0.120 C 
ATOM     38  C   UNL     1      18.852  53.410  31.276  1.00  0.00     0.004 C 
ATOM     39  C   UNL     1      19.144  53.044  32.731  1.00  0.00     0.022 C 
BRANCH  35  40
ATOM     40  C   UNL     1      18.352  49.351  32.764  1.00  0.00     0.246 CG0
ATOM     41  O   UNL     1      19.204  48.527  32.320  1.00  0.00    -0.272 OA
ATOM     42  G   UNL     1      17.250  48.806  33.668  1.00  0.00     0.000 G0
ENDBRANCH  35  40
ENDBRANCH  31  34
ENDBRANCH   2  30
ENDBRANCH   1   2
BRANCH   1  43
ATOM     43  C   UNL     1      14.286  48.365  27.662  1.00  0.00     0.003 C 
BRANCH  43  44
ATOM     44  C   UNL     1      12.975  47.575  27.758  1.00  0.00     0.001 C 
BRANCH  44  45
ATOM     45  C   UNL     1      12.390  47.668  29.174  1.00  0.00     0.008 C 
BRANCH  45  46
ATOM     46  C   UNL     1      10.861  47.563  29.155  1.00  0.00     0.075 C 
BRANCH  46  47
ATOM     47  C   UNL     1      10.251  48.592  30.082  1.00  0.00     0.132 C 
ATOM     48  O   UNL     1      10.898  48.939  31.059  1.00  0.00    -0.300 OA
BRANCH  47  49
ATOM     49  C   UNL     1       8.906  49.249  29.853  1.00  0.00     0.072 C 
ATOM     50  C   UNL     1       8.876  50.306  28.752  1.00  0.00     0.012 C 
ENDBRANCH  47  49
ENDBRANCH  46  47
ENDBRANCH  45  46
ENDBRANCH  44  45
ENDBRANCH  43  44
ENDBRANCH   1  43
TORSDOF 12
ENDMDL
MODEL 9
REMARK VINA RESULT:    -5.041      2.616      7.683
REMARK INTER + INTRA:         -14.616
REMARK INTER:                 -12.224
REMARK INTRA:                  -2.392
REMARK UNBOUND:                -3.976
REMARK SMILES CCC(=O)CCCCC[C@H]1NC(=O)[C@H]2CCCCN2C(=O)[C@@H]([C@@H](C)CC)NC(=O)[C@H](Cc2cn(OC)c3ccccc23)NC1=O
REMARK SMILES IDX 9 1 10 2 44 3 43 4 45 6 30 7 28 8 27 9 29 11 22 12 23 14
REMARK SMILES IDX 24 15 25 16 26 17 31 18 32 19 33 20 42 21 34 22 37 23 41 24
REMARK SMILES IDX 38 25 40 26 39 27 35 28 36 29 11 30 12 31 13 33 14 34 19 35
REMARK SMILES IDX 15 36 18 37 16 38 17 39 20 40 21 41 8 43 7 44 6 45 5 46 3 47
REMARK SMILES IDX 4 48 2 49 1 50
REMARK H PARENT 43 5 27 10 11 32
REMARK Flexibility Score: 80.00
ROOT
ATOM      1  C   UNL     1      15.249  48.986  28.926  1.00  0.00     0.035 C 
ENDROOT
BRANCH   1   2
ATOM      2  C   UNL     1      16.421  48.448  29.771  1.00  0.00     0.171 C 
BRANCH   2   3
ATOM      3  C   UNL     1      15.964  48.058  31.147  1.00  0.00     0.243 C 
ATOM      4  N   UNL     1      14.569  47.855  31.423  1.00  0.00    -0.342 N 
ATOM      5  H   UNL     1      13.989  47.408  30.680  1.00  0.00     0.164 HD
ATOM      6  O   UNL     1      16.817  47.922  32.063  1.00  0.00    -0.273 OA
BRANCH   4   7
ATOM      7  C   UNL     1      13.848  48.606  32.460  1.00  0.00     0.175 C 
BRANCH   7   8
ATOM      8  C   UNL     1      14.859  49.335  33.329  1.00  0.00     0.243 C 
ATOM      9  N   UNL     1      15.545  50.523  32.892  1.00  0.00    -0.342 N 
ATOM     10  H   UNL     1      15.335  50.924  31.958  1.00  0.00     0.164 HD
ATOM     11  O   UNL     1      15.155  48.833  34.445  1.00  0.00    -0.273 OA
BRANCH   9  12
ATOM     12  C   UNL     1      16.526  51.260  33.702  1.00  0.00     0.174 CG0
ATOM     13  G   UNL     1      17.878  51.246  32.993  1.00  0.00     0.000 G0
BRANCH  12  14
ATOM     14  C   UNL     1      16.008  52.661  34.180  1.00  0.00     0.018 C 
ATOM     15  C   UNL     1      14.614  53.001  33.606  1.00  0.00     0.010 C 
BRANCH  14  16
ATOM     16  C   UNL     1      15.929  52.717  35.733  1.00  0.00     0.002 C 
ATOM     17  C   UNL     1      17.306  52.866  36.391  1.00  0.00     0.004 C 
ENDBRANCH  14  16
ENDBRANCH  12  14
ENDBRANCH   9  12
ENDBRANCH   7   8
BRANCH   7  18
ATOM     18  C   UNL     1      12.847  47.679  33.201  1.00  0.00     0.073 C 
BRANCH  18  19
ATOM     19  C   UNL     1      11.755  47.131  32.319  1.00  0.00    -0.016 A 
ATOM     20  C   UNL     1      11.565  45.798  31.979  1.00  0.00     0.134 A 
ATOM     21  C   UNL     1      10.874  47.842  31.523  1.00  0.00     0.006 A 
ATOM     22  N   UNL     1      10.598  45.673  31.044  1.00  0.00    -0.191 N 
ATOM     23  C   UNL     1      10.168  46.930  30.762  1.00  0.00     0.087 A 
ATOM     24  C   UNL     1      10.691  49.218  31.390  1.00  0.00     0.011 A 
ATOM     25  C   UNL     1       9.203  47.369  29.840  1.00  0.00     0.030 A 
ATOM     26  C   UNL     1       9.726  49.672  30.476  1.00  0.00     0.001 A 
ATOM     27  C   UNL     1       8.983  48.751  29.711  1.00  0.00     0.002 A 
BRANCH  22  28
ATOM     28  O   UNL     1      10.259  44.447  30.494  1.00  0.00    -0.417 OA
ATOM     29  C   UNL     1      10.330  44.125  29.112  1.00  0.00     0.313 C 
ENDBRANCH  22  28
ENDBRANCH  18  19
ENDBRANCH   7  18
ENDBRANCH   4   7
ENDBRANCH   2   3
BRANCH   2  30
ATOM     30  N   UNL     1      17.491  49.446  29.883  1.00  0.00    -0.343 N 
ATOM     31  C   UNL     1      17.213  50.835  30.148  1.00  0.00     0.243 C 
ATOM     32  H   UNL     1      18.466  49.140  29.681  1.00  0.00     0.164 HD
ATOM     33  O   UNL     1      16.021  51.237  30.116  1.00  0.00    -0.273 OA
BRANCH  31  34
ATOM     34  C   UNL     1      18.304  51.822  30.542  1.00  0.00     0.174 C 
ATOM     35  N   UNL     1      18.295  52.198  31.981  1.00  0.00    -0.329 N 
ATOM     36  C   UNL     1      18.288  53.094  29.657  1.00  0.00     0.035 C 
ATOM     37  C   UNL     1      19.382  53.115  32.369  1.00  0.00     0.120 C 
ATOM     38  C   UNL     1      19.452  54.018  30.023  1.00  0.00     0.004 C 
ATOM     39  C   UNL     1      19.386  54.377  31.506  1.00  0.00     0.022 C 
BRANCH  35  40
ATOM     40  C   UNL     1      17.896  51.239  32.988  1.00  0.00     0.246 CG0
ATOM     41  O   UNL     1      18.660  50.259  33.231  1.00  0.00    -0.272 OA
ATOM     42  G   UNL     1      16.538  51.261  33.683  1.00  0.00     0.000 G0
ENDBRANCH  35  40
ENDBRANCH  31  34
ENDBRANCH   2  30
ENDBRANCH   1   2
BRANCH   1  43
ATOM     43  C   UNL     1      14.858  48.000  27.814  1.00  0.00     0.003 C 
BRANCH  43  44
ATOM     44  C   UNL     1      13.376  47.618  27.894  1.00  0.00     0.001 C 
BRANCH  44  45
ATOM     45  C   UNL     1      13.208  46.236  28.540  1.00  0.00     0.008 C 
BRANCH  45  46
ATOM     46  C   UNL     1      14.562  45.544  28.740  1.00  0.00     0.075 C 
BRANCH  46  47
ATOM     47  C   UNL     1      14.472  44.520  29.850  1.00  0.00     0.132 C 
ATOM     48  O   UNL     1      15.137  44.706  30.858  1.00  0.00    -0.300 OA
BRANCH  47  49
ATOM     49  C   UNL     1      13.577  43.299  29.807  1.00  0.00     0.072 C 
ATOM     50  C   UNL     1      14.255  41.981  30.173  1.00  0.00     0.012 C 
ENDBRANCH  47  49
ENDBRANCH  46  47
ENDBRANCH  45  46
ENDBRANCH  44  45
ENDBRANCH  43  44
ENDBRANCH   1  43
TORSDOF 12
ENDMDL
