MODEL 1
REMARK VINA RESULT:    -3.654      0.000      0.000
REMARK INTER + INTRA:         -10.782
REMARK INTER:                  -7.713
REMARK INTRA:                  -3.070
REMARK UNBOUND:                -3.070
REMARK SMILES CCC(=O)CCCCC[C@H]1NC(=O)[C@H]2CCCCN2C(=O)[C@H]([C@H](C)CC)NC(=O)[C@H](Cc2cn(OC)c3ccccc23)NC1=O
REMARK SMILES IDX 9 1 10 2 44 3 43 4 45 6 30 7 28 8 27 9 29 11 22 12 23 14
REMARK SMILES IDX 24 15 25 16 26 17 31 18 32 19 33 20 42 21 34 22 37 23 41 24
REMARK SMILES IDX 38 25 40 26 39 27 35 28 36 29 11 30 12 31 13 33 14 34 19 35
REMARK SMILES IDX 15 36 18 37 16 38 17 39 20 40 21 41 8 43 7 44 6 45 5 46 3 47
REMARK SMILES IDX 4 48 2 49 1 50
REMARK H PARENT 43 5 27 10 11 32
REMARK Flexibility Score: 80.00
ROOT
ATOM      1  C   UNL     1      59.803  28.857  53.210  1.00  0.00     0.035 C 
ENDROOT
BRANCH   1   2
ATOM      2  C   UNL     1      58.567  28.969  54.139  1.00  0.00     0.171 C 
BRANCH   2   3
ATOM      3  C   UNL     1      58.635  28.093  55.375  1.00  0.00     0.243 C 
ATOM      4  N   UNL     1      57.427  27.563  55.938  1.00  0.00    -0.342 N 
ATOM      5  H   UNL     1      56.520  27.895  55.541  1.00  0.00     0.164 HD
ATOM      6  O   UNL     1      59.738  27.888  55.955  1.00  0.00    -0.273 OA
BRANCH   4   7
ATOM      7  C   UNL     1      57.420  26.796  57.191  1.00  0.00     0.175 C 
BRANCH   7   8
ATOM      8  C   UNL     1      56.239  25.851  57.269  1.00  0.00     0.243 C 
ATOM      9  N   UNL     1      55.049  26.049  56.496  1.00  0.00    -0.342 N 
ATOM     10  H   UNL     1      54.140  25.909  56.989  1.00  0.00     0.164 HD
ATOM     11  O   UNL     1      56.295  24.864  58.052  1.00  0.00    -0.273 OA
BRANCH   9  12
ATOM     12  C   UNL     1      55.058  26.018  55.027  1.00  0.00     0.174 CG0
ATOM     13  G   UNL     1      54.251  27.166  54.463  1.00  0.00     0.000 G0
BRANCH  12  14
ATOM     14  C   UNL     1      54.549  24.645  54.497  1.00  0.00     0.018 C 
ATOM     15  C   UNL     1      53.864  23.808  55.597  1.00  0.00     0.010 C 
BRANCH  14  16
ATOM     16  C   UNL     1      55.700  23.849  53.835  1.00  0.00     0.002 C 
ATOM     17  C   UNL     1      55.625  22.351  54.135  1.00  0.00     0.004 C 
ENDBRANCH  14  16
ENDBRANCH  12  14
ENDBRANCH   9  12
ENDBRANCH   7   8
BRANCH   7  18
ATOM     18  C   UNL     1      57.458  27.764  58.393  1.00  0.00     0.073 C 
BRANCH  18  19
ATOM     19  C   UNL     1      58.689  27.589  59.249  1.00  0.00    -0.016 A 
ATOM     20  C   UNL     1      59.046  26.448  59.953  1.00  0.00     0.134 A 
ATOM     21  C   UNL     1      59.736  28.477  59.424  1.00  0.00     0.006 A 
ATOM     22  N   UNL     1      60.258  26.604  60.534  1.00  0.00    -0.191 N 
ATOM     23  C   UNL     1      60.686  27.852  60.207  1.00  0.00     0.087 A 
ATOM     24  C   UNL     1      59.907  29.777  58.945  1.00  0.00     0.011 A 
ATOM     25  C   UNL     1      61.884  28.509  60.533  1.00  0.00     0.030 A 
ATOM     26  C   UNL     1      61.096  30.448  59.266  1.00  0.00     0.001 A 
ATOM     27  C   UNL     1      62.078  29.816  60.053  1.00  0.00     0.002 A 
BRANCH  22  28
ATOM     28  O   UNL     1      60.846  25.604  61.294  1.00  0.00    -0.417 OA
ATOM     29  C   UNL     1      60.945  25.606  62.714  1.00  0.00     0.313 C 
ENDBRANCH  22  28
ENDBRANCH  18  19
ENDBRANCH   7  18
ENDBRANCH   4   7
ENDBRANCH   2   3
BRANCH   2  30
ATOM     30  N   UNL     1      57.349  28.664  53.374  1.00  0.00    -0.343 N 
ATOM     31  C   UNL     1      56.073  29.265  53.640  1.00  0.00     0.243 C 
ATOM     32  H   UNL     1      57.439  28.005  52.567  1.00  0.00     0.164 HD
ATOM     33  O   UNL     1      55.946  30.103  54.575  1.00  0.00    -0.273 OA
BRANCH  31  34
ATOM     34  C   UNL     1      54.882  28.927  52.777  1.00  0.00     0.174 C 
ATOM     35  N   UNL     1      54.338  27.588  53.095  1.00  0.00    -0.329 N 
ATOM     36  C   UNL     1      55.278  29.022  51.287  1.00  0.00     0.035 C 
ATOM     37  C   UNL     1      53.332  27.017  52.191  1.00  0.00     0.120 C 
ATOM     38  C   UNL     1      54.156  28.528  50.374  1.00  0.00     0.004 C 
ATOM     39  C   UNL     1      53.793  27.092  50.737  1.00  0.00     0.022 C 
BRANCH  35  40
ATOM     40  C   UNL     1      54.239  27.189  54.473  1.00  0.00     0.246 CG0
ATOM     41  O   UNL     1      53.461  27.819  55.240  1.00  0.00    -0.272 OA
ATOM     42  G   UNL     1      55.054  26.024  54.990  1.00  0.00     0.000 G0
ENDBRANCH  35  40
ENDBRANCH  31  34
ENDBRANCH   2  30
ENDBRANCH   1   2
BRANCH   1  43
ATOM     43  C   UNL     1      59.940  29.992  52.175  1.00  0.00     0.003 C 
BRANCH  43  44
ATOM     44  C   UNL     1      60.273  29.488  50.762  1.00  0.00     0.001 C 
BRANCH  44  45
ATOM     45  C   UNL     1      59.191  28.520  50.267  1.00  0.00     0.008 C 
BRANCH  45  46
ATOM     46  C   UNL     1      59.736  27.097  50.101  1.00  0.00     0.075 C 
BRANCH  46  47
ATOM     47  C   UNL     1      58.896  26.125  50.886  1.00  0.00     0.132 C 
ATOM     48  O   UNL     1      57.879  26.519  51.437  1.00  0.00    -0.300 OA
BRANCH  47  49
ATOM     49  C   UNL     1      59.245  24.660  50.932  1.00  0.00     0.072 C 
ATOM     50  C   UNL     1      59.125  24.116  52.349  1.00  0.00     0.012 C 
ENDBRANCH  47  49
ENDBRANCH  46  47
ENDBRANCH  45  46
ENDBRANCH  44  45
ENDBRANCH  43  44
ENDBRANCH   1  43
TORSDOF 12
ENDMDL
MODEL 2
REMARK VINA RESULT:    -3.625      3.681      8.923
REMARK INTER + INTRA:         -10.722
REMARK INTER:                  -7.832
REMARK INTRA:                  -2.889
REMARK UNBOUND:                -3.070
REMARK SMILES CCC(=O)CCCCC[C@H]1NC(=O)[C@H]2CCCCN2C(=O)[C@H]([C@H](C)CC)NC(=O)[C@H](Cc2cn(OC)c3ccccc23)NC1=O
REMARK SMILES IDX 9 1 10 2 44 3 43 4 45 6 30 7 28 8 27 9 29 11 22 12 23 14
REMARK SMILES IDX 24 15 25 16 26 17 31 18 32 19 33 20 42 21 34 22 37 23 41 24
REMARK SMILES IDX 38 25 40 26 39 27 35 28 36 29 11 30 12 31 13 33 14 34 19 35
REMARK SMILES IDX 15 36 18 37 16 38 17 39 20 40 21 41 8 43 7 44 6 45 5 46 3 47
REMARK SMILES IDX 4 48 2 49 1 50
REMARK H PARENT 43 5 27 10 11 32
REMARK Flexibility Score: 80.00
ROOT
ATOM      1  C   UNL     1      60.115  29.725  56.183  1.00  0.00     0.035 C 
ENDROOT
BRANCH   1   2
ATOM      2  C   UNL     1      60.540  29.305  54.754  1.00  0.00     0.171 C 
BRANCH   2   3
ATOM      3  C   UNL     1      59.483  28.532  53.990  1.00  0.00     0.243 C 
ATOM      4  N   UNL     1      59.871  27.674  52.908  1.00  0.00    -0.342 N 
ATOM      5  H   UNL     1      60.870  27.699  52.604  1.00  0.00     0.164 HD
ATOM      6  O   UNL     1      58.258  28.694  54.251  1.00  0.00    -0.273 OA
BRANCH   4   7
ATOM      7  C   UNL     1      58.885  26.982  52.068  1.00  0.00     0.175 C 
BRANCH   7   8
ATOM      8  C   UNL     1      59.375  25.617  51.630  1.00  0.00     0.243 C 
ATOM      9  N   UNL     1      60.764  25.271  51.619  1.00  0.00    -0.342 N 
ATOM     10  H   UNL     1      61.113  24.752  50.784  1.00  0.00     0.164 HD
ATOM     11  O   UNL     1      58.534  24.759  51.244  1.00  0.00    -0.273 OA
BRANCH   9  12
ATOM     12  C   UNL     1      61.569  25.235  52.849  1.00  0.00     0.174 CG0
ATOM     13  G   UNL     1      62.944  25.816  52.606  1.00  0.00     0.000 G0
BRANCH  12  14
ATOM     14  C   UNL     1      61.652  23.787  53.417  1.00  0.00     0.018 C 
ATOM     15  C   UNL     1      60.903  22.766  52.535  1.00  0.00     0.010 C 
BRANCH  14  16
ATOM     16  C   UNL     1      61.138  23.737  54.876  1.00  0.00     0.002 C 
ATOM     17  C   UNL     1      60.285  24.954  55.240  1.00  0.00     0.004 C 
ENDBRANCH  14  16
ENDBRANCH  12  14
ENDBRANCH   9  12
ENDBRANCH   7   8
BRANCH   7  18
ATOM     18  C   UNL     1      58.516  27.871  50.860  1.00  0.00     0.073 C 
BRANCH  18  19
ATOM     19  C   UNL     1      57.114  28.425  50.947  1.00  0.00    -0.016 A 
ATOM     20  C   UNL     1      56.764  29.731  51.258  1.00  0.00     0.134 A 
ATOM     21  C   UNL     1      55.926  27.783  50.645  1.00  0.00     0.006 A 
ATOM     22  N   UNL     1      55.427  29.906  51.151  1.00  0.00    -0.191 N 
ATOM     23  C   UNL     1      54.909  28.708  50.770  1.00  0.00     0.087 A 
ATOM     24  C   UNL     1      55.684  26.460  50.270  1.00  0.00     0.011 A 
ATOM     25  C   UNL     1      53.580  28.345  50.499  1.00  0.00     0.030 A 
ATOM     26  C   UNL     1      54.361  26.082  50.000  1.00  0.00     0.001 A 
ATOM     27  C   UNL     1      53.317  27.020  50.112  1.00  0.00     0.002 A 
BRANCH  22  28
ATOM     28  O   UNL     1      54.819  31.127  51.406  1.00  0.00    -0.417 OA
ATOM     29  C   UNL     1      55.429  32.218  52.086  1.00  0.00     0.313 C 
ENDBRANCH  22  28
ENDBRANCH  18  19
ENDBRANCH   7  18
ENDBRANCH   4   7
ENDBRANCH   2   3
BRANCH   2  30
ATOM     30  N   UNL     1      61.783  28.523  54.822  1.00  0.00    -0.343 N 
ATOM     31  C   UNL     1      62.755  28.481  53.765  1.00  0.00     0.243 C 
ATOM     32  H   UNL     1      61.980  28.007  55.710  1.00  0.00     0.164 HD
ATOM     33  O   UNL     1      62.568  29.136  52.703  1.00  0.00    -0.273 OA
BRANCH  31  34
ATOM     34  C   UNL     1      64.025  27.685  53.937  1.00  0.00     0.174 C 
ATOM     35  N   UNL     1      63.802  26.241  53.701  1.00  0.00    -0.329 N 
ATOM     36  C   UNL     1      64.606  27.932  55.346  1.00  0.00     0.035 C 
ATOM     37  C   UNL     1      64.879  25.308  54.055  1.00  0.00     0.120 C 
ATOM     38  C   UNL     1      65.801  27.021  55.630  1.00  0.00     0.004 C 
ATOM     39  C   UNL     1      65.384  25.562  55.474  1.00  0.00     0.022 C 
BRANCH  35  40
ATOM     40  C   UNL     1      62.960  25.839  52.607  1.00  0.00     0.246 CG0
ATOM     41  O   UNL     1      63.378  25.980  51.426  1.00  0.00    -0.272 OA
ATOM     42  G   UNL     1      61.593  25.248  52.875  1.00  0.00     0.000 G0
ENDBRANCH  35  40
ENDBRANCH  31  34
ENDBRANCH   2  30
ENDBRANCH   1   2
BRANCH   1  43
ATOM     43  C   UNL     1      61.113  30.650  56.911  1.00  0.00     0.003 C 
BRANCH  43  44
ATOM     44  C   UNL     1      60.821  30.797  58.412  1.00  0.00     0.001 C 
BRANCH  44  45
ATOM     45  C   UNL     1      60.434  29.442  59.019  1.00  0.00     0.008 C 
BRANCH  45  46
ATOM     46  C   UNL     1      61.539  28.891  59.927  1.00  0.00     0.075 C 
BRANCH  46  47
ATOM     47  C   UNL     1      62.708  28.430  59.098  1.00  0.00     0.132 C 
ATOM     48  O   UNL     1      63.693  29.148  58.996  1.00  0.00    -0.300 OA
BRANCH  47  49
ATOM     49  C   UNL     1      62.718  27.065  58.461  1.00  0.00     0.072 C 
ATOM     50  C   UNL     1      63.556  26.089  59.275  1.00  0.00     0.012 C 
ENDBRANCH  47  49
ENDBRANCH  46  47
ENDBRANCH  45  46
ENDBRANCH  44  45
ENDBRANCH  43  44
ENDBRANCH   1  43
TORSDOF 12
ENDMDL
MODEL 3
REMARK VINA RESULT:    -3.615      3.065      8.009
REMARK INTER + INTRA:         -10.699
REMARK INTER:                  -8.011
REMARK INTRA:                  -2.688
REMARK UNBOUND:                -3.070
REMARK SMILES CCC(=O)CCCCC[C@H]1NC(=O)[C@H]2CCCCN2C(=O)[C@H]([C@H](C)CC)NC(=O)[C@H](Cc2cn(OC)c3ccccc23)NC1=O
REMARK SMILES IDX 9 1 10 2 44 3 43 4 45 6 30 7 28 8 27 9 29 11 22 12 23 14
REMARK SMILES IDX 24 15 25 16 26 17 31 18 32 19 33 20 42 21 34 22 37 23 41 24
REMARK SMILES IDX 38 25 40 26 39 27 35 28 36 29 11 30 12 31 13 33 14 34 19 35
REMARK SMILES IDX 15 36 18 37 16 38 17 39 20 40 21 41 8 43 7 44 6 45 5 46 3 47
REMARK SMILES IDX 4 48 2 49 1 50
REMARK H PARENT 43 5 27 10 11 32
REMARK Flexibility Score: 80.00
ROOT
ATOM      1  C   UNL     1      56.699  23.441  54.385  1.00  0.00     0.035 C 
ENDROOT
BRANCH   1   2
ATOM      2  C   UNL     1      56.353  24.850  53.840  1.00  0.00     0.171 C 
BRANCH   2   3
ATOM      3  C   UNL     1      57.450  25.484  53.007  1.00  0.00     0.243 C 
ATOM      4  N   UNL     1      57.607  26.910  53.004  1.00  0.00    -0.342 N 
ATOM      5  H   UNL     1      56.880  27.479  53.493  1.00  0.00     0.164 HD
ATOM      6  O   UNL     1      58.178  24.773  52.259  1.00  0.00    -0.273 OA
BRANCH   4   7
ATOM      7  C   UNL     1      58.582  27.587  52.140  1.00  0.00     0.175 C 
BRANCH   7   8
ATOM      8  C   UNL     1      59.042  28.904  52.729  1.00  0.00     0.243 C 
ATOM      9  N   UNL     1      58.246  29.643  53.663  1.00  0.00    -0.342 N 
ATOM     10  H   UNL     1      58.186  30.674  53.516  1.00  0.00     0.164 HD
ATOM     11  O   UNL     1      60.156  29.379  52.374  1.00  0.00    -0.273 OA
BRANCH   9  12
ATOM     12  C   UNL     1      57.891  29.104  54.983  1.00  0.00     0.174 CG0
ATOM     13  G   UNL     1      56.422  29.320  55.272  1.00  0.00     0.000 G0
BRANCH  12  14
ATOM     14  C   UNL     1      58.790  29.720  56.096  1.00  0.00     0.018 C 
ATOM     15  C   UNL     1      59.596  30.937  55.593  1.00  0.00     0.010 C 
BRANCH  14  16
ATOM     16  C   UNL     1      59.729  28.650  56.702  1.00  0.00     0.002 C 
ATOM     17  C   UNL     1      59.391  27.236  56.226  1.00  0.00     0.004 C 
ENDBRANCH  14  16
ENDBRANCH  12  14
ENDBRANCH   9  12
ENDBRANCH   7   8
BRANCH   7  18
ATOM     18  C   UNL     1      57.986  27.769  50.727  1.00  0.00     0.073 C 
BRANCH  18  19
ATOM     19  C   UNL     1      56.520  28.126  50.751  1.00  0.00    -0.016 A 
ATOM     20  C   UNL     1      55.980  29.370  51.051  1.00  0.00     0.134 A 
ATOM     21  C   UNL     1      55.445  27.332  50.391  1.00  0.00     0.006 A 
ATOM     22  N   UNL     1      54.638  29.362  50.883  1.00  0.00    -0.191 N 
ATOM     23  C   UNL     1      54.306  28.109  50.473  1.00  0.00     0.087 A 
ATOM     24  C   UNL     1      55.402  25.993  50.000  1.00  0.00     0.011 A 
ATOM     25  C   UNL     1      53.053  27.572  50.139  1.00  0.00     0.030 A 
ATOM     26  C   UNL     1      54.157  25.441  49.667  1.00  0.00     0.001 A 
ATOM     27  C   UNL     1      52.991  26.227  49.734  1.00  0.00     0.002 A 
BRANCH  22  28
ATOM     28  O   UNL     1      53.859  30.487  51.114  1.00  0.00    -0.417 OA
ATOM     29  C   UNL     1      53.127  30.743  52.307  1.00  0.00     0.313 C 
ENDBRANCH  22  28
ENDBRANCH  18  19
ENDBRANCH   7  18
ENDBRANCH   4   7
ENDBRANCH   2   3
BRANCH   2  30
ATOM     30  N   UNL     1      55.998  25.735  54.959  1.00  0.00    -0.343 N 
ATOM     31  C   UNL     1      55.032  26.793  54.860  1.00  0.00     0.243 C 
ATOM     32  H   UNL     1      56.446  25.545  55.885  1.00  0.00     0.164 HD
ATOM     33  O   UNL     1      54.437  27.011  53.769  1.00  0.00    -0.273 OA
BRANCH  31  34
ATOM     34  C   UNL     1      54.696  27.627  56.072  1.00  0.00     0.174 C 
ATOM     35  N   UNL     1      55.767  28.600  56.381  1.00  0.00    -0.329 N 
ATOM     36  C   UNL     1      54.425  26.702  57.279  1.00  0.00     0.035 C 
ATOM     37  C   UNL     1      55.700  29.321  57.659  1.00  0.00     0.120 C 
ATOM     38  C   UNL     1      54.244  27.500  58.570  1.00  0.00     0.004 C 
ATOM     39  C   UNL     1      55.480  28.356  58.823  1.00  0.00     0.022 C 
BRANCH  35  40
ATOM     40  C   UNL     1      56.397  29.305  55.298  1.00  0.00     0.246 CG0
ATOM     41  O   UNL     1      55.712  30.107  54.606  1.00  0.00    -0.272 OA
ATOM     42  G   UNL     1      57.865  29.091  55.001  1.00  0.00     0.000 G0
ENDBRANCH  35  40
ENDBRANCH  31  34
ENDBRANCH   2  30
ENDBRANCH   1   2
BRANCH   1  43
ATOM     43  C   UNL     1      55.480  22.555  54.710  1.00  0.00     0.003 C 
BRANCH  43  44
ATOM     44  C   UNL     1      55.809  21.054  54.733  1.00  0.00     0.001 C 
BRANCH  44  45
ATOM     45  C   UNL     1      55.070  20.325  53.605  1.00  0.00     0.008 C 
BRANCH  45  46
ATOM     46  C   UNL     1      55.925  19.207  52.996  1.00  0.00     0.075 C 
BRANCH  46  47
ATOM     47  C   UNL     1      57.366  19.382  53.394  1.00  0.00     0.132 C 
ATOM     48  O   UNL     1      57.831  18.689  54.288  1.00  0.00    -0.300 OA
BRANCH  47  49
ATOM     49  C   UNL     1      58.265  20.338  52.654  1.00  0.00     0.072 C 
ATOM     50  C   UNL     1      59.617  20.460  53.343  1.00  0.00     0.012 C 
ENDBRANCH  47  49
ENDBRANCH  46  47
ENDBRANCH  45  46
ENDBRANCH  44  45
ENDBRANCH  43  44
ENDBRANCH   1  43
TORSDOF 12
ENDMDL
MODEL 4
REMARK VINA RESULT:    -3.528      3.787      7.061
REMARK INTER + INTRA:         -10.516
REMARK INTER:                  -7.625
REMARK INTRA:                  -2.890
REMARK UNBOUND:                -3.070
REMARK SMILES CCC(=O)CCCCC[C@H]1NC(=O)[C@H]2CCCCN2C(=O)[C@H]([C@H](C)CC)NC(=O)[C@H](Cc2cn(OC)c3ccccc23)NC1=O
REMARK SMILES IDX 9 1 10 2 44 3 43 4 45 6 30 7 28 8 27 9 29 11 22 12 23 14
REMARK SMILES IDX 24 15 25 16 26 17 31 18 32 19 33 20 42 21 34 22 37 23 41 24
REMARK SMILES IDX 38 25 40 26 39 27 35 28 36 29 11 30 12 31 13 33 14 34 19 35
REMARK SMILES IDX 15 36 18 37 16 38 17 39 20 40 21 41 8 43 7 44 6 45 5 46 3 47
REMARK SMILES IDX 4 48 2 49 1 50
REMARK H PARENT 43 5 27 10 11 32
REMARK Flexibility Score: 80.00
ROOT
ATOM      1  C   UNL     1      56.970  31.862  52.852  1.00  0.00     0.035 C 
ENDROOT
BRANCH   1   2
ATOM      2  C   UNL     1      58.143  31.376  53.741  1.00  0.00     0.171 C 
BRANCH   2   3
ATOM      3  C   UNL     1      58.964  32.493  54.356  1.00  0.00     0.243 C 
ATOM      4  N   UNL     1      60.330  32.254  54.721  1.00  0.00    -0.342 N 
ATOM      5  H   UNL     1      60.685  31.273  54.655  1.00  0.00     0.164 HD
ATOM      6  O   UNL     1      58.433  33.608  54.618  1.00  0.00    -0.273 OA
BRANCH   4   7
ATOM      7  C   UNL     1      61.142  33.263  55.413  1.00  0.00     0.175 C 
BRANCH   7   8
ATOM      8  C   UNL     1      62.625  32.982  55.283  1.00  0.00     0.243 C 
ATOM      9  N   UNL     1      63.127  31.724  54.818  1.00  0.00    -0.342 N 
ATOM     10  H   UNL     1      63.936  31.320  55.338  1.00  0.00     0.164 HD
ATOM     11  O   UNL     1      63.449  33.880  55.610  1.00  0.00    -0.273 OA
BRANCH   9  12
ATOM     12  C   UNL     1      62.849  31.225  53.464  1.00  0.00     0.174 CG0
ATOM     13  G   UNL     1      62.606  29.732  53.484  1.00  0.00     0.000 G0
BRANCH  12  14
ATOM     14  C   UNL     1      63.999  31.605  52.484  1.00  0.00     0.018 C 
ATOM     15  C   UNL     1      65.247  32.134  53.221  1.00  0.00     0.010 C 
BRANCH  14  16
ATOM     16  C   UNL     1      63.508  32.624  51.428  1.00  0.00     0.002 C 
ATOM     17  C   UNL     1      63.268  31.981  50.060  1.00  0.00     0.004 C 
ENDBRANCH  14  16
ENDBRANCH  12  14
ENDBRANCH   9  12
ENDBRANCH   7   8
BRANCH   7  18
ATOM     18  C   UNL     1      60.706  33.355  56.892  1.00  0.00     0.073 C 
BRANCH  18  19
ATOM     19  C   UNL     1      61.190  32.191  57.721  1.00  0.00    -0.016 A 
ATOM     20  C   UNL     1      60.692  30.896  57.691  1.00  0.00     0.134 A 
ATOM     21  C   UNL     1      62.268  32.154  58.587  1.00  0.00     0.006 A 
ATOM     22  N   UNL     1      61.422  30.084  58.490  1.00  0.00    -0.191 N 
ATOM     23  C   UNL     1      62.395  30.856  59.041  1.00  0.00     0.087 A 
ATOM     24  C   UNL     1      63.134  33.171  58.996  1.00  0.00     0.011 A 
ATOM     25  C   UNL     1      63.430  30.509  59.925  1.00  0.00     0.030 A 
ATOM     26  C   UNL     1      64.169  32.840  59.882  1.00  0.00     0.001 A 
ATOM     27  C   UNL     1      64.316  31.517  60.341  1.00  0.00     0.002 A 
BRANCH  22  28
ATOM     28  O   UNL     1      61.131  28.735  58.634  1.00  0.00    -0.417 OA
ATOM     29  C   UNL     1      60.200  28.193  59.563  1.00  0.00     0.313 C 
ENDBRANCH  22  28
ENDBRANCH  18  19
ENDBRANCH   7  18
ENDBRANCH   4   7
ENDBRANCH   2   3
BRANCH   2  30
ATOM     30  N   UNL     1      59.014  30.485  52.960  1.00  0.00    -0.343 N 
ATOM     31  C   UNL     1      59.730  29.377  53.527  1.00  0.00     0.243 C 
ATOM     32  H   UNL     1      59.072  30.650  51.929  1.00  0.00     0.164 HD
ATOM     33  O   UNL     1      59.635  29.122  54.759  1.00  0.00    -0.273 OA
BRANCH  31  34
ATOM     34  C   UNL     1      60.568  28.486  52.644  1.00  0.00     0.174 C 
ATOM     35  N   UNL     1      61.904  29.070  52.389  1.00  0.00    -0.329 N 
ATOM     36  C   UNL     1      59.820  28.217  51.319  1.00  0.00     0.035 C 
ATOM     37  C   UNL     1      62.749  28.442  51.365  1.00  0.00     0.120 C 
ATOM     38  C   UNL     1      60.697  27.458  50.322  1.00  0.00     0.004 C 
ATOM     39  C   UNL     1      61.977  28.244  50.061  1.00  0.00     0.022 C 
BRANCH  35  40
ATOM     40  C   UNL     1      62.603  29.702  53.474  1.00  0.00     0.246 CG0
ATOM     41  O   UNL     1      63.030  28.994  54.427  1.00  0.00    -0.272 OA
ATOM     42  G   UNL     1      62.828  31.199  53.466  1.00  0.00     0.000 G0
ENDBRANCH  35  40
ENDBRANCH  31  34
ENDBRANCH   2  30
ENDBRANCH   1   2
BRANCH   1  43
ATOM     43  C   UNL     1      56.247  30.749  52.067  1.00  0.00     0.003 C 
BRANCH  43  44
ATOM     44  C   UNL     1      54.901  30.346  52.687  1.00  0.00     0.001 C 
BRANCH  44  45
ATOM     45  C   UNL     1      54.062  29.549  51.680  1.00  0.00     0.008 C 
BRANCH  45  46
ATOM     46  C   UNL     1      54.944  28.766  50.701  1.00  0.00     0.075 C 
BRANCH  46  47
ATOM     47  C   UNL     1      55.076  27.336  51.152  1.00  0.00     0.132 C 
ATOM     48  O   UNL     1      54.093  26.609  51.141  1.00  0.00    -0.300 OA
BRANCH  47  49
ATOM     49  C   UNL     1      56.415  26.764  51.539  1.00  0.00     0.072 C 
ATOM     50  C   UNL     1      56.748  27.088  52.988  1.00  0.00     0.012 C 
ENDBRANCH  47  49
ENDBRANCH  46  47
ENDBRANCH  45  46
ENDBRANCH  44  45
ENDBRANCH  43  44
ENDBRANCH   1  43
TORSDOF 12
ENDMDL
MODEL 5
REMARK VINA RESULT:    -3.455      3.215      8.249
REMARK INTER + INTRA:         -10.361
REMARK INTER:                  -7.955
REMARK INTRA:                  -2.407
REMARK UNBOUND:                -3.070
REMARK SMILES CCC(=O)CCCCC[C@H]1NC(=O)[C@H]2CCCCN2C(=O)[C@H]([C@H](C)CC)NC(=O)[C@H](Cc2cn(OC)c3ccccc23)NC1=O
REMARK SMILES IDX 9 1 10 2 44 3 43 4 45 6 30 7 28 8 27 9 29 11 22 12 23 14
REMARK SMILES IDX 24 15 25 16 26 17 31 18 32 19 33 20 42 21 34 22 37 23 41 24
REMARK SMILES IDX 38 25 40 26 39 27 35 28 36 29 11 30 12 31 13 33 14 34 19 35
REMARK SMILES IDX 15 36 18 37 16 38 17 39 20 40 21 41 8 43 7 44 6 45 5 46 3 47
REMARK SMILES IDX 4 48 2 49 1 50
REMARK H PARENT 43 5 27 10 11 32
REMARK Flexibility Score: 80.00
ROOT
ATOM      1  C   UNL     1      59.551  23.971  53.818  1.00  0.00     0.035 C 
ENDROOT
BRANCH   1   2
ATOM      2  C   UNL     1      58.903  25.347  53.518  1.00  0.00     0.171 C 
BRANCH   2   3
ATOM      3  C   UNL     1      59.662  26.187  52.509  1.00  0.00     0.243 C 
ATOM      4  N   UNL     1      59.542  27.616  52.539  1.00  0.00    -0.342 N 
ATOM      5  H   UNL     1      58.838  28.030  53.191  1.00  0.00     0.164 HD
ATOM      6  O   UNL     1      60.339  25.635  51.597  1.00  0.00    -0.273 OA
BRANCH   4   7
ATOM      7  C   UNL     1      60.169  28.474  51.526  1.00  0.00     0.175 C 
BRANCH   7   8
ATOM      8  C   UNL     1      60.549  29.828  52.089  1.00  0.00     0.243 C 
ATOM      9  N   UNL     1      59.945  30.360  53.273  1.00  0.00    -0.342 N 
ATOM     10  H   UNL     1      59.671  31.367  53.249  1.00  0.00     0.164 HD
ATOM     11  O   UNL     1      61.414  30.521  51.486  1.00  0.00    -0.273 OA
BRANCH   9  12
ATOM     12  C   UNL     1      60.085  29.707  54.582  1.00  0.00     0.174 CG0
ATOM     13  G   UNL     1      58.775  29.739  55.339  1.00  0.00     0.000 G0
BRANCH  12  14
ATOM     14  C   UNL     1      61.238  30.353  55.406  1.00  0.00     0.018 C 
ATOM     15  C   UNL     1      61.479  31.828  55.021  1.00  0.00     0.010 C 
BRANCH  14  16
ATOM     16  C   UNL     1      62.540  29.528  55.273  1.00  0.00     0.002 C 
ATOM     17  C   UNL     1      63.796  30.377  55.482  1.00  0.00     0.004 C 
ENDBRANCH  14  16
ENDBRANCH  12  14
ENDBRANCH   9  12
ENDBRANCH   7   8
BRANCH   7  18
ATOM     18  C   UNL     1      59.234  28.605  50.305  1.00  0.00     0.073 C 
BRANCH  18  19
ATOM     19  C   UNL     1      57.791  28.822  50.690  1.00  0.00    -0.016 A 
ATOM     20  C   UNL     1      57.208  30.029  51.052  1.00  0.00     0.134 A 
ATOM     21  C   UNL     1      56.757  27.902  50.669  1.00  0.00     0.006 A 
ATOM     22  N   UNL     1      55.877  29.880  51.240  1.00  0.00    -0.191 N 
ATOM     23  C   UNL     1      55.596  28.571  51.002  1.00  0.00     0.087 A 
ATOM     24  C   UNL     1      56.769  26.537  50.379  1.00  0.00     0.011 A 
ATOM     25  C   UNL     1      54.368  27.891  51.038  1.00  0.00     0.030 A 
ATOM     26  C   UNL     1      55.551  25.843  50.414  1.00  0.00     0.001 A 
ATOM     27  C   UNL     1      54.359  26.518  50.740  1.00  0.00     0.002 A 
BRANCH  22  28
ATOM     28  O   UNL     1      55.060  30.940  51.605  1.00  0.00    -0.417 OA
ATOM     29  C   UNL     1      55.501  32.126  52.256  1.00  0.00     0.313 C 
ENDBRANCH  22  28
ENDBRANCH  18  19
ENDBRANCH   7  18
ENDBRANCH   4   7
ENDBRANCH   2   3
BRANCH   2  30
ATOM     30  N   UNL     1      58.739  26.095  54.772  1.00  0.00    -0.343 N 
ATOM     31  C   UNL     1      57.693  27.054  54.994  1.00  0.00     0.243 C 
ATOM     32  H   UNL     1      59.399  25.878  55.554  1.00  0.00     0.164 HD
ATOM     33  O   UNL     1      56.851  27.298  54.087  1.00  0.00    -0.273 OA
BRANCH  31  34
ATOM     34  C   UNL     1      57.572  27.747  56.329  1.00  0.00     0.174 C 
ATOM     35  N   UNL     1      58.539  28.860  56.458  1.00  0.00    -0.329 N 
ATOM     36  C   UNL     1      57.760  26.718  57.466  1.00  0.00     0.035 C 
ATOM     37  C   UNL     1      58.708  29.481  57.778  1.00  0.00     0.120 C 
ATOM     38  C   UNL     1      57.812  27.397  58.836  1.00  0.00     0.004 C 
ATOM     39  C   UNL     1      58.939  28.424  58.857  1.00  0.00     0.022 C 
BRANCH  35  40
ATOM     40  C   UNL     1      58.758  29.722  55.328  1.00  0.00     0.246 CG0
ATOM     41  O   UNL     1      57.843  30.516  54.975  1.00  0.00    -0.272 OA
ATOM     42  G   UNL     1      60.073  29.681  54.581  1.00  0.00     0.000 G0
ENDBRANCH  35  40
ENDBRANCH  31  34
ENDBRANCH   2  30
ENDBRANCH   1   2
BRANCH   1  43
ATOM     43  C   UNL     1      58.905  22.777  53.087  1.00  0.00     0.003 C 
BRANCH  43  44
ATOM     44  C   UNL     1      59.902  21.973  52.240  1.00  0.00     0.001 C 
BRANCH  44  45
ATOM     45  C   UNL     1      59.751  20.471  52.513  1.00  0.00     0.008 C 
BRANCH  45  46
ATOM     46  C   UNL     1      58.278  20.054  52.590  1.00  0.00     0.075 C 
BRANCH  46  47
ATOM     47  C   UNL     1      58.155  18.559  52.456  1.00  0.00     0.132 C 
ATOM     48  O   UNL     1      58.522  17.842  53.376  1.00  0.00    -0.300 OA
BRANCH  47  49
ATOM     49  C   UNL     1      57.512  17.938  51.243  1.00  0.00     0.072 C 
ATOM     50  C   UNL     1      58.565  17.416  50.276  1.00  0.00     0.012 C 
ENDBRANCH  47  49
ENDBRANCH  46  47
ENDBRANCH  45  46
ENDBRANCH  44  45
ENDBRANCH  43  44
ENDBRANCH   1  43
TORSDOF 12
ENDMDL
MODEL 6
REMARK VINA RESULT:    -3.395      2.623      6.239
REMARK INTER + INTRA:         -10.235
REMARK INTER:                  -7.154
REMARK INTRA:                  -3.080
REMARK UNBOUND:                -3.070
REMARK SMILES CCC(=O)CCCCC[C@H]1NC(=O)[C@H]2CCCCN2C(=O)[C@H]([C@H](C)CC)NC(=O)[C@H](Cc2cn(OC)c3ccccc23)NC1=O
REMARK SMILES IDX 9 1 10 2 44 3 43 4 45 6 30 7 28 8 27 9 29 11 22 12 23 14
REMARK SMILES IDX 24 15 25 16 26 17 31 18 32 19 33 20 42 21 34 22 37 23 41 24
REMARK SMILES IDX 38 25 40 26 39 27 35 28 36 29 11 30 12 31 13 33 14 34 19 35
REMARK SMILES IDX 15 36 18 37 16 38 17 39 20 40 21 41 8 43 7 44 6 45 5 46 3 47
REMARK SMILES IDX 4 48 2 49 1 50
REMARK H PARENT 43 5 27 10 11 32
REMARK Flexibility Score: 80.00
ROOT
ATOM      1  C   UNL     1      59.079  25.252  55.688  1.00  0.00     0.035 C 
ENDROOT
BRANCH   1   2
ATOM      2  C   UNL     1      58.757  26.762  55.553  1.00  0.00     0.171 C 
BRANCH   2   3
ATOM      3  C   UNL     1      57.324  27.126  55.892  1.00  0.00     0.243 C 
ATOM      4  N   UNL     1      56.686  28.213  55.207  1.00  0.00    -0.342 N 
ATOM      5  H   UNL     1      57.274  28.798  54.571  1.00  0.00     0.164 HD
ATOM      6  O   UNL     1      56.715  26.529  56.823  1.00  0.00    -0.273 OA
BRANCH   4   7
ATOM      7  C   UNL     1      55.339  28.678  55.564  1.00  0.00     0.175 C 
BRANCH   7   8
ATOM      8  C   UNL     1      54.678  29.424  54.423  1.00  0.00     0.243 C 
ATOM      9  N   UNL     1      55.432  30.030  53.367  1.00  0.00    -0.342 N 
ATOM     10  H   UNL     1      55.140  30.986  53.071  1.00  0.00     0.164 HD
ATOM     11  O   UNL     1      53.421  29.532  54.409  1.00  0.00    -0.273 OA
BRANCH   9  12
ATOM     12  C   UNL     1      56.266  29.239  52.451  1.00  0.00     0.174 CG0
ATOM     13  G   UNL     1      57.600  29.915  52.224  1.00  0.00     0.000 G0
BRANCH  12  14
ATOM     14  C   UNL     1      55.521  28.977  51.108  1.00  0.00     0.018 C 
ATOM     15  C   UNL     1      54.464  30.059  50.802  1.00  0.00     0.010 C 
BRANCH  14  16
ATOM     16  C   UNL     1      54.886  27.566  51.097  1.00  0.00     0.002 C 
ATOM     17  C   UNL     1      55.915  26.461  50.846  1.00  0.00     0.004 C 
ENDBRANCH  14  16
ENDBRANCH  12  14
ENDBRANCH   9  12
ENDBRANCH   7   8
BRANCH   7  18
ATOM     18  C   UNL     1      55.408  29.537  56.845  1.00  0.00     0.073 C 
BRANCH  18  19
ATOM     19  C   UNL     1      56.525  30.551  56.813  1.00  0.00    -0.016 A 
ATOM     20  C   UNL     1      56.480  31.807  56.222  1.00  0.00     0.134 A 
ATOM     21  C   UNL     1      57.759  30.477  57.434  1.00  0.00     0.006 A 
ATOM     22  N   UNL     1      57.622  32.491  56.465  1.00  0.00    -0.191 N 
ATOM     23  C   UNL     1      58.410  31.675  57.214  1.00  0.00     0.087 A 
ATOM     24  C   UNL     1      58.339  29.443  58.171  1.00  0.00     0.011 A 
ATOM     25  C   UNL     1      59.688  31.900  57.753  1.00  0.00     0.030 A 
ATOM     26  C   UNL     1      59.616  29.652  58.712  1.00  0.00     0.001 A 
ATOM     27  C   UNL     1      60.284  30.874  58.505  1.00  0.00     0.002 A 
BRANCH  22  28
ATOM     28  O   UNL     1      57.828  33.777  55.986  1.00  0.00    -0.417 OA
ATOM     29  C   UNL     1      57.628  34.190  54.640  1.00  0.00     0.313 C 
ENDBRANCH  22  28
ENDBRANCH  18  19
ENDBRANCH   7  18
ENDBRANCH   4   7
ENDBRANCH   2   3
BRANCH   2  30
ATOM     30  N   UNL     1      59.082  27.214  54.193  1.00  0.00    -0.343 N 
ATOM     31  C   UNL     1      59.560  28.532  53.886  1.00  0.00     0.243 C 
ATOM     32  H   UNL     1      58.997  26.514  53.419  1.00  0.00     0.164 HD
ATOM     33  O   UNL     1      59.722  29.380  54.806  1.00  0.00    -0.273 OA
BRANCH  31  34
ATOM     34  C   UNL     1      59.911  28.899  52.465  1.00  0.00     0.174 C 
ATOM     35  N   UNL     1      58.701  29.158  51.652  1.00  0.00    -0.329 N 
ATOM     36  C   UNL     1      60.768  27.778  51.837  1.00  0.00     0.035 C 
ATOM     37  C   UNL     1      58.861  29.297  50.199  1.00  0.00     0.120 C 
ATOM     38  C   UNL     1      61.010  28.022  50.347  1.00  0.00     0.004 C 
ATOM     39  C   UNL     1      59.674  28.139  49.622  1.00  0.00     0.022 C 
BRANCH  35  40
ATOM     40  C   UNL     1      57.620  29.903  52.237  1.00  0.00     0.246 CG0
ATOM     41  O   UNL     1      57.806  31.110  52.553  1.00  0.00    -0.272 OA
ATOM     42  G   UNL     1      56.275  29.247  52.461  1.00  0.00     0.000 G0
ENDBRANCH  35  40
ENDBRANCH  31  34
ENDBRANCH   2  30
ENDBRANCH   1   2
BRANCH   1  43
ATOM     43  C   UNL     1      60.053  24.897  56.830  1.00  0.00     0.003 C 
BRANCH  43  44
ATOM     44  C   UNL     1      59.501  23.831  57.788  1.00  0.00     0.001 C 
BRANCH  44  45
ATOM     45  C   UNL     1      58.928  24.487  59.051  1.00  0.00     0.008 C 
BRANCH  45  46
ATOM     46  C   UNL     1      59.553  25.863  59.307  1.00  0.00     0.075 C 
BRANCH  46  47
ATOM     47  C   UNL     1      59.169  26.359  60.676  1.00  0.00     0.132 C 
ATOM     48  O   UNL     1      58.142  27.009  60.814  1.00  0.00    -0.300 OA
BRANCH  47  49
ATOM     49  C   UNL     1      59.986  25.999  61.889  1.00  0.00     0.072 C 
ATOM     50  C   UNL     1      61.463  26.286  61.657  1.00  0.00     0.012 C 
ENDBRANCH  47  49
ENDBRANCH  46  47
ENDBRANCH  45  46
ENDBRANCH  44  45
ENDBRANCH  43  44
ENDBRANCH   1  43
TORSDOF 12
ENDMDL
MODEL 7
REMARK VINA RESULT:    -3.393      4.830      9.895
REMARK INTER + INTRA:         -10.232
REMARK INTER:                  -7.885
REMARK INTRA:                  -2.347
REMARK UNBOUND:                -3.070
REMARK SMILES CCC(=O)CCCCC[C@H]1NC(=O)[C@H]2CCCCN2C(=O)[C@H]([C@H](C)CC)NC(=O)[C@H](Cc2cn(OC)c3ccccc23)NC1=O
REMARK SMILES IDX 9 1 10 2 44 3 43 4 45 6 30 7 28 8 27 9 29 11 22 12 23 14
REMARK SMILES IDX 24 15 25 16 26 17 31 18 32 19 33 20 42 21 34 22 37 23 41 24
REMARK SMILES IDX 38 25 40 26 39 27 35 28 36 29 11 30 12 31 13 33 14 34 19 35
REMARK SMILES IDX 15 36 18 37 16 38 17 39 20 40 21 41 8 43 7 44 6 45 5 46 3 47
REMARK SMILES IDX 4 48 2 49 1 50
REMARK H PARENT 43 5 27 10 11 32
REMARK Flexibility Score: 80.00
ROOT
ATOM      1  C   UNL     1      61.218  32.535  53.740  1.00  0.00     0.035 C 
ENDROOT
BRANCH   1   2
ATOM      2  C   UNL     1      61.387  31.884  52.344  1.00  0.00     0.171 C 
BRANCH   2   3
ATOM      3  C   UNL     1      60.670  30.557  52.185  1.00  0.00     0.243 C 
ATOM      4  N   UNL     1      61.080  29.646  51.155  1.00  0.00    -0.342 N 
ATOM      5  H   UNL     1      61.793  29.980  50.468  1.00  0.00     0.164 HD
ATOM      6  O   UNL     1      59.669  30.280  52.902  1.00  0.00    -0.273 OA
BRANCH   4   7
ATOM      7  C   UNL     1      60.360  28.395  50.887  1.00  0.00     0.175 C 
BRANCH   7   8
ATOM      8  C   UNL     1      61.284  27.309  50.377  1.00  0.00     0.243 C 
ATOM      9  N   UNL     1      62.584  27.596  49.851  1.00  0.00    -0.342 N 
ATOM     10  H   UNL     1      62.860  27.093  48.979  1.00  0.00     0.164 HD
ATOM     11  O   UNL     1      60.891  26.110  50.400  1.00  0.00    -0.273 OA
BRANCH   9  12
ATOM     12  C   UNL     1      63.643  28.199  50.673  1.00  0.00     0.174 CG0
ATOM     13  G   UNL     1      64.476  29.159  49.851  1.00  0.00     0.000 G0
BRANCH  12  14
ATOM     14  C   UNL     1      64.524  27.101  51.338  1.00  0.00     0.018 C 
ATOM     15  C   UNL     1      64.367  25.727  50.653  1.00  0.00     0.010 C 
BRANCH  14  16
ATOM     16  C   UNL     1      64.227  26.999  52.853  1.00  0.00     0.002 C 
ATOM     17  C   UNL     1      63.535  28.249  53.401  1.00  0.00     0.004 C 
ENDBRANCH  14  16
ENDBRANCH  12  14
ENDBRANCH   9  12
ENDBRANCH   7   8
BRANCH   7  18
ATOM     18  C   UNL     1      59.199  28.665  49.905  1.00  0.00     0.073 C 
BRANCH  18  19
ATOM     19  C   UNL     1      57.869  28.167  50.417  1.00  0.00    -0.016 A 
ATOM     20  C   UNL     1      57.504  26.841  50.605  1.00  0.00     0.134 A 
ATOM     21  C   UNL     1      56.804  28.916  50.884  1.00  0.00     0.006 A 
ATOM     22  N   UNL     1      56.277  26.758  51.169  1.00  0.00    -0.191 N 
ATOM     23  C   UNL     1      55.844  28.035  51.344  1.00  0.00     0.087 A 
ATOM     24  C   UNL     1      56.624  30.300  50.933  1.00  0.00     0.011 A 
ATOM     25  C   UNL     1      54.649  28.514  51.905  1.00  0.00     0.030 A 
ATOM     26  C   UNL     1      55.434  30.793  51.486  1.00  0.00     0.001 A 
ATOM     27  C   UNL     1      54.454  29.904  51.971  1.00  0.00     0.002 A 
BRANCH  22  28
ATOM     28  O   UNL     1      55.681  25.541  51.465  1.00  0.00    -0.417 OA
ATOM     29  C   UNL     1      55.210  25.152  52.750  1.00  0.00     0.313 C 
ENDBRANCH  22  28
ENDBRANCH  18  19
ENDBRANCH   7  18
ENDBRANCH   4   7
ENDBRANCH   2   3
BRANCH   2  30
ATOM     30  N   UNL     1      62.817  31.721  52.049  1.00  0.00    -0.343 N 
ATOM     31  C   UNL     1      63.359  31.719  50.718  1.00  0.00     0.243 C 
ATOM     32  H   UNL     1      63.472  31.646  52.861  1.00  0.00     0.164 HD
ATOM     33  O   UNL     1      62.598  31.861  49.722  1.00  0.00    -0.273 OA
BRANCH  31  34
ATOM     34  C   UNL     1      64.847  31.589  50.508  1.00  0.00     0.174 C 
ATOM     35  N   UNL     1      65.281  30.174  50.530  1.00  0.00    -0.329 N 
ATOM     36  C   UNL     1      65.597  32.414  51.577  1.00  0.00     0.035 C 
ATOM     37  C   UNL     1      66.722  29.893  50.573  1.00  0.00     0.120 C 
ATOM     38  C   UNL     1      67.107  32.182  51.510  1.00  0.00     0.004 C 
ATOM     39  C   UNL     1      67.406  30.696  51.677  1.00  0.00     0.022 C 
BRANCH  35  40
ATOM     40  C   UNL     1      64.471  29.190  49.865  1.00  0.00     0.246 CG0
ATOM     41  O   UNL     1      64.471  29.144  48.604  1.00  0.00    -0.272 OA
ATOM     42  G   UNL     1      63.637  28.219  50.671  1.00  0.00     0.000 G0
ENDBRANCH  35  40
ENDBRANCH  31  34
ENDBRANCH   2  30
ENDBRANCH   1   2
BRANCH   1  43
ATOM     43  C   UNL     1      62.067  31.898  54.859  1.00  0.00     0.003 C 
BRANCH  43  44
ATOM     44  C   UNL     1      63.148  32.839  55.412  1.00  0.00     0.001 C 
BRANCH  44  45
ATOM     45  C   UNL     1      63.872  32.189  56.598  1.00  0.00     0.008 C 
BRANCH  45  46
ATOM     46  C   UNL     1      64.266  33.224  57.658  1.00  0.00     0.075 C 
BRANCH  46  47
ATOM     47  C   UNL     1      63.425  33.046  58.894  1.00  0.00     0.132 C 
ATOM     48  O   UNL     1      62.831  34.007  59.360  1.00  0.00    -0.300 OA
BRANCH  47  49
ATOM     49  C   UNL     1      63.240  31.687  59.517  1.00  0.00     0.072 C 
ATOM     50  C   UNL     1      64.523  31.214  60.186  1.00  0.00     0.012 C 
ENDBRANCH  47  49
ENDBRANCH  46  47
ENDBRANCH  45  46
ENDBRANCH  44  45
ENDBRANCH  43  44
ENDBRANCH   1  43
TORSDOF 12
ENDMDL
MODEL 8
REMARK VINA RESULT:    -3.338      4.035      7.159
REMARK INTER + INTRA:         -10.116
REMARK INTER:                  -8.221
REMARK INTRA:                  -1.895
REMARK UNBOUND:                -3.070
REMARK SMILES CCC(=O)CCCCC[C@H]1NC(=O)[C@H]2CCCCN2C(=O)[C@H]([C@H](C)CC)NC(=O)[C@H](Cc2cn(OC)c3ccccc23)NC1=O
REMARK SMILES IDX 9 1 10 2 44 3 43 4 45 6 30 7 28 8 27 9 29 11 22 12 23 14
REMARK SMILES IDX 24 15 25 16 26 17 31 18 32 19 33 20 42 21 34 22 37 23 41 24
REMARK SMILES IDX 38 25 40 26 39 27 35 28 36 29 11 30 12 31 13 33 14 34 19 35
REMARK SMILES IDX 15 36 18 37 16 38 17 39 20 40 21 41 8 43 7 44 6 45 5 46 3 47
REMARK SMILES IDX 4 48 2 49 1 50
REMARK H PARENT 43 5 27 10 11 32
REMARK Flexibility Score: 80.00
ROOT
ATOM      1  C   UNL     1      59.196  23.482  52.210  1.00  0.00     0.035 C 
ENDROOT
BRANCH   1   2
ATOM      2  C   UNL     1      59.472  24.954  51.812  1.00  0.00     0.171 C 
BRANCH   2   3
ATOM      3  C   UNL     1      59.728  25.879  52.987  1.00  0.00     0.243 C 
ATOM      4  N   UNL     1      59.707  27.300  52.790  1.00  0.00    -0.342 N 
ATOM      5  H   UNL     1      59.629  27.653  51.810  1.00  0.00     0.164 HD
ATOM      6  O   UNL     1      60.032  25.409  54.118  1.00  0.00    -0.273 OA
BRANCH   4   7
ATOM      7  C   UNL     1      60.049  28.242  53.864  1.00  0.00     0.175 C 
BRANCH   7   8
ATOM      8  C   UNL     1      59.216  29.505  53.795  1.00  0.00     0.243 C 
ATOM      9  N   UNL     1      58.191  29.692  52.812  1.00  0.00    -0.342 N 
ATOM     10  H   UNL     1      58.150  30.625  52.348  1.00  0.00     0.164 HD
ATOM     11  O   UNL     1      59.440  30.432  54.620  1.00  0.00    -0.273 OA
BRANCH   9  12
ATOM     12  C   UNL     1      57.004  28.828  52.749  1.00  0.00     0.174 CG0
ATOM     13  G   UNL     1      56.697  28.444  51.318  1.00  0.00     0.000 G0
BRANCH  12  14
ATOM     14  C   UNL     1      55.782  29.511  53.432  1.00  0.00     0.018 C 
ATOM     15  C   UNL     1      55.727  31.028  53.156  1.00  0.00     0.010 C 
BRANCH  14  16
ATOM     16  C   UNL     1      55.771  29.226  54.953  1.00  0.00     0.002 C 
ATOM     17  C   UNL     1      56.023  27.752  55.276  1.00  0.00     0.004 C 
ENDBRANCH  14  16
ENDBRANCH  12  14
ENDBRANCH   9  12
ENDBRANCH   7   8
BRANCH   7  18
ATOM     18  C   UNL     1      61.562  28.553  53.820  1.00  0.00     0.073 C 
BRANCH  18  19
ATOM     19  C   UNL     1      62.032  28.992  52.455  1.00  0.00    -0.016 A 
ATOM     20  C   UNL     1      61.957  30.276  51.933  1.00  0.00     0.134 A 
ATOM     21  C   UNL     1      62.706  28.244  51.507  1.00  0.00     0.006 A 
ATOM     22  N   UNL     1      62.558  30.336  50.723  1.00  0.00    -0.191 N 
ATOM     23  C   UNL     1      63.024  29.086  50.459  1.00  0.00     0.087 A 
ATOM     24  C   UNL     1      63.056  26.892  51.504  1.00  0.00     0.011 A 
ATOM     25  C   UNL     1      63.739  28.604  49.351  1.00  0.00     0.030 A 
ATOM     26  C   UNL     1      63.767  26.396  50.402  1.00  0.00     0.001 A 
ATOM     27  C   UNL     1      64.108  27.249  49.334  1.00  0.00     0.002 A 
BRANCH  22  28
ATOM     28  O   UNL     1      62.624  31.511  49.989  1.00  0.00    -0.417 OA
ATOM     29  C   UNL     1      63.737  32.397  49.962  1.00  0.00     0.313 C 
ENDBRANCH  22  28
ENDBRANCH  18  19
ENDBRANCH   7  18
ENDBRANCH   4   7
ENDBRANCH   2   3
BRANCH   2  30
ATOM     30  N   UNL     1      58.352  25.463  51.008  1.00  0.00    -0.343 N 
ATOM     31  C   UNL     1      57.009  25.585  51.502  1.00  0.00     0.243 C 
ATOM     32  H   UNL     1      58.565  25.793  50.038  1.00  0.00     0.164 HD
ATOM     33  O   UNL     1      56.733  25.244  52.684  1.00  0.00    -0.273 OA
BRANCH  31  34
ATOM     34  C   UNL     1      55.927  26.158  50.619  1.00  0.00     0.174 C 
ATOM     35  N   UNL     1      55.612  27.558  50.981  1.00  0.00    -0.329 N 
ATOM     36  C   UNL     1      54.667  25.269  50.700  1.00  0.00     0.035 C 
ATOM     37  C   UNL     1      54.427  28.179  50.375  1.00  0.00     0.120 C 
ATOM     38  C   UNL     1      53.487  25.897  49.955  1.00  0.00     0.004 C 
ATOM     39  C   UNL     1      53.199  27.282  50.524  1.00  0.00     0.022 C 
BRANCH  35  40
ATOM     40  C   UNL     1      56.691  28.452  51.300  1.00  0.00     0.246 CG0
ATOM     41  O   UNL     1      57.399  28.919  50.366  1.00  0.00    -0.272 OA
ATOM     42  G   UNL     1      56.966  28.831  52.739  1.00  0.00     0.000 G0
ENDBRANCH  35  40
ENDBRANCH  31  34
ENDBRANCH   2  30
ENDBRANCH   1   2
BRANCH   1  43
ATOM     43  C   UNL     1      60.449  22.587  52.290  1.00  0.00     0.003 C 
BRANCH  43  44
ATOM     44  C   UNL     1      60.169  21.202  52.893  1.00  0.00     0.001 C 
BRANCH  44  45
ATOM     45  C   UNL     1      58.680  20.853  52.769  1.00  0.00     0.008 C 
BRANCH  45  46
ATOM     46  C   UNL     1      58.213  19.946  53.913  1.00  0.00     0.075 C 
BRANCH  46  47
ATOM     47  C   UNL     1      58.078  18.527  53.427  1.00  0.00     0.132 C 
ATOM     48  O   UNL     1      58.164  18.291  52.230  1.00  0.00    -0.300 OA
BRANCH  47  49
ATOM     49  C   UNL     1      57.922  17.386  54.398  1.00  0.00     0.072 C 
ATOM     50  C   UNL     1      56.606  17.492  55.156  1.00  0.00     0.012 C 
ENDBRANCH  47  49
ENDBRANCH  46  47
ENDBRANCH  45  46
ENDBRANCH  44  45
ENDBRANCH  43  44
ENDBRANCH   1  43
TORSDOF 12
ENDMDL
MODEL 9
REMARK VINA RESULT:    -3.274      6.090     10.700
REMARK INTER + INTRA:          -9.980
REMARK INTER:                  -7.213
REMARK INTRA:                  -2.767
REMARK UNBOUND:                -3.070
REMARK SMILES CCC(=O)CCCCC[C@H]1NC(=O)[C@H]2CCCCN2C(=O)[C@H]([C@H](C)CC)NC(=O)[C@H](Cc2cn(OC)c3ccccc23)NC1=O
REMARK SMILES IDX 9 1 10 2 44 3 43 4 45 6 30 7 28 8 27 9 29 11 22 12 23 14
REMARK SMILES IDX 24 15 25 16 26 17 31 18 32 19 33 20 42 21 34 22 37 23 41 24
REMARK SMILES IDX 38 25 40 26 39 27 35 28 36 29 11 30 12 31 13 33 14 34 19 35
REMARK SMILES IDX 15 36 18 37 16 38 17 39 20 40 21 41 8 43 7 44 6 45 5 46 3 47
REMARK SMILES IDX 4 48 2 49 1 50
REMARK H PARENT 43 5 27 10 11 32
REMARK Flexibility Score: 80.00
ROOT
ATOM      1  C   UNL     1      63.469  30.552  55.677  1.00  0.00     0.035 C 
ENDROOT
BRANCH   1   2
ATOM      2  C   UNL     1      62.846  31.015  54.335  1.00  0.00     0.171 C 
BRANCH   2   3
ATOM      3  C   UNL     1      62.422  29.882  53.421  1.00  0.00     0.243 C 
ATOM      4  N   UNL     1      62.546  30.030  52.000  1.00  0.00    -0.342 N 
ATOM      5  H   UNL     1      62.822  30.968  51.632  1.00  0.00     0.164 HD
ATOM      6  O   UNL     1      61.890  28.840  53.897  1.00  0.00    -0.273 OA
BRANCH   4   7
ATOM      7  C   UNL     1      62.056  29.011  51.062  1.00  0.00     0.175 C 
BRANCH   7   8
ATOM      8  C   UNL     1      62.902  28.944  49.807  1.00  0.00     0.243 C 
ATOM      9  N   UNL     1      63.585  30.089  49.284  1.00  0.00    -0.342 N 
ATOM     10  H   UNL     1      63.537  30.234  48.252  1.00  0.00     0.164 HD
ATOM     11  O   UNL     1      62.996  27.848  49.190  1.00  0.00    -0.273 OA
BRANCH   9  12
ATOM     12  C   UNL     1      64.643  30.778  50.037  1.00  0.00     0.174 CG0
ATOM     13  G   UNL     1      64.402  32.271  50.053  1.00  0.00     0.000 G0
BRANCH  12  14
ATOM     14  C   UNL     1      66.049  30.431  49.463  1.00  0.00     0.018 C 
ATOM     15  C   UNL     1      65.966  29.689  48.113  1.00  0.00     0.010 C 
BRANCH  14  16
ATOM     16  C   UNL     1      66.877  29.620  50.489  1.00  0.00     0.002 C 
ATOM     17  C   UNL     1      66.006  28.714  51.362  1.00  0.00     0.004 C 
ENDBRANCH  14  16
ENDBRANCH  12  14
ENDBRANCH   9  12
ENDBRANCH   7   8
BRANCH   7  18
ATOM     18  C   UNL     1      60.570  29.276  50.737  1.00  0.00     0.073 C 
BRANCH  18  19
ATOM     19  C   UNL     1      59.742  28.015  50.706  1.00  0.00    -0.016 A 
ATOM     20  C   UNL     1      60.223  26.713  50.748  1.00  0.00     0.134 A 
ATOM     21  C   UNL     1      58.363  27.902  50.727  1.00  0.00     0.006 A 
ATOM     22  N   UNL     1      59.203  25.827  50.801  1.00  0.00    -0.191 N 
ATOM     23  C   UNL     1      58.056  26.557  50.791  1.00  0.00     0.087 A 
ATOM     24  C   UNL     1      57.376  28.888  50.696  1.00  0.00     0.011 A 
ATOM     25  C   UNL     1      56.717  26.135  50.850  1.00  0.00     0.030 A 
ATOM     26  C   UNL     1      56.035  28.482  50.750  1.00  0.00     0.001 A 
ATOM     27  C   UNL     1      55.709  27.114  50.829  1.00  0.00     0.002 A 
BRANCH  22  28
ATOM     28  O   UNL     1      59.416  24.457  50.855  1.00  0.00    -0.417 OA
ATOM     29  C   UNL     1      60.090  23.775  51.906  1.00  0.00     0.313 C 
ENDBRANCH  22  28
ENDBRANCH  18  19
ENDBRANCH   7  18
ENDBRANCH   4   7
ENDBRANCH   2   3
BRANCH   2  30
ATOM     30  N   UNL     1      63.791  31.898  53.635  1.00  0.00    -0.343 N 
ATOM     31  C   UNL     1      63.387  32.920  52.710  1.00  0.00     0.243 C 
ATOM     32  H   UNL     1      64.806  31.796  53.864  1.00  0.00     0.164 HD
ATOM     33  O   UNL     1      62.165  33.100  52.455  1.00  0.00    -0.273 OA
BRANCH  31  34
ATOM     34  C   UNL     1      64.422  33.810  52.068  1.00  0.00     0.174 C 
ATOM     35  N   UNL     1      65.143  33.115  50.978  1.00  0.00    -0.329 N 
ATOM     36  C   UNL     1      65.406  34.321  53.144  1.00  0.00     0.035 C 
ATOM     37  C   UNL     1      66.333  33.762  50.413  1.00  0.00     0.120 C 
ATOM     38  C   UNL     1      66.571  35.092  52.520  1.00  0.00     0.004 C 
ATOM     39  C   UNL     1      67.295  34.204  51.514  1.00  0.00     0.022 C 
BRANCH  35  40
ATOM     40  C   UNL     1      64.396  32.280  50.077  1.00  0.00     0.246 CG0
ATOM     41  O   UNL     1      63.548  32.810  49.308  1.00  0.00    -0.272 OA
ATOM     42  G   UNL     1      64.635  30.786  50.047  1.00  0.00     0.000 G0
ENDBRANCH  35  40
ENDBRANCH  31  34
ENDBRANCH   2  30
ENDBRANCH   1   2
BRANCH   1  43
ATOM     43  C   UNL     1      64.112  31.676  56.514  1.00  0.00     0.003 C 
BRANCH  43  44
ATOM     44  C   UNL     1      65.517  31.323  57.026  1.00  0.00     0.001 C 
BRANCH  44  45
ATOM     45  C   UNL     1      66.577  32.180  56.322  1.00  0.00     0.008 C 
BRANCH  45  46
ATOM     46  C   UNL     1      67.694  31.319  55.721  1.00  0.00     0.075 C 
BRANCH  46  47
ATOM     47  C   UNL     1      67.874  31.647  54.263  1.00  0.00     0.132 C 
ATOM     48  O   UNL     1      67.028  31.288  53.457  1.00  0.00    -0.300 OA
BRANCH  47  49
ATOM     49  C   UNL     1      69.038  32.482  53.794  1.00  0.00     0.072 C 
ATOM     50  C   UNL     1      70.220  32.352  54.744  1.00  0.00     0.012 C 
ENDBRANCH  47  49
ENDBRANCH  46  47
ENDBRANCH  45  46
ENDBRANCH  44  45
ENDBRANCH  43  44
ENDBRANCH   1  43
TORSDOF 12
ENDMDL
