MODEL 1
REMARK VINA RESULT:    -4.974      0.000      0.000
REMARK INTER + INTRA:          -6.169
REMARK INTER:                  -5.847
REMARK INTRA:                  -0.322
REMARK UNBOUND:                -0.322
REMARK SMILES Oc1ccc(-c2[o+]c3cc(O)cc(O)c3cc2O)cc1.[Cl-]
REMARK SMILES IDX 6 1 7 2 8 3 9 4 10 5 12 6 13 7 15 8 16 9 17 10 5 11 4 12
REMARK SMILES IDX 3 13 2 14 19 15 20 16 1 17 18 19 11 21 14 23
REMARK H PARENT 1 18 18 20 11 22 14 24
REMARK Flexibility Score: inf
ROOT
ATOM      1  C   UNL     1      44.730  30.395  25.160  1.00  0.00     0.401 A 
ATOM      2  O   UNL     1      45.890  30.076  25.729  1.00  0.00    -0.202 OA
ATOM      3  C   UNL     1      45.984  29.534  26.938  1.00  0.00     0.368 A 
ATOM      4  C   UNL     1      47.249  29.236  27.453  1.00  0.00     0.162 A 
ATOM      5  C   UNL     1      47.377  28.669  28.724  1.00  0.00     0.128 A 
ATOM      6  C   UNL     1      46.237  28.399  29.483  1.00  0.00     0.093 A 
ATOM      7  C   UNL     1      44.959  28.688  28.991  1.00  0.00     0.136 A 
ATOM      8  C   UNL     1      44.822  29.262  27.700  1.00  0.00     0.125 A 
ATOM      9  C   UNL     1      43.582  29.572  27.121  1.00  0.00     0.078 A 
ATOM     10  C   UNL     1      43.526  30.132  25.840  1.00  0.00     0.223 A 
ENDROOT
BRANCH   1  11
ATOM     11  C   UNL     1      44.756  31.003  23.810  1.00  0.00     0.084 A 
ATOM     12  C   UNL     1      44.872  30.176  22.681  1.00  0.00     0.022 A 
ATOM     13  C   UNL     1      44.920  30.730  21.398  1.00  0.00     0.047 A 
ATOM     14  C   UNL     1      44.869  32.119  21.229  1.00  0.00     0.115 A 
ATOM     15  C   UNL     1      44.725  32.399  23.634  1.00  0.00     0.022 A 
ATOM     16  C   UNL     1      44.775  32.951  22.350  1.00  0.00     0.047 A 
BRANCH  14  17
ATOM     17  O   UNL     1      44.916  32.683  19.957  1.00  0.00    -0.508 OA
ATOM     18  H   UNL     1      44.655  33.649  19.796  1.00  0.00     0.293 HD
ENDBRANCH  14  17
ENDBRANCH   1  11
BRANCH  10  19
ATOM     19  O   UNL     1      42.293  30.394  25.244  1.00  0.00    -0.500 OA
ATOM     20  H   UNL     1      41.691  31.141  25.571  1.00  0.00     0.294 HD
ENDBRANCH  10  19
BRANCH   5  21
ATOM     21  O   UNL     1      48.635  28.368  29.243  1.00  0.00    -0.507 OA
ATOM     22  H   UNL     1      48.957  27.411  29.331  1.00  0.00     0.293 HD
ENDBRANCH   5  21
BRANCH   7  23
ATOM     23  O   UNL     1      43.869  28.390  29.814  1.00  0.00    -0.507 OA
ATOM     24  H   UNL     1      43.434  27.482  29.879  1.00  0.00     0.293 HD
ENDBRANCH   7  23
TORSDOF 5
ENDMDL
MODEL 2
REMARK VINA RESULT:    -4.777     12.529     14.408
REMARK INTER + INTRA:          -5.937
REMARK INTER:                  -5.701
REMARK INTRA:                  -0.236
REMARK UNBOUND:                -0.322
REMARK SMILES Oc1ccc(-c2[o+]c3cc(O)cc(O)c3cc2O)cc1.[Cl-]
REMARK SMILES IDX 6 1 7 2 8 3 9 4 10 5 12 6 13 7 15 8 16 9 17 10 5 11 4 12
REMARK SMILES IDX 3 13 2 14 19 15 20 16 1 17 18 19 11 21 14 23
REMARK H PARENT 1 18 18 20 11 22 14 24
REMARK Flexibility Score: inf
ROOT
ATOM      1  C   UNL     1      31.500  28.872  27.112  1.00  0.00     0.401 A 
ATOM      2  O   UNL     1      30.728  27.902  27.594  1.00  0.00    -0.202 OA
ATOM      3  C   UNL     1      31.180  26.934  28.384  1.00  0.00     0.368 A 
ATOM      4  C   UNL     1      30.290  25.956  28.838  1.00  0.00     0.162 A 
ATOM      5  C   UNL     1      30.740  24.925  29.668  1.00  0.00     0.128 A 
ATOM      6  C   UNL     1      32.083  24.870  30.045  1.00  0.00     0.093 A 
ATOM      7  C   UNL     1      32.994  25.838  29.603  1.00  0.00     0.136 A 
ATOM      8  C   UNL     1      32.543  26.888  28.763  1.00  0.00     0.125 A 
ATOM      9  C   UNL     1      33.381  27.908  28.284  1.00  0.00     0.078 A 
ATOM     10  C   UNL     1      32.863  28.915  27.463  1.00  0.00     0.223 A 
ENDROOT
BRANCH   1  11
ATOM     11  C   UNL     1      30.880  29.889  26.233  1.00  0.00     0.084 A 
ATOM     12  C   UNL     1      29.920  30.767  26.761  1.00  0.00     0.022 A 
ATOM     13  C   UNL     1      29.306  31.721  25.943  1.00  0.00     0.047 A 
ATOM     14  C   UNL     1      29.634  31.799  24.584  1.00  0.00     0.115 A 
ATOM     15  C   UNL     1      31.191  29.960  24.862  1.00  0.00     0.022 A 
ATOM     16  C   UNL     1      30.574  30.914  24.047  1.00  0.00     0.047 A 
BRANCH  14  17
ATOM     17  O   UNL     1      29.029  32.745  23.760  1.00  0.00    -0.508 OA
ATOM     18  H   UNL     1      29.168  32.737  22.756  1.00  0.00     0.293 HD
ENDBRANCH  14  17
ENDBRANCH   1  11
BRANCH  10  19
ATOM     19  O   UNL     1      33.684  29.955  27.027  1.00  0.00    -0.500 OA
ATOM     20  H   UNL     1      33.616  30.330  26.088  1.00  0.00     0.294 HD
ENDBRANCH  10  19
BRANCH   5  21
ATOM     21  O   UNL     1      29.858  23.947  30.125  1.00  0.00    -0.507 OA
ATOM     22  H   UNL     1      29.734  23.071  29.629  1.00  0.00     0.293 HD
ENDBRANCH   5  21
BRANCH   7  23
ATOM     23  O   UNL     1      34.321  25.711  30.023  1.00  0.00    -0.507 OA
ATOM     24  H   UNL     1      35.013  26.443  29.958  1.00  0.00     0.293 HD
ENDBRANCH   7  23
TORSDOF 5
ENDMDL
MODEL 3
REMARK VINA RESULT:    -4.677     10.320     12.550
REMARK INTER + INTRA:          -5.820
REMARK INTER:                  -5.515
REMARK INTRA:                  -0.304
REMARK UNBOUND:                -0.322
REMARK SMILES Oc1ccc(-c2[o+]c3cc(O)cc(O)c3cc2O)cc1.[Cl-]
REMARK SMILES IDX 6 1 7 2 8 3 9 4 10 5 12 6 13 7 15 8 16 9 17 10 5 11 4 12
REMARK SMILES IDX 3 13 2 14 19 15 20 16 1 17 18 19 11 21 14 23
REMARK H PARENT 1 18 18 20 11 22 14 24
REMARK Flexibility Score: inf
ROOT
ATOM      1  C   UNL     1      34.198  31.901  24.277  1.00  0.00     0.401 A 
ATOM      2  O   UNL     1      33.655  31.278  25.319  1.00  0.00    -0.202 OA
ATOM      3  C   UNL     1      32.345  31.222  25.535  1.00  0.00     0.368 A 
ATOM      4  C   UNL     1      31.869  30.545  26.662  1.00  0.00     0.162 A 
ATOM      5  C   UNL     1      30.497  30.475  26.915  1.00  0.00     0.128 A 
ATOM      6  C   UNL     1      29.596  31.083  26.038  1.00  0.00     0.093 A 
ATOM      7  C   UNL     1      30.047  31.767  24.903  1.00  0.00     0.136 A 
ATOM      8  C   UNL     1      31.439  31.840  24.640  1.00  0.00     0.125 A 
ATOM      9  C   UNL     1      31.980  32.492  23.520  1.00  0.00     0.078 A 
ATOM     10  C   UNL     1      33.365  32.518  23.325  1.00  0.00     0.223 A 
ENDROOT
BRANCH   1  11
ATOM     11  C   UNL     1      35.673  31.901  24.152  1.00  0.00     0.084 A 
ATOM     12  C   UNL     1      36.403  33.025  24.575  1.00  0.00     0.022 A 
ATOM     13  C   UNL     1      37.795  33.055  24.446  1.00  0.00     0.047 A 
ATOM     14  C   UNL     1      38.473  31.969  23.880  1.00  0.00     0.115 A 
ATOM     15  C   UNL     1      36.360  30.821  23.566  1.00  0.00     0.022 A 
ATOM     16  C   UNL     1      37.752  30.856  23.438  1.00  0.00     0.047 A 
BRANCH  14  17
ATOM     17  O   UNL     1      39.860  31.988  23.747  1.00  0.00    -0.508 OA
ATOM     18  H   UNL     1      40.465  32.139  24.546  1.00  0.00     0.293 HD
ENDBRANCH  14  17
ENDBRANCH   1  11
BRANCH  10  19
ATOM     19  O   UNL     1      33.900  33.122  22.187  1.00  0.00    -0.500 OA
ATOM     20  H   UNL     1      33.794  34.115  22.012  1.00  0.00     0.294 HD
ENDBRANCH  10  19
BRANCH   5  21
ATOM     21  O   UNL     1      30.016  29.801  28.035  1.00  0.00    -0.507 OA
ATOM     22  H   UNL     1      29.146  29.280  28.008  1.00  0.00     0.293 HD
ENDBRANCH   5  21
BRANCH   7  23
ATOM     23  O   UNL     1      29.081  32.351  24.077  1.00  0.00    -0.507 OA
ATOM     24  H   UNL     1      28.255  32.825  24.412  1.00  0.00     0.293 HD
ENDBRANCH   7  23
TORSDOF 5
ENDMDL
MODEL 4
REMARK VINA RESULT:    -4.675      4.973      7.025
REMARK INTER + INTRA:          -5.817
REMARK INTER:                  -5.612
REMARK INTRA:                  -0.205
REMARK UNBOUND:                -0.322
REMARK SMILES Oc1ccc(-c2[o+]c3cc(O)cc(O)c3cc2O)cc1.[Cl-]
REMARK SMILES IDX 6 1 7 2 8 3 9 4 10 5 12 6 13 7 15 8 16 9 17 10 5 11 4 12
REMARK SMILES IDX 3 13 2 14 19 15 20 16 1 17 18 19 11 21 14 23
REMARK H PARENT 1 18 18 20 11 22 14 24
REMARK Flexibility Score: inf
ROOT
ATOM      1  C   UNL     1      42.281  26.642  29.128  1.00  0.00     0.401 A 
ATOM      2  O   UNL     1      42.979  27.773  29.059  1.00  0.00    -0.202 OA
ATOM      3  C   UNL     1      44.302  27.822  29.165  1.00  0.00     0.368 A 
ATOM      4  C   UNL     1      44.946  29.060  29.083  1.00  0.00     0.162 A 
ATOM      5  C   UNL     1      46.336  29.140  29.194  1.00  0.00     0.128 A 
ATOM      6  C   UNL     1      47.087  27.979  29.389  1.00  0.00     0.093 A 
ATOM      7  C   UNL     1      46.466  26.726  29.476  1.00  0.00     0.136 A 
ATOM      8  C   UNL     1      45.054  26.639  29.361  1.00  0.00     0.125 A 
ATOM      9  C   UNL     1      44.349  25.427  29.422  1.00  0.00     0.078 A 
ATOM     10  C   UNL     1      42.956  25.418  29.294  1.00  0.00     0.223 A 
ENDROOT
BRANCH   1  11
ATOM     11  C   UNL     1      40.808  26.719  29.005  1.00  0.00     0.084 A 
ATOM     12  C   UNL     1      40.237  27.202  27.816  1.00  0.00     0.022 A 
ATOM     13  C   UNL     1      38.848  27.304  27.687  1.00  0.00     0.047 A 
ATOM     14  C   UNL     1      38.014  26.939  28.750  1.00  0.00     0.115 A 
ATOM     15  C   UNL     1      39.963  26.372  30.077  1.00  0.00     0.022 A 
ATOM     16  C   UNL     1      38.575  26.477  29.945  1.00  0.00     0.047 A 
BRANCH  14  17
ATOM     17  O   UNL     1      36.629  27.035  28.633  1.00  0.00    -0.508 OA
ATOM     18  H   UNL     1      36.197  27.545  27.871  1.00  0.00     0.293 HD
ENDBRANCH  14  17
ENDBRANCH   1  11
BRANCH  10  19
ATOM     19  O   UNL     1      42.259  24.210  29.305  1.00  0.00    -0.500 OA
ATOM     20  H   UNL     1      42.246  23.610  30.122  1.00  0.00     0.294 HD
ENDBRANCH  10  19
BRANCH   5  21
ATOM     21  O   UNL     1      46.985  30.371  29.112  1.00  0.00    -0.507 OA
ATOM     22  H   UNL     1      47.923  30.501  29.473  1.00  0.00     0.293 HD
ENDBRANCH   5  21
BRANCH   7  23
ATOM     23  O   UNL     1      47.287  25.614  29.675  1.00  0.00    -0.507 OA
ATOM     24  H   UNL     1      47.556  24.965  28.949  1.00  0.00     0.293 HD
ENDBRANCH   7  23
TORSDOF 5
ENDMDL
MODEL 5
REMARK VINA RESULT:    -4.672      1.920      6.996
REMARK INTER + INTRA:          -5.814
REMARK INTER:                  -5.509
REMARK INTRA:                  -0.305
REMARK UNBOUND:                -0.322
REMARK SMILES Oc1ccc(-c2[o+]c3cc(O)cc(O)c3cc2O)cc1.[Cl-]
REMARK SMILES IDX 6 1 7 2 8 3 9 4 10 5 12 6 13 7 15 8 16 9 17 10 5 11 4 12
REMARK SMILES IDX 3 13 2 14 19 15 20 16 1 17 18 19 11 21 14 23
REMARK H PARENT 1 18 18 20 11 22 14 24
REMARK Flexibility Score: inf
ROOT
ATOM      1  C   UNL     1      44.826  30.215  25.647  1.00  0.00     0.401 A 
ATOM      2  O   UNL     1      43.982  30.377  24.631  1.00  0.00    -0.202 OA
ATOM      3  C   UNL     1      44.275  31.082  23.545  1.00  0.00     0.368 A 
ATOM      4  C   UNL     1      43.320  31.196  22.530  1.00  0.00     0.162 A 
ATOM      5  C   UNL     1      43.601  31.935  21.377  1.00  0.00     0.128 A 
ATOM      6  C   UNL     1      44.840  32.563  21.238  1.00  0.00     0.093 A 
ATOM      7  C   UNL     1      45.813  32.465  22.240  1.00  0.00     0.136 A 
ATOM      8  C   UNL     1      45.535  31.713  23.411  1.00  0.00     0.125 A 
ATOM      9  C   UNL     1      46.454  31.549  24.459  1.00  0.00     0.078 A 
ATOM     10  C   UNL     1      46.110  30.789  25.582  1.00  0.00     0.223 A 
ENDROOT
BRANCH   1  11
ATOM     11  C   UNL     1      44.379  29.414  26.809  1.00  0.00     0.084 A 
ATOM     12  C   UNL     1      44.353  28.013  26.713  1.00  0.00     0.022 A 
ATOM     13  C   UNL     1      43.914  27.237  27.791  1.00  0.00     0.047 A 
ATOM     14  C   UNL     1      43.481  27.853  28.971  1.00  0.00     0.115 A 
ATOM     15  C   UNL     1      43.924  30.027  27.992  1.00  0.00     0.022 A 
ATOM     16  C   UNL     1      43.484  29.248  29.066  1.00  0.00     0.047 A 
BRANCH  14  17
ATOM     17  O   UNL     1      43.042  27.091  30.051  1.00  0.00    -0.508 OA
ATOM     18  H   UNL     1      43.289  26.112  30.143  1.00  0.00     0.293 HD
ENDBRANCH  14  17
ENDBRANCH   1  11
BRANCH  10  19
ATOM     19  O   UNL     1      47.040  30.584  26.601  1.00  0.00    -0.500 OA
ATOM     20  H   UNL     1      46.760  30.519  27.573  1.00  0.00     0.294 HD
ENDBRANCH  10  19
BRANCH   5  21
ATOM     21  O   UNL     1      42.653  32.052  20.362  1.00  0.00    -0.507 OA
ATOM     22  H   UNL     1      42.724  32.772  19.652  1.00  0.00     0.293 HD
ENDBRANCH   5  21
BRANCH   7  23
ATOM     23  O   UNL     1      47.026  33.125  22.025  1.00  0.00    -0.507 OA
ATOM     24  H   UNL     1      47.213  34.079  22.297  1.00  0.00     0.293 HD
ENDBRANCH   7  23
TORSDOF 5
ENDMDL
MODEL 6
REMARK VINA RESULT:    -4.657     12.565     15.582
REMARK INTER + INTRA:          -5.796
REMARK INTER:                  -5.518
REMARK INTRA:                  -0.278
REMARK UNBOUND:                -0.322
REMARK SMILES Oc1ccc(-c2[o+]c3cc(O)cc(O)c3cc2O)cc1.[Cl-]
REMARK SMILES IDX 6 1 7 2 8 3 9 4 10 5 12 6 13 7 15 8 16 9 17 10 5 11 4 12
REMARK SMILES IDX 3 13 2 14 19 15 20 16 1 17 18 19 11 21 14 23
REMARK H PARENT 1 18 18 20 11 22 14 24
REMARK Flexibility Score: inf
ROOT
ATOM      1  C   UNL     1      31.520  28.110  27.504  1.00  0.00     0.401 A 
ATOM      2  O   UNL     1      30.581  28.760  26.822  1.00  0.00    -0.202 OA
ATOM      3  C   UNL     1      30.784  29.936  26.239  1.00  0.00     0.368 A 
ATOM      4  C   UNL     1      29.732  30.544  25.546  1.00  0.00     0.162 A 
ATOM      5  C   UNL     1      29.919  31.782  24.926  1.00  0.00     0.128 A 
ATOM      6  C   UNL     1      31.160  32.417  24.999  1.00  0.00     0.093 A 
ATOM      7  C   UNL     1      32.230  31.830  25.687  1.00  0.00     0.136 A 
ATOM      8  C   UNL     1      32.047  30.571  26.316  1.00  0.00     0.125 A 
ATOM      9  C   UNL     1      33.065  29.903  27.015  1.00  0.00     0.078 A 
ATOM     10  C   UNL     1      32.811  28.660  27.605  1.00  0.00     0.223 A 
ENDROOT
BRANCH   1  11
ATOM     11  C   UNL     1      31.167  26.810  28.117  1.00  0.00     0.084 A 
ATOM     12  C   UNL     1      30.976  25.686  27.295  1.00  0.00     0.022 A 
ATOM     13  C   UNL     1      30.621  24.454  27.852  1.00  0.00     0.047 A 
ATOM     14  C   UNL     1      30.437  24.332  29.234  1.00  0.00     0.115 A 
ATOM     15  C   UNL     1      30.962  26.684  29.504  1.00  0.00     0.022 A 
ATOM     16  C   UNL     1      30.605  25.450  30.057  1.00  0.00     0.047 A 
BRANCH  14  17
ATOM     17  O   UNL     1      30.084  23.109  29.799  1.00  0.00    -0.508 OA
ATOM     18  H   UNL     1      30.065  22.976  30.804  1.00  0.00     0.293 HD
ENDBRANCH  14  17
ENDBRANCH   1  11
BRANCH  10  19
ATOM     19  O   UNL     1      33.835  27.973  28.257  1.00  0.00    -0.500 OA
ATOM     20  H   UNL     1      34.588  27.528  27.745  1.00  0.00     0.294 HD
ENDBRANCH  10  19
BRANCH   5  21
ATOM     21  O   UNL     1      28.875  32.393  24.233  1.00  0.00    -0.507 OA
ATOM     22  H   UNL     1      28.470  31.970  23.406  1.00  0.00     0.293 HD
ENDBRANCH   5  21
BRANCH   7  23
ATOM     23  O   UNL     1      33.439  32.531  25.716  1.00  0.00    -0.507 OA
ATOM     24  H   UNL     1      34.153  32.465  25.006  1.00  0.00     0.293 HD
ENDBRANCH   7  23
TORSDOF 5
ENDMDL
MODEL 7
REMARK VINA RESULT:    -4.532      1.708      2.193
REMARK INTER + INTRA:          -5.649
REMARK INTER:                  -5.335
REMARK INTRA:                  -0.314
REMARK UNBOUND:                -0.322
REMARK SMILES Oc1ccc(-c2[o+]c3cc(O)cc(O)c3cc2O)cc1.[Cl-]
REMARK SMILES IDX 6 1 7 2 8 3 9 4 10 5 12 6 13 7 15 8 16 9 17 10 5 11 4 12
REMARK SMILES IDX 3 13 2 14 19 15 20 16 1 17 18 19 11 21 14 23
REMARK H PARENT 1 18 18 20 11 22 14 24
REMARK Flexibility Score: inf
ROOT
ATOM      1  C   UNL     1      44.667  29.937  25.597  1.00  0.00     0.401 A 
ATOM      2  O   UNL     1      45.430  29.240  26.436  1.00  0.00    -0.202 OA
ATOM      3  C   UNL     1      44.939  28.489  27.415  1.00  0.00     0.368 A 
ATOM      4  C   UNL     1      45.822  27.794  28.247  1.00  0.00     0.162 A 
ATOM      5  C   UNL     1      45.332  26.999  29.287  1.00  0.00     0.128 A 
ATOM      6  C   UNL     1      43.956  26.897  29.496  1.00  0.00     0.093 A 
ATOM      7  C   UNL     1      43.050  27.582  28.676  1.00  0.00     0.136 A 
ATOM      8  C   UNL     1      43.541  28.389  27.617  1.00  0.00     0.125 A 
ATOM      9  C   UNL     1      42.709  29.100  26.739  1.00  0.00     0.078 A 
ATOM     10  C   UNL     1      43.266  29.872  25.714  1.00  0.00     0.223 A 
ENDROOT
BRANCH   1  11
ATOM     11  C   UNL     1      45.334  30.746  24.552  1.00  0.00     0.084 A 
ATOM     12  C   UNL     1      45.692  32.076  24.830  1.00  0.00     0.022 A 
ATOM     13  C   UNL     1      46.303  32.865  23.851  1.00  0.00     0.047 A 
ATOM     14  C   UNL     1      46.551  32.340  22.577  1.00  0.00     0.115 A 
ATOM     15  C   UNL     1      45.570  30.231  23.263  1.00  0.00     0.022 A 
ATOM     16  C   UNL     1      46.180  31.024  22.286  1.00  0.00     0.047 A 
BRANCH  14  17
ATOM     17  O   UNL     1      47.160  33.116  21.594  1.00  0.00    -0.508 OA
ATOM     18  H   UNL     1      48.169  33.180  21.520  1.00  0.00     0.293 HD
ENDBRANCH  14  17
ENDBRANCH   1  11
BRANCH  10  19
ATOM     19  O   UNL     1      42.439  30.538  24.810  1.00  0.00    -0.500 OA
ATOM     20  H   UNL     1      42.777  31.311  24.248  1.00  0.00     0.294 HD
ENDBRANCH  10  19
BRANCH   5  21
ATOM     21  O   UNL     1      46.207  26.304  30.120  1.00  0.00    -0.507 OA
ATOM     22  H   UNL     1      46.561  25.387  29.870  1.00  0.00     0.293 HD
ENDBRANCH   5  21
BRANCH   7  23
ATOM     23  O   UNL     1      41.689  27.429  28.953  1.00  0.00    -0.507 OA
ATOM     24  H   UNL     1      41.217  26.540  29.026  1.00  0.00     0.293 HD
ENDBRANCH   7  23
TORSDOF 5
ENDMDL
MODEL 8
REMARK VINA RESULT:    -4.531      1.243      2.734
REMARK INTER + INTRA:          -5.647
REMARK INTER:                  -5.330
REMARK INTRA:                  -0.317
REMARK UNBOUND:                -0.322
REMARK SMILES Oc1ccc(-c2[o+]c3cc(O)cc(O)c3cc2O)cc1.[Cl-]
REMARK SMILES IDX 6 1 7 2 8 3 9 4 10 5 12 6 13 7 15 8 16 9 17 10 5 11 4 12
REMARK SMILES IDX 3 13 2 14 19 15 20 16 1 17 18 19 11 21 14 23
REMARK H PARENT 1 18 18 20 11 22 14 24
REMARK Flexibility Score: inf
ROOT
ATOM      1  C   UNL     1      44.937  30.652  24.823  1.00  0.00     0.401 A 
ATOM      2  O   UNL     1      43.926  30.039  25.433  1.00  0.00    -0.202 OA
ATOM      3  C   UNL     1      44.034  29.461  26.624  1.00  0.00     0.368 A 
ATOM      4  C   UNL     1      42.914  28.839  27.184  1.00  0.00     0.162 A 
ATOM      5  C   UNL     1      43.001  28.221  28.434  1.00  0.00     0.128 A 
ATOM      6  C   UNL     1      44.213  28.224  29.128  1.00  0.00     0.093 A 
ATOM      7  C   UNL     1      45.350  28.839  28.590  1.00  0.00     0.136 A 
ATOM      8  C   UNL     1      45.266  29.471  27.322  1.00  0.00     0.125 A 
ATOM      9  C   UNL     1      46.349  30.124  26.712  1.00  0.00     0.078 A 
ATOM     10  C   UNL     1      46.189  30.729  25.461  1.00  0.00     0.223 A 
ENDROOT
BRANCH   1  11
ATOM     11  C   UNL     1      44.693  31.250  23.491  1.00  0.00     0.084 A 
ATOM     12  C   UNL     1      44.972  30.501  22.336  1.00  0.00     0.022 A 
ATOM     13  C   UNL     1      44.769  31.054  21.067  1.00  0.00     0.047 A 
ATOM     14  C   UNL     1      44.298  32.366  20.938  1.00  0.00     0.115 A 
ATOM     15  C   UNL     1      44.238  32.575  23.354  1.00  0.00     0.022 A 
ATOM     16  C   UNL     1      44.037  33.125  22.084  1.00  0.00     0.047 A 
BRANCH  14  17
ATOM     17  O   UNL     1      44.092  32.927  19.680  1.00  0.00    -0.508 OA
ATOM     18  H   UNL     1      43.437  33.688  19.541  1.00  0.00     0.293 HD
ENDBRANCH  14  17
ENDBRANCH   1  11
BRANCH  10  19
ATOM     19  O   UNL     1      47.251  31.420  24.877  1.00  0.00    -0.500 OA
ATOM     20  H   UNL     1      47.165  31.860  23.968  1.00  0.00     0.294 HD
ENDBRANCH  10  19
BRANCH   5  21
ATOM     21  O   UNL     1      41.888  27.600  28.998  1.00  0.00    -0.507 OA
ATOM     22  H   UNL     1      41.403  26.849  28.521  1.00  0.00     0.293 HD
ENDBRANCH   5  21
BRANCH   7  23
ATOM     23  O   UNL     1      46.524  28.796  29.346  1.00  0.00    -0.507 OA
ATOM     24  H   UNL     1      46.826  29.526  29.974  1.00  0.00     0.293 HD
ENDBRANCH   7  23
TORSDOF 5
ENDMDL
MODEL 9
REMARK VINA RESULT:    -4.419      1.900      6.894
REMARK INTER + INTRA:          -5.516
REMARK INTER:                  -5.275
REMARK INTRA:                  -0.241
REMARK UNBOUND:                -0.322
REMARK SMILES Oc1ccc(-c2[o+]c3cc(O)cc(O)c3cc2O)cc1.[Cl-]
REMARK SMILES IDX 6 1 7 2 8 3 9 4 10 5 12 6 13 7 15 8 16 9 17 10 5 11 4 12
REMARK SMILES IDX 3 13 2 14 19 15 20 16 1 17 18 19 11 21 14 23
REMARK H PARENT 1 18 18 20 11 22 14 24
REMARK Flexibility Score: inf
ROOT
ATOM      1  C   UNL     1      45.177  30.176  25.542  1.00  0.00     0.401 A 
ATOM      2  O   UNL     1      43.889  29.955  25.289  1.00  0.00    -0.202 OA
ATOM      3  C   UNL     1      43.220  30.569  24.320  1.00  0.00     0.368 A 
ATOM      4  C   UNL     1      41.867  30.272  24.134  1.00  0.00     0.162 A 
ATOM      5  C   UNL     1      41.139  30.907  23.123  1.00  0.00     0.128 A 
ATOM      6  C   UNL     1      41.765  31.841  22.296  1.00  0.00     0.093 A 
ATOM      7  C   UNL     1      43.119  32.157  22.463  1.00  0.00     0.136 A 
ATOM      8  C   UNL     1      43.864  31.514  23.485  1.00  0.00     0.125 A 
ATOM      9  C   UNL     1      45.227  31.758  23.716  1.00  0.00     0.078 A 
ATOM     10  C   UNL     1      45.897  31.081  24.740  1.00  0.00     0.223 A 
ENDROOT
BRANCH   1  11
ATOM     11  C   UNL     1      45.809  29.436  26.658  1.00  0.00     0.084 A 
ATOM     12  C   UNL     1      46.666  28.359  26.376  1.00  0.00     0.022 A 
ATOM     13  C   UNL     1      47.255  27.632  27.415  1.00  0.00     0.047 A 
ATOM     14  C   UNL     1      46.985  27.963  28.748  1.00  0.00     0.115 A 
ATOM     15  C   UNL     1      45.526  29.751  28.000  1.00  0.00     0.022 A 
ATOM     16  C   UNL     1      46.117  29.021  29.036  1.00  0.00     0.047 A 
BRANCH  14  17
ATOM     17  O   UNL     1      47.568  27.247  29.791  1.00  0.00    -0.508 OA
ATOM     18  H   UNL     1      48.400  27.582  30.262  1.00  0.00     0.293 HD
ENDBRANCH  14  17
ENDBRANCH   1  11
BRANCH  10  19
ATOM     19  O   UNL     1      47.263  31.286  24.938  1.00  0.00    -0.500 OA
ATOM     20  H   UNL     1      47.840  30.603  25.415  1.00  0.00     0.294 HD
ENDBRANCH  10  19
BRANCH   5  21
ATOM     21  O   UNL     1      39.790  30.614  22.931  1.00  0.00    -0.507 OA
ATOM     22  H   UNL     1      39.324  29.889  23.465  1.00  0.00     0.293 HD
ENDBRANCH   5  21
BRANCH   7  23
ATOM     23  O   UNL     1      43.670  33.105  21.596  1.00  0.00    -0.507 OA
ATOM     24  H   UNL     1      44.635  33.401  21.612  1.00  0.00     0.293 HD
ENDBRANCH   7  23
TORSDOF 5
ENDMDL
