MODEL 1
REMARK VINA RESULT:    -6.730      0.000      0.000
REMARK INTER + INTRA:         -10.557
REMARK INTER:                  -9.287
REMARK INTRA:                  -1.270
REMARK UNBOUND:                -1.270
REMARK SMILES CC[C@H](CC[C@@H](C)[C@@H]1CC[C@H]2[C@H]3CC=C4C[C@@H](O)CC[C@@]4(C)[C@H]3CC[C@]21C)C(C)C
REMARK SMILES IDX 5 1 4 2 3 3 2 4 1 5 28 6 29 7 30 8 6 9 7 10 8 11 9 12 26 13
REMARK SMILES IDX 10 14 11 15 25 16 27 17 12 18 24 19 23 20 13 21 21 22 14 23
REMARK SMILES IDX 15 24 20 25 22 26 16 27 19 28 17 29 18 30
REMARK H PARENT 18 31
REMARK Flexibility Score: inf
ROOT
ATOM      1  C   UNL     1     169.871 159.898 181.921  1.00  0.00     0.004 C 
ENDROOT
BRANCH   1   2
ATOM      2  C   UNL     1     170.906 159.878 180.765  1.00  0.00     0.004 C 
BRANCH   2   3
ATOM      3  C   UNL     1     172.398 159.877 181.220  1.00  0.00    -0.009 C 
BRANCH   3   4
ATOM      4  C   UNL     1     173.333 160.330 180.062  1.00  0.00     0.000 C 
ATOM      5  C   UNL     1     172.573 160.741 178.797  1.00  0.00     0.004 C 
ENDBRANCH   3   4
BRANCH   3   6
ATOM      6  C   UNL     1     172.661 160.698 182.535  1.00  0.00    -0.014 C 
ATOM      7  C   UNL     1     173.390 159.875 183.615  1.00  0.00     0.007 C 
ATOM      8  C   UNL     1     173.487 161.970 182.255  1.00  0.00     0.007 C 
ENDBRANCH   3   6
ENDBRANCH   2   3
ENDBRANCH   1   2
BRANCH   1   9
ATOM      9  C   UNL     1     168.925 161.132 181.875  1.00  0.00    -0.011 C 
ATOM     10  C   UNL     1     169.306 162.030 180.674  1.00  0.00     0.008 C 
BRANCH   9  11
ATOM     11  C   UNL     1     167.412 160.686 181.908  1.00  0.00    -0.002 C 
ATOM     12  C   UNL     1     166.646 161.143 180.660  1.00  0.00     0.005 C 
ATOM     13  C   UNL     1     166.531 161.157 183.124  1.00  0.00    -0.026 C 
ATOM     14  C   UNL     1     165.788 162.337 181.069  1.00  0.00     0.005 C 
ATOM     15  C   UNL     1     165.842 162.449 182.608  1.00  0.00    -0.001 C 
ATOM     16  C   UNL     1     165.466 160.060 183.502  1.00  0.00     0.007 C 
ATOM     17  C   UNL     1     167.357 161.439 184.408  1.00  0.00     0.012 C 
ATOM     18  C   UNL     1     164.471 162.747 183.294  1.00  0.00     0.000 C 
ATOM     19  C   UNL     1     164.107 160.241 182.814  1.00  0.00     0.005 C 
ATOM     20  C   UNL     1     163.426 161.568 183.242  1.00  0.00     0.003 C 
ATOM     21  C   UNL     1     163.905 164.108 182.851  1.00  0.00     0.031 C 
ATOM     22  C   UNL     1     162.041 161.908 182.512  1.00  0.00    -0.008 C 
ATOM     23  C   UNL     1     163.078 163.997 181.612  1.00  0.00    -0.027 C 
ATOM     24  C   UNL     1     162.217 162.979 181.424  1.00  0.00    -0.065 C 
ATOM     25  C   UNL     1     161.379 160.628 181.896  1.00  0.00     0.014 C 
ATOM     26  C   UNL     1     161.054 162.478 183.571  1.00  0.00     0.016 C 
ATOM     27  C   UNL     1     161.201 163.135 180.305  1.00  0.00     0.063 C 
ATOM     28  C   UNL     1     160.188 160.928 180.979  1.00  0.00     0.033 C 
ATOM     29  C   UNL     1     160.630 161.807 179.803  1.00  0.00     0.118 C 
BRANCH  29  30
ATOM     30  O   UNL     1     161.594 161.145 179.021  1.00  0.00    -0.393 OA
ATOM     31  H   UNL     1     161.424 160.172 179.115  1.00  0.00     0.210 HD
ENDBRANCH  29  30
ENDBRANCH   9  11
ENDBRANCH   1   9
TORSDOF 7
ENDMDL
MODEL 2
REMARK VINA RESULT:    -6.577     12.137     15.616
REMARK INTER + INTRA:         -10.346
REMARK INTER:                  -8.266
REMARK INTRA:                  -2.081
REMARK UNBOUND:                -1.270
REMARK SMILES CC[C@H](CC[C@@H](C)[C@@H]1CC[C@H]2[C@H]3CC=C4C[C@@H](O)CC[C@@]4(C)[C@H]3CC[C@]21C)C(C)C
REMARK SMILES IDX 5 1 4 2 3 3 2 4 1 5 28 6 29 7 30 8 6 9 7 10 8 11 9 12 26 13
REMARK SMILES IDX 10 14 11 15 25 16 27 17 12 18 24 19 23 20 13 21 21 22 14 23
REMARK SMILES IDX 15 24 20 25 22 26 16 27 19 28 17 29 18 30
REMARK H PARENT 18 31
REMARK Flexibility Score: inf
ROOT
ATOM      1  C   UNL     1     179.913 167.644 181.463  1.00  0.00     0.004 C 
ENDROOT
BRANCH   1   2
ATOM      2  C   UNL     1     178.580 167.242 182.148  1.00  0.00     0.004 C 
BRANCH   2   3
ATOM      3  C   UNL     1     177.696 166.249 181.332  1.00  0.00    -0.009 C 
BRANCH   3   4
ATOM      4  C   UNL     1     177.495 164.915 182.108  1.00  0.00     0.000 C 
ATOM      5  C   UNL     1     177.553 165.087 183.629  1.00  0.00     0.004 C 
ENDBRANCH   3   4
BRANCH   3   6
ATOM      6  C   UNL     1     176.326 166.860 180.861  1.00  0.00    -0.014 C 
ATOM      7  C   UNL     1     175.725 167.838 181.891  1.00  0.00     0.007 C 
ATOM      8  C   UNL     1     176.466 167.600 179.515  1.00  0.00     0.007 C 
ENDBRANCH   3   6
ENDBRANCH   2   3
ENDBRANCH   1   2
BRANCH   1   9
ATOM      9  C   UNL     1     179.938 169.127 180.994  1.00  0.00    -0.011 C 
ATOM     10  C   UNL     1     180.117 169.180 179.458  1.00  0.00     0.008 C 
BRANCH   9  11
ATOM     11  C   UNL     1     178.681 169.912 181.537  1.00  0.00    -0.002 C 
ATOM     12  C   UNL     1     177.993 170.732 180.438  1.00  0.00     0.005 C 
ATOM     13  C   UNL     1     178.898 170.921 182.725  1.00  0.00    -0.026 C 
ATOM     14  C   UNL     1     178.379 172.193 180.657  1.00  0.00     0.005 C 
ATOM     15  C   UNL     1     179.093 172.290 182.021  1.00  0.00    -0.001 C 
ATOM     16  C   UNL     1     177.642 170.946 183.675  1.00  0.00     0.007 C 
ATOM     17  C   UNL     1     180.123 170.568 183.612  1.00  0.00     0.012 C 
ATOM     18  C   UNL     1     178.673 173.513 182.898  1.00  0.00     0.000 C 
ATOM     19  C   UNL     1     176.610 172.025 183.322  1.00  0.00     0.005 C 
ATOM     20  C   UNL     1     177.206 173.450 183.473  1.00  0.00     0.003 C 
ATOM     21  C   UNL     1     179.021 174.845 182.210  1.00  0.00     0.031 C 
ATOM     22  C   UNL     1     176.245 174.656 183.040  1.00  0.00    -0.008 C 
ATOM     23  C   UNL     1     177.925 175.317 181.311  1.00  0.00    -0.027 C 
ATOM     24  C   UNL     1     176.630 175.227 181.666  1.00  0.00    -0.065 C 
ATOM     25  C   UNL     1     174.738 174.226 183.034  1.00  0.00     0.014 C 
ATOM     26  C   UNL     1     176.395 175.804 184.079  1.00  0.00     0.016 C 
ATOM     27  C   UNL     1     175.633 176.025 180.841  1.00  0.00     0.063 C 
ATOM     28  C   UNL     1     173.803 175.257 182.393  1.00  0.00     0.033 C 
ATOM     29  C   UNL     1     174.199 175.500 180.932  1.00  0.00     0.118 C 
BRANCH  29  30
ATOM     30  O   UNL     1     174.082 174.316 180.181  1.00  0.00    -0.393 OA
ATOM     31  H   UNL     1     173.491 173.706 180.693  1.00  0.00     0.210 HD
ENDBRANCH  29  30
ENDBRANCH   9  11
ENDBRANCH   1   9
TORSDOF 7
ENDMDL
MODEL 3
REMARK VINA RESULT:    -6.449     10.455     15.283
REMARK INTER + INTRA:         -10.170
REMARK INTER:                  -8.719
REMARK INTRA:                  -1.451
REMARK UNBOUND:                -1.270
REMARK SMILES CC[C@H](CC[C@@H](C)[C@@H]1CC[C@H]2[C@H]3CC=C4C[C@@H](O)CC[C@@]4(C)[C@H]3CC[C@]21C)C(C)C
REMARK SMILES IDX 5 1 4 2 3 3 2 4 1 5 28 6 29 7 30 8 6 9 7 10 8 11 9 12 26 13
REMARK SMILES IDX 10 14 11 15 25 16 27 17 12 18 24 19 23 20 13 21 21 22 14 23
REMARK SMILES IDX 15 24 20 25 22 26 16 27 19 28 17 29 18 30
REMARK H PARENT 18 31
REMARK Flexibility Score: inf
ROOT
ATOM      1  C   UNL     1     177.975 166.005 181.012  1.00  0.00     0.004 C 
ENDROOT
BRANCH   1   2
ATOM      2  C   UNL     1     177.738 166.149 182.539  1.00  0.00     0.004 C 
BRANCH   2   3
ATOM      3  C   UNL     1     176.747 165.111 183.150  1.00  0.00    -0.009 C 
BRANCH   3   4
ATOM      4  C   UNL     1     177.503 164.063 184.018  1.00  0.00     0.000 C 
ATOM      5  C   UNL     1     177.465 162.650 183.428  1.00  0.00     0.004 C 
ENDBRANCH   3   4
BRANCH   3   6
ATOM      6  C   UNL     1     175.551 165.763 183.936  1.00  0.00    -0.014 C 
ATOM      7  C   UNL     1     174.848 166.876 183.134  1.00  0.00     0.007 C 
ATOM      8  C   UNL     1     174.495 164.713 184.337  1.00  0.00     0.007 C 
ENDBRANCH   3   6
ENDBRANCH   2   3
ENDBRANCH   1   2
BRANCH   1   9
ATOM      9  C   UNL     1     177.879 167.356 180.247  1.00  0.00    -0.011 C 
ATOM     10  C   UNL     1     176.885 167.213 179.069  1.00  0.00     0.008 C 
BRANCH   9  11
ATOM     11  C   UNL     1     177.558 168.544 181.236  1.00  0.00    -0.002 C 
ATOM     12  C   UNL     1     176.521 169.515 180.657  1.00  0.00     0.005 C 
ATOM     13  C   UNL     1     178.752 169.453 181.708  1.00  0.00    -0.026 C 
ATOM     14  C   UNL     1     177.277 170.759 180.197  1.00  0.00     0.005 C 
ATOM     15  C   UNL     1     178.726 170.648 180.719  1.00  0.00    -0.001 C 
ATOM     16  C   UNL     1     178.534 169.940 183.190  1.00  0.00     0.007 C 
ATOM     17  C   UNL     1     180.125 168.728 181.674  1.00  0.00     0.012 C 
ATOM     18  C   UNL     1     179.315 171.968 181.311  1.00  0.00     0.000 C 
ATOM     19  C   UNL     1     177.827 171.296 183.307  1.00  0.00     0.005 C 
ATOM     20  C   UNL     1     178.674 172.433 182.674  1.00  0.00     0.003 C 
ATOM     21  C   UNL     1     179.396 173.076 180.245  1.00  0.00     0.031 C 
ATOM     22  C   UNL     1     177.991 173.882 182.655  1.00  0.00    -0.008 C 
ATOM     23  C   UNL     1     178.132 173.868 180.159  1.00  0.00    -0.027 C 
ATOM     24  C   UNL     1     177.455 174.241 181.260  1.00  0.00    -0.065 C 
ATOM     25  C   UNL     1     176.842 173.998 183.713  1.00  0.00     0.014 C 
ATOM     26  C   UNL     1     179.070 174.940 183.025  1.00  0.00     0.016 C 
ATOM     27  C   UNL     1     176.386 175.307 181.081  1.00  0.00     0.063 C 
ATOM     28  C   UNL     1     175.995 175.267 183.571  1.00  0.00     0.033 C 
ATOM     29  C   UNL     1     175.330 175.312 182.190  1.00  0.00     0.118 C 
BRANCH  29  30
ATOM     30  O   UNL     1     174.463 174.218 182.019  1.00  0.00    -0.393 OA
ATOM     31  H   UNL     1     173.980 174.363 181.164  1.00  0.00     0.210 HD
ENDBRANCH  29  30
ENDBRANCH   9  11
ENDBRANCH   1   9
TORSDOF 7
ENDMDL
MODEL 4
REMARK VINA RESULT:    -6.331      8.363     13.293
REMARK INTER + INTRA:         -10.007
REMARK INTER:                  -8.410
REMARK INTRA:                  -1.597
REMARK UNBOUND:                -1.270
REMARK SMILES CC[C@H](CC[C@@H](C)[C@@H]1CC[C@H]2[C@H]3CC=C4C[C@@H](O)CC[C@@]4(C)[C@H]3CC[C@]21C)C(C)C
REMARK SMILES IDX 5 1 4 2 3 3 2 4 1 5 28 6 29 7 30 8 6 9 7 10 8 11 9 12 26 13
REMARK SMILES IDX 10 14 11 15 25 16 27 17 12 18 24 19 23 20 13 21 21 22 14 23
REMARK SMILES IDX 15 24 20 25 22 26 16 27 19 28 17 29 18 30
REMARK H PARENT 18 31
REMARK Flexibility Score: inf
ROOT
ATOM      1  C   UNL     1     177.972 170.540 180.240  1.00  0.00     0.004 C 
ENDROOT
BRANCH   1   2
ATOM      2  C   UNL     1     179.472 170.890 180.435  1.00  0.00     0.004 C 
BRANCH   2   3
ATOM      3  C   UNL     1     179.756 172.380 180.796  1.00  0.00    -0.009 C 
BRANCH   3   4
ATOM      4  C   UNL     1     178.759 173.329 180.069  1.00  0.00     0.000 C 
ATOM      5  C   UNL     1     179.166 173.641 178.626  1.00  0.00     0.004 C 
ENDBRANCH   3   4
BRANCH   3   6
ATOM      6  C   UNL     1     179.804 172.661 182.342  1.00  0.00    -0.014 C 
ATOM      7  C   UNL     1     178.487 173.254 182.880  1.00  0.00     0.007 C 
ATOM      8  C   UNL     1     180.122 171.381 183.142  1.00  0.00     0.007 C 
ENDBRANCH   3   6
ENDBRANCH   2   3
ENDBRANCH   1   2
BRANCH   1   9
ATOM      9  C   UNL     1     177.373 169.730 181.425  1.00  0.00    -0.011 C 
ATOM     10  C   UNL     1     176.139 170.474 181.988  1.00  0.00     0.008 C 
BRANCH   9  11
ATOM     11  C   UNL     1     177.102 168.232 181.006  1.00  0.00    -0.002 C 
ATOM     12  C   UNL     1     175.656 167.805 181.291  1.00  0.00     0.005 C 
ATOM     13  C   UNL     1     177.995 167.112 181.656  1.00  0.00    -0.026 C 
ATOM     14  C   UNL     1     175.683 166.929 182.540  1.00  0.00     0.005 C 
ATOM     15  C   UNL     1     177.160 166.624 182.869  1.00  0.00    -0.001 C 
ATOM     16  C   UNL     1     178.252 165.939 180.636  1.00  0.00     0.007 C 
ATOM     17  C   UNL     1     179.390 167.624 182.107  1.00  0.00     0.012 C 
ATOM     18  C   UNL     1     177.450 165.145 183.279  1.00  0.00     0.000 C 
ATOM     19  C   UNL     1     177.239 164.791 180.733  1.00  0.00     0.005 C 
ATOM     20  C   UNL     1     177.309 164.089 182.116  1.00  0.00     0.003 C 
ATOM     21  C   UNL     1     176.704 164.762 184.569  1.00  0.00     0.031 C 
ATOM     22  C   UNL     1     176.228 162.932 182.366  1.00  0.00    -0.008 C 
ATOM     23  C   UNL     1     175.330 164.246 184.293  1.00  0.00    -0.027 C 
ATOM     24  C   UNL     1     175.080 163.409 183.270  1.00  0.00    -0.065 C 
ATOM     25  C   UNL     1     175.650 162.377 181.020  1.00  0.00     0.014 C 
ATOM     26  C   UNL     1     176.932 161.750 183.091  1.00  0.00     0.016 C 
ATOM     27  C   UNL     1     173.739 162.693 183.277  1.00  0.00     0.063 C 
ATOM     28  C   UNL     1     174.443 161.451 181.200  1.00  0.00     0.033 C 
ATOM     29  C   UNL     1     173.299 162.197 181.898  1.00  0.00     0.118 C 
BRANCH  29  30
ATOM     30  O   UNL     1     172.868 163.287 181.120  1.00  0.00    -0.393 OA
ATOM     31  H   UNL     1     172.953 164.097 181.687  1.00  0.00     0.210 HD
ENDBRANCH  29  30
ENDBRANCH   9  11
ENDBRANCH   1   9
TORSDOF 7
ENDMDL
MODEL 5
REMARK VINA RESULT:    -6.237      1.783      3.447
REMARK INTER + INTRA:          -9.877
REMARK INTER:                  -8.165
REMARK INTRA:                  -1.712
REMARK UNBOUND:                -1.270
REMARK SMILES CC[C@H](CC[C@@H](C)[C@@H]1CC[C@H]2[C@H]3CC=C4C[C@@H](O)CC[C@@]4(C)[C@H]3CC[C@]21C)C(C)C
REMARK SMILES IDX 5 1 4 2 3 3 2 4 1 5 28 6 29 7 30 8 6 9 7 10 8 11 9 12 26 13
REMARK SMILES IDX 10 14 11 15 25 16 27 17 12 18 24 19 23 20 13 21 21 22 14 23
REMARK SMILES IDX 15 24 20 25 22 26 16 27 19 28 17 29 18 30
REMARK H PARENT 18 31
REMARK Flexibility Score: inf
ROOT
ATOM      1  C   UNL     1     168.887 160.915 182.873  1.00  0.00     0.004 C 
ENDROOT
BRANCH   1   2
ATOM      2  C   UNL     1     169.669 159.875 182.027  1.00  0.00     0.004 C 
BRANCH   2   3
ATOM      3  C   UNL     1     170.463 160.471 180.824  1.00  0.00    -0.009 C 
BRANCH   3   4
ATOM      4  C   UNL     1     169.781 161.766 180.295  1.00  0.00     0.000 C 
ATOM      5  C   UNL     1     169.302 161.647 178.844  1.00  0.00     0.004 C 
ENDBRANCH   3   4
BRANCH   3   6
ATOM      6  C   UNL     1     171.990 160.699 181.122  1.00  0.00    -0.014 C 
ATOM      7  C   UNL     1     172.336 162.182 181.357  1.00  0.00     0.007 C 
ATOM      8  C   UNL     1     172.455 159.892 182.352  1.00  0.00     0.007 C 
ENDBRANCH   3   6
ENDBRANCH   2   3
ENDBRANCH   1   2
BRANCH   1   9
ATOM      9  C   UNL     1     167.366 160.604 182.972  1.00  0.00    -0.011 C 
ATOM     10  C   UNL     1     166.968 160.438 184.458  1.00  0.00     0.008 C 
BRANCH   9  11
ATOM     11  C   UNL     1     166.518 161.674 182.180  1.00  0.00    -0.002 C 
ATOM     12  C   UNL     1     165.501 162.387 183.080  1.00  0.00     0.005 C 
ATOM     13  C   UNL     1     165.689 161.183 180.935  1.00  0.00    -0.026 C 
ATOM     14  C   UNL     1     164.128 161.797 182.766  1.00  0.00     0.005 C 
ATOM     15  C   UNL     1     164.275 160.909 181.512  1.00  0.00    -0.001 C 
ATOM     16  C   UNL     1     165.641 162.296 179.822  1.00  0.00     0.007 C 
ATOM     17  C   UNL     1     166.279 159.911 180.269  1.00  0.00     0.012 C 
ATOM     18  C   UNL     1     163.128 161.059 180.463  1.00  0.00     0.000 C 
ATOM     19  C   UNL     1     164.420 163.221 179.912  1.00  0.00     0.005 C 
ATOM     20  C   UNL     1     163.098 162.437 179.698  1.00  0.00     0.003 C 
ATOM     21  C   UNL     1     161.769 160.637 181.050  1.00  0.00     0.031 C 
ATOM     22  C   UNL     1     161.749 163.287 179.865  1.00  0.00    -0.008 C 
ATOM     23  C   UNL     1     161.075 161.769 181.732  1.00  0.00    -0.027 C 
ATOM     24  C   UNL     1     161.063 163.010 181.212  1.00  0.00    -0.065 C 
ATOM     25  C   UNL     1     162.007 164.824 179.705  1.00  0.00     0.014 C 
ATOM     26  C   UNL     1     160.759 162.863 178.742  1.00  0.00     0.016 C 
ATOM     27  C   UNL     1     160.067 163.995 181.801  1.00  0.00     0.063 C 
ATOM     28  C   UNL     1     160.810 165.696 180.097  1.00  0.00     0.033 C 
ATOM     29  C   UNL     1     160.438 165.461 181.566  1.00  0.00     0.118 C 
BRANCH  29  30
ATOM     30  O   UNL     1     161.503 165.819 182.413  1.00  0.00    -0.393 OA
ATOM     31  H   UNL     1     162.306 165.922 181.840  1.00  0.00     0.210 HD
ENDBRANCH  29  30
ENDBRANCH   9  11
ENDBRANCH   1   9
TORSDOF 7
ENDMDL
MODEL 6
REMARK VINA RESULT:    -6.158     14.711     18.431
REMARK INTER + INTRA:          -9.768
REMARK INTER:                  -8.234
REMARK INTRA:                  -1.534
REMARK UNBOUND:                -1.270
REMARK SMILES CC[C@H](CC[C@@H](C)[C@@H]1CC[C@H]2[C@H]3CC=C4C[C@@H](O)CC[C@@]4(C)[C@H]3CC[C@]21C)C(C)C
REMARK SMILES IDX 5 1 4 2 3 3 2 4 1 5 28 6 29 7 30 8 6 9 7 10 8 11 9 12 26 13
REMARK SMILES IDX 10 14 11 15 25 16 27 17 12 18 24 19 23 20 13 21 21 22 14 23
REMARK SMILES IDX 15 24 20 25 22 26 16 27 19 28 17 29 18 30
REMARK H PARENT 18 31
REMARK Flexibility Score: inf
ROOT
ATOM      1  C   UNL     1     171.007 177.595 180.191  1.00  0.00     0.004 C 
ENDROOT
BRANCH   1   2
ATOM      2  C   UNL     1     171.248 179.127 180.234  1.00  0.00     0.004 C 
BRANCH   2   3
ATOM      3  C   UNL     1     169.999 179.977 180.624  1.00  0.00    -0.009 C 
BRANCH   3   4
ATOM      4  C   UNL     1     168.719 179.441 179.921  1.00  0.00     0.000 C 
ATOM      5  C   UNL     1     168.604 179.883 178.459  1.00  0.00     0.004 C 
ENDBRANCH   3   4
BRANCH   3   6
ATOM      6  C   UNL     1     169.792 180.123 182.176  1.00  0.00    -0.014 C 
ATOM      7  C   UNL     1     168.904 179.009 182.766  1.00  0.00     0.007 C 
ATOM      8  C   UNL     1     171.136 180.122 182.932  1.00  0.00     0.007 C 
ENDBRANCH   3   6
ENDBRANCH   2   3
ENDBRANCH   1   2
BRANCH   1   9
ATOM      9  C   UNL     1     171.647 176.841 181.392  1.00  0.00    -0.011 C 
ATOM     10  C   UNL     1     170.621 175.843 181.981  1.00  0.00     0.008 C 
BRANCH   9  11
ATOM     11  C   UNL     1     173.029 176.196 180.984  1.00  0.00    -0.002 C 
ATOM     12  C   UNL     1     173.064 174.686 181.248  1.00  0.00     0.005 C 
ATOM     13  C   UNL     1     174.333 176.761 181.659  1.00  0.00    -0.026 C 
ATOM     14  C   UNL     1     173.899 174.467 182.506  1.00  0.00     0.005 C 
ATOM     15  C   UNL     1     174.572 175.810 182.862  1.00  0.00    -0.001 C 
ATOM     16  C   UNL     1     175.546 176.718 180.655  1.00  0.00     0.007 C 
ATOM     17  C   UNL     1     174.193 178.234 182.128  1.00  0.00     0.012 C 
ATOM     18  C   UNL     1     176.070 175.703 183.291  1.00  0.00     0.000 C 
ATOM     19  C   UNL     1     176.392 175.442 180.747  1.00  0.00     0.005 C 
ATOM     20  C   UNL     1     177.069 175.308 182.137  1.00  0.00     0.003 C 
ATOM     21  C   UNL     1     176.229 174.865 184.573  1.00  0.00     0.031 C 
ATOM     22  C   UNL     1     177.903 173.962 182.380  1.00  0.00    -0.008 C 
ATOM     23  C   UNL     1     176.375 173.408 184.279  1.00  0.00    -0.027 C 
ATOM     24  C   UNL     1     177.133 172.964 183.260  1.00  0.00    -0.065 C 
ATOM     25  C   UNL     1     178.309 173.278 181.030  1.00  0.00     0.014 C 
ATOM     26  C   UNL     1     179.217 174.325 183.129  1.00  0.00     0.016 C 
ATOM     27  C   UNL     1     177.477 171.484 183.252  1.00  0.00     0.063 C 
ATOM     28  C   UNL     1     178.888 171.869 181.199  1.00  0.00     0.033 C 
ATOM     29  C   UNL     1     177.861 170.949 181.870  1.00  0.00     0.118 C 
BRANCH  29  30
ATOM     30  O   UNL     1     176.708 170.826 181.075  1.00  0.00    -0.393 OA
ATOM     31  H   UNL     1     175.937 170.743 181.695  1.00  0.00     0.210 HD
ENDBRANCH  29  30
ENDBRANCH   9  11
ENDBRANCH   1   9
TORSDOF 7
ENDMDL
MODEL 7
REMARK VINA RESULT:    -6.128      3.792      7.052
REMARK INTER + INTRA:          -9.726
REMARK INTER:                  -7.982
REMARK INTRA:                  -1.745
REMARK UNBOUND:                -1.270
REMARK SMILES CC[C@H](CC[C@@H](C)[C@@H]1CC[C@H]2[C@H]3CC=C4C[C@@H](O)CC[C@@]4(C)[C@H]3CC[C@]21C)C(C)C
REMARK SMILES IDX 5 1 4 2 3 3 2 4 1 5 28 6 29 7 30 8 6 9 7 10 8 11 9 12 26 13
REMARK SMILES IDX 10 14 11 15 25 16 27 17 12 18 24 19 23 20 13 21 21 22 14 23
REMARK SMILES IDX 15 24 20 25 22 26 16 27 19 28 17 29 18 30
REMARK H PARENT 18 31
REMARK Flexibility Score: inf
ROOT
ATOM      1  C   UNL     1     162.711 160.646 181.663  1.00  0.00     0.004 C 
ENDROOT
BRANCH   1   2
ATOM      2  C   UNL     1     163.685 161.023 182.811  1.00  0.00     0.004 C 
BRANCH   2   3
ATOM      3  C   UNL     1     165.172 160.620 182.570  1.00  0.00    -0.009 C 
BRANCH   3   4
ATOM      4  C   UNL     1     165.455 160.418 181.053  1.00  0.00     0.000 C 
ATOM      5  C   UNL     1     166.945 160.272 180.731  1.00  0.00     0.004 C 
ENDBRANCH   3   4
BRANCH   3   6
ATOM      6  C   UNL     1     166.209 161.601 183.229  1.00  0.00    -0.014 C 
ATOM      7  C   UNL     1     165.540 162.835 183.866  1.00  0.00     0.007 C 
ATOM      8  C   UNL     1     167.052 160.894 184.311  1.00  0.00     0.007 C 
ENDBRANCH   3   6
ENDBRANCH   2   3
ENDBRANCH   1   2
BRANCH   1   9
ATOM      9  C   UNL     1     161.705 161.780 181.316  1.00  0.00    -0.011 C 
ATOM     10  C   UNL     1     160.272 161.331 181.689  1.00  0.00     0.008 C 
BRANCH   9  11
ATOM     11  C   UNL     1     162.152 163.150 181.960  1.00  0.00    -0.002 C 
ATOM     12  C   UNL     1     160.972 163.914 182.573  1.00  0.00     0.005 C 
ATOM     13  C   UNL     1     162.882 164.195 181.037  1.00  0.00    -0.026 C 
ATOM     14  C   UNL     1     160.623 165.049 181.614  1.00  0.00     0.005 C 
ATOM     15  C   UNL     1     161.740 165.125 180.550  1.00  0.00    -0.001 C 
ATOM     16  C   UNL     1     163.962 165.002 181.852  1.00  0.00     0.007 C 
ATOM     17  C   UNL     1     163.623 163.542 179.839  1.00  0.00     0.012 C 
ATOM     18  C   UNL     1     162.214 166.571 180.197  1.00  0.00     0.000 C 
ATOM     19  C   UNL     1     163.444 166.317 182.448  1.00  0.00     0.005 C 
ATOM     20  C   UNL     1     163.010 167.311 181.338  1.00  0.00     0.003 C 
ATOM     21  C   UNL     1     161.073 167.403 179.585  1.00  0.00     0.031 C 
ATOM     22  C   UNL     1     162.363 168.685 181.849  1.00  0.00    -0.008 C 
ATOM     23  C   UNL     1     160.261 168.098 180.629  1.00  0.00    -0.027 C 
ATOM     24  C   UNL     1     160.833 168.687 181.695  1.00  0.00    -0.065 C 
ATOM     25  C   UNL     1     162.749 168.993 183.335  1.00  0.00     0.014 C 
ATOM     26  C   UNL     1     162.920 169.846 180.975  1.00  0.00     0.016 C 
ATOM     27  C   UNL     1     159.965 169.635 182.506  1.00  0.00     0.063 C 
ATOM     28  C   UNL     1     161.964 170.157 183.950  1.00  0.00     0.033 C 
ATOM     29  C   UNL     1     160.461 169.851 183.938  1.00  0.00     0.118 C 
BRANCH  29  30
ATOM     30  O   UNL     1     160.179 168.710 184.711  1.00  0.00    -0.393 OA
ATOM     31  H   UNL     1     160.028 169.022 185.641  1.00  0.00     0.210 HD
ENDBRANCH  29  30
ENDBRANCH   9  11
ENDBRANCH   1   9
TORSDOF 7
ENDMDL
MODEL 8
REMARK VINA RESULT:    -6.077      1.582      2.755
REMARK INTER + INTRA:          -9.656
REMARK INTER:                  -7.837
REMARK INTRA:                  -1.819
REMARK UNBOUND:                -1.270
REMARK SMILES CC[C@H](CC[C@@H](C)[C@@H]1CC[C@H]2[C@H]3CC=C4C[C@@H](O)CC[C@@]4(C)[C@H]3CC[C@]21C)C(C)C
REMARK SMILES IDX 5 1 4 2 3 3 2 4 1 5 28 6 29 7 30 8 6 9 7 10 8 11 9 12 26 13
REMARK SMILES IDX 10 14 11 15 25 16 27 17 12 18 24 19 23 20 13 21 21 22 14 23
REMARK SMILES IDX 15 24 20 25 22 26 16 27 19 28 17 29 18 30
REMARK H PARENT 18 31
REMARK Flexibility Score: inf
ROOT
ATOM      1  C   UNL     1     169.537 163.525 182.561  1.00  0.00     0.004 C 
ENDROOT
BRANCH   1   2
ATOM      2  C   UNL     1     170.386 162.293 182.148  1.00  0.00     0.004 C 
BRANCH   2   3
ATOM      3  C   UNL     1     170.655 162.164 180.617  1.00  0.00    -0.009 C 
BRANCH   3   4
ATOM      4  C   UNL     1     172.182 162.124 180.322  1.00  0.00     0.000 C 
ATOM      5  C   UNL     1     173.038 162.001 181.586  1.00  0.00     0.004 C 
ENDBRANCH   3   4
BRANCH   3   6
ATOM      6  C   UNL     1     169.900 160.963 179.940  1.00  0.00    -0.014 C 
ATOM      7  C   UNL     1     169.389 159.928 180.962  1.00  0.00     0.007 C 
ATOM      8  C   UNL     1     168.700 161.447 179.099  1.00  0.00     0.007 C 
ENDBRANCH   3   6
ENDBRANCH   2   3
ENDBRANCH   1   2
BRANCH   1   9
ATOM      9  C   UNL     1     168.199 163.142 183.256  1.00  0.00    -0.011 C 
ATOM     10  C   UNL     1     167.709 164.328 184.121  1.00  0.00     0.008 C 
BRANCH   9  11
ATOM     11  C   UNL     1     167.146 162.617 182.205  1.00  0.00    -0.002 C 
ATOM     12  C   UNL     1     166.294 163.752 181.623  1.00  0.00     0.005 C 
ATOM     13  C   UNL     1     166.111 161.530 182.677  1.00  0.00    -0.026 C 
ATOM     14  C   UNL     1     164.924 163.676 182.291  1.00  0.00     0.005 C 
ATOM     15  C   UNL     1     164.863 162.356 183.088  1.00  0.00    -0.001 C 
ATOM     16  C   UNL     1     165.771 160.534 181.506  1.00  0.00     0.007 C 
ATOM     17  C   UNL     1     166.626 160.668 183.861  1.00  0.00     0.012 C 
ATOM     18  C   UNL     1     163.519 161.570 182.959  1.00  0.00     0.000 C 
ATOM     19  C   UNL     1     164.542 160.934 180.679  1.00  0.00     0.005 C 
ATOM     20  C   UNL     1     163.252 160.931 181.543  1.00  0.00     0.003 C 
ATOM     21  C   UNL     1     162.336 162.384 183.513  1.00  0.00     0.031 C 
ATOM     22  C   UNL     1     161.919 161.425 180.805  1.00  0.00    -0.008 C 
ATOM     23  C   UNL     1     161.730 163.273 182.477  1.00  0.00    -0.027 C 
ATOM     24  C   UNL     1     161.539 162.858 181.212  1.00  0.00    -0.065 C 
ATOM     25  C   UNL     1     162.048 161.331 179.246  1.00  0.00     0.014 C 
ATOM     26  C   UNL     1     160.747 160.495 181.230  1.00  0.00     0.016 C 
ATOM     27  C   UNL     1     160.629 163.706 180.339  1.00  0.00     0.063 C 
ATOM     28  C   UNL     1     160.907 162.018 178.488  1.00  0.00     0.033 C 
ATOM     29  C   UNL     1     160.857 163.510 178.838  1.00  0.00     0.118 C 
BRANCH  29  30
ATOM     30  O   UNL     1     162.049 164.152 178.456  1.00  0.00    -0.393 OA
ATOM     31  H   UNL     1     161.945 164.409 177.503  1.00  0.00     0.210 HD
ENDBRANCH  29  30
ENDBRANCH   9  11
ENDBRANCH   1   9
TORSDOF 7
ENDMDL
MODEL 9
REMARK VINA RESULT:    -6.046     14.887     16.771
REMARK INTER + INTRA:          -9.613
REMARK INTER:                  -8.108
REMARK INTRA:                  -1.505
REMARK UNBOUND:                -1.270
REMARK SMILES CC[C@H](CC[C@@H](C)[C@@H]1CC[C@H]2[C@H]3CC=C4C[C@@H](O)CC[C@@]4(C)[C@H]3CC[C@]21C)C(C)C
REMARK SMILES IDX 5 1 4 2 3 3 2 4 1 5 28 6 29 7 30 8 6 9 7 10 8 11 9 12 26 13
REMARK SMILES IDX 10 14 11 15 25 16 27 17 12 18 24 19 23 20 13 21 21 22 14 23
REMARK SMILES IDX 15 24 20 25 22 26 16 27 19 28 17 29 18 30
REMARK H PARENT 18 31
REMARK Flexibility Score: inf
ROOT
ATOM      1  C   UNL     1     175.628 176.799 182.358  1.00  0.00     0.004 C 
ENDROOT
BRANCH   1   2
ATOM      2  C   UNL     1     176.254 175.514 181.754  1.00  0.00     0.004 C 
BRANCH   2   3
ATOM      3  C   UNL     1     176.079 174.228 182.620  1.00  0.00    -0.009 C 
BRANCH   3   4
ATOM      4  C   UNL     1     177.408 173.855 183.337  1.00  0.00     0.000 C 
ATOM      5  C   UNL     1     178.638 174.525 182.717  1.00  0.00     0.004 C 
ENDBRANCH   3   4
BRANCH   3   6
ATOM      6  C   UNL     1     174.875 174.303 183.628  1.00  0.00    -0.014 C 
ATOM      7  C   UNL     1     173.626 173.555 183.120  1.00  0.00     0.007 C 
ATOM      8  C   UNL     1     175.254 173.730 185.009  1.00  0.00     0.007 C 
ENDBRANCH   3   6
ENDBRANCH   2   3
ENDBRANCH   1   2
BRANCH   1   9
ATOM      9  C   UNL     1     174.525 177.425 181.458  1.00  0.00    -0.011 C 
ATOM     10  C   UNL     1     174.528 176.727 180.076  1.00  0.00     0.008 C 
BRANCH   9  11
ATOM     11  C   UNL     1     173.127 177.422 182.191  1.00  0.00    -0.002 C 
ATOM     12  C   UNL     1     172.121 176.483 181.515  1.00  0.00     0.005 C 
ATOM     13  C   UNL     1     172.371 178.793 182.342  1.00  0.00    -0.026 C 
ATOM     14  C   UNL     1     171.147 177.356 180.728  1.00  0.00     0.005 C 
ATOM     15  C   UNL     1     171.410 178.825 181.124  1.00  0.00    -0.001 C 
ATOM     16  C   UNL     1     171.570 178.845 183.697  1.00  0.00     0.007 C 
ATOM     17  C   UNL     1     173.321 180.021 182.337  1.00  0.00     0.012 C 
ATOM     18  C   UNL     1     170.126 179.683 181.358  1.00  0.00     0.000 C 
ATOM     19  C   UNL     1     170.113 178.379 183.582  1.00  0.00     0.005 C 
ATOM     20  C   UNL     1     169.294 179.303 182.642  1.00  0.00     0.003 C 
ATOM     21  C   UNL     1     169.283 179.797 180.075  1.00  0.00     0.031 C 
ATOM     22  C   UNL     1     167.779 178.856 182.373  1.00  0.00    -0.008 C 
ATOM     23  C   UNL     1     168.311 178.671 179.938  1.00  0.00    -0.027 C 
ATOM     24  C   UNL     1     167.613 178.207 180.990  1.00  0.00    -0.065 C 
ATOM     25  C   UNL     1     167.253 177.884 183.484  1.00  0.00     0.014 C 
ATOM     26  C   UNL     1     166.879 180.125 182.403  1.00  0.00     0.016 C 
ATOM     27  C   UNL     1     166.430 177.302 180.685  1.00  0.00     0.063 C 
ATOM     28  C   UNL     1     165.906 177.233 183.150  1.00  0.00     0.033 C 
ATOM     29  C   UNL     1     166.018 176.412 181.860  1.00  0.00     0.118 C 
BRANCH  29  30
ATOM     30  O   UNL     1     166.951 175.370 182.012  1.00  0.00    -0.393 OA
ATOM     31  H   UNL     1     167.241 175.107 181.100  1.00  0.00     0.210 HD
ENDBRANCH  29  30
ENDBRANCH   9  11
ENDBRANCH   1   9
TORSDOF 7
ENDMDL
