MODEL 1
REMARK VINA RESULT:    32.199      0.000      0.000
REMARK INTER + INTRA:          44.496
REMARK INTER:                  44.434
REMARK INTRA:                   0.062
REMARK UNBOUND:                 0.062
REMARK SMILES CC[C@@H](CC[C@H](C)[C@H]1CC[C@@H]2[C@H]3CC=C4C[C@@H](O)CC[C@]4(C)[C@@H]3CC[C@@]21C)C(C)C
REMARK SMILES IDX 5 1 4 2 3 3 2 4 1 5 28 6 29 7 30 8 6 9 7 10 8 11 9 12 26 13
REMARK SMILES IDX 10 14 11 15 25 16 27 17 12 18 24 19 23 20 13 21 21 22 14 23
REMARK SMILES IDX 15 24 20 25 22 26 16 27 19 28 17 29 18 30
REMARK H PARENT 18 31
REMARK Flexibility Score: inf
ROOT
ATOM      1  C   UNL     1       3.448  77.770   8.549  1.00  0.00     0.004 C 
ENDROOT
BRANCH   1   2
ATOM      2  C   UNL     1       2.951  78.899   9.485  1.00  0.00     0.004 C 
BRANCH   2   3
ATOM      3  C   UNL     1       3.652  79.007  10.875  1.00  0.00    -0.009 C 
BRANCH   3   4
ATOM      4  C   UNL     1       5.022  78.270  10.898  1.00  0.00     0.000 C 
ATOM      5  C   UNL     1       5.911  78.615  12.095  1.00  0.00     0.004 C 
ENDBRANCH   3   4
BRANCH   3   6
ATOM      6  C   UNL     1       2.690  78.548  12.031  1.00  0.00    -0.014 C 
ATOM      7  C   UNL     1       1.266  79.115  11.878  1.00  0.00     0.007 C 
ATOM      8  C   UNL     1       2.597  77.011  12.125  1.00  0.00     0.007 C 
ENDBRANCH   3   6
ENDBRANCH   2   3
ENDBRANCH   1   2
BRANCH   1   9
ATOM      9  C   UNL     1       2.362  77.010   7.735  1.00  0.00    -0.011 C 
ATOM     10  C   UNL     1       2.373  75.506   8.105  1.00  0.00     0.008 C 
BRANCH   9  11
ATOM     11  C   UNL     1       2.566  77.187   6.179  1.00  0.00    -0.002 C 
ATOM     12  C   UNL     1       1.861  78.437   5.649  1.00  0.00     0.005 C 
ATOM     13  C   UNL     1       4.025  77.305   5.603  1.00  0.00    -0.026 C 
ATOM     14  C   UNL     1       2.426  78.675   4.269  1.00  0.00     0.005 C 
ATOM     15  C   UNL     1       3.874  78.164   4.295  1.00  0.00    -0.001 C 
ATOM     16  C   UNL     1       4.619  75.899   5.276  1.00  0.00     0.007 C 
ATOM     17  C   UNL     1       4.966  78.068   6.576  1.00  0.00     0.012 C 
ATOM     18  C   UNL     1       4.233  77.413   2.977  1.00  0.00     0.000 C 
ATOM     19  C   UNL     1       5.871  75.990   4.397  1.00  0.00     0.005 C 
ATOM     20  C   UNL     1       5.628  76.741   3.053  1.00  0.00     0.003 C 
ATOM     21  C   UNL     1       4.234  78.383   1.781  1.00  0.00     0.031 C 
ATOM     22  C   UNL     1       5.932  75.887   1.757  1.00  0.00    -0.008 C 
ATOM     23  C   UNL     1       4.655  77.699   0.515  1.00  0.00    -0.027 C 
ATOM     24  C   UNL     1       5.476  76.624   0.484  1.00  0.00    -0.065 C 
ATOM     25  C   UNL     1       5.186  74.509   1.759  1.00  0.00     0.014 C 
ATOM     26  C   UNL     1       7.468  75.668   1.688  1.00  0.00     0.016 C 
ATOM     27  C   UNL     1       5.656  75.905  -0.837  1.00  0.00     0.063 C 
ATOM     28  C   UNL     1       5.305  73.735   0.426  1.00  0.00     0.033 C 
ATOM     29  C   UNL     1       4.879  74.579  -0.789  1.00  0.00     0.118 C 
BRANCH  29  30
ATOM     30  O   UNL     1       5.117  73.847  -1.961  1.00  0.00    -0.393 OA
ATOM     31  H   UNL     1       4.907  72.899  -1.757  1.00  0.00     0.210 HD
ENDBRANCH  29  30
ENDBRANCH   9  11
ENDBRANCH   1   9
TORSDOF 7
ENDMDL
