MODEL 1
REMARK VINA RESULT:    -4.896      0.000      0.000
REMARK INTER + INTRA:         -10.463
REMARK INTER:                 -10.335
REMARK INTRA:                  -0.128
REMARK UNBOUND:                -0.128
REMARK SMILES CCC(=O)CCCCC[C@H]1NC(=O)[C@H]2CCCCN2C(=O)[C@H]([C@H](C)CC)NC(=O)[C@H](Cc2cn(OC)c3ccccc23)NC1=O
REMARK SMILES IDX 9 1 10 2 44 3 43 4 45 6 30 7 28 8 27 9 29 11 22 12 23 14
REMARK SMILES IDX 24 15 25 16 26 17 31 18 32 19 33 20 42 21 34 22 37 23 41 24
REMARK SMILES IDX 38 25 40 26 39 27 35 28 36 29 11 30 12 31 13 33 14 34 19 35
REMARK SMILES IDX 15 36 18 37 16 38 17 39 20 40 21 41 8 43 7 44 6 45 5 46 3 47
REMARK SMILES IDX 4 48 2 49 1 50
REMARK H PARENT 43 5 27 10 11 32
REMARK Flexibility Score: 80.00
ROOT
ATOM      1  C   UNL     1      15.829 -16.877  36.393  1.00  0.00     0.035 C 
ENDROOT
BRANCH   1   2
ATOM      2  C   UNL     1      15.910 -16.943  37.934  1.00  0.00     0.171 C 
BRANCH   2   3
ATOM      3  C   UNL     1      16.091 -18.341  38.460  1.00  0.00     0.243 C 
ATOM      4  N   UNL     1      15.106 -18.882  39.345  1.00  0.00    -0.342 N 
ATOM      5  H   UNL     1      14.564 -18.206  39.936  1.00  0.00     0.164 HD
ATOM      6  O   UNL     1      17.055 -19.063  38.070  1.00  0.00    -0.273 OA
BRANCH   4   7
ATOM      7  C   UNL     1      14.489 -20.177  39.063  1.00  0.00     0.175 C 
BRANCH   7   8
ATOM      8  C   UNL     1      13.132 -19.962  38.430  1.00  0.00     0.243 C 
ATOM      9  N   UNL     1      12.358 -18.798  38.761  1.00  0.00    -0.342 N 
ATOM     10  H   UNL     1      12.813 -18.081  39.371  1.00  0.00     0.164 HD
ATOM     11  O   UNL     1      12.721 -20.774  37.558  1.00  0.00    -0.273 OA
BRANCH   9  12
ATOM     12  C   UNL     1      10.908 -18.654  38.564  1.00  0.00     0.174 CG0
ATOM     13  G   UNL     1      10.627 -17.394  37.760  1.00  0.00     0.000 G0
BRANCH  12  14
ATOM     14  C   UNL     1      10.064 -18.844  39.863  1.00  0.00     0.018 C 
ATOM     15  C   UNL     1      10.732 -18.146  41.063  1.00  0.00     0.010 C 
BRANCH  14  16
ATOM     16  C   UNL     1       9.878 -20.354  40.176  1.00  0.00     0.002 C 
ATOM     17  C   UNL     1      10.017 -21.237  38.934  1.00  0.00     0.004 C 
ENDBRANCH  14  16
ENDBRANCH  12  14
ENDBRANCH   9  12
ENDBRANCH   7   8
BRANCH   7  18
ATOM     18  C   UNL     1      14.365 -20.992  40.364  1.00  0.00     0.073 C 
BRANCH  18  19
ATOM     19  C   UNL     1      13.734 -22.332  40.108  1.00  0.00    -0.016 A 
ATOM     20  C   UNL     1      12.519 -22.789  40.599  1.00  0.00     0.134 A 
ATOM     21  C   UNL     1      14.175 -23.310  39.238  1.00  0.00     0.006 A 
ATOM     22  N   UNL     1      12.221 -24.002  40.078  1.00  0.00    -0.191 N 
ATOM     23  C   UNL     1      13.243 -24.327  39.243  1.00  0.00     0.087 A 
ATOM     24  C   UNL     1      15.327 -23.358  38.451  1.00  0.00     0.011 A 
ATOM     25  C   UNL     1      13.444 -25.478  38.459  1.00  0.00     0.030 A 
ATOM     26  C   UNL     1      15.542 -24.505  37.668  1.00  0.00     0.001 A 
ATOM     27  C   UNL     1      14.607 -25.559  37.674  1.00  0.00     0.002 A 
BRANCH  22  28
ATOM     28  O   UNL     1      11.043 -24.671  40.381  1.00  0.00    -0.417 OA
ATOM     29  C   UNL     1       9.937 -24.806  39.503  1.00  0.00     0.313 C 
ENDBRANCH  22  28
ENDBRANCH  18  19
ENDBRANCH   7  18
ENDBRANCH   4   7
ENDBRANCH   2   3
BRANCH   2  30
ATOM     30  N   UNL     1      14.735 -16.333  38.567  1.00  0.00    -0.343 N 
ATOM     31  C   UNL     1      13.443 -16.224  37.943  1.00  0.00     0.243 C 
ATOM     32  H   UNL     1      14.831 -16.030  39.564  1.00  0.00     0.164 HD
ATOM     33  O   UNL     1      13.295 -16.512  36.725  1.00  0.00    -0.273 OA
BRANCH  31  34
ATOM     34  C   UNL     1      12.284 -15.671  38.738  1.00  0.00     0.174 C 
ATOM     35  N   UNL     1      10.969 -16.046  38.160  1.00  0.00    -0.329 N 
ATOM     36  C   UNL     1      12.448 -14.140  38.823  1.00  0.00     0.035 C 
ATOM     37  C   UNL     1      10.063 -14.981  37.707  1.00  0.00     0.120 C 
ATOM     38  C   UNL     1      11.213 -13.473  39.441  1.00  0.00     0.004 C 
ATOM     39  C   UNL     1       9.880 -13.938  38.812  1.00  0.00     0.022 C 
BRANCH  35  40
ATOM     40  C   UNL     1      10.673 -17.397  37.738  1.00  0.00     0.246 CG0
ATOM     41  O   UNL     1      10.106 -17.566  36.626  1.00  0.00    -0.272 OA
ATOM     42  G   UNL     1      10.918 -18.629  38.594  1.00  0.00     0.000 G0
ENDBRANCH  35  40
ENDBRANCH  31  34
ENDBRANCH   2  30
ENDBRANCH   1   2
BRANCH   1  43
ATOM     43  C   UNL     1      16.732 -15.774  35.821  1.00  0.00     0.003 C 
BRANCH  43  44
ATOM     44  C   UNL     1      15.996 -14.434  35.755  1.00  0.00     0.001 C 
BRANCH  44  45
ATOM     45  C   UNL     1      16.956 -13.270  36.043  1.00  0.00     0.008 C 
BRANCH  45  46
ATOM     46  C   UNL     1      18.422 -13.646  35.774  1.00  0.00     0.075 C 
BRANCH  46  47
ATOM     47  C   UNL     1      18.801 -13.462  34.317  1.00  0.00     0.132 C 
ATOM     48  O   UNL     1      19.346 -12.418  33.982  1.00  0.00    -0.300 OA
BRANCH  47  49
ATOM     49  C   UNL     1      18.483 -14.473  33.237  1.00  0.00     0.072 C 
ATOM     50  C   UNL     1      19.245 -14.280  31.925  1.00  0.00     0.012 C 
ENDBRANCH  47  49
ENDBRANCH  46  47
ENDBRANCH  45  46
ENDBRANCH  44  45
ENDBRANCH  43  44
ENDBRANCH   1  43
TORSDOF 12
ENDMDL
MODEL 2
REMARK VINA RESULT:    -4.228      1.344      2.076
REMARK INTER + INTRA:          -9.052
REMARK INTER:                  -8.660
REMARK INTRA:                  -0.392
REMARK UNBOUND:                -0.128
REMARK SMILES CCC(=O)CCCCC[C@H]1NC(=O)[C@H]2CCCCN2C(=O)[C@H]([C@H](C)CC)NC(=O)[C@H](Cc2cn(OC)c3ccccc23)NC1=O
REMARK SMILES IDX 9 1 10 2 44 3 43 4 45 6 30 7 28 8 27 9 29 11 22 12 23 14
REMARK SMILES IDX 24 15 25 16 26 17 31 18 32 19 33 20 42 21 34 22 37 23 41 24
REMARK SMILES IDX 38 25 40 26 39 27 35 28 36 29 11 30 12 31 13 33 14 34 19 35
REMARK SMILES IDX 15 36 18 37 16 38 17 39 20 40 21 41 8 43 7 44 6 45 5 46 3 47
REMARK SMILES IDX 4 48 2 49 1 50
REMARK H PARENT 43 5 27 10 11 32
REMARK Flexibility Score: 80.00
ROOT
ATOM      1  C   UNL     1      15.852 -16.868  36.178  1.00  0.00     0.035 C 
ENDROOT
BRANCH   1   2
ATOM      2  C   UNL     1      15.959 -16.978  37.715  1.00  0.00     0.171 C 
BRANCH   2   3
ATOM      3  C   UNL     1      16.174 -18.387  38.195  1.00  0.00     0.243 C 
ATOM      4  N   UNL     1      15.300 -18.920  39.195  1.00  0.00    -0.342 N 
ATOM      5  H   UNL     1      14.855 -18.241  39.859  1.00  0.00     0.164 HD
ATOM      6  O   UNL     1      17.062 -19.124  37.675  1.00  0.00    -0.273 OA
BRANCH   4   7
ATOM      7  C   UNL     1      14.621 -20.197  38.979  1.00  0.00     0.175 C 
BRANCH   7   8
ATOM      8  C   UNL     1      13.296 -19.954  38.292  1.00  0.00     0.243 C 
ATOM      9  N   UNL     1      12.399 -18.949  38.790  1.00  0.00    -0.342 N 
ATOM     10  H   UNL     1      12.744 -18.347  39.572  1.00  0.00     0.164 HD
ATOM     11  O   UNL     1      13.020 -20.589  37.239  1.00  0.00    -0.273 OA
BRANCH   9  12
ATOM     12  C   UNL     1      10.958 -18.875  38.504  1.00  0.00     0.174 CG0
ATOM     13  G   UNL     1      10.665 -17.628  37.684  1.00  0.00     0.000 G0
BRANCH  12  14
ATOM     14  C   UNL     1      10.046 -19.109  39.749  1.00  0.00     0.018 C 
ATOM     15  C   UNL     1      10.630 -18.423  40.998  1.00  0.00     0.010 C 
BRANCH  14  16
ATOM     16  C   UNL     1       9.875 -20.630  40.021  1.00  0.00     0.002 C 
ATOM     17  C   UNL     1       9.875 -21.464  38.738  1.00  0.00     0.004 C 
ENDBRANCH  14  16
ENDBRANCH  12  14
ENDBRANCH   9  12
ENDBRANCH   7   8
BRANCH   7  18
ATOM     18  C   UNL     1      14.416 -20.914  40.327  1.00  0.00     0.073 C 
BRANCH  18  19
ATOM     19  C   UNL     1      13.861 -22.297  40.128  1.00  0.00    -0.016 A 
ATOM     20  C   UNL     1      12.695 -22.814  40.674  1.00  0.00     0.134 A 
ATOM     21  C   UNL     1      14.331 -23.269  39.267  1.00  0.00     0.006 A 
ATOM     22  N   UNL     1      12.455 -24.056  40.195  1.00  0.00    -0.191 N 
ATOM     23  C   UNL     1      13.465 -24.341  39.332  1.00  0.00     0.087 A 
ATOM     24  C   UNL     1      15.455 -23.268  38.438  1.00  0.00     0.011 A 
ATOM     25  C   UNL     1      13.708 -25.498  38.569  1.00  0.00     0.030 A 
ATOM     26  C   UNL     1      15.713 -24.421  37.676  1.00  0.00     0.001 A 
ATOM     27  C   UNL     1      14.845 -25.529  37.743  1.00  0.00     0.002 A 
BRANCH  22  28
ATOM     28  O   UNL     1      11.333 -24.787  40.558  1.00  0.00    -0.417 OA
ATOM     29  C   UNL     1      10.172 -24.946  39.758  1.00  0.00     0.313 C 
ENDBRANCH  22  28
ENDBRANCH  18  19
ENDBRANCH   7  18
ENDBRANCH   4   7
ENDBRANCH   2   3
BRANCH   2  30
ATOM     30  N   UNL     1      14.785 -16.409  38.385  1.00  0.00    -0.343 N 
ATOM     31  C   UNL     1      13.463 -16.380  37.817  1.00  0.00     0.243 C 
ATOM     32  H   UNL     1      14.909 -16.074  39.368  1.00  0.00     0.164 HD
ATOM     33  O   UNL     1      13.276 -16.708  36.614  1.00  0.00    -0.273 OA
BRANCH  31  34
ATOM     34  C   UNL     1      12.313 -15.863  38.648  1.00  0.00     0.174 C 
ATOM     35  N   UNL     1      10.992 -16.261  38.102  1.00  0.00    -0.329 N 
ATOM     36  C   UNL     1      12.445 -14.329  38.748  1.00  0.00     0.035 C 
ATOM     37  C   UNL     1      10.051 -15.211  37.686  1.00  0.00     0.120 C 
ATOM     38  C   UNL     1      11.214 -13.697  39.407  1.00  0.00     0.004 C 
ATOM     39  C   UNL     1       9.875 -14.185  38.808  1.00  0.00     0.022 C 
BRANCH  35  40
ATOM     40  C   UNL     1      10.715 -17.612  37.671  1.00  0.00     0.246 CG0
ATOM     41  O   UNL     1      10.176 -17.784  36.546  1.00  0.00    -0.272 OA
ATOM     42  G   UNL     1      10.947 -18.844  38.532  1.00  0.00     0.000 G0
ENDBRANCH  35  40
ENDBRANCH  31  34
ENDBRANCH   2  30
ENDBRANCH   1   2
BRANCH   1  43
ATOM     43  C   UNL     1      16.684 -15.699  35.630  1.00  0.00     0.003 C 
BRANCH  43  44
ATOM     44  C   UNL     1      18.067 -15.649  36.282  1.00  0.00     0.001 C 
BRANCH  44  45
ATOM     45  C   UNL     1      18.171 -14.460  37.251  1.00  0.00     0.008 C 
BRANCH  45  46
ATOM     46  C   UNL     1      17.096 -13.396  36.981  1.00  0.00     0.075 C 
BRANCH  46  47
ATOM     47  C   UNL     1      16.044 -13.358  38.072  1.00  0.00     0.132 C 
ATOM     48  O   UNL     1      14.893 -13.071  37.767  1.00  0.00    -0.300 OA
BRANCH  47  49
ATOM     49  C   UNL     1      16.349 -13.594  39.536  1.00  0.00     0.072 C 
ATOM     50  C   UNL     1      15.335 -14.466  40.276  1.00  0.00     0.012 C 
ENDBRANCH  47  49
ENDBRANCH  46  47
ENDBRANCH  45  46
ENDBRANCH  44  45
ENDBRANCH  43  44
ENDBRANCH   1  43
TORSDOF 12
ENDMDL
MODEL 3
REMARK VINA RESULT:    -3.255      1.683      2.740
REMARK INTER + INTRA:          -6.998
REMARK INTER:                  -9.067
REMARK INTRA:                   2.069
REMARK UNBOUND:                -0.128
REMARK SMILES CCC(=O)CCCCC[C@H]1NC(=O)[C@H]2CCCCN2C(=O)[C@H]([C@H](C)CC)NC(=O)[C@H](Cc2cn(OC)c3ccccc23)NC1=O
REMARK SMILES IDX 9 1 10 2 44 3 43 4 45 6 30 7 28 8 27 9 29 11 22 12 23 14
REMARK SMILES IDX 24 15 25 16 26 17 31 18 32 19 33 20 42 21 34 22 37 23 41 24
REMARK SMILES IDX 38 25 40 26 39 27 35 28 36 29 11 30 12 31 13 33 14 34 19 35
REMARK SMILES IDX 15 36 18 37 16 38 17 39 20 40 21 41 8 43 7 44 6 45 5 46 3 47
REMARK SMILES IDX 4 48 2 49 1 50
REMARK H PARENT 43 5 27 10 11 32
REMARK Flexibility Score: 80.00
ROOT
ATOM      1  C   UNL     1      17.041 -15.442  36.987  1.00  0.00     0.035 C 
ENDROOT
BRANCH   1   2
ATOM      2  C   UNL     1      16.396 -16.289  38.106  1.00  0.00     0.171 C 
BRANCH   2   3
ATOM      3  C   UNL     1      15.825 -17.590  37.612  1.00  0.00     0.243 C 
ATOM      4  N   UNL     1      15.856 -18.733  38.473  1.00  0.00    -0.342 N 
ATOM      5  H   UNL     1      16.620 -18.777  39.189  1.00  0.00     0.164 HD
ATOM      6  O   UNL     1      15.255 -17.664  36.484  1.00  0.00    -0.273 OA
BRANCH   4   7
ATOM      7  C   UNL     1      14.634 -19.490  38.741  1.00  0.00     0.175 C 
BRANCH   7   8
ATOM      8  C   UNL     1      13.474 -18.534  38.902  1.00  0.00     0.243 C 
ATOM      9  N   UNL     1      12.465 -18.445  37.883  1.00  0.00    -0.342 N 
ATOM     10  H   UNL     1      12.524 -19.127  37.093  1.00  0.00     0.164 HD
ATOM     11  O   UNL     1      13.363 -17.871  39.968  1.00  0.00    -0.273 OA
BRANCH   9  12
ATOM     12  C   UNL     1      11.538 -17.319  37.698  1.00  0.00     0.174 CG0
ATOM     13  G   UNL     1      11.583 -16.415  38.920  1.00  0.00     0.000 G0
BRANCH  12  14
ATOM     14  C   UNL     1      10.117 -17.735  37.204  1.00  0.00     0.018 C 
ATOM     15  C   UNL     1       9.920 -19.259  37.310  1.00  0.00     0.010 C 
BRANCH  14  16
ATOM     16  C   UNL     1       9.897 -17.282  35.734  1.00  0.00     0.002 C 
ATOM     17  C   UNL     1      10.006 -15.766  35.560  1.00  0.00     0.004 C 
ENDBRANCH  14  16
ENDBRANCH  12  14
ENDBRANCH   9  12
ENDBRANCH   7   8
BRANCH   7  18
ATOM     18  C   UNL     1      14.818 -20.349  40.006  1.00  0.00     0.073 C 
BRANCH  18  19
ATOM     19  C   UNL     1      14.172 -21.697  39.847  1.00  0.00    -0.016 A 
ATOM     20  C   UNL     1      14.814 -22.911  39.646  1.00  0.00     0.134 A 
ATOM     21  C   UNL     1      12.835 -22.005  40.000  1.00  0.00     0.006 A 
ATOM     22  N   UNL     1      13.922 -23.928  39.653  1.00  0.00    -0.191 N 
ATOM     23  C   UNL     1      12.701 -23.371  39.866  1.00  0.00     0.087 A 
ATOM     24  C   UNL     1      11.743 -21.170  40.251  1.00  0.00     0.011 A 
ATOM     25  C   UNL     1      11.432 -23.973  39.952  1.00  0.00     0.030 A 
ATOM     26  C   UNL     1      10.470 -21.758  40.333  1.00  0.00     0.001 A 
ATOM     27  C   UNL     1      10.315 -23.150  40.183  1.00  0.00     0.002 A 
BRANCH  22  28
ATOM     28  O   UNL     1      14.307 -25.253  39.504  1.00  0.00    -0.417 OA
ATOM     29  C   UNL     1      13.893 -26.105  38.447  1.00  0.00     0.313 C 
ENDBRANCH  22  28
ENDBRANCH  18  19
ENDBRANCH   7  18
ENDBRANCH   4   7
ENDBRANCH   2   3
BRANCH   2  30
ATOM     30  N   UNL     1      15.356 -15.543  38.823  1.00  0.00    -0.343 N 
ATOM     31  C   UNL     1      14.144 -15.058  38.219  1.00  0.00     0.243 C 
ATOM     32  H   UNL     1      15.476 -15.426  39.856  1.00  0.00     0.164 HD
ATOM     33  O   UNL     1      13.986 -15.113  36.969  1.00  0.00    -0.273 OA
BRANCH  31  34
ATOM     34  C   UNL     1      13.101 -14.394  39.086  1.00  0.00     0.174 C 
ATOM     35  N   UNL     1      11.757 -15.004  38.926  1.00  0.00    -0.329 N 
ATOM     36  C   UNL     1      13.082 -12.890  38.747  1.00  0.00     0.035 C 
ATOM     37  C   UNL     1      10.652 -14.169  38.433  1.00  0.00     0.120 C 
ATOM     38  C   UNL     1      11.917 -12.169  39.436  1.00  0.00     0.004 C 
ATOM     39  C   UNL     1      10.557 -12.881  39.254  1.00  0.00     0.022 C 
BRANCH  35  40
ATOM     40  C   UNL     1      11.559 -16.436  38.930  1.00  0.00     0.246 CG0
ATOM     41  O   UNL     1      11.460 -17.024  40.039  1.00  0.00    -0.272 OA
ATOM     42  G   UNL     1      11.556 -17.298  37.678  1.00  0.00     0.000 G0
ENDBRANCH  35  40
ENDBRANCH  31  34
ENDBRANCH   2  30
ENDBRANCH   1   2
BRANCH   1  43
ATOM     43  C   UNL     1      17.011 -13.943  37.316  1.00  0.00     0.003 C 
BRANCH  43  44
ATOM     44  C   UNL     1      17.419 -13.101  36.105  1.00  0.00     0.001 C 
BRANCH  44  45
ATOM     45  C   UNL     1      18.771 -13.569  35.546  1.00  0.00     0.008 C 
BRANCH  45  46
ATOM     46  C   UNL     1      18.989 -13.111  34.095  1.00  0.00     0.075 C 
BRANCH  46  47
ATOM     47  C   UNL     1      18.681 -14.210  33.097  1.00  0.00     0.132 C 
ATOM     48  O   UNL     1      17.993 -15.155  33.460  1.00  0.00    -0.300 OA
BRANCH  47  49
ATOM     49  C   UNL     1      19.232 -14.237  31.687  1.00  0.00     0.072 C 
ATOM     50  C   UNL     1      19.639 -15.620  31.178  1.00  0.00     0.012 C 
ENDBRANCH  47  49
ENDBRANCH  46  47
ENDBRANCH  45  46
ENDBRANCH  44  45
ENDBRANCH  43  44
ENDBRANCH   1  43
TORSDOF 12
ENDMDL
MODEL 4
REMARK VINA RESULT:    -2.402      3.999      8.253
REMARK INTER + INTRA:          -5.199
REMARK INTER:                  -5.920
REMARK INTRA:                   0.722
REMARK UNBOUND:                -0.128
REMARK SMILES CCC(=O)CCCCC[C@H]1NC(=O)[C@H]2CCCCN2C(=O)[C@H]([C@H](C)CC)NC(=O)[C@H](Cc2cn(OC)c3ccccc23)NC1=O
REMARK SMILES IDX 9 1 10 2 44 3 43 4 45 6 30 7 28 8 27 9 29 11 22 12 23 14
REMARK SMILES IDX 24 15 25 16 26 17 31 18 32 19 33 20 42 21 34 22 37 23 41 24
REMARK SMILES IDX 38 25 40 26 39 27 35 28 36 29 11 30 12 31 13 33 14 34 19 35
REMARK SMILES IDX 15 36 18 37 16 38 17 39 20 40 21 41 8 43 7 44 6 45 5 46 3 47
REMARK SMILES IDX 4 48 2 49 1 50
REMARK H PARENT 43 5 27 10 11 32
REMARK Flexibility Score: 80.00
ROOT
ATOM      1  C   UNL     1       9.940 -25.235  38.842  1.00  0.00     0.035 C 
ENDROOT
BRANCH   1   2
ATOM      2  C   UNL     1      11.354 -24.950  38.290  1.00  0.00     0.171 C 
BRANCH   2   3
ATOM      3  C   UNL     1      12.425 -25.004  39.346  1.00  0.00     0.243 C 
ATOM      4  N   UNL     1      13.781 -24.742  38.972  1.00  0.00    -0.342 N 
ATOM      5  H   UNL     1      14.060 -24.956  37.984  1.00  0.00     0.164 HD
ATOM      6  O   UNL     1      12.131 -25.201  40.561  1.00  0.00    -0.273 OA
BRANCH   4   7
ATOM      7  C   UNL     1      14.567 -23.744  39.695  1.00  0.00     0.175 C 
BRANCH   7   8
ATOM      8  C   UNL     1      13.709 -22.529  39.970  1.00  0.00     0.243 C 
ATOM      9  N   UNL     1      13.814 -21.367  39.132  1.00  0.00    -0.342 N 
ATOM     10  H   UNL     1      14.428 -21.441  38.289  1.00  0.00     0.164 HD
ATOM     11  O   UNL     1      12.853 -22.574  40.894  1.00  0.00    -0.273 OA
BRANCH   9  12
ATOM     12  C   UNL     1      13.374 -20.011  39.496  1.00  0.00     0.174 CG0
ATOM     13  G   UNL     1      11.858 -19.933  39.428  1.00  0.00     0.000 G0
BRANCH  12  14
ATOM     14  C   UNL     1      14.155 -18.871  38.771  1.00  0.00     0.018 C 
ATOM     15  C   UNL     1      15.676 -19.061  38.918  1.00  0.00     0.010 C 
BRANCH  14  16
ATOM     16  C   UNL     1      13.745 -17.484  39.338  1.00  0.00     0.002 C 
ATOM     17  C   UNL     1      13.281 -16.513  38.250  1.00  0.00     0.004 C 
ENDBRANCH  14  16
ENDBRANCH  12  14
ENDBRANCH   9  12
ENDBRANCH   7   8
BRANCH   7  18
ATOM     18  C   UNL     1      15.811 -23.362  38.872  1.00  0.00     0.073 C 
BRANCH  18  19
ATOM     19  C   UNL     1      16.890 -24.401  39.002  1.00  0.00    -0.016 A 
ATOM     20  C   UNL     1      17.472 -24.857  40.176  1.00  0.00     0.134 A 
ATOM     21  C   UNL     1      17.412 -25.191  37.996  1.00  0.00     0.006 A 
ATOM     22  N   UNL     1      18.332 -25.868  39.919  1.00  0.00    -0.191 N 
ATOM     23  C   UNL     1      18.302 -26.072  38.575  1.00  0.00     0.087 A 
ATOM     24  C   UNL     1      17.156 -25.185  36.623  1.00  0.00     0.011 A 
ATOM     25  C   UNL     1      19.010 -26.992  37.781  1.00  0.00     0.030 A 
ATOM     26  C   UNL     1      17.862 -26.095  35.818  1.00  0.00     0.001 A 
ATOM     27  C   UNL     1      18.784 -26.992  36.393  1.00  0.00     0.002 A 
BRANCH  22  28
ATOM     28  O   UNL     1      19.027 -26.525  40.925  1.00  0.00    -0.417 OA
ATOM     29  C   UNL     1      19.237 -27.928  40.986  1.00  0.00     0.313 C 
ENDBRANCH  22  28
ENDBRANCH  18  19
ENDBRANCH   7  18
ENDBRANCH   4   7
ENDBRANCH   2   3
BRANCH   2  30
ATOM     30  N   UNL     1      11.418 -23.658  37.598  1.00  0.00    -0.343 N 
ATOM     31  C   UNL     1      10.798 -22.451  38.076  1.00  0.00     0.243 C 
ATOM     32  H   UNL     1      12.019 -23.602  36.743  1.00  0.00     0.164 HD
ATOM     33  O   UNL     1      10.012 -22.482  39.060  1.00  0.00    -0.273 OA
BRANCH  31  34
ATOM     34  C   UNL     1      11.025 -21.159  37.328  1.00  0.00     0.174 C 
ATOM     35  N   UNL     1      11.073 -19.981  38.230  1.00  0.00    -0.329 N 
ATOM     36  C   UNL     1       9.912 -21.015  36.270  1.00  0.00     0.035 C 
ATOM     37  C   UNL     1      10.076 -18.914  38.059  1.00  0.00     0.120 C 
ATOM     38  C   UNL     1       9.946 -19.638  35.596  1.00  0.00     0.004 C 
ATOM     39  C   UNL     1      10.030 -18.464  36.597  1.00  0.00     0.022 C 
BRANCH  35  40
ATOM     40  C   UNL     1      11.845 -19.981  39.452  1.00  0.00     0.246 CG0
ATOM     41  O   UNL     1      11.234 -19.867  40.547  1.00  0.00    -0.272 OA
ATOM     42  G   UNL     1      13.364 -20.016  39.499  1.00  0.00     0.000 G0
ENDBRANCH  35  40
ENDBRANCH  31  34
ENDBRANCH   2  30
ENDBRANCH   1   2
BRANCH   1  43
ATOM     43  C   UNL     1       9.922 -26.465  39.761  1.00  0.00     0.003 C 
BRANCH  43  44
ATOM     44  C   UNL     1       9.875 -27.762  38.950  1.00  0.00     0.001 C 
BRANCH  44  45
ATOM     45  C   UNL     1      10.722 -27.639  37.674  1.00  0.00     0.008 C 
BRANCH  45  46
ATOM     46  C   UNL     1      12.169 -28.110  37.889  1.00  0.00     0.075 C 
BRANCH  46  47
ATOM     47  C   UNL     1      13.026 -27.901  36.656  1.00  0.00     0.132 C 
ATOM     48  O   UNL     1      12.478 -27.585  35.608  1.00  0.00    -0.300 OA
BRANCH  47  49
ATOM     49  C   UNL     1      14.523 -28.125  36.631  1.00  0.00     0.072 C 
ATOM     50  C   UNL     1      15.235 -27.888  37.963  1.00  0.00     0.012 C 
ENDBRANCH  47  49
ENDBRANCH  46  47
ENDBRANCH  45  46
ENDBRANCH  44  45
ENDBRANCH  43  44
ENDBRANCH   1  43
TORSDOF 12
ENDMDL
MODEL 5
REMARK VINA RESULT:    -1.953      3.276      8.757
REMARK INTER + INTRA:          -4.251
REMARK INTER:                  -6.022
REMARK INTRA:                   1.771
REMARK UNBOUND:                -0.128
REMARK SMILES CCC(=O)CCCCC[C@H]1NC(=O)[C@H]2CCCCN2C(=O)[C@H]([C@H](C)CC)NC(=O)[C@H](Cc2cn(OC)c3ccccc23)NC1=O
REMARK SMILES IDX 9 1 10 2 44 3 43 4 45 6 30 7 28 8 27 9 29 11 22 12 23 14
REMARK SMILES IDX 24 15 25 16 26 17 31 18 32 19 33 20 42 21 34 22 37 23 41 24
REMARK SMILES IDX 38 25 40 26 39 27 35 28 36 29 11 30 12 31 13 33 14 34 19 35
REMARK SMILES IDX 15 36 18 37 16 38 17 39 20 40 21 41 8 43 7 44 6 45 5 46 3 47
REMARK SMILES IDX 4 48 2 49 1 50
REMARK H PARENT 43 5 27 10 11 32
REMARK Flexibility Score: 80.00
ROOT
ATOM      1  C   UNL     1      16.574 -24.715  38.341  1.00  0.00     0.035 C 
ENDROOT
BRANCH   1   2
ATOM      2  C   UNL     1      15.449 -23.725  37.967  1.00  0.00     0.171 C 
BRANCH   2   3
ATOM      3  C   UNL     1      15.228 -22.659  39.006  1.00  0.00     0.243 C 
ATOM      4  N   UNL     1      15.108 -21.296  38.585  1.00  0.00    -0.342 N 
ATOM      5  H   UNL     1      15.594 -21.019  37.699  1.00  0.00     0.164 HD
ATOM      6  O   UNL     1      15.071 -22.960  40.225  1.00  0.00    -0.273 OA
BRANCH   4   7
ATOM      7  C   UNL     1      13.963 -20.490  39.007  1.00  0.00     0.175 C 
BRANCH   7   8
ATOM      8  C   UNL     1      12.876 -21.398  39.539  1.00  0.00     0.243 C 
ATOM      9  N   UNL     1      12.124 -22.226  38.639  1.00  0.00    -0.342 N 
ATOM     10  H   UNL     1      12.425 -22.239  37.638  1.00  0.00     0.164 HD
ATOM     11  O   UNL     1      12.688 -21.474  40.783  1.00  0.00    -0.273 OA
BRANCH   9  12
ATOM     12  C   UNL     1      10.813 -22.828  38.928  1.00  0.00     0.174 CG0
ATOM     13  G   UNL     1      11.003 -24.091  39.752  1.00  0.00     0.000 G0
BRANCH  12  14
ATOM     14  C   UNL     1       9.879 -22.952  37.684  1.00  0.00     0.018 C 
ATOM     15  C   UNL     1      10.319 -24.116  36.776  1.00  0.00     0.010 C 
BRANCH  14  16
ATOM     16  C   UNL     1       9.875 -21.628  36.870  1.00  0.00     0.002 C 
ATOM     17  C   UNL     1      10.045 -21.857  35.367  1.00  0.00     0.004 C 
ENDBRANCH  14  16
ENDBRANCH  12  14
ENDBRANCH   9  12
ENDBRANCH   7   8
BRANCH   7  18
ATOM     18  C   UNL     1      13.447 -19.654  37.822  1.00  0.00     0.073 C 
BRANCH  18  19
ATOM     19  C   UNL     1      13.346 -18.198  38.186  1.00  0.00    -0.016 A 
ATOM     20  C   UNL     1      12.319 -17.583  38.888  1.00  0.00     0.134 A 
ATOM     21  C   UNL     1      14.310 -17.225  38.008  1.00  0.00     0.006 A 
ATOM     22  N   UNL     1      12.615 -16.284  39.122  1.00  0.00    -0.191 N 
ATOM     23  C   UNL     1      13.839 -16.060  38.576  1.00  0.00     0.087 A 
ATOM     24  C   UNL     1      15.560 -17.300  37.390  1.00  0.00     0.011 A 
ATOM     25  C   UNL     1      14.607 -14.882  38.524  1.00  0.00     0.030 A 
ATOM     26  C   UNL     1      16.335 -16.130  37.326  1.00  0.00     0.001 A 
ATOM     27  C   UNL     1      15.860 -14.928  37.889  1.00  0.00     0.002 A 
BRANCH  22  28
ATOM     28  O   UNL     1      11.767 -15.448  39.835  1.00  0.00    -0.417 OA
ATOM     29  C   UNL     1      10.643 -14.773  39.290  1.00  0.00     0.313 C 
ENDBRANCH  22  28
ENDBRANCH  18  19
ENDBRANCH   7  18
ENDBRANCH   4   7
ENDBRANCH   2   3
BRANCH   2  30
ATOM     30  N   UNL     1      14.182 -24.416  37.701  1.00  0.00    -0.343 N 
ATOM     31  C   UNL     1      13.495 -25.245  38.655  1.00  0.00     0.243 C 
ATOM     32  H   UNL     1      13.717 -24.226  36.783  1.00  0.00     0.164 HD
ATOM     33  O   UNL     1      14.047 -25.557  39.745  1.00  0.00    -0.273 OA
BRANCH  31  34
ATOM     34  C   UNL     1      12.144 -25.817  38.299  1.00  0.00     0.174 C 
ATOM     35  N   UNL     1      11.096 -25.456  39.285  1.00  0.00    -0.329 N 
ATOM     36  C   UNL     1      12.291 -27.346  38.164  1.00  0.00     0.035 C 
ATOM     37  C   UNL     1      10.410 -26.531  40.017  1.00  0.00     0.120 C 
ATOM     38  C   UNL     1      10.930 -28.033  37.998  1.00  0.00     0.004 C 
ATOM     39  C   UNL     1       9.881 -27.582  39.039  1.00  0.00     0.022 C 
BRANCH  35  40
ATOM     40  C   UNL     1      10.941 -24.108  39.782  1.00  0.00     0.246 CG0
ATOM     41  O   UNL     1      10.781 -23.940  41.020  1.00  0.00    -0.272 OA
ATOM     42  G   UNL     1      10.864 -22.877  38.893  1.00  0.00     0.000 G0
ENDBRANCH  35  40
ENDBRANCH  31  34
ENDBRANCH   2  30
ENDBRANCH   1   2
BRANCH   1  43
ATOM     43  C   UNL     1      16.341 -26.103  37.726  1.00  0.00     0.003 C 
BRANCH  43  44
ATOM     44  C   UNL     1      16.890 -26.175  36.299  1.00  0.00     0.001 C 
BRANCH  44  45
ATOM     45  C   UNL     1      18.422 -26.282  36.308  1.00  0.00     0.008 C 
BRANCH  45  46
ATOM     46  C   UNL     1      19.064 -25.534  35.128  1.00  0.00     0.075 C 
BRANCH  46  47
ATOM     47  C   UNL     1      20.458 -26.045  34.819  1.00  0.00     0.132 C 
ATOM     48  O   UNL     1      20.811 -27.112  35.303  1.00  0.00    -0.300 OA
BRANCH  47  49
ATOM     49  C   UNL     1      21.465 -25.275  33.994  1.00  0.00     0.072 C 
ATOM     50  C   UNL     1      22.902 -25.790  34.080  1.00  0.00     0.012 C 
ENDBRANCH  47  49
ENDBRANCH  46  47
ENDBRANCH  45  46
ENDBRANCH  44  45
ENDBRANCH  43  44
ENDBRANCH   1  43
TORSDOF 12
ENDMDL
