MODEL 1
REMARK VINA RESULT:    -8.839      0.000      0.000
REMARK INTER + INTRA:         -13.876
REMARK INTER:                 -12.197
REMARK INTRA:                  -1.679
REMARK UNBOUND:                -1.679
REMARK SMILES CC[C@H](CC[C@@H](C)[C@H]1CC[C@H]2[C@@H]3CC=C4C[C@@H](O)CC[C@]4(C)[C@H]3CC[C@]12C)C(C)C
REMARK SMILES IDX 5 1 4 2 3 3 2 4 1 5 28 6 29 7 30 8 6 9 7 10 8 11 9 12 26 13
REMARK SMILES IDX 10 14 11 15 25 16 27 17 12 18 24 19 23 20 13 21 21 22 14 23
REMARK SMILES IDX 15 24 20 25 22 26 16 27 19 28 17 29 18 30
REMARK H PARENT 18 31
REMARK Flexibility Score: inf
ROOT
ATOM      1  C   UNL     1      11.204  72.184  -5.660  1.00  0.00     0.004 C 
ENDROOT
BRANCH   1   2
ATOM      2  C   UNL     1      10.525  71.768  -4.335  1.00  0.00     0.004 C 
BRANCH   2   3
ATOM      3  C   UNL     1       9.188  72.513  -4.036  1.00  0.00    -0.009 C 
BRANCH   3   4
ATOM      4  C   UNL     1       9.150  72.899  -2.531  1.00  0.00     0.000 C 
ATOM      5  C   UNL     1      10.252  72.240  -1.694  1.00  0.00     0.004 C 
ENDBRANCH   3   4
BRANCH   3   6
ATOM      6  C   UNL     1       8.900  73.748  -4.962  1.00  0.00    -0.014 C 
ATOM      7  C   UNL     1       8.284  73.383  -6.322  1.00  0.00     0.007 C 
ATOM      8  C   UNL     1       8.061  74.836  -4.272  1.00  0.00     0.007 C 
ENDBRANCH   3   6
ENDBRANCH   2   3
ENDBRANCH   1   2
BRANCH   1   9
ATOM      9  C   UNL     1      12.322  73.243  -5.471  1.00  0.00    -0.011 C 
ATOM     10  C   UNL     1      12.128  74.395  -6.467  1.00  0.00     0.008 C 
BRANCH   9  11
ATOM     11  C   UNL     1      12.551  73.642  -3.965  1.00  0.00    -0.002 C 
ATOM     12  C   UNL     1      13.719  72.869  -3.309  1.00  0.00     0.005 C 
ATOM     13  C   UNL     1      12.762  75.111  -3.478  1.00  0.00    -0.026 C 
ATOM     14  C   UNL     1      14.123  73.681  -2.062  1.00  0.00     0.005 C 
ATOM     15  C   UNL     1      13.106  74.822  -2.002  1.00  0.00    -0.001 C 
ATOM     16  C   UNL     1      11.508  76.009  -3.478  1.00  0.00     0.007 C 
ATOM     17  C   UNL     1      13.931  75.830  -4.231  1.00  0.00     0.012 C 
ATOM     18  C   UNL     1      13.473  76.076  -1.180  1.00  0.00     0.000 C 
ATOM     19  C   UNL     1      11.775  77.332  -2.725  1.00  0.00     0.005 C 
ATOM     20  C   UNL     1      12.323  77.126  -1.277  1.00  0.00     0.003 C 
ATOM     21  C   UNL     1      13.686  75.713   0.300  1.00  0.00     0.031 C 
ATOM     22  C   UNL     1      12.731  78.458  -0.535  1.00  0.00    -0.008 C 
ATOM     23  C   UNL     1      13.748  76.924   1.199  1.00  0.00    -0.027 C 
ATOM     24  C   UNL     1      13.207  78.126   0.887  1.00  0.00    -0.065 C 
ATOM     25  C   UNL     1      11.489  79.402  -0.464  1.00  0.00     0.014 C 
ATOM     26  C   UNL     1      13.906  79.192  -1.248  1.00  0.00     0.016 C 
ATOM     27  C   UNL     1      13.288  79.245   1.908  1.00  0.00     0.063 C 
ATOM     28  C   UNL     1      11.632  80.569   0.529  1.00  0.00     0.033 C 
ATOM     29  C   UNL     1      11.983  80.053   1.931  1.00  0.00     0.118 C 
BRANCH  29  30
ATOM     30  O   UNL     1      12.068  81.125   2.840  1.00  0.00    -0.393 OA
ATOM     31  H   UNL     1      11.467  81.844   2.513  1.00  0.00     0.210 HD
ENDBRANCH  29  30
ENDBRANCH   9  11
ENDBRANCH   1   9
TORSDOF 7
ENDMDL
MODEL 2
REMARK VINA RESULT:    -8.366      2.969      7.489
REMARK INTER + INTRA:         -13.224
REMARK INTER:                 -11.858
REMARK INTRA:                  -1.366
REMARK UNBOUND:                -1.679
REMARK SMILES CC[C@H](CC[C@@H](C)[C@H]1CC[C@H]2[C@@H]3CC=C4C[C@@H](O)CC[C@]4(C)[C@H]3CC[C@]12C)C(C)C
REMARK SMILES IDX 5 1 4 2 3 3 2 4 1 5 28 6 29 7 30 8 6 9 7 10 8 11 9 12 26 13
REMARK SMILES IDX 10 14 11 15 25 16 27 17 12 18 24 19 23 20 13 21 21 22 14 23
REMARK SMILES IDX 15 24 20 25 22 26 16 27 19 28 17 29 18 30
REMARK H PARENT 18 31
REMARK Flexibility Score: inf
ROOT
ATOM      1  C   UNL     1      13.994  79.830  -0.639  1.00  0.00     0.004 C 
ENDROOT
BRANCH   1   2
ATOM      2  C   UNL     1      12.926  80.900  -0.313  1.00  0.00     0.004 C 
BRANCH   2   3
ATOM      3  C   UNL     1      11.872  81.119  -1.442  1.00  0.00    -0.009 C 
BRANCH   3   4
ATOM      4  C   UNL     1      12.186  80.156  -2.621  1.00  0.00     0.000 C 
ATOM      5  C   UNL     1      12.930  80.821  -3.783  1.00  0.00     0.004 C 
ENDBRANCH   3   4
BRANCH   3   6
ATOM      6  C   UNL     1      10.377  81.004  -0.978  1.00  0.00    -0.014 C 
ATOM      7  C   UNL     1       9.650  79.757  -1.504  1.00  0.00     0.007 C 
ATOM      8  C   UNL     1      10.208  81.116   0.547  1.00  0.00     0.007 C 
ENDBRANCH   3   6
ENDBRANCH   2   3
ENDBRANCH   1   2
BRANCH   1   9
ATOM      9  C   UNL     1      14.137  78.750   0.466  1.00  0.00    -0.011 C 
ATOM     10  C   UNL     1      13.257  79.113   1.671  1.00  0.00     0.008 C 
BRANCH   9  11
ATOM     11  C   UNL     1      14.012  77.280  -0.082  1.00  0.00    -0.002 C 
ATOM     12  C   UNL     1      14.397  76.211   0.969  1.00  0.00     0.005 C 
ATOM     13  C   UNL     1      12.715  76.703  -0.734  1.00  0.00    -0.026 C 
ATOM     14  C   UNL     1      13.778  74.886   0.479  1.00  0.00     0.005 C 
ATOM     15  C   UNL     1      13.158  75.232  -0.876  1.00  0.00    -0.001 C 
ATOM     16  C   UNL     1      12.391  77.211  -2.155  1.00  0.00     0.007 C 
ATOM     17  C   UNL     1      11.459  76.861   0.186  1.00  0.00     0.012 C 
ATOM     18  C   UNL     1      12.066  74.292  -1.432  1.00  0.00     0.000 C 
ATOM     19  C   UNL     1      11.261  76.375  -2.797  1.00  0.00     0.005 C 
ATOM     20  C   UNL     1      11.544  74.839  -2.797  1.00  0.00     0.003 C 
ATOM     21  C   UNL     1      12.626  72.877  -1.649  1.00  0.00     0.031 C 
ATOM     22  C   UNL     1      10.349  73.952  -3.323  1.00  0.00    -0.008 C 
ATOM     23  C   UNL     1      11.707  71.999  -2.463  1.00  0.00    -0.027 C 
ATOM     24  C   UNL     1      10.768  72.474  -3.318  1.00  0.00    -0.065 C 
ATOM     25  C   UNL     1       9.994  74.389  -4.780  1.00  0.00     0.014 C 
ATOM     26  C   UNL     1       9.086  74.070  -2.419  1.00  0.00     0.016 C 
ATOM     27  C   UNL     1       9.950  71.482  -4.122  1.00  0.00     0.063 C 
ATOM     28  C   UNL     1       9.103  73.394  -5.544  1.00  0.00     0.033 C 
ATOM     29  C   UNL     1       9.730  71.994  -5.552  1.00  0.00     0.118 C 
BRANCH  29  30
ATOM     30  O   UNL     1       8.930  71.103  -6.292  1.00  0.00    -0.393 OA
ATOM     31  H   UNL     1       8.432  70.539  -5.644  1.00  0.00     0.210 HD
ENDBRANCH  29  30
ENDBRANCH   9  11
ENDBRANCH   1   9
TORSDOF 7
ENDMDL
MODEL 3
REMARK VINA RESULT:    -7.916      2.892      7.500
REMARK INTER + INTRA:         -12.603
REMARK INTER:                 -11.152
REMARK INTRA:                  -1.451
REMARK UNBOUND:                -1.679
REMARK SMILES CC[C@H](CC[C@@H](C)[C@H]1CC[C@H]2[C@@H]3CC=C4C[C@@H](O)CC[C@]4(C)[C@H]3CC[C@]12C)C(C)C
REMARK SMILES IDX 5 1 4 2 3 3 2 4 1 5 28 6 29 7 30 8 6 9 7 10 8 11 9 12 26 13
REMARK SMILES IDX 10 14 11 15 25 16 27 17 12 18 24 19 23 20 13 21 21 22 14 23
REMARK SMILES IDX 15 24 20 25 22 26 16 27 19 28 17 29 18 30
REMARK H PARENT 18 31
REMARK Flexibility Score: inf
ROOT
ATOM      1  C   UNL     1      12.538  80.182   1.635  1.00  0.00     0.004 C 
ENDROOT
BRANCH   1   2
ATOM      2  C   UNL     1      11.994  80.831   0.342  1.00  0.00     0.004 C 
BRANCH   2   3
ATOM      3  C   UNL     1      10.618  80.268  -0.130  1.00  0.00    -0.009 C 
BRANCH   3   4
ATOM      4  C   UNL     1       9.481  81.123   0.495  1.00  0.00     0.000 C 
ATOM      5  C   UNL     1       8.078  80.737   0.014  1.00  0.00     0.004 C 
ENDBRANCH   3   4
BRANCH   3   6
ATOM      6  C   UNL     1      10.460  80.134  -1.686  1.00  0.00    -0.014 C 
ATOM      7  C   UNL     1      11.760  80.364  -2.471  1.00  0.00     0.007 C 
ATOM      8  C   UNL     1       9.805  78.810  -2.113  1.00  0.00     0.007 C 
ENDBRANCH   3   6
ENDBRANCH   2   3
ENDBRANCH   1   2
BRANCH   1   9
ATOM      9  C   UNL     1      13.429  78.939   1.370  1.00  0.00    -0.011 C 
ATOM     10  C   UNL     1      13.247  77.915   2.500  1.00  0.00     0.008 C 
BRANCH   9  11
ATOM     11  C   UNL     1      13.313  78.395  -0.102  1.00  0.00    -0.002 C 
ATOM     12  C   UNL     1      14.595  78.636  -0.934  1.00  0.00     0.005 C 
ATOM     13  C   UNL     1      12.915  76.927  -0.457  1.00  0.00    -0.026 C 
ATOM     14  C   UNL     1      14.522  77.659  -2.126  1.00  0.00     0.005 C 
ATOM     15  C   UNL     1      13.160  76.979  -1.980  1.00  0.00    -0.001 C 
ATOM     16  C   UNL     1      11.429  76.563  -0.256  1.00  0.00     0.007 C 
ATOM     17  C   UNL     1      13.822  75.870   0.256  1.00  0.00     0.012 C 
ATOM     18  C   UNL     1      12.943  75.632  -2.703  1.00  0.00     0.000 C 
ATOM     19  C   UNL     1      11.104  75.194  -0.894  1.00  0.00     0.005 C 
ATOM     20  C   UNL     1      11.511  75.095  -2.398  1.00  0.00     0.003 C 
ATOM     21  C   UNL     1      13.094  75.801  -4.224  1.00  0.00     0.031 C 
ATOM     22  C   UNL     1      11.313  73.665  -3.037  1.00  0.00    -0.008 C 
ATOM     23  C   UNL     1      12.602  74.604  -5.000  1.00  0.00    -0.027 C 
ATOM     24  C   UNL     1      11.702  73.710  -4.523  1.00  0.00    -0.065 C 
ATOM     25  C   UNL     1       9.813  73.250  -2.903  1.00  0.00     0.014 C 
ATOM     26  C   UNL     1      12.216  72.589  -2.364  1.00  0.00     0.016 C 
ATOM     27  C   UNL     1      11.247  72.584  -5.431  1.00  0.00     0.063 C 
ATOM     28  C   UNL     1       9.401  72.057  -3.784  1.00  0.00     0.033 C 
ATOM     29  C   UNL     1       9.745  72.320  -5.255  1.00  0.00     0.118 C 
BRANCH  29  30
ATOM     30  O   UNL     1       9.323  71.243  -6.057  1.00  0.00    -0.393 OA
ATOM     31  H   UNL     1       8.350  71.353  -6.221  1.00  0.00     0.210 HD
ENDBRANCH  29  30
ENDBRANCH   9  11
ENDBRANCH   1   9
TORSDOF 7
ENDMDL
MODEL 4
REMARK VINA RESULT:    -7.882      2.908      3.997
REMARK INTER + INTRA:         -12.557
REMARK INTER:                 -11.463
REMARK INTRA:                  -1.094
REMARK UNBOUND:                -1.679
REMARK SMILES CC[C@H](CC[C@@H](C)[C@H]1CC[C@H]2[C@@H]3CC=C4C[C@@H](O)CC[C@]4(C)[C@H]3CC[C@]12C)C(C)C
REMARK SMILES IDX 5 1 4 2 3 3 2 4 1 5 28 6 29 7 30 8 6 9 7 10 8 11 9 12 26 13
REMARK SMILES IDX 10 14 11 15 25 16 27 17 12 18 24 19 23 20 13 21 21 22 14 23
REMARK SMILES IDX 15 24 20 25 22 26 16 27 19 28 17 29 18 30
REMARK H PARENT 18 31
REMARK Flexibility Score: inf
ROOT
ATOM      1  C   UNL     1      12.604  72.576  -2.619  1.00  0.00     0.004 C 
ENDROOT
BRANCH   1   2
ATOM      2  C   UNL     1      12.049  72.560  -4.062  1.00  0.00     0.004 C 
BRANCH   2   3
ATOM      3  C   UNL     1      10.633  71.920  -4.198  1.00  0.00    -0.009 C 
BRANCH   3   4
ATOM      4  C   UNL     1       9.906  72.006  -2.827  1.00  0.00     0.000 C 
ATOM      5  C   UNL     1       9.742  70.653  -2.125  1.00  0.00     0.004 C 
ENDBRANCH   3   4
BRANCH   3   6
ATOM      6  C   UNL     1       9.755  72.503  -5.361  1.00  0.00    -0.014 C 
ATOM      7  C   UNL     1       9.111  71.434  -6.258  1.00  0.00     0.007 C 
ATOM      8  C   UNL     1       8.692  73.500  -4.872  1.00  0.00     0.007 C 
ENDBRANCH   3   6
ENDBRANCH   2   3
ENDBRANCH   1   2
BRANCH   1   9
ATOM      9  C   UNL     1      13.727  73.625  -2.406  1.00  0.00    -0.011 C 
ATOM     10  C   UNL     1      14.581  73.744  -3.677  1.00  0.00     0.008 C 
BRANCH   9  11
ATOM     11  C   UNL     1      13.209  74.971  -1.775  1.00  0.00    -0.002 C 
ATOM     12  C   UNL     1      14.058  76.196  -2.190  1.00  0.00     0.005 C 
ATOM     13  C   UNL     1      11.739  75.482  -1.904  1.00  0.00    -0.026 C 
ATOM     14  C   UNL     1      13.182  77.436  -1.919  1.00  0.00     0.005 C 
ATOM     15  C   UNL     1      11.917  76.876  -1.266  1.00  0.00    -0.001 C 
ATOM     16  C   UNL     1      10.687  74.735  -1.058  1.00  0.00     0.007 C 
ATOM     17  C   UNL     1      11.261  75.566  -3.392  1.00  0.00     0.012 C 
ATOM     18  C   UNL     1      10.645  77.750  -1.287  1.00  0.00     0.000 C 
ATOM     19  C   UNL     1       9.341  75.494  -1.052  1.00  0.00     0.005 C 
ATOM     20  C   UNL     1       9.468  76.985  -0.607  1.00  0.00     0.003 C 
ATOM     21  C   UNL     1      10.878  79.069  -0.531  1.00  0.00     0.031 C 
ATOM     22  C   UNL     1       8.132  77.818  -0.721  1.00  0.00    -0.008 C 
ATOM     23  C   UNL     1       9.601  79.825  -0.258  1.00  0.00    -0.027 C 
ATOM     24  C   UNL     1       8.376  79.247  -0.212  1.00  0.00    -0.065 C 
ATOM     25  C   UNL     1       7.030  77.135   0.150  1.00  0.00     0.014 C 
ATOM     26  C   UNL     1       7.637  77.938  -2.193  1.00  0.00     0.016 C 
ATOM     27  C   UNL     1       7.179  80.112   0.133  1.00  0.00     0.063 C 
ATOM     28  C   UNL     1       5.796  78.014   0.421  1.00  0.00     0.033 C 
ATOM     29  C   UNL     1       6.207  79.353   1.047  1.00  0.00     0.118 C 
BRANCH  29  30
ATOM     30  O   UNL     1       5.068  80.130   1.332  1.00  0.00    -0.393 OA
ATOM     31  H   UNL     1       4.623  80.338   0.469  1.00  0.00     0.210 HD
ENDBRANCH  29  30
ENDBRANCH   9  11
ENDBRANCH   1   9
TORSDOF 7
ENDMDL
MODEL 5
REMARK VINA RESULT:    -7.506      3.409      7.596
REMARK INTER + INTRA:         -12.037
REMARK INTER:                 -10.762
REMARK INTRA:                  -1.276
REMARK UNBOUND:                -1.679
REMARK SMILES CC[C@H](CC[C@@H](C)[C@H]1CC[C@H]2[C@@H]3CC=C4C[C@@H](O)CC[C@]4(C)[C@H]3CC[C@]12C)C(C)C
REMARK SMILES IDX 5 1 4 2 3 3 2 4 1 5 28 6 29 7 30 8 6 9 7 10 8 11 9 12 26 13
REMARK SMILES IDX 10 14 11 15 25 16 27 17 12 18 24 19 23 20 13 21 21 22 14 23
REMARK SMILES IDX 15 24 20 25 22 26 16 27 19 28 17 29 18 30
REMARK H PARENT 18 31
REMARK Flexibility Score: inf
ROOT
ATOM      1  C   UNL     1      10.142  80.049   0.697  1.00  0.00     0.004 C 
ENDROOT
BRANCH   1   2
ATOM      2  C   UNL     1       9.149  81.125   0.202  1.00  0.00     0.004 C 
BRANCH   2   3
ATOM      3  C   UNL     1       7.809  80.555  -0.356  1.00  0.00    -0.009 C 
BRANCH   3   4
ATOM      4  C   UNL     1       8.000  80.194  -1.856  1.00  0.00     0.000 C 
ATOM      5  C   UNL     1       8.992  81.100  -2.591  1.00  0.00     0.004 C 
ENDBRANCH   3   4
BRANCH   3   6
ATOM      6  C   UNL     1       7.211  79.355   0.461  1.00  0.00    -0.014 C 
ATOM      7  C   UNL     1       5.827  79.635   1.065  1.00  0.00     0.007 C 
ATOM      8  C   UNL     1       7.191  78.037  -0.331  1.00  0.00     0.007 C 
ENDBRANCH   3   6
ENDBRANCH   2   3
ENDBRANCH   1   2
BRANCH   1   9
ATOM      9  C   UNL     1      11.598  80.291   0.219  1.00  0.00    -0.011 C 
ATOM     10  C   UNL     1      12.556  80.256   1.418  1.00  0.00     0.008 C 
BRANCH   9  11
ATOM     11  C   UNL     1      11.995  79.416  -1.028  1.00  0.00    -0.002 C 
ATOM     12  C   UNL     1      13.518  79.418  -1.303  1.00  0.00     0.005 C 
ATOM     13  C   UNL     1      11.593  77.917  -1.202  1.00  0.00    -0.026 C 
ATOM     14  C   UNL     1      13.794  78.189  -2.193  1.00  0.00     0.005 C 
ATOM     15  C   UNL     1      12.411  77.600  -2.471  1.00  0.00    -0.001 C 
ATOM     16  C   UNL     1      10.113  77.651  -1.546  1.00  0.00     0.007 C 
ATOM     17  C   UNL     1      12.022  77.035   0.018  1.00  0.00     0.012 C 
ATOM     18  C   UNL     1      12.330  76.126  -2.925  1.00  0.00     0.000 C 
ATOM     19  C   UNL     1       9.897  76.179  -1.963  1.00  0.00     0.005 C 
ATOM     20  C   UNL     1      10.838  75.715  -3.120  1.00  0.00     0.003 C 
ATOM     21  C   UNL     1      13.075  75.925  -4.255  1.00  0.00     0.031 C 
ATOM     22  C   UNL     1      10.733  74.180  -3.474  1.00  0.00    -0.008 C 
ATOM     23  C   UNL     1      12.782  74.592  -4.898  1.00  0.00    -0.027 C 
ATOM     24  C   UNL     1      11.668  73.861  -4.651  1.00  0.00    -0.065 C 
ATOM     25  C   UNL     1       9.260  73.849  -3.873  1.00  0.00     0.014 C 
ATOM     26  C   UNL     1      11.171  73.271  -2.287  1.00  0.00     0.016 C 
ATOM     27  C   UNL     1      11.467  72.564  -5.411  1.00  0.00     0.063 C 
ATOM     28  C   UNL     1       9.080  72.493  -4.577  1.00  0.00     0.033 C 
ATOM     29  C   UNL     1       9.993  72.390  -5.805  1.00  0.00     0.118 C 
BRANCH  29  30
ATOM     30  O   UNL     1       9.788  71.165  -6.468  1.00  0.00    -0.393 OA
ATOM     31  H   UNL     1       9.564  70.486  -5.780  1.00  0.00     0.210 HD
ENDBRANCH  29  30
ENDBRANCH   9  11
ENDBRANCH   1   9
TORSDOF 7
ENDMDL
MODEL 6
REMARK VINA RESULT:    -7.350      3.154      7.870
REMARK INTER + INTRA:         -11.823
REMARK INTER:                 -10.291
REMARK INTRA:                  -1.532
REMARK UNBOUND:                -1.679
REMARK SMILES CC[C@H](CC[C@@H](C)[C@H]1CC[C@H]2[C@@H]3CC=C4C[C@@H](O)CC[C@]4(C)[C@H]3CC[C@]12C)C(C)C
REMARK SMILES IDX 5 1 4 2 3 3 2 4 1 5 28 6 29 7 30 8 6 9 7 10 8 11 9 12 26 13
REMARK SMILES IDX 10 14 11 15 25 16 27 17 12 18 24 19 23 20 13 21 21 22 14 23
REMARK SMILES IDX 15 24 20 25 22 26 16 27 19 28 17 29 18 30
REMARK H PARENT 18 31
REMARK Flexibility Score: inf
ROOT
ATOM      1  C   UNL     1      12.002  81.093   0.219  1.00  0.00     0.004 C 
ENDROOT
BRANCH   1   2
ATOM      2  C   UNL     1      12.561  81.058  -1.221  1.00  0.00     0.004 C 
BRANCH   2   3
ATOM      3  C   UNL     1      14.085  80.738  -1.312  1.00  0.00    -0.009 C 
BRANCH   3   4
ATOM      4  C   UNL     1      14.584  80.259   0.080  1.00  0.00     0.000 C 
ATOM      5  C   UNL     1      15.119  78.823   0.087  1.00  0.00     0.004 C 
ENDBRANCH   3   4
BRANCH   3   6
ATOM      6  C   UNL     1      14.482  79.734  -2.451  1.00  0.00    -0.014 C 
ATOM      7  C   UNL     1      13.337  78.814  -2.903  1.00  0.00     0.007 C 
ATOM      8  C   UNL     1      15.122  80.424  -3.667  1.00  0.00     0.007 C 
ENDBRANCH   3   6
ENDBRANCH   2   3
ENDBRANCH   1   2
BRANCH   1   9
ATOM      9  C   UNL     1      10.961  79.976   0.501  1.00  0.00    -0.011 C 
ATOM     10  C   UNL     1       9.555  80.463   0.120  1.00  0.00     0.008 C 
BRANCH   9  11
ATOM     11  C   UNL     1      11.395  78.568  -0.053  1.00  0.00    -0.002 C 
ATOM     12  C   UNL     1      12.109  77.699   1.008  1.00  0.00     0.005 C 
ATOM     13  C   UNL     1      10.417  77.569  -0.749  1.00  0.00    -0.026 C 
ATOM     14  C   UNL     1      12.029  76.246   0.497  1.00  0.00     0.005 C 
ATOM     15  C   UNL     1      11.368  76.361  -0.878  1.00  0.00    -0.001 C 
ATOM     16  C   UNL     1       9.974  77.943  -2.179  1.00  0.00     0.007 C 
ATOM     17  C   UNL     1       9.162  77.248   0.129  1.00  0.00     0.012 C 
ATOM     18  C   UNL     1      10.709  75.097  -1.471  1.00  0.00     0.000 C 
ATOM     19  C   UNL     1       9.245  76.763  -2.859  1.00  0.00     0.005 C 
ATOM     20  C   UNL     1      10.066  75.435  -2.852  1.00  0.00     0.003 C 
ATOM     21  C   UNL     1      11.751  73.984  -1.671  1.00  0.00     0.031 C 
ATOM     22  C   UNL     1       9.291  74.182  -3.419  1.00  0.00    -0.008 C 
ATOM     23  C   UNL     1      11.239  72.843  -2.517  1.00  0.00    -0.027 C 
ATOM     24  C   UNL     1      10.218  72.957  -3.402  1.00  0.00    -0.065 C 
ATOM     25  C   UNL     1       8.847  74.480  -4.886  1.00  0.00     0.014 C 
ATOM     26  C   UNL     1       8.045  73.821  -2.557  1.00  0.00     0.016 C 
ATOM     27  C   UNL     1       9.842  71.746  -4.234  1.00  0.00     0.063 C 
ATOM     28  C   UNL     1       8.402  73.239  -5.681  1.00  0.00     0.033 C 
ATOM     29  C   UNL     1       9.495  72.163  -5.670  1.00  0.00     0.118 C 
BRANCH  29  30
ATOM     30  O   UNL     1       9.095  71.052  -6.437  1.00  0.00    -0.393 OA
ATOM     31  H   UNL     1       9.849  70.407  -6.446  1.00  0.00     0.210 HD
ENDBRANCH  29  30
ENDBRANCH   9  11
ENDBRANCH   1   9
TORSDOF 7
ENDMDL
MODEL 7
REMARK VINA RESULT:    -7.315      3.218      7.481
REMARK INTER + INTRA:         -11.774
REMARK INTER:                 -10.992
REMARK INTRA:                  -0.782
REMARK UNBOUND:                -1.679
REMARK SMILES CC[C@H](CC[C@@H](C)[C@H]1CC[C@H]2[C@@H]3CC=C4C[C@@H](O)CC[C@]4(C)[C@H]3CC[C@]12C)C(C)C
REMARK SMILES IDX 5 1 4 2 3 3 2 4 1 5 28 6 29 7 30 8 6 9 7 10 8 11 9 12 26 13
REMARK SMILES IDX 10 14 11 15 25 16 27 17 12 18 24 19 23 20 13 21 21 22 14 23
REMARK SMILES IDX 15 24 20 25 22 26 16 27 19 28 17 29 18 30
REMARK H PARENT 18 31
REMARK Flexibility Score: inf
ROOT
ATOM      1  C   UNL     1      11.271  79.933   0.913  1.00  0.00     0.004 C 
ENDROOT
BRANCH   1   2
ATOM      2  C   UNL     1      10.109  80.867   0.501  1.00  0.00     0.004 C 
BRANCH   2   3
ATOM      3  C   UNL     1       8.935  80.146  -0.230  1.00  0.00    -0.009 C 
BRANCH   3   4
ATOM      4  C   UNL     1       7.599  80.519   0.473  1.00  0.00     0.000 C 
ATOM      5  C   UNL     1       6.472  79.508   0.238  1.00  0.00     0.004 C 
ENDBRANCH   3   4
BRANCH   3   6
ATOM      6  C   UNL     1       8.869  80.396  -1.778  1.00  0.00    -0.014 C 
ATOM      7  C   UNL     1       7.587  81.102  -2.246  1.00  0.00     0.007 C 
ATOM      8  C   UNL     1      10.108  81.125  -2.324  1.00  0.00     0.007 C 
ENDBRANCH   3   6
ENDBRANCH   2   3
ENDBRANCH   1   2
BRANCH   1   9
ATOM      9  C   UNL     1      12.594  80.231   0.158  1.00  0.00    -0.011 C 
ATOM     10  C   UNL     1      13.766  80.267   1.149  1.00  0.00     0.008 C 
BRANCH   9  11
ATOM     11  C   UNL     1      12.786  79.347  -1.130  1.00  0.00    -0.002 C 
ATOM     12  C   UNL     1      14.251  79.321  -1.629  1.00  0.00     0.005 C 
ATOM     13  C   UNL     1      12.335  77.855  -1.236  1.00  0.00    -0.026 C 
ATOM     14  C   UNL     1      14.370  78.085  -2.544  1.00  0.00     0.005 C 
ATOM     15  C   UNL     1      12.950  77.521  -2.611  1.00  0.00    -0.001 C 
ATOM     16  C   UNL     1      10.816  77.615  -1.355  1.00  0.00     0.007 C 
ATOM     17  C   UNL     1      12.925  76.967  -0.090  1.00  0.00     0.012 C 
ATOM     18  C   UNL     1      12.776  76.048  -3.042  1.00  0.00     0.000 C 
ATOM     19  C   UNL     1      10.515  76.147  -1.730  1.00  0.00     0.005 C 
ATOM     20  C   UNL     1      11.265  75.664  -3.011  1.00  0.00     0.003 C 
ATOM     21  C   UNL     1      13.312  75.832  -4.467  1.00  0.00     0.031 C 
ATOM     22  C   UNL     1      11.081  74.130  -3.339  1.00  0.00    -0.008 C 
ATOM     23  C   UNL     1      12.903  74.503  -5.054  1.00  0.00    -0.027 C 
ATOM     24  C   UNL     1      11.825  73.793  -4.641  1.00  0.00    -0.065 C 
ATOM     25  C   UNL     1       9.559  73.826  -3.513  1.00  0.00     0.014 C 
ATOM     26  C   UNL     1      11.674  73.216  -2.227  1.00  0.00     0.016 C 
ATOM     27  C   UNL     1      11.490  72.499  -5.357  1.00  0.00     0.063 C 
ATOM     28  C   UNL     1       9.252  72.472  -4.177  1.00  0.00     0.033 C 
ATOM     29  C   UNL     1       9.971  72.351  -5.527  1.00  0.00     0.118 C 
BRANCH  29  30
ATOM     30  O   UNL     1       9.648  71.129  -6.146  1.00  0.00    -0.393 OA
ATOM     31  H   UNL     1       9.712  70.417  -5.457  1.00  0.00     0.210 HD
ENDBRANCH  29  30
ENDBRANCH   9  11
ENDBRANCH   1   9
TORSDOF 7
ENDMDL
MODEL 8
REMARK VINA RESULT:    -7.005      2.971      8.005
REMARK INTER + INTRA:         -11.346
REMARK INTER:                  -9.640
REMARK INTRA:                  -1.706
REMARK UNBOUND:                -1.679
REMARK SMILES CC[C@H](CC[C@@H](C)[C@H]1CC[C@H]2[C@@H]3CC=C4C[C@@H](O)CC[C@]4(C)[C@H]3CC[C@]12C)C(C)C
REMARK SMILES IDX 5 1 4 2 3 3 2 4 1 5 28 6 29 7 30 8 6 9 7 10 8 11 9 12 26 13
REMARK SMILES IDX 10 14 11 15 25 16 27 17 12 18 24 19 23 20 13 21 21 22 14 23
REMARK SMILES IDX 15 24 20 25 22 26 16 27 19 28 17 29 18 30
REMARK H PARENT 18 31
REMARK Flexibility Score: inf
ROOT
ATOM      1  C   UNL     1      12.135  79.475   1.916  1.00  0.00     0.004 C 
ENDROOT
BRANCH   1   2
ATOM      2  C   UNL     1      13.664  79.426   1.690  1.00  0.00     0.004 C 
BRANCH   2   3
ATOM      3  C   UNL     1      14.322  78.058   2.047  1.00  0.00    -0.009 C 
BRANCH   3   4
ATOM      4  C   UNL     1      13.263  77.151   2.732  1.00  0.00     0.000 C 
ATOM      5  C   UNL     1      13.769  76.453   3.999  1.00  0.00     0.004 C 
ENDBRANCH   3   4
BRANCH   3   6
ATOM      6  C   UNL     1      15.024  77.330   0.846  1.00  0.00    -0.014 C 
ATOM      7  C   UNL     1      14.587  75.869   0.656  1.00  0.00     0.007 C 
ATOM      8  C   UNL     1      14.902  78.100  -0.479  1.00  0.00     0.007 C 
ENDBRANCH   3   6
ENDBRANCH   2   3
ENDBRANCH   1   2
BRANCH   1   9
ATOM      9  C   UNL     1      11.377  80.267   0.818  1.00  0.00    -0.011 C 
ATOM     10  C   UNL     1      12.366  81.125   0.014  1.00  0.00     0.008 C 
BRANCH   9  11
ATOM     11  C   UNL     1      10.378  79.378  -0.011  1.00  0.00    -0.002 C 
ATOM     12  C   UNL     1       9.337  80.214  -0.794  1.00  0.00     0.005 C 
ATOM     13  C   UNL     1      10.828  78.293  -1.040  1.00  0.00    -0.026 C 
ATOM     14  C   UNL     1       8.779  79.284  -1.891  1.00  0.00     0.005 C 
ATOM     15  C   UNL     1       9.445  77.933  -1.622  1.00  0.00    -0.001 C 
ATOM     16  C   UNL     1      11.412  76.996  -0.443  1.00  0.00     0.007 C 
ATOM     17  C   UNL     1      11.800  78.863  -2.126  1.00  0.00     0.012 C 
ATOM     18  C   UNL     1       9.490  76.907  -2.775  1.00  0.00     0.000 C 
ATOM     19  C   UNL     1      11.558  75.904  -1.526  1.00  0.00     0.005 C 
ATOM     20  C   UNL     1      10.237  75.620  -2.308  1.00  0.00     0.003 C 
ATOM     21  C   UNL     1       8.068  76.520  -3.215  1.00  0.00     0.031 C 
ATOM     22  C   UNL     1      10.391  74.607  -3.509  1.00  0.00    -0.008 C 
ATOM     23  C   UNL     1       8.040  75.312  -4.119  1.00  0.00    -0.027 C 
ATOM     24  C   UNL     1       9.020  74.377  -4.163  1.00  0.00    -0.065 C 
ATOM     25  C   UNL     1      10.943  73.252  -2.964  1.00  0.00     0.014 C 
ATOM     26  C   UNL     1      11.339  75.151  -4.619  1.00  0.00     0.016 C 
ATOM     27  C   UNL     1       8.839  73.179  -5.074  1.00  0.00     0.063 C 
ATOM     28  C   UNL     1      10.811  72.071  -3.941  1.00  0.00     0.033 C 
ATOM     29  C   UNL     1       9.356  71.901  -4.397  1.00  0.00     0.118 C 
BRANCH  29  30
ATOM     30  O   UNL     1       9.238  70.791  -5.255  1.00  0.00    -0.393 OA
ATOM     31  H   UNL     1       9.313  71.123  -6.188  1.00  0.00     0.210 HD
ENDBRANCH  29  30
ENDBRANCH   9  11
ENDBRANCH   1   9
TORSDOF 7
ENDMDL
MODEL 9
REMARK VINA RESULT:    -6.455      2.983      8.060
REMARK INTER + INTRA:         -10.587
REMARK INTER:                  -9.472
REMARK INTRA:                  -1.115
REMARK UNBOUND:                -1.679
REMARK SMILES CC[C@H](CC[C@@H](C)[C@H]1CC[C@H]2[C@@H]3CC=C4C[C@@H](O)CC[C@]4(C)[C@H]3CC[C@]12C)C(C)C
REMARK SMILES IDX 5 1 4 2 3 3 2 4 1 5 28 6 29 7 30 8 6 9 7 10 8 11 9 12 26 13
REMARK SMILES IDX 10 14 11 15 25 16 27 17 12 18 24 19 23 20 13 21 21 22 14 23
REMARK SMILES IDX 15 24 20 25 22 26 16 27 19 28 17 29 18 30
REMARK H PARENT 18 31
REMARK Flexibility Score: inf
ROOT
ATOM      1  C   UNL     1      14.941  77.888   0.660  1.00  0.00     0.004 C 
ENDROOT
BRANCH   1   2
ATOM      2  C   UNL     1      14.720  79.308   1.230  1.00  0.00     0.004 C 
BRANCH   2   3
ATOM      3  C   UNL     1      14.277  80.363   0.170  1.00  0.00    -0.009 C 
BRANCH   3   4
ATOM      4  C   UNL     1      14.235  79.688  -1.229  1.00  0.00     0.000 C 
ATOM      5  C   UNL     1      15.125  80.368  -2.274  1.00  0.00     0.004 C 
ENDBRANCH   3   4
BRANCH   3   6
ATOM      6  C   UNL     1      12.933  81.105   0.500  1.00  0.00    -0.014 C 
ATOM      7  C   UNL     1      11.821  80.879  -0.535  1.00  0.00     0.007 C 
ATOM      8  C   UNL     1      12.412  80.807   1.916  1.00  0.00     0.007 C 
ENDBRANCH   3   6
ENDBRANCH   2   3
ENDBRANCH   1   2
BRANCH   1   9
ATOM      9  C   UNL     1      14.112  76.798   1.390  1.00  0.00    -0.011 C 
ATOM     10  C   UNL     1      14.014  77.129   2.887  1.00  0.00     0.008 C 
BRANCH   9  11
ATOM     11  C   UNL     1      12.766  76.445   0.656  1.00  0.00    -0.002 C 
ATOM     12  C   UNL     1      11.744  77.607   0.683  1.00  0.00     0.005 C 
ATOM     13  C   UNL     1      12.688  75.923  -0.814  1.00  0.00    -0.026 C 
ATOM     14  C   UNL     1      10.731  77.313  -0.443  1.00  0.00     0.005 C 
ATOM     15  C   UNL     1      11.156  75.952  -0.994  1.00  0.00    -0.001 C 
ATOM     16  C   UNL     1      13.137  74.464  -1.037  1.00  0.00     0.007 C 
ATOM     17  C   UNL     1      13.423  76.865  -1.825  1.00  0.00     0.012 C 
ATOM     18  C   UNL     1      10.677  75.562  -2.409  1.00  0.00     0.000 C 
ATOM     19  C   UNL     1      12.759  73.978  -2.454  1.00  0.00     0.005 C 
ATOM     20  C   UNL     1      11.246  74.161  -2.792  1.00  0.00     0.003 C 
ATOM     21  C   UNL     1       9.141  75.504  -2.466  1.00  0.00     0.031 C 
ATOM     22  C   UNL     1      10.858  73.799  -4.279  1.00  0.00    -0.008 C 
ATOM     23  C   UNL     1       8.623  74.844  -3.720  1.00  0.00    -0.027 C 
ATOM     24  C   UNL     1       9.343  73.975  -4.470  1.00  0.00    -0.065 C 
ATOM     25  C   UNL     1      11.251  72.313  -4.560  1.00  0.00     0.014 C 
ATOM     26  C   UNL     1      11.557  74.730  -5.313  1.00  0.00     0.016 C 
ATOM     27  C   UNL     1       8.682  73.335  -5.676  1.00  0.00     0.063 C 
ATOM     28  C   UNL     1      10.620  71.717  -5.831  1.00  0.00     0.033 C 
ATOM     29  C   UNL     1       9.093  71.862  -5.801  1.00  0.00     0.118 C 
BRANCH  29  30
ATOM     30  O   UNL     1       8.523  71.273  -6.946  1.00  0.00    -0.393 OA
ATOM     31  H   UNL     1       9.126  71.462  -7.712  1.00  0.00     0.210 HD
ENDBRANCH  29  30
ENDBRANCH   9  11
ENDBRANCH   1   9
TORSDOF 7
ENDMDL
