MODEL 1
REMARK VINA RESULT:    35.787      0.000      0.000
REMARK INTER + INTRA:          51.793
REMARK INTER:                  49.386
REMARK INTRA:                   2.407
REMARK UNBOUND:                 2.407
REMARK SMILES CC[C@H](CC[C@@H](C)[C@H]1CC[C@H]2[C@H]3CC=C4C[C@@H](O)CC[C@@]4(C)[C@H]3CC[C@]12C)C(C)C
REMARK SMILES IDX 5 1 4 2 3 3 2 4 1 5 28 6 29 7 30 8 6 9 7 10 8 11 9 12 26 13
REMARK SMILES IDX 10 14 11 15 25 16 27 17 12 18 24 19 23 20 13 21 21 22 14 23
REMARK SMILES IDX 15 24 20 25 22 26 16 27 19 28 17 29 18 30
REMARK H PARENT 18 31
REMARK Flexibility Score: inf
ROOT
ATOM      1  C   UNL     1       0.524  61.114   0.084  1.00  0.00     0.004 C 
ENDROOT
BRANCH   1   2
ATOM      2  C   UNL     1       0.651  61.663   1.522  1.00  0.00     0.004 C 
BRANCH   2   3
ATOM      3  C   UNL     1       1.693  62.812   1.630  1.00  0.00    -0.009 C 
BRANCH   3   4
ATOM      4  C   UNL     1       2.645  62.561   2.846  1.00  0.00     0.000 C 
ATOM      5  C   UNL     1       1.882  62.499   4.168  1.00  0.00     0.004 C 
ENDBRANCH   3   4
BRANCH   3   6
ATOM      6  C   UNL     1       2.521  63.011   0.311  1.00  0.00    -0.014 C 
ATOM      7  C   UNL     1       3.239  61.731  -0.155  1.00  0.00     0.007 C 
ATOM      8  C   UNL     1       1.616  63.502  -0.837  1.00  0.00     0.007 C 
ENDBRANCH   3   6
ENDBRANCH   2   3
ENDBRANCH   1   2
BRANCH   1   9
ATOM      9  C   UNL     1      -0.003  59.649   0.048  1.00  0.00    -0.011 C 
ATOM     10  C   UNL     1      -1.224  59.537   0.985  1.00  0.00     0.008 C 
BRANCH   9  11
ATOM     11  C   UNL     1      -0.356  59.213  -1.418  1.00  0.00    -0.002 C 
ATOM     12  C   UNL     1      -1.781  59.665  -1.847  1.00  0.00     0.005 C 
ATOM     13  C   UNL     1       0.555  59.711  -2.589  1.00  0.00    -0.026 C 
ATOM     14  C   UNL     1      -1.751  59.929  -3.359  1.00  0.00     0.005 C 
ATOM     15  C   UNL     1      -0.378  59.437  -3.782  1.00  0.00    -0.001 C 
ATOM     16  C   UNL     1       1.832  58.878  -2.835  1.00  0.00     0.007 C 
ATOM     17  C   UNL     1       0.916  61.215  -2.402  1.00  0.00     0.012 C 
ATOM     18  C   UNL     1       0.161  59.808  -5.184  1.00  0.00     0.000 C 
ATOM     19  C   UNL     1       2.491  59.207  -4.195  1.00  0.00     0.005 C 
ATOM     20  C   UNL     1       1.539  59.106  -5.435  1.00  0.00     0.003 C 
ATOM     21  C   UNL     1       0.116  61.321  -5.543  1.00  0.00     0.031 C 
ATOM     22  C   UNL     1       2.188  59.607  -6.786  1.00  0.00    -0.008 C 
ATOM     23  C   UNL     1       1.376  61.882  -6.152  1.00  0.00    -0.027 C 
ATOM     24  C   UNL     1       2.320  61.130  -6.752  1.00  0.00    -0.065 C 
ATOM     25  C   UNL     1       3.581  58.931  -7.026  1.00  0.00     0.014 C 
ATOM     26  C   UNL     1       1.268  59.229  -7.979  1.00  0.00     0.016 C 
ATOM     27  C   UNL     1       3.318  61.833  -7.656  1.00  0.00     0.063 C 
ATOM     28  C   UNL     1       4.423  59.615  -8.112  1.00  0.00     0.033 C 
ATOM     29  C   UNL     1       4.654  61.089  -7.768  1.00  0.00     0.118 C 
BRANCH  29  30
ATOM     30  O   UNL     1       5.374  61.193  -6.566  1.00  0.00    -0.393 OA
ATOM     31  H   UNL     1       4.790  60.834  -5.847  1.00  0.00     0.210 HD
ENDBRANCH  29  30
ENDBRANCH   9  11
ENDBRANCH   1   9
TORSDOF 7
ENDMDL
