MODEL 1
REMARK VINA RESULT:    -6.788      0.000      0.000
REMARK INTER + INTRA:          -8.244
REMARK INTER:                  -7.978
REMARK INTRA:                  -0.266
REMARK UNBOUND:                -0.266
REMARK SMILES Oc1ccc(-c2[o+]c3cc(O)cc(O)c3cc2O)cc1
REMARK SMILES IDX 6 1 7 2 8 3 9 4 10 5 12 6 13 7 15 8 16 9 17 10 5 11 4 12
REMARK SMILES IDX 3 13 2 14 19 15 20 16 1 17 18 19 11 21 14 23
REMARK H PARENT 1 18 18 20 11 22 14 24
REMARK Flexibility Score: inf
ROOT
ATOM      1  C   UNL     1      17.324  -1.636  10.290  1.00  0.00     0.401 A 
ATOM      2  O   UNL     1      17.353  -1.905   8.986  1.00  0.00    -0.202 OA
ATOM      3  C   UNL     1      16.267  -2.183   8.273  1.00  0.00     0.368 A 
ATOM      4  C   UNL     1      16.399  -2.454   6.909  1.00  0.00     0.162 A 
ATOM      5  C   UNL     1      15.277  -2.753   6.137  1.00  0.00     0.128 A 
ATOM      6  C   UNL     1      14.010  -2.782   6.731  1.00  0.00     0.093 A 
ATOM      7  C   UNL     1      13.850  -2.514   8.096  1.00  0.00     0.136 A 
ATOM      8  C   UNL     1      14.990  -2.207   8.884  1.00  0.00     0.125 A 
ATOM      9  C   UNL     1      14.923  -1.912  10.256  1.00  0.00     0.078 A 
ATOM     10  C   UNL     1      16.091  -1.615  10.966  1.00  0.00     0.223 A 
ENDROOT
BRANCH   1  11
ATOM     11  C   UNL     1      18.605  -1.351  10.974  1.00  0.00     0.084 A 
ATOM     12  C   UNL     1      19.281  -0.149  10.704  1.00  0.00     0.022 A 
ATOM     13  C   UNL     1      20.503   0.130  11.324  1.00  0.00     0.047 A 
ATOM     14  C   UNL     1      21.072  -0.791  12.208  1.00  0.00     0.115 A 
ATOM     15  C   UNL     1      19.192  -2.284  11.850  1.00  0.00     0.022 A 
ATOM     16  C   UNL     1      20.415  -2.000  12.467  1.00  0.00     0.047 A 
BRANCH  14  17
ATOM     17  O   UNL     1      22.289  -0.498  12.818  1.00  0.00    -0.508 OA
ATOM     18  H   UNL     1      22.700   0.427  12.760  1.00  0.00     0.293 HD
ENDBRANCH  14  17
ENDBRANCH   1  11
BRANCH  10  19
ATOM     19  O   UNL     1      16.019  -1.274  12.318  1.00  0.00    -0.500 OA
ATOM     20  H   UNL     1      15.548  -0.434  12.630  1.00  0.00     0.294 HD
ENDBRANCH  10  19
BRANCH   5  21
ATOM     21  O   UNL     1      15.430  -3.020   4.778  1.00  0.00    -0.507 OA
ATOM     22  H   UNL     1      16.020  -3.776   4.450  1.00  0.00     0.293 HD
ENDBRANCH   5  21
BRANCH   7  23
ATOM     23  O   UNL     1      12.554  -2.565   8.615  1.00  0.00    -0.507 OA
ATOM     24  H   UNL     1      11.995  -3.404   8.674  1.00  0.00     0.293 HD
ENDBRANCH   7  23
TORSDOF 5
ENDMDL
MODEL 2
REMARK VINA RESULT:    -6.286      1.475      6.877
REMARK INTER + INTRA:          -7.654
REMARK INTER:                  -7.390
REMARK INTRA:                  -0.264
REMARK UNBOUND:                -0.266
REMARK SMILES Oc1ccc(-c2[o+]c3cc(O)cc(O)c3cc2O)cc1
REMARK SMILES IDX 6 1 7 2 8 3 9 4 10 5 12 6 13 7 15 8 16 9 17 10 5 11 4 12
REMARK SMILES IDX 3 13 2 14 19 15 20 16 1 17 18 19 11 21 14 23
REMARK H PARENT 1 18 18 20 11 22 14 24
REMARK Flexibility Score: inf
ROOT
ATOM      1  C   UNL     1      17.607  -1.407  10.713  1.00  0.00     0.401 A 
ATOM      2  O   UNL     1      18.500  -0.487  10.357  1.00  0.00    -0.202 OA
ATOM      3  C   UNL     1      19.547  -0.156  11.106  1.00  0.00     0.368 A 
ATOM      4  C   UNL     1      20.429   0.825  10.648  1.00  0.00     0.162 A 
ATOM      5  C   UNL     1      21.534   1.193  11.414  1.00  0.00     0.128 A 
ATOM      6  C   UNL     1      21.762   0.578  12.651  1.00  0.00     0.093 A 
ATOM      7  C   UNL     1      20.892  -0.408  13.133  1.00  0.00     0.136 A 
ATOM      8  C   UNL     1      19.768  -0.787  12.355  1.00  0.00     0.125 A 
ATOM      9  C   UNL     1      18.852  -1.775  12.751  1.00  0.00     0.078 A 
ATOM     10  C   UNL     1      17.769  -2.099  11.927  1.00  0.00     0.223 A 
ENDROOT
BRANCH   1  11
ATOM     11  C   UNL     1      16.477  -1.678   9.795  1.00  0.00     0.084 A 
ATOM     12  C   UNL     1      16.721  -2.322   8.571  1.00  0.00     0.022 A 
ATOM     13  C   UNL     1      15.672  -2.568   7.679  1.00  0.00     0.047 A 
ATOM     14  C   UNL     1      14.371  -2.163   7.993  1.00  0.00     0.115 A 
ATOM     15  C   UNL     1      15.169  -1.254  10.096  1.00  0.00     0.022 A 
ATOM     16  C   UNL     1      14.123  -1.502   9.203  1.00  0.00     0.047 A 
BRANCH  14  17
ATOM     17  O   UNL     1      13.336  -2.416   7.095  1.00  0.00    -0.508 OA
ATOM     18  H   UNL     1      12.630  -3.118   7.287  1.00  0.00     0.293 HD
ENDBRANCH  14  17
ENDBRANCH   1  11
BRANCH  10  19
ATOM     19  O   UNL     1      16.886  -3.114  12.299  1.00  0.00    -0.500 OA
ATOM     20  H   UNL     1      16.362  -3.641  11.611  1.00  0.00     0.294 HD
ENDBRANCH  10  19
BRANCH   5  21
ATOM     21  O   UNL     1      22.403   2.174  10.939  1.00  0.00    -0.507 OA
ATOM     22  H   UNL     1      22.231   2.654  10.064  1.00  0.00     0.293 HD
ENDBRANCH   5  21
BRANCH   7  23
ATOM     23  O   UNL     1      21.186  -0.972  14.377  1.00  0.00    -0.507 OA
ATOM     24  H   UNL     1      22.083  -1.359  14.631  1.00  0.00     0.293 HD
ENDBRANCH   7  23
TORSDOF 5
ENDMDL
MODEL 3
REMARK VINA RESULT:    -5.793      3.075      6.578
REMARK INTER + INTRA:          -7.075
REMARK INTER:                  -7.382
REMARK INTRA:                   0.307
REMARK UNBOUND:                -0.266
REMARK SMILES Oc1ccc(-c2[o+]c3cc(O)cc(O)c3cc2O)cc1
REMARK SMILES IDX 6 1 7 2 8 3 9 4 10 5 12 6 13 7 15 8 16 9 17 10 5 11 4 12
REMARK SMILES IDX 3 13 2 14 19 15 20 16 1 17 18 19 11 21 14 23
REMARK H PARENT 1 18 18 20 11 22 14 24
REMARK Flexibility Score: inf
ROOT
ATOM      1  C   UNL     1      14.472  -2.095   9.886  1.00  0.00     0.401 A 
ATOM      2  O   UNL     1      13.254  -2.394  10.331  1.00  0.00    -0.202 OA
ATOM      3  C   UNL     1      12.883  -2.252  11.599  1.00  0.00     0.368 A 
ATOM      4  C   UNL     1      11.582  -2.596  11.971  1.00  0.00     0.162 A 
ATOM      5  C   UNL     1      11.167  -2.461  13.295  1.00  0.00     0.128 A 
ATOM      6  C   UNL     1      12.059  -1.977  14.259  1.00  0.00     0.093 A 
ATOM      7  C   UNL     1      13.370  -1.626  13.913  1.00  0.00     0.136 A 
ATOM      8  C   UNL     1      13.795  -1.760  12.565  1.00  0.00     0.125 A 
ATOM      9  C   UNL     1      15.084  -1.419  12.124  1.00  0.00     0.078 A 
ATOM     10  C   UNL     1      15.428  -1.575  10.778  1.00  0.00     0.223 A 
ENDROOT
BRANCH   1  11
ATOM     11  C   UNL     1      14.765  -2.307   8.450  1.00  0.00     0.084 A 
ATOM     12  C   UNL     1      13.703  -2.418   7.538  1.00  0.00     0.022 A 
ATOM     13  C   UNL     1      13.956  -2.640   6.180  1.00  0.00     0.047 A 
ATOM     14  C   UNL     1      15.270  -2.768   5.721  1.00  0.00     0.115 A 
ATOM     15  C   UNL     1      16.085  -2.457   7.985  1.00  0.00     0.022 A 
ATOM     16  C   UNL     1      16.334  -2.679   6.628  1.00  0.00     0.047 A 
BRANCH  14  17
ATOM     17  O   UNL     1      15.507  -2.989   4.366  1.00  0.00    -0.508 OA
ATOM     18  H   UNL     1      16.330  -2.616   3.906  1.00  0.00     0.293 HD
ENDBRANCH  14  17
ENDBRANCH   1  11
BRANCH  10  19
ATOM     19  O   UNL     1      16.693  -1.191  10.330  1.00  0.00    -0.500 OA
ATOM     20  H   UNL     1      17.539  -1.557  10.748  1.00  0.00     0.294 HD
ENDBRANCH  10  19
BRANCH   5  21
ATOM     21  O   UNL     1       9.864  -2.809  13.646  1.00  0.00    -0.507 OA
ATOM     22  H   UNL     1       9.659  -3.676  14.128  1.00  0.00     0.293 HD
ENDBRANCH   5  21
BRANCH   7  23
ATOM     23  O   UNL     1      14.201  -1.154  14.932  1.00  0.00    -0.507 OA
ATOM     24  H   UNL     1      14.194  -1.500  15.881  1.00  0.00     0.293 HD
ENDBRANCH   7  23
TORSDOF 5
ENDMDL
MODEL 4
REMARK VINA RESULT:    -5.709      2.680      7.120
REMARK INTER + INTRA:          -6.976
REMARK INTER:                  -6.882
REMARK INTRA:                  -0.094
REMARK UNBOUND:                -0.266
REMARK SMILES Oc1ccc(-c2[o+]c3cc(O)cc(O)c3cc2O)cc1
REMARK SMILES IDX 6 1 7 2 8 3 9 4 10 5 12 6 13 7 15 8 16 9 17 10 5 11 4 12
REMARK SMILES IDX 3 13 2 14 19 15 20 16 1 17 18 19 11 21 14 23
REMARK H PARENT 1 18 18 20 11 22 14 24
REMARK Flexibility Score: inf
ROOT
ATOM      1  C   UNL     1      16.193  -1.781  11.735  1.00  0.00     0.401 A 
ATOM      2  O   UNL     1      16.978  -1.800  12.809  1.00  0.00    -0.202 OA
ATOM      3  C   UNL     1      18.302  -1.699  12.748  1.00  0.00     0.368 A 
ATOM      4  C   UNL     1      19.043  -1.731  13.932  1.00  0.00     0.162 A 
ATOM      5  C   UNL     1      20.433  -1.631  13.897  1.00  0.00     0.128 A 
ATOM      6  C   UNL     1      21.092  -1.499  12.669  1.00  0.00     0.093 A 
ATOM      7  C   UNL     1      20.373  -1.465  11.468  1.00  0.00     0.136 A 
ATOM      8  C   UNL     1      18.958  -1.563  11.500  1.00  0.00     0.125 A 
ATOM      9  C   UNL     1      18.155  -1.524  10.348  1.00  0.00     0.078 A 
ATOM     10  C   UNL     1      16.764  -1.623  10.459  1.00  0.00     0.223 A 
ENDROOT
BRANCH   1  11
ATOM     11  C   UNL     1      14.731  -1.912  11.935  1.00  0.00     0.084 A 
ATOM     12  C   UNL     1      13.883  -0.869  11.528  1.00  0.00     0.022 A 
ATOM     13  C   UNL     1      12.501  -0.963  11.726  1.00  0.00     0.047 A 
ATOM     14  C   UNL     1      11.953  -2.090  12.345  1.00  0.00     0.115 A 
ATOM     15  C   UNL     1      14.176  -3.035  12.575  1.00  0.00     0.022 A 
ATOM     16  C   UNL     1      12.795  -3.125  12.772  1.00  0.00     0.047 A 
BRANCH  14  17
ATOM     17  O   UNL     1      10.575  -2.169  12.535  1.00  0.00    -0.508 OA
ATOM     18  H   UNL     1      10.150  -1.933  13.425  1.00  0.00     0.293 HD
ENDBRANCH  14  17
ENDBRANCH   1  11
BRANCH  10  19
ATOM     19  O   UNL     1      15.964  -1.535   9.320  1.00  0.00    -0.500 OA
ATOM     20  H   UNL     1      16.361  -1.385   8.401  1.00  0.00     0.294 HD
ENDBRANCH  10  19
BRANCH   5  21
ATOM     21  O   UNL     1      21.154  -1.664  15.089  1.00  0.00    -0.507 OA
ATOM     22  H   UNL     1      21.948  -2.282  15.211  1.00  0.00     0.293 HD
ENDBRANCH   5  21
BRANCH   7  23
ATOM     23  O   UNL     1      21.104  -1.333  10.284  1.00  0.00    -0.507 OA
ATOM     24  H   UNL     1      21.877  -0.697  10.159  1.00  0.00     0.293 HD
ENDBRANCH   7  23
TORSDOF 5
ENDMDL
MODEL 5
REMARK VINA RESULT:    -5.683      5.139      7.699
REMARK INTER + INTRA:          -6.946
REMARK INTER:                  -6.628
REMARK INTRA:                  -0.317
REMARK UNBOUND:                -0.266
REMARK SMILES Oc1ccc(-c2[o+]c3cc(O)cc(O)c3cc2O)cc1
REMARK SMILES IDX 6 1 7 2 8 3 9 4 10 5 12 6 13 7 15 8 16 9 17 10 5 11 4 12
REMARK SMILES IDX 3 13 2 14 19 15 20 16 1 17 18 19 11 21 14 23
REMARK H PARENT 1 18 18 20 11 22 14 24
REMARK Flexibility Score: inf
ROOT
ATOM      1  C   UNL     1      17.496  -0.643  14.787  1.00  0.00     0.401 A 
ATOM      2  O   UNL     1      18.197  -1.328  13.887  1.00  0.00    -0.202 OA
ATOM      3  C   UNL     1      19.453  -1.038  13.564  1.00  0.00     0.368 A 
ATOM      4  C   UNL     1      20.106  -1.815  12.604  1.00  0.00     0.162 A 
ATOM      5  C   UNL     1      21.422  -1.531  12.243  1.00  0.00     0.128 A 
ATOM      6  C   UNL     1      22.095  -0.461  12.845  1.00  0.00     0.093 A 
ATOM      7  C   UNL     1      21.463   0.334  13.810  1.00  0.00     0.136 A 
ATOM      8  C   UNL     1      20.124   0.046  14.181  1.00  0.00     0.125 A 
ATOM      9  C   UNL     1      19.416   0.779  15.148  1.00  0.00     0.078 A 
ATOM     10  C   UNL     1      18.099   0.433  15.465  1.00  0.00     0.223 A 
ENDROOT
BRANCH   1  11
ATOM     11  C   UNL     1      16.100  -1.059  15.052  1.00  0.00     0.084 A 
ATOM     12  C   UNL     1      15.053  -0.477  14.318  1.00  0.00     0.022 A 
ATOM     13  C   UNL     1      13.726  -0.841  14.567  1.00  0.00     0.047 A 
ATOM     14  C   UNL     1      13.427  -1.778  15.560  1.00  0.00     0.115 A 
ATOM     15  C   UNL     1      15.791  -1.987  16.065  1.00  0.00     0.022 A 
ATOM     16  C   UNL     1      14.463  -2.348  16.311  1.00  0.00     0.047 A 
BRANCH  14  17
ATOM     17  O   UNL     1      12.100  -2.130  15.796  1.00  0.00    -0.508 OA
ATOM     18  H   UNL     1      11.796  -2.468  16.702  1.00  0.00     0.293 HD
ENDBRANCH  14  17
ENDBRANCH   1  11
BRANCH  10  19
ATOM     19  O   UNL     1      17.413   1.130  16.460  1.00  0.00    -0.500 OA
ATOM     20  H   UNL     1      17.732   1.138  17.421  1.00  0.00     0.294 HD
ENDBRANCH  10  19
BRANCH   5  21
ATOM     21  O   UNL     1      22.056  -2.318  11.284  1.00  0.00    -0.507 OA
ATOM     22  H   UNL     1      22.747  -1.930  10.653  1.00  0.00     0.293 HD
ENDBRANCH   5  21
BRANCH   7  23
ATOM     23  O   UNL     1      22.200   1.384  14.362  1.00  0.00    -0.507 OA
ATOM     24  H   UNL     1      22.971   1.845  13.901  1.00  0.00     0.293 HD
ENDBRANCH   7  23
TORSDOF 5
ENDMDL
MODEL 6
REMARK VINA RESULT:    -5.680      3.221      5.697
REMARK INTER + INTRA:          -6.942
REMARK INTER:                  -6.775
REMARK INTRA:                  -0.168
REMARK UNBOUND:                -0.266
REMARK SMILES Oc1ccc(-c2[o+]c3cc(O)cc(O)c3cc2O)cc1
REMARK SMILES IDX 6 1 7 2 8 3 9 4 10 5 12 6 13 7 15 8 16 9 17 10 5 11 4 12
REMARK SMILES IDX 3 13 2 14 19 15 20 16 1 17 18 19 11 21 14 23
REMARK H PARENT 1 18 18 20 11 22 14 24
REMARK Flexibility Score: inf
ROOT
ATOM      1  C   UNL     1      13.737  -2.210  11.263  1.00  0.00     0.401 A 
ATOM      2  O   UNL     1      13.021  -2.325  10.147  1.00  0.00    -0.202 OA
ATOM      3  C   UNL     1      13.563  -2.451   8.941  1.00  0.00     0.368 A 
ATOM      4  C   UNL     1      12.728  -2.563   7.827  1.00  0.00     0.162 A 
ATOM      5  C   UNL     1      13.270  -2.693   6.549  1.00  0.00     0.128 A 
ATOM      6  C   UNL     1      14.659  -2.711   6.379  1.00  0.00     0.093 A 
ATOM      7  C   UNL     1      15.519  -2.599   7.479  1.00  0.00     0.136 A 
ATOM      8  C   UNL     1      14.971  -2.470   8.781  1.00  0.00     0.125 A 
ATOM      9  C   UNL     1      15.754  -2.367   9.943  1.00  0.00     0.078 A 
ATOM     10  C   UNL     1      15.141  -2.246  11.194  1.00  0.00     0.223 A 
ENDROOT
BRANCH   1  11
ATOM     11  C   UNL     1      13.013  -2.065  12.547  1.00  0.00     0.084 A 
ATOM     12  C   UNL     1      13.072  -3.102  13.494  1.00  0.00     0.022 A 
ATOM     13  C   UNL     1      12.379  -2.995  14.704  1.00  0.00     0.047 A 
ATOM     14  C   UNL     1      11.609  -1.861  14.977  1.00  0.00     0.115 A 
ATOM     15  C   UNL     1      12.220  -0.935  12.819  1.00  0.00     0.022 A 
ATOM     16  C   UNL     1      11.529  -0.832  14.030  1.00  0.00     0.047 A 
BRANCH  14  17
ATOM     17  O   UNL     1      10.925  -1.768  16.187  1.00  0.00    -0.508 OA
ATOM     18  H   UNL     1      10.502  -0.898  16.490  1.00  0.00     0.293 HD
ENDBRANCH  14  17
ENDBRANCH   1  11
BRANCH  10  19
ATOM     19  O   UNL     1      15.919  -2.193  12.351  1.00  0.00    -0.500 OA
ATOM     20  H   UNL     1      16.438  -2.998  12.681  1.00  0.00     0.294 HD
ENDBRANCH  10  19
BRANCH   5  21
ATOM     21  O   UNL     1      12.419  -2.804   5.451  1.00  0.00    -0.507 OA
ATOM     22  H   UNL     1      11.457  -2.488   5.491  1.00  0.00     0.293 HD
ENDBRANCH   5  21
BRANCH   7  23
ATOM     23  O   UNL     1      16.893  -2.623   7.227  1.00  0.00    -0.507 OA
ATOM     24  H   UNL     1      17.435  -3.464   7.097  1.00  0.00     0.293 HD
ENDBRANCH   7  23
TORSDOF 5
ENDMDL
MODEL 7
REMARK VINA RESULT:    -5.589      4.712      7.349
REMARK INTER + INTRA:          -6.835
REMARK INTER:                  -6.561
REMARK INTRA:                  -0.274
REMARK UNBOUND:                -0.266
REMARK SMILES Oc1ccc(-c2[o+]c3cc(O)cc(O)c3cc2O)cc1
REMARK SMILES IDX 6 1 7 2 8 3 9 4 10 5 12 6 13 7 15 8 16 9 17 10 5 11 4 12
REMARK SMILES IDX 3 13 2 14 19 15 20 16 1 17 18 19 11 21 14 23
REMARK H PARENT 1 18 18 20 11 22 14 24
REMARK Flexibility Score: inf
ROOT
ATOM      1  C   UNL     1      20.865  -0.760  15.556  1.00  0.00     0.401 A 
ATOM      2  O   UNL     1      21.474   0.088  14.730  1.00  0.00    -0.202 OA
ATOM      3  C   UNL     1      21.095   0.281  13.471  1.00  0.00     0.368 A 
ATOM      4  C   UNL     1      21.800   1.191  12.680  1.00  0.00     0.162 A 
ATOM      5  C   UNL     1      21.427   1.410  11.355  1.00  0.00     0.128 A 
ATOM      6  C   UNL     1      20.339   0.716  10.812  1.00  0.00     0.093 A 
ATOM      7  C   UNL     1      19.616  -0.202  11.584  1.00  0.00     0.136 A 
ATOM      8  C   UNL     1      19.992  -0.427  12.934  1.00  0.00     0.125 A 
ATOM      9  C   UNL     1      19.317  -1.317  13.786  1.00  0.00     0.078 A 
ATOM     10  C   UNL     1      19.744  -1.482  15.108  1.00  0.00     0.223 A 
ENDROOT
BRANCH   1  11
ATOM     11  C   UNL     1      21.390  -0.893  16.935  1.00  0.00     0.084 A 
ATOM     12  C   UNL     1      20.742  -0.227  17.988  1.00  0.00     0.022 A 
ATOM     13  C   UNL     1      21.233  -0.322  19.294  1.00  0.00     0.047 A 
ATOM     14  C   UNL     1      22.384  -1.070  19.561  1.00  0.00     0.115 A 
ATOM     15  C   UNL     1      22.559  -1.628  17.206  1.00  0.00     0.022 A 
ATOM     16  C   UNL     1      23.047  -1.720  18.513  1.00  0.00     0.047 A 
BRANCH  14  17
ATOM     17  O   UNL     1      22.861  -1.155  20.867  1.00  0.00    -0.508 OA
ATOM     18  H   UNL     1      22.880  -0.346  21.477  1.00  0.00     0.293 HD
ENDBRANCH  14  17
ENDBRANCH   1  11
BRANCH  10  19
ATOM     19  O   UNL     1      19.044  -2.329  15.968  1.00  0.00    -0.500 OA
ATOM     20  H   UNL     1      19.449  -2.659  16.835  1.00  0.00     0.294 HD
ENDBRANCH  10  19
BRANCH   5  21
ATOM     21  O   UNL     1      22.142   2.323  10.582  1.00  0.00    -0.507 OA
ATOM     22  H   UNL     1      21.673   3.012  10.006  1.00  0.00     0.293 HD
ENDBRANCH   5  21
BRANCH   7  23
ATOM     23  O   UNL     1      18.546  -0.858  10.970  1.00  0.00    -0.507 OA
ATOM     24  H   UNL     1      18.263  -1.805  11.175  1.00  0.00     0.293 HD
ENDBRANCH   7  23
TORSDOF 5
ENDMDL
MODEL 8
REMARK VINA RESULT:    -5.558      1.569      6.570
REMARK INTER + INTRA:          -6.799
REMARK INTER:                  -7.188
REMARK INTRA:                   0.389
REMARK UNBOUND:                -0.266
REMARK SMILES Oc1ccc(-c2[o+]c3cc(O)cc(O)c3cc2O)cc1
REMARK SMILES IDX 6 1 7 2 8 3 9 4 10 5 12 6 13 7 15 8 16 9 17 10 5 11 4 12
REMARK SMILES IDX 3 13 2 14 19 15 20 16 1 17 18 19 11 21 14 23
REMARK H PARENT 1 18 18 20 11 22 14 24
REMARK Flexibility Score: inf
ROOT
ATOM      1  C   UNL     1      16.428  -2.215  10.350  1.00  0.00     0.401 A 
ATOM      2  O   UNL     1      17.731  -2.122  10.608  1.00  0.00    -0.202 OA
ATOM      3  C   UNL     1      18.223  -1.967  11.833  1.00  0.00     0.368 A 
ATOM      4  C   UNL     1      19.607  -1.877  12.003  1.00  0.00     0.162 A 
ATOM      5  C   UNL     1      20.152  -1.710  13.276  1.00  0.00     0.128 A 
ATOM      6  C   UNL     1      19.309  -1.633  14.390  1.00  0.00     0.093 A 
ATOM      7  C   UNL     1      17.918  -1.720  14.247  1.00  0.00     0.136 A 
ATOM      8  C   UNL     1      17.361  -1.892  12.953  1.00  0.00     0.125 A 
ATOM      9  C   UNL     1      15.981  -2.003  12.716  1.00  0.00     0.078 A 
ATOM     10  C   UNL     1      15.506  -2.176  11.412  1.00  0.00     0.223 A 
ENDROOT
BRANCH   1  11
ATOM     11  C   UNL     1      16.004  -2.376   8.941  1.00  0.00     0.084 A 
ATOM     12  C   UNL     1      16.969  -2.634   7.954  1.00  0.00     0.022 A 
ATOM     13  C   UNL     1      16.592  -2.768   6.613  1.00  0.00     0.047 A 
ATOM     14  C   UNL     1      15.252  -2.633   6.241  1.00  0.00     0.115 A 
ATOM     15  C   UNL     1      14.658  -2.221   8.558  1.00  0.00     0.022 A 
ATOM     16  C   UNL     1      14.286  -2.356   7.217  1.00  0.00     0.047 A 
BRANCH  14  17
ATOM     17  O   UNL     1      14.892  -2.770   4.903  1.00  0.00    -0.508 OA
ATOM     18  H   UNL     1      15.300  -3.490   4.317  1.00  0.00     0.293 HD
ENDBRANCH  14  17
ENDBRANCH   1  11
BRANCH  10  19
ATOM     19  O   UNL     1      14.139  -2.336  11.181  1.00  0.00    -0.500 OA
ATOM     20  H   UNL     1      13.659  -1.825  10.450  1.00  0.00     0.294 HD
ENDBRANCH  10  19
BRANCH   5  21
ATOM     21  O   UNL     1      21.534  -1.623  13.425  1.00  0.00    -0.507 OA
ATOM     22  H   UNL     1      22.003  -0.728  13.504  1.00  0.00     0.293 HD
ENDBRANCH   5  21
BRANCH   7  23
ATOM     23  O   UNL     1      17.144  -1.631  15.407  1.00  0.00    -0.507 OA
ATOM     24  H   UNL     1      16.223  -1.222  15.448  1.00  0.00     0.293 HD
ENDBRANCH   7  23
TORSDOF 5
ENDMDL
