MODEL 1
REMARK VINA RESULT:    -9.034      0.000      0.000
REMARK INTER + INTRA:          -9.827
REMARK INTER:                  -9.827
REMARK INTRA:                   0.000
REMARK UNBOUND:                 0.000
REMARK SMILES C[C@H]1CC[C@@H]2[N@H+](C1)C[C@@H]1[C@@H]3C[C@H]4[C@H](C[C@H](O)[C@H]5C[C@@H](O)CC[C@]54C)[C@H]3CC[C@H]1[C@]2(C)O
REMARK SMILES IDX 5 1 6 2 8 3 7 4 4 5 29 6 3 7 28 8 30 9 2 10 27 11 9 12 1 13
REMARK SMILES IDX 26 14 10 15 25 16 11 17 13 18 12 19 14 20 23 21 15 22 17 23
REMARK SMILES IDX 22 24 24 25 18 26 21 27 19 28 31 30 16 32 20 34
REMARK H PARENT 6 29 31 31 16 33 20 35
REMARK Flexibility Score: inf
ROOT
ATOM      1  C   UNL     1      25.168 -23.907  27.257  1.00  0.00     0.216 C 
ATOM      2  N   UNL     1      24.105 -24.125  28.281  1.00  0.00    -0.330 N 
ATOM      3  C   UNL     1      24.584 -24.800  29.512  1.00  0.00     0.266 C 
ATOM      4  C   UNL     1      23.340 -22.886  28.580  1.00  0.00     0.265 C 
ATOM      5  C   UNL     1      26.120 -22.755  27.673  1.00  0.00     0.069 C 
ATOM      6  C   UNL     1      25.934 -25.235  26.882  1.00  0.00     0.117 C 
ATOM      7  C   UNL     1      25.341 -21.458  27.888  1.00  0.00     0.015 C 
ATOM      8  C   UNL     1      26.392 -25.950  28.194  1.00  0.00     0.036 C 
ATOM      9  C   UNL     1      25.025 -26.134  25.998  1.00  0.00     0.049 C 
ATOM     10  C   UNL     1      24.199 -21.635  28.899  1.00  0.00     0.041 C 
ATOM     11  C   UNL     1      27.175 -27.280  28.008  1.00  0.00     0.007 C 
ATOM     12  C   UNL     1      25.205 -26.165  29.176  1.00  0.00     0.054 C 
ATOM     13  C   UNL     1      24.691 -21.563  30.356  1.00  0.00     0.013 C 
ATOM     14  C   UNL     1      27.778 -27.801  29.346  1.00  0.00     0.004 C 
ATOM     15  C   UNL     1      25.618 -27.049  30.400  1.00  0.00     0.002 C 
ATOM     16  C   UNL     1      27.124 -27.140  30.580  1.00  0.00    -0.004 C 
ATOM     17  C   UNL     1      25.111 -26.696  31.795  1.00  0.00     0.009 C 
ATOM     18  C   UNL     1      27.295 -27.880  31.911  1.00  0.00    -0.001 C 
ATOM     19  C   UNL     1      26.053 -27.472  32.750  1.00  0.00    -0.001 C 
ATOM     20  C   UNL     1      28.646 -27.585  32.578  1.00  0.00     0.036 C 
ATOM     21  C   UNL     1      26.369 -26.757  34.113  1.00  0.00    -0.024 C 
ATOM     22  C   UNL     1      28.686 -28.029  34.053  1.00  0.00     0.118 C 
ATOM     23  C   UNL     1      27.413 -27.635  34.885  1.00  0.00     0.026 C 
ATOM     24  C   UNL     1      26.885 -25.282  33.933  1.00  0.00     0.010 C 
ATOM     25  C   UNL     1      25.041 -26.723  34.925  1.00  0.00     0.012 C 
ATOM     26  C   UNL     1      27.802 -27.017  36.258  1.00  0.00     0.038 C 
ATOM     27  C   UNL     1      28.050 -24.886  34.861  1.00  0.00     0.032 C 
ATOM     28  C   UNL     1      27.902 -25.470  36.267  1.00  0.00     0.114 C 
ATOM     29  H   UNL     1      23.396 -24.767  27.855  1.00  0.00     0.348 HD
ENDROOT
BRANCH   6  30
ATOM     30  O   UNL     1      27.074 -24.876  26.128  1.00  0.00    -0.384 OA
ATOM     31  H   UNL     1      26.792 -24.606  25.216  1.00  0.00     0.211 HD
ENDBRANCH   6  30
BRANCH  22  32
ATOM     32  O   UNL     1      28.860 -29.424  34.115  1.00  0.00    -0.393 OA
ATOM     33  H   UNL     1      29.461 -29.612  34.884  1.00  0.00     0.210 HD
ENDBRANCH  22  32
BRANCH  28  34
ATOM     34  O   UNL     1      28.997 -25.062  37.045  1.00  0.00    -0.393 OA
ATOM     35  H   UNL     1      29.534 -25.876  37.231  1.00  0.00     0.210 HD
ENDBRANCH  28  34
TORSDOF 3
ENDMDL
MODEL 2
REMARK VINA RESULT:    -9.027      5.441      8.848
REMARK INTER + INTRA:          -9.818
REMARK INTER:                  -9.818
REMARK INTRA:                   0.000
REMARK UNBOUND:                 0.000
REMARK SMILES C[C@H]1CC[C@@H]2[N@H+](C1)C[C@@H]1[C@@H]3C[C@H]4[C@H](C[C@H](O)[C@H]5C[C@@H](O)CC[C@]54C)[C@H]3CC[C@H]1[C@]2(C)O
REMARK SMILES IDX 5 1 6 2 8 3 7 4 4 5 29 6 3 7 28 8 30 9 2 10 27 11 9 12 1 13
REMARK SMILES IDX 26 14 10 15 25 16 11 17 13 18 12 19 14 20 23 21 15 22 17 23
REMARK SMILES IDX 22 24 24 25 18 26 21 27 19 28 31 30 16 32 20 34
REMARK H PARENT 6 29 31 31 16 33 20 35
REMARK Flexibility Score: inf
ROOT
ATOM      1  C   UNL     1      23.363 -17.309  31.268  1.00  0.00     0.216 C 
ATOM      2  N   UNL     1      22.919 -18.695  31.597  1.00  0.00    -0.330 N 
ATOM      3  C   UNL     1      23.210 -19.689  30.535  1.00  0.00     0.266 C 
ATOM      4  C   UNL     1      23.394 -19.141  32.933  1.00  0.00     0.265 C 
ATOM      5  C   UNL     1      24.904 -17.171  31.381  1.00  0.00     0.069 C 
ATOM      6  C   UNL     1      22.801 -16.802  29.882  1.00  0.00     0.117 C 
ATOM      7  C   UNL     1      25.379 -17.542  32.786  1.00  0.00     0.015 C 
ATOM      8  C   UNL     1      23.080 -17.883  28.789  1.00  0.00     0.036 C 
ATOM      9  C   UNL     1      21.288 -16.470  30.020  1.00  0.00     0.049 C 
ATOM     10  C   UNL     1      24.908 -18.944  33.200  1.00  0.00     0.041 C 
ATOM     11  C   UNL     1      22.596 -17.541  27.352  1.00  0.00     0.007 C 
ATOM     12  C   UNL     1      22.544 -19.281  29.212  1.00  0.00     0.054 C 
ATOM     13  C   UNL     1      25.802 -20.055  32.622  1.00  0.00     0.013 C 
ATOM     14  C   UNL     1      23.110 -18.566  26.298  1.00  0.00     0.004 C 
ATOM     15  C   UNL     1      22.648 -20.318  28.045  1.00  0.00     0.002 C 
ATOM     16  C   UNL     1      23.601 -19.878  26.947  1.00  0.00    -0.004 C 
ATOM     17  C   UNL     1      23.082 -21.752  28.341  1.00  0.00     0.009 C 
ATOM     18  C   UNL     1      23.690 -21.096  26.022  1.00  0.00    -0.001 C 
ATOM     19  C   UNL     1      23.494 -22.318  26.960  1.00  0.00    -0.001 C 
ATOM     20  C   UNL     1      24.989 -21.118  25.202  1.00  0.00     0.036 C 
ATOM     21  C   UNL     1      24.682 -23.347  26.980  1.00  0.00    -0.024 C 
ATOM     22  C   UNL     1      25.251 -22.487  24.546  1.00  0.00     0.118 C 
ATOM     23  C   UNL     1      25.022 -23.717  25.495  1.00  0.00     0.026 C 
ATOM     24  C   UNL     1      25.951 -22.811  27.741  1.00  0.00     0.010 C 
ATOM     25  C   UNL     1      24.165 -24.620  27.712  1.00  0.00     0.012 C 
ATOM     26  C   UNL     1      26.194 -24.736  25.396  1.00  0.00     0.038 C 
ATOM     27  C   UNL     1      27.296 -23.134  27.062  1.00  0.00     0.032 C 
ATOM     28  C   UNL     1      27.318 -24.533  26.444  1.00  0.00     0.114 C 
ATOM     29  H   UNL     1      21.876 -18.668  31.692  1.00  0.00     0.348 HD
ENDROOT
BRANCH   6  30
ATOM     30  O   UNL     1      23.488 -15.615  29.546  1.00  0.00    -0.384 OA
ATOM     31  H   UNL     1      23.230 -14.896  30.179  1.00  0.00     0.211 HD
ENDBRANCH   6  30
BRANCH  22  32
ATOM     32  O   UNL     1      24.429 -22.625  23.412  1.00  0.00    -0.393 OA
ATOM     33  H   UNL     1      23.492 -22.479  23.708  1.00  0.00     0.210 HD
ENDBRANCH  22  32
BRANCH  28  34
ATOM     34  O   UNL     1      28.573 -24.748  25.852  1.00  0.00    -0.393 OA
ATOM     35  H   UNL     1      28.690 -25.732  25.780  1.00  0.00     0.210 HD
ENDBRANCH  28  34
TORSDOF 3
ENDMDL
MODEL 3
REMARK VINA RESULT:    -8.921      1.383      1.597
REMARK INTER + INTRA:          -9.703
REMARK INTER:                  -9.703
REMARK INTRA:                   0.000
REMARK UNBOUND:                 0.000
REMARK SMILES C[C@H]1CC[C@@H]2[N@H+](C1)C[C@@H]1[C@@H]3C[C@H]4[C@H](C[C@H](O)[C@H]5C[C@@H](O)CC[C@]54C)[C@H]3CC[C@H]1[C@]2(C)O
REMARK SMILES IDX 5 1 6 2 8 3 7 4 4 5 29 6 3 7 28 8 30 9 2 10 27 11 9 12 1 13
REMARK SMILES IDX 26 14 10 15 25 16 11 17 13 18 12 19 14 20 23 21 15 22 17 23
REMARK SMILES IDX 22 24 24 25 18 26 21 27 19 28 31 30 16 32 20 34
REMARK H PARENT 6 29 31 31 16 33 20 35
REMARK Flexibility Score: inf
ROOT
ATOM      1  C   UNL     1      25.435 -23.247  27.146  1.00  0.00     0.216 C 
ATOM      2  N   UNL     1      24.177 -23.845  27.681  1.00  0.00    -0.330 N 
ATOM      3  C   UNL     1      24.392 -24.826  28.773  1.00  0.00     0.266 C 
ATOM      4  C   UNL     1      23.165 -22.816  28.038  1.00  0.00     0.265 C 
ATOM      5  C   UNL     1      26.028 -22.210  28.135  1.00  0.00     0.069 C 
ATOM      6  C   UNL     1      26.484 -24.338  26.695  1.00  0.00     0.117 C 
ATOM      7  C   UNL     1      25.017 -21.102  28.428  1.00  0.00     0.015 C 
ATOM      8  C   UNL     1      26.663 -25.383  27.844  1.00  0.00     0.036 C 
ATOM      9  C   UNL     1      26.022 -24.990  25.362  1.00  0.00     0.049 C 
ATOM     10  C   UNL     1      23.681 -21.662  28.936  1.00  0.00     0.041 C 
ATOM     11  C   UNL     1      27.674 -26.531  27.570  1.00  0.00     0.007 C 
ATOM     12  C   UNL     1      25.298 -25.974  28.301  1.00  0.00     0.054 C 
ATOM     13  C   UNL     1      23.722 -22.000  30.437  1.00  0.00     0.013 C 
ATOM     14  C   UNL     1      27.950 -27.388  28.840  1.00  0.00     0.004 C 
ATOM     15  C   UNL     1      25.488 -27.155  29.310  1.00  0.00     0.002 C 
ATOM     16  C   UNL     1      26.874 -27.184  29.930  1.00  0.00    -0.004 C 
ATOM     17  C   UNL     1      24.556 -27.282  30.512  1.00  0.00     0.009 C 
ATOM     18  C   UNL     1      26.781 -28.280  30.997  1.00  0.00    -0.001 C 
ATOM     19  C   UNL     1      25.303 -28.239  31.473  1.00  0.00    -0.001 C 
ATOM     20  C   UNL     1      27.820 -28.103  32.114  1.00  0.00     0.036 C 
ATOM     21  C   UNL     1      25.098 -27.952  33.005  1.00  0.00    -0.024 C 
ATOM     22  C   UNL     1      27.514 -28.970  33.350  1.00  0.00     0.118 C 
ATOM     23  C   UNL     1      26.011 -28.944  33.806  1.00  0.00     0.026 C 
ATOM     24  C   UNL     1      25.394 -26.458  33.399  1.00  0.00     0.010 C 
ATOM     25  C   UNL     1      23.608 -28.265  33.329  1.00  0.00     0.012 C 
ATOM     26  C   UNL     1      25.888 -28.745  35.344  1.00  0.00     0.038 C 
ATOM     27  C   UNL     1      26.167 -26.278  34.720  1.00  0.00     0.032 C 
ATOM     28  C   UNL     1      25.726 -27.271  35.796  1.00  0.00     0.114 C 
ATOM     29  H   UNL     1      23.732 -24.378  26.896  1.00  0.00     0.348 HD
ENDROOT
BRANCH   6  30
ATOM     30  O   UNL     1      27.715 -23.683  26.469  1.00  0.00    -0.384 OA
ATOM     31  H   UNL     1      28.432 -24.361  26.363  1.00  0.00     0.211 HD
ENDBRANCH   6  30
BRANCH  22  32
ATOM     32  O   UNL     1      27.890 -30.300  33.090  1.00  0.00    -0.393 OA
ATOM     33  H   UNL     1      27.980 -30.758  33.968  1.00  0.00     0.210 HD
ENDBRANCH  22  32
BRANCH  28  34
ATOM     34  O   UNL     1      26.472 -27.040  36.962  1.00  0.00    -0.393 OA
ATOM     35  H   UNL     1      27.248 -26.479  36.697  1.00  0.00     0.210 HD
ENDBRANCH  28  34
TORSDOF 3
ENDMDL
MODEL 4
REMARK VINA RESULT:    -8.823      4.532      9.377
REMARK INTER + INTRA:          -9.597
REMARK INTER:                  -9.597
REMARK INTRA:                   0.000
REMARK UNBOUND:                 0.000
REMARK SMILES C[C@H]1CC[C@@H]2[N@H+](C1)C[C@@H]1[C@@H]3C[C@H]4[C@H](C[C@H](O)[C@H]5C[C@@H](O)CC[C@]54C)[C@H]3CC[C@H]1[C@]2(C)O
REMARK SMILES IDX 5 1 6 2 8 3 7 4 4 5 29 6 3 7 28 8 30 9 2 10 27 11 9 12 1 13
REMARK SMILES IDX 26 14 10 15 25 16 11 17 13 18 12 19 14 20 23 21 15 22 17 23
REMARK SMILES IDX 22 24 24 25 18 26 21 27 19 28 31 30 16 32 20 34
REMARK H PARENT 6 29 31 31 16 33 20 35
REMARK Flexibility Score: inf
ROOT
ATOM      1  C   UNL     1      23.309 -31.085  38.951  1.00  0.00     0.216 C 
ATOM      2  N   UNL     1      22.490 -30.294  37.987  1.00  0.00    -0.330 N 
ATOM      3  C   UNL     1      23.290 -29.559  36.978  1.00  0.00     0.266 C 
ATOM      4  C   UNL     1      21.404 -31.100  37.369  1.00  0.00     0.265 C 
ATOM      5  C   UNL     1      23.881 -32.364  38.285  1.00  0.00     0.069 C 
ATOM      6  C   UNL     1      24.416 -30.216  39.667  1.00  0.00     0.117 C 
ATOM      7  C   UNL     1      22.755 -33.236  37.731  1.00  0.00     0.015 C 
ATOM      8  C   UNL     1      25.218 -29.418  38.588  1.00  0.00     0.036 C 
ATOM      9  C   UNL     1      23.753 -29.289  40.724  1.00  0.00     0.049 C 
ATOM     10  C   UNL     1      21.846 -32.460  36.768  1.00  0.00     0.041 C 
ATOM     11  C   UNL     1      26.361 -28.510  39.121  1.00  0.00     0.007 C 
ATOM     12  C   UNL     1      24.275 -28.598  37.661  1.00  0.00     0.054 C 
ATOM     13  C   UNL     1      22.443 -32.360  35.353  1.00  0.00     0.013 C 
ATOM     14  C   UNL     1      27.239 -27.934  37.972  1.00  0.00     0.004 C 
ATOM     15  C   UNL     1      25.080 -27.652  36.709  1.00  0.00     0.002 C 
ATOM     16  C   UNL     1      26.545 -28.036  36.596  1.00  0.00    -0.004 C 
ATOM     17  C   UNL     1      24.640 -27.486  35.257  1.00  0.00     0.009 C 
ATOM     18  C   UNL     1      27.087 -27.115  35.498  1.00  0.00    -0.001 C 
ATOM     19  C   UNL     1      25.878 -26.877  34.552  1.00  0.00    -0.001 C 
ATOM     20  C   UNL     1      28.336 -27.688  34.813  1.00  0.00     0.036 C 
ATOM     21  C   UNL     1      26.094 -27.327  33.061  1.00  0.00    -0.024 C 
ATOM     22  C   UNL     1      28.676 -26.961  33.497  1.00  0.00     0.118 C 
ATOM     23  C   UNL     1      27.442 -26.701  32.561  1.00  0.00     0.026 C 
ATOM     24  C   UNL     1      26.087 -28.890  32.879  1.00  0.00     0.010 C 
ATOM     25  C   UNL     1      24.921 -26.726  32.233  1.00  0.00     0.012 C 
ATOM     26  C   UNL     1      27.757 -27.085  31.087  1.00  0.00     0.038 C 
ATOM     27  C   UNL     1      27.156 -29.433  31.912  1.00  0.00     0.032 C 
ATOM     28  C   UNL     1      27.356 -28.530  30.694  1.00  0.00     0.114 C 
ATOM     29  H   UNL     1      21.982 -29.566  38.542  1.00  0.00     0.348 HD
ENDROOT
BRANCH   6  30
ATOM     30  O   UNL     1      25.292 -31.100  40.335  1.00  0.00    -0.384 OA
ATOM     31  H   UNL     1      25.896 -30.579  40.926  1.00  0.00     0.211 HD
ENDBRANCH   6  30
BRANCH  22  32
ATOM     32  O   UNL     1      29.293 -25.731  33.792  1.00  0.00    -0.393 OA
ATOM     33  H   UNL     1      28.627 -25.016  33.613  1.00  0.00     0.210 HD
ENDBRANCH  22  32
BRANCH  28  34
ATOM     34  O   UNL     1      28.340 -29.095  29.866  1.00  0.00    -0.393 OA
ATOM     35  H   UNL     1      29.128 -29.275  30.442  1.00  0.00     0.210 HD
ENDBRANCH  28  34
TORSDOF 3
ENDMDL
MODEL 5
REMARK VINA RESULT:    -8.802      5.468      8.395
REMARK INTER + INTRA:          -9.573
REMARK INTER:                  -9.573
REMARK INTRA:                   0.000
REMARK UNBOUND:                 0.000
REMARK SMILES C[C@H]1CC[C@@H]2[N@H+](C1)C[C@@H]1[C@@H]3C[C@H]4[C@H](C[C@H](O)[C@H]5C[C@@H](O)CC[C@]54C)[C@H]3CC[C@H]1[C@]2(C)O
REMARK SMILES IDX 5 1 6 2 8 3 7 4 4 5 29 6 3 7 28 8 30 9 2 10 27 11 9 12 1 13
REMARK SMILES IDX 26 14 10 15 25 16 11 17 13 18 12 19 14 20 23 21 15 22 17 23
REMARK SMILES IDX 22 24 24 25 18 26 21 27 19 28 31 30 16 32 20 34
REMARK H PARENT 6 29 31 31 16 33 20 35
REMARK Flexibility Score: inf
ROOT
ATOM      1  C   UNL     1      21.079 -19.102  30.459  1.00  0.00     0.216 C 
ATOM      2  N   UNL     1      22.489 -18.812  30.065  1.00  0.00    -0.330 N 
ATOM      3  C   UNL     1      23.141 -19.910  29.308  1.00  0.00     0.266 C 
ATOM      4  C   UNL     1      22.631 -17.498  29.386  1.00  0.00     0.265 C 
ATOM      5  C   UNL     1      20.125 -19.004  29.241  1.00  0.00     0.069 C 
ATOM      6  C   UNL     1      20.935 -20.463  31.246  1.00  0.00     0.117 C 
ATOM      7  C   UNL     1      20.204 -17.618  28.601  1.00  0.00     0.015 C 
ATOM      8  C   UNL     1      21.665 -21.595  30.453  1.00  0.00     0.036 C 
ATOM      9  C   UNL     1      21.486 -20.294  32.690  1.00  0.00     0.049 C 
ATOM     10  C   UNL     1      21.643 -17.243  28.218  1.00  0.00     0.041 C 
ATOM     11  C   UNL     1      21.614 -23.013  31.086  1.00  0.00     0.007 C 
ATOM     12  C   UNL     1      23.136 -21.210  30.127  1.00  0.00     0.054 C 
ATOM     13  C   UNL     1      22.073 -17.869  26.879  1.00  0.00     0.013 C 
ATOM     14  C   UNL     1      22.169 -24.106  30.127  1.00  0.00     0.004 C 
ATOM     15  C   UNL     1      23.924 -22.412  29.507  1.00  0.00     0.002 C 
ATOM     16  C   UNL     1      23.012 -23.507  28.980  1.00  0.00    -0.004 C 
ATOM     17  C   UNL     1      24.893 -22.168  28.353  1.00  0.00     0.009 C 
ATOM     18  C   UNL     1      23.964 -24.472  28.267  1.00  0.00    -0.001 C 
ATOM     19  C   UNL     1      25.114 -23.572  27.738  1.00  0.00    -0.001 C 
ATOM     20  C   UNL     1      23.256 -25.309  27.191  1.00  0.00     0.036 C 
ATOM     21  C   UNL     1      25.326 -23.601  26.180  1.00  0.00    -0.024 C 
ATOM     22  C   UNL     1      24.246 -26.013  26.243  1.00  0.00     0.118 C 
ATOM     23  C   UNL     1      25.420 -25.101  25.736  1.00  0.00     0.026 C 
ATOM     24  C   UNL     1      24.200 -22.839  25.389  1.00  0.00     0.010 C 
ATOM     25  C   UNL     1      26.689 -22.904  25.897  1.00  0.00     0.012 C 
ATOM     26  C   UNL     1      25.630 -25.248  24.202  1.00  0.00     0.038 C 
ATOM     27  C   UNL     1      23.721 -23.545  24.105  1.00  0.00     0.032 C 
ATOM     28  C   UNL     1      24.867 -24.209  23.341  1.00  0.00     0.114 C 
ATOM     29  H   UNL     1      23.039 -18.703  30.950  1.00  0.00     0.348 HD
ENDROOT
BRANCH   6  30
ATOM     30  O   UNL     1      19.558 -20.768  31.328  1.00  0.00    -0.384 OA
ATOM     31  H   UNL     1      19.076 -20.004  31.739  1.00  0.00     0.211 HD
ENDBRANCH   6  30
BRANCH  22  32
ATOM     32  O   UNL     1      24.787 -27.140  26.888  1.00  0.00    -0.393 OA
ATOM     33  H   UNL     1      25.766 -26.990  26.971  1.00  0.00     0.210 HD
ENDBRANCH  22  32
BRANCH  28  34
ATOM     34  O   UNL     1      24.349 -24.824  22.190  1.00  0.00    -0.393 OA
ATOM     35  H   UNL     1      24.957 -25.579  21.971  1.00  0.00     0.210 HD
ENDBRANCH  28  34
TORSDOF 3
ENDMDL
MODEL 6
REMARK VINA RESULT:    -8.784      4.240      8.448
REMARK INTER + INTRA:          -9.554
REMARK INTER:                  -9.554
REMARK INTRA:                   0.000
REMARK UNBOUND:                 0.000
REMARK SMILES C[C@H]1CC[C@@H]2[N@H+](C1)C[C@@H]1[C@@H]3C[C@H]4[C@H](C[C@H](O)[C@H]5C[C@@H](O)CC[C@]54C)[C@H]3CC[C@H]1[C@]2(C)O
REMARK SMILES IDX 5 1 6 2 8 3 7 4 4 5 29 6 3 7 28 8 30 9 2 10 27 11 9 12 1 13
REMARK SMILES IDX 26 14 10 15 25 16 11 17 13 18 12 19 14 20 23 21 15 22 17 23
REMARK SMILES IDX 22 24 24 25 18 26 21 27 19 28 31 30 16 32 20 34
REMARK H PARENT 6 29 31 31 16 33 20 35
REMARK Flexibility Score: inf
ROOT
ATOM      1  C   UNL     1      24.429 -26.237  27.545  1.00  0.00     0.216 C 
ATOM      2  N   UNL     1      25.594 -25.360  27.864  1.00  0.00    -0.330 N 
ATOM      3  C   UNL     1      25.258 -23.917  27.943  1.00  0.00     0.266 C 
ATOM      4  C   UNL     1      26.350 -25.829  29.055  1.00  0.00     0.265 C 
ATOM      5  C   UNL     1      23.491 -26.390  28.770  1.00  0.00     0.069 C 
ATOM      6  C   UNL     1      23.667 -25.786  26.238  1.00  0.00     0.117 C 
ATOM      7  C   UNL     1      24.251 -26.962  29.967  1.00  0.00     0.015 C 
ATOM      8  C   UNL     1      23.362 -24.255  26.325  1.00  0.00     0.036 C 
ATOM      9  C   UNL     1      24.510 -26.156  24.985  1.00  0.00     0.049 C 
ATOM     10  C   UNL     1      25.492 -26.126  30.312  1.00  0.00     0.041 C 
ATOM     11  C   UNL     1      22.602 -23.642  25.116  1.00  0.00     0.007 C 
ATOM     12  C   UNL     1      24.646 -23.429  26.621  1.00  0.00     0.054 C 
ATOM     13  C   UNL     1      25.144 -24.881  31.147  1.00  0.00     0.013 C 
ATOM     14  C   UNL     1      22.150 -22.177  25.387  1.00  0.00     0.004 C 
ATOM     15  C   UNL     1      24.381 -21.890  26.517  1.00  0.00     0.002 C 
ATOM     16  C   UNL     1      22.903 -21.541  26.575  1.00  0.00    -0.004 C 
ATOM     17  C   UNL     1      25.013 -20.942  27.532  1.00  0.00     0.009 C 
ATOM     18  C   UNL     1      22.886 -20.010  26.643  1.00  0.00    -0.001 C 
ATOM     19  C   UNL     1      24.193 -19.635  27.394  1.00  0.00    -0.001 C 
ATOM     20  C   UNL     1      21.600 -19.464  27.280  1.00  0.00     0.036 C 
ATOM     21  C   UNL     1      23.993 -18.821  28.724  1.00  0.00    -0.024 C 
ATOM     22  C   UNL     1      21.718 -17.979  27.673  1.00  0.00     0.118 C 
ATOM     23  C   UNL     1      23.055 -17.605  28.407  1.00  0.00     0.026 C 
ATOM     24  C   UNL     1      23.420 -19.692  29.902  1.00  0.00     0.010 C 
ATOM     25  C   UNL     1      25.393 -18.283  29.140  1.00  0.00     0.012 C 
ATOM     26  C   UNL     1      22.787 -16.726  29.661  1.00  0.00     0.038 C 
ATOM     27  C   UNL     1      22.342 -18.997  30.756  1.00  0.00     0.032 C 
ATOM     28  C   UNL     1      22.645 -17.515  30.988  1.00  0.00     0.114 C 
ATOM     29  H   UNL     1      26.275 -25.457  27.074  1.00  0.00     0.348 HD
ENDROOT
BRANCH   6  30
ATOM     30  O   UNL     1      22.449 -26.499  26.182  1.00  0.00    -0.384 OA
ATOM     31  H   UNL     1      21.932 -26.331  27.012  1.00  0.00     0.211 HD
ENDBRANCH   6  30
BRANCH  22  32
ATOM     32  O   UNL     1      21.590 -17.182  26.520  1.00  0.00    -0.393 OA
ATOM     33  H   UNL     1      21.520 -16.237  26.821  1.00  0.00     0.210 HD
ENDBRANCH  22  32
BRANCH  28  34
ATOM     34  O   UNL     1      21.621 -16.960  31.772  1.00  0.00    -0.393 OA
ATOM     35  H   UNL     1      20.763 -17.277  31.387  1.00  0.00     0.210 HD
ENDBRANCH  28  34
TORSDOF 3
ENDMDL
MODEL 7
REMARK VINA RESULT:    -8.534      2.579      8.466
REMARK INTER + INTRA:          -9.282
REMARK INTER:                  -9.282
REMARK INTRA:                   0.000
REMARK UNBOUND:                 0.000
REMARK SMILES C[C@H]1CC[C@@H]2[N@H+](C1)C[C@@H]1[C@@H]3C[C@H]4[C@H](C[C@H](O)[C@H]5C[C@@H](O)CC[C@]54C)[C@H]3CC[C@H]1[C@]2(C)O
REMARK SMILES IDX 5 1 6 2 8 3 7 4 4 5 29 6 3 7 28 8 30 9 2 10 27 11 9 12 1 13
REMARK SMILES IDX 26 14 10 15 25 16 11 17 13 18 12 19 14 20 23 21 15 22 17 23
REMARK SMILES IDX 22 24 24 25 18 26 21 27 19 28 31 30 16 32 20 34
REMARK H PARENT 6 29 31 31 16 33 20 35
REMARK Flexibility Score: inf
ROOT
ATOM      1  C   UNL     1      26.021 -26.719  32.792  1.00  0.00     0.216 C 
ATOM      2  N   UNL     1      25.156 -27.609  31.963  1.00  0.00    -0.330 N 
ATOM      3  C   UNL     1      24.618 -26.961  30.742  1.00  0.00     0.266 C 
ATOM      4  C   UNL     1      25.802 -28.916  31.670  1.00  0.00     0.265 C 
ATOM      5  C   UNL     1      27.410 -26.513  32.132  1.00  0.00     0.069 C 
ATOM      6  C   UNL     1      25.311 -25.360  33.168  1.00  0.00     0.117 C 
ATOM      7  C   UNL     1      28.111 -27.854  31.917  1.00  0.00     0.015 C 
ATOM      8  C   UNL     1      24.715 -24.716  31.874  1.00  0.00     0.036 C 
ATOM      9  C   UNL     1      24.233 -25.616  34.258  1.00  0.00     0.049 C 
ATOM     10  C   UNL     1      27.245 -28.833  31.111  1.00  0.00     0.041 C 
ATOM     11  C   UNL     1      23.983 -23.359  32.062  1.00  0.00     0.007 C 
ATOM     12  C   UNL     1      23.800 -25.713  31.107  1.00  0.00     0.054 C 
ATOM     13  C   UNL     1      27.321 -28.568  29.596  1.00  0.00     0.013 C 
ATOM     14  C   UNL     1      23.622 -22.691  30.703  1.00  0.00     0.004 C 
ATOM     15  C   UNL     1      23.051 -25.015  29.922  1.00  0.00     0.002 C 
ATOM     16  C   UNL     1      23.679 -23.690  29.526  1.00  0.00    -0.004 C 
ATOM     17  C   UNL     1      22.891 -25.747  28.591  1.00  0.00     0.009 C 
ATOM     18  C   UNL     1      22.920 -23.283  28.259  1.00  0.00    -0.001 C 
ATOM     19  C   UNL     1      22.535 -24.627  27.582  1.00  0.00    -0.001 C 
ATOM     20  C   UNL     1      23.728 -22.325  27.371  1.00  0.00     0.036 C 
ATOM     21  C   UNL     1      23.091 -24.829  26.126  1.00  0.00    -0.024 C 
ATOM     22  C   UNL     1      23.137 -22.191  25.954  1.00  0.00     0.118 C 
ATOM     23  C   UNL     1      22.726 -23.554  25.290  1.00  0.00     0.026 C 
ATOM     24  C   UNL     1      24.639 -25.112  26.090  1.00  0.00     0.010 C 
ATOM     25  C   UNL     1      22.348 -26.057  25.524  1.00  0.00     0.012 C 
ATOM     26  C   UNL     1      23.233 -23.646  23.823  1.00  0.00     0.038 C 
ATOM     27  C   UNL     1      25.403 -24.387  24.964  1.00  0.00     0.032 C 
ATOM     28  C   UNL     1      24.610 -24.339  23.657  1.00  0.00     0.114 C 
ATOM     29  H   UNL     1      24.325 -27.861  32.549  1.00  0.00     0.348 HD
ENDROOT
BRANCH   6  30
ATOM     30  O   UNL     1      26.292 -24.496  33.705  1.00  0.00    -0.384 OA
ATOM     31  H   UNL     1      25.967 -24.126  34.566  1.00  0.00     0.211 HD
ENDBRANCH   6  30
BRANCH  22  32
ATOM     32  O   UNL     1      22.014 -21.345  25.996  1.00  0.00    -0.393 OA
ATOM     33  H   UNL     1      21.568 -21.491  26.872  1.00  0.00     0.210 HD
ENDBRANCH  22  32
BRANCH  28  34
ATOM     34  O   UNL     1      25.373 -23.668  22.688  1.00  0.00    -0.393 OA
ATOM     35  H   UNL     1      26.062 -23.147  23.178  1.00  0.00     0.210 HD
ENDBRANCH  28  34
TORSDOF 3
ENDMDL
MODEL 8
REMARK VINA RESULT:    -8.520      1.984      3.298
REMARK INTER + INTRA:          -9.268
REMARK INTER:                  -9.268
REMARK INTRA:                   0.000
REMARK UNBOUND:                 0.000
REMARK SMILES C[C@H]1CC[C@@H]2[N@H+](C1)C[C@@H]1[C@@H]3C[C@H]4[C@H](C[C@H](O)[C@H]5C[C@@H](O)CC[C@]54C)[C@H]3CC[C@H]1[C@]2(C)O
REMARK SMILES IDX 5 1 6 2 8 3 7 4 4 5 29 6 3 7 28 8 30 9 2 10 27 11 9 12 1 13
REMARK SMILES IDX 26 14 10 15 25 16 11 17 13 18 12 19 14 20 23 21 15 22 17 23
REMARK SMILES IDX 22 24 24 25 18 26 21 27 19 28 31 30 16 32 20 34
REMARK H PARENT 6 29 31 31 16 33 20 35
REMARK Flexibility Score: inf
ROOT
ATOM      1  C   UNL     1      23.524 -21.432  27.729  1.00  0.00     0.216 C 
ATOM      2  N   UNL     1      22.689 -22.217  28.684  1.00  0.00    -0.330 N 
ATOM      3  C   UNL     1      23.334 -23.464  29.164  1.00  0.00     0.266 C 
ATOM      4  C   UNL     1      22.168 -21.386  29.801  1.00  0.00     0.265 C 
ATOM      5  C   UNL     1      24.681 -20.705  28.462  1.00  0.00     0.069 C 
ATOM      6  C   UNL     1      24.018 -22.293  26.501  1.00  0.00     0.117 C 
ATOM      7  C   UNL     1      24.137 -19.778  29.549  1.00  0.00     0.015 C 
ATOM      8  C   UNL     1      24.654 -23.620  27.028  1.00  0.00     0.036 C 
ATOM      9  C   UNL     1      22.833 -22.545  25.527  1.00  0.00     0.049 C 
ATOM     10  C   UNL     1      23.227 -20.524  30.537  1.00  0.00     0.041 C 
ATOM     11  C   UNL     1      25.205 -24.589  25.946  1.00  0.00     0.007 C 
ATOM     12  C   UNL     1      23.689 -24.380  27.982  1.00  0.00     0.054 C 
ATOM     13  C   UNL     1      24.027 -21.285  31.608  1.00  0.00     0.013 C 
ATOM     14  C   UNL     1      26.011 -25.768  26.566  1.00  0.00     0.004 C 
ATOM     15  C   UNL     1      24.242 -25.796  28.357  1.00  0.00     0.002 C 
ATOM     16  C   UNL     1      25.728 -25.942  28.074  1.00  0.00    -0.004 C 
ATOM     17  C   UNL     1      24.098 -26.312  29.786  1.00  0.00     0.009 C 
ATOM     18  C   UNL     1      26.087 -27.306  28.674  1.00  0.00    -0.001 C 
ATOM     19  C   UNL     1      25.118 -27.475  29.875  1.00  0.00    -0.001 C 
ATOM     20  C   UNL     1      27.577 -27.417  29.030  1.00  0.00     0.036 C 
ATOM     21  C   UNL     1      25.808 -27.660  31.275  1.00  0.00    -0.024 C 
ATOM     22  C   UNL     1      27.878 -28.622  29.942  1.00  0.00     0.118 C 
ATOM     23  C   UNL     1      26.875 -28.800  31.137  1.00  0.00     0.026 C 
ATOM     24  C   UNL     1      26.455 -26.335  31.825  1.00  0.00     0.010 C 
ATOM     25  C   UNL     1      24.702 -28.121  32.268  1.00  0.00     0.012 C 
ATOM     26  C   UNL     1      27.626 -29.068  32.473  1.00  0.00     0.038 C 
ATOM     27  C   UNL     1      27.833 -26.516  32.490  1.00  0.00     0.032 C 
ATOM     28  C   UNL     1      27.920 -27.800  33.316  1.00  0.00     0.114 C 
ATOM     29  H   UNL     1      21.829 -22.515  28.166  1.00  0.00     0.348 HD
ENDROOT
BRANCH   6  30
ATOM     30  O   UNL     1      25.004 -21.545  25.820  1.00  0.00    -0.384 OA
ATOM     31  H   UNL     1      25.657 -22.165  25.403  1.00  0.00     0.211 HD
ENDBRANCH   6  30
BRANCH  22  32
ATOM     32  O   UNL     1      27.885 -29.799  29.171  1.00  0.00    -0.393 OA
ATOM     33  H   UNL     1      28.451 -29.626  28.373  1.00  0.00     0.210 HD
ENDBRANCH  22  32
BRANCH  28  34
ATOM     34  O   UNL     1      29.199 -27.888  33.887  1.00  0.00    -0.393 OA
ATOM     35  H   UNL     1      29.848 -27.894  33.135  1.00  0.00     0.210 HD
ENDBRANCH  28  34
TORSDOF 3
ENDMDL
MODEL 9
REMARK VINA RESULT:    -8.511      4.237      7.278
REMARK INTER + INTRA:          -9.258
REMARK INTER:                  -9.258
REMARK INTRA:                   0.000
REMARK UNBOUND:                 0.000
REMARK SMILES C[C@H]1CC[C@@H]2[N@H+](C1)C[C@@H]1[C@@H]3C[C@H]4[C@H](C[C@H](O)[C@H]5C[C@@H](O)CC[C@]54C)[C@H]3CC[C@H]1[C@]2(C)O
REMARK SMILES IDX 5 1 6 2 8 3 7 4 4 5 29 6 3 7 28 8 30 9 2 10 27 11 9 12 1 13
REMARK SMILES IDX 26 14 10 15 25 16 11 17 13 18 12 19 14 20 23 21 15 22 17 23
REMARK SMILES IDX 22 24 24 25 18 26 21 27 19 28 31 30 16 32 20 34
REMARK H PARENT 6 29 31 31 16 33 20 35
REMARK Flexibility Score: inf
ROOT
ATOM      1  C   UNL     1      23.960 -20.791  35.996  1.00  0.00     0.216 C 
ATOM      2  N   UNL     1      25.376 -20.765  35.525  1.00  0.00    -0.330 N 
ATOM      3  C   UNL     1      26.055 -22.084  35.583  1.00  0.00     0.266 C 
ATOM      4  C   UNL     1      25.522 -20.114  34.197  1.00  0.00     0.265 C 
ATOM      5  C   UNL     1      23.033 -21.460  34.948  1.00  0.00     0.069 C 
ATOM      6  C   UNL     1      23.810 -21.415  37.438  1.00  0.00     0.117 C 
ATOM      7  C   UNL     1      23.115 -20.730  33.608  1.00  0.00     0.015 C 
ATOM      8  C   UNL     1      24.568 -22.781  37.488  1.00  0.00     0.036 C 
ATOM      9  C   UNL     1      24.327 -20.406  38.502  1.00  0.00     0.049 C 
ATOM     10  C   UNL     1      24.559 -20.628  33.096  1.00  0.00     0.041 C 
ATOM     11  C   UNL     1      24.515 -23.541  38.843  1.00  0.00     0.007 C 
ATOM     12  C   UNL     1      26.043 -22.637  37.017  1.00  0.00     0.054 C 
ATOM     13  C   UNL     1      25.025 -21.921  32.402  1.00  0.00     0.013 C 
ATOM     14  C   UNL     1      25.101 -24.979  38.735  1.00  0.00     0.004 C 
ATOM     15  C   UNL     1      26.856 -23.955  37.248  1.00  0.00     0.002 C 
ATOM     16  C   UNL     1      25.965 -25.166  37.468  1.00  0.00    -0.004 C 
ATOM     17  C   UNL     1      27.848 -24.428  36.189  1.00  0.00     0.009 C 
ATOM     18  C   UNL     1      26.942 -26.346  37.486  1.00  0.00    -0.001 C 
ATOM     19  C   UNL     1      28.095 -25.917  36.539  1.00  0.00    -0.001 C 
ATOM     20  C   UNL     1      26.266 -27.675  37.115  1.00  0.00     0.036 C 
ATOM     21  C   UNL     1      28.344 -26.866  35.310  1.00  0.00    -0.024 C 
ATOM     22  C   UNL     1      27.284 -28.785  36.788  1.00  0.00     0.118 C 
ATOM     23  C   UNL     1      28.461 -28.332  35.851  1.00  0.00     0.026 C 
ATOM     24  C   UNL     1      27.229 -26.751  34.206  1.00  0.00     0.010 C 
ATOM     25  C   UNL     1      29.707 -26.449  34.685  1.00  0.00     0.012 C 
ATOM     26  C   UNL     1      28.707 -29.362  34.713  1.00  0.00     0.038 C 
ATOM     27  C   UNL     1      26.786 -28.094  33.592  1.00  0.00     0.032 C 
ATOM     28  C   UNL     1      27.955 -29.059  33.391  1.00  0.00     0.114 C 
ATOM     29  H   UNL     1      25.904 -20.138  36.177  1.00  0.00     0.348 HD
ENDROOT
BRANCH   6  30
ATOM     30  O   UNL     1      22.434 -21.640  37.669  1.00  0.00    -0.384 OA
ATOM     31  H   UNL     1      22.062 -20.886  38.196  1.00  0.00     0.211 HD
ENDBRANCH   6  30
BRANCH  22  32
ATOM     32  O   UNL     1      27.820 -29.291  37.986  1.00  0.00    -0.393 OA
ATOM     33  H   UNL     1      27.326 -28.863  38.734  1.00  0.00     0.210 HD
ENDBRANCH  22  32
BRANCH  28  34
ATOM     34  O   UNL     1      27.469 -30.250  32.829  1.00  0.00    -0.393 OA
ATOM     35  H   UNL     1      27.121 -30.020  31.928  1.00  0.00     0.210 HD
ENDBRANCH  28  34
TORSDOF 3
ENDMDL
