MODEL 1
REMARK VINA RESULT:    83.054      0.000      0.000
REMARK INTER + INTRA:         180.237
REMARK INTER:                 175.305
REMARK INTRA:                   4.932
REMARK UNBOUND:                 4.932
REMARK SMILES CCC(=O)CCCCC[C@H]1NC(=O)[C@@H]2CCCCN2C(=O)[C@H]([C@H](C)CC)NC(=O)[C@@H](Cc2cn(OC)c3ccccc23)NC1=O
REMARK SMILES IDX 9 1 10 2 44 3 43 4 45 6 30 7 28 8 27 9 29 11 22 12 23 14
REMARK SMILES IDX 24 15 25 16 26 17 31 18 32 19 33 20 42 21 34 22 37 23 41 24
REMARK SMILES IDX 38 25 40 26 39 27 35 28 36 29 11 30 12 31 13 33 14 34 19 35
REMARK SMILES IDX 15 36 18 37 16 38 17 39 20 40 21 41 8 43 7 44 6 45 5 46 3 47
REMARK SMILES IDX 4 48 2 49 1 50
REMARK H PARENT 43 5 27 10 11 32
REMARK Flexibility Score: 80.00
ROOT
ATOM      1  C   UNL     1      -8.669 -16.008  12.309  1.00  0.00     0.035 C 
ENDROOT
BRANCH   1   2
ATOM      2  C   UNL     1      -9.455 -14.811  11.710  1.00  0.00     0.171 C 
BRANCH   2   3
ATOM      3  C   UNL     1      -9.018 -13.503  12.322  1.00  0.00     0.243 C 
ATOM      4  N   UNL     1      -8.495 -13.472  13.651  1.00  0.00    -0.342 N 
ATOM      5  H   UNL     1      -7.454 -13.551  13.686  1.00  0.00     0.164 HD
ATOM      6  O   UNL     1      -9.030 -12.438  11.643  1.00  0.00    -0.273 OA
BRANCH   4   7
ATOM      7  C   UNL     1      -9.154 -12.695  14.709  1.00  0.00     0.175 C 
BRANCH   7   8
ATOM      8  C   UNL     1      -9.875 -11.500  14.118  1.00  0.00     0.243 C 
ATOM      9  N   UNL     1      -9.845 -11.272  12.695  1.00  0.00    -0.342 N 
ATOM     10  H   UNL     1      -9.251 -11.897  12.120  1.00  0.00     0.164 HD
ATOM     11  O   UNL     1     -10.563 -10.744  14.863  1.00  0.00    -0.273 OA
BRANCH   9  12
ATOM     12  C   UNL     1     -10.552 -10.150  12.057  1.00  0.00     0.174 CG0
ATOM     13  G   UNL     1     -11.546 -10.596  10.989  1.00  0.00     0.000 G0
BRANCH  12  14
ATOM     14  C   UNL     1      -9.542  -9.055  11.584  1.00  0.00     0.018 C 
ATOM     15  C   UNL     1      -8.766  -8.450  12.773  1.00  0.00     0.010 C 
BRANCH  14  16
ATOM     16  C   UNL     1     -10.213  -7.953  10.730  1.00  0.00     0.002 C 
ATOM     17  C   UNL     1      -9.389  -7.543   9.507  1.00  0.00     0.004 C 
ENDBRANCH  14  16
ENDBRANCH  12  14
ENDBRANCH   9  12
ENDBRANCH   7   8
BRANCH   7  18
ATOM     18  C   UNL     1     -10.138 -13.586  15.500  1.00  0.00     0.073 C 
BRANCH  18  19
ATOM     19  C   UNL     1      -9.664 -13.909  16.890  1.00  0.00    -0.016 A 
ATOM     20  C   UNL     1      -9.204 -13.005  17.837  1.00  0.00     0.134 A 
ATOM     21  C   UNL     1      -9.670 -15.142  17.517  1.00  0.00     0.006 A 
ATOM     22  N   UNL     1      -8.919 -13.638  18.996  1.00  0.00    -0.191 N 
ATOM     23  C   UNL     1      -9.207 -14.953  18.802  1.00  0.00     0.087 A 
ATOM     24  C   UNL     1     -10.058 -16.398  17.044  1.00  0.00     0.011 A 
ATOM     25  C   UNL     1      -9.116 -16.037  19.691  1.00  0.00     0.030 A 
ATOM     26  C   UNL     1      -9.973 -17.490  17.919  1.00  0.00     0.001 A 
ATOM     27  C   UNL     1      -9.508 -17.309  19.238  1.00  0.00     0.002 A 
BRANCH  22  28
ATOM     28  O   UNL     1      -8.416 -12.965  20.098  1.00  0.00    -0.417 OA
ATOM     29  C   UNL     1      -8.734 -13.251  21.449  1.00  0.00     0.313 C 
ENDBRANCH  22  28
ENDBRANCH  18  19
ENDBRANCH   7  18
ENDBRANCH   4   7
ENDBRANCH   2   3
BRANCH   2  30
ATOM     30  N   UNL     1     -10.915 -14.955  11.845  1.00  0.00    -0.343 N 
ATOM     31  C   UNL     1     -11.793 -14.019  12.482  1.00  0.00     0.243 C 
ATOM     32  H   UNL     1     -11.300 -15.915  11.710  1.00  0.00     0.164 HD
ATOM     33  O   UNL     1     -12.065 -14.187  13.705  1.00  0.00    -0.273 OA
BRANCH  31  34
ATOM     34  C   UNL     1     -12.490 -12.900  11.744  1.00  0.00     0.174 C 
ATOM     35  N   UNL     1     -11.630 -12.141  10.797  1.00  0.00    -0.329 N 
ATOM     36  C   UNL     1     -13.731 -13.426  11.004  1.00  0.00     0.035 C 
ATOM     37  C   UNL     1     -11.563 -12.596   9.387  1.00  0.00     0.120 C 
ATOM     38  C   UNL     1     -13.364 -14.369   9.840  1.00  0.00     0.004 C 
ATOM     39  C   UNL     1     -11.998 -14.056   9.200  1.00  0.00     0.022 C 
BRANCH  35  40
ATOM     40  C   UNL     1     -11.505 -10.709  11.026  1.00  0.00     0.246 CG0
ATOM     41  O   UNL     1     -12.245  -9.927  10.362  1.00  0.00    -0.272 OA
ATOM     42  G   UNL     1     -10.570 -10.069  12.048  1.00  0.00     0.000 G0
ENDBRANCH  35  40
ENDBRANCH  31  34
ENDBRANCH   2  30
ENDBRANCH   1   2
BRANCH   1  43
ATOM     43  C   UNL     1      -9.205 -17.374  11.832  1.00  0.00     0.003 C 
BRANCH  43  44
ATOM     44  C   UNL     1      -8.449 -18.551  12.479  1.00  0.00     0.001 C 
BRANCH  44  45
ATOM     45  C   UNL     1      -7.095 -18.127  13.070  1.00  0.00     0.008 C 
BRANCH  45  46
ATOM     46  C   UNL     1      -6.137 -19.316  13.248  1.00  0.00     0.075 C 
BRANCH  46  47
ATOM     47  C   UNL     1      -6.355 -19.982  14.580  1.00  0.00     0.132 C 
ATOM     48  O   UNL     1      -6.472 -21.200  14.619  1.00  0.00    -0.300 OA
BRANCH  47  49
ATOM     49  C   UNL     1      -6.514 -19.161  15.836  1.00  0.00     0.072 C 
ATOM     50  C   UNL     1      -7.873 -19.375  16.510  1.00  0.00     0.012 C 
ENDBRANCH  47  49
ENDBRANCH  46  47
ENDBRANCH  45  46
ENDBRANCH  44  45
ENDBRANCH  43  44
ENDBRANCH   1  43
TORSDOF 12
ENDMDL
MODEL 2
REMARK VINA RESULT:    84.792      1.372      2.193
REMARK INTER + INTRA:         183.905
REMARK INTER:                 182.654
REMARK INTRA:                   1.250
REMARK UNBOUND:                 4.932
REMARK SMILES CCC(=O)CCCCC[C@H]1NC(=O)[C@@H]2CCCCN2C(=O)[C@H]([C@H](C)CC)NC(=O)[C@@H](Cc2cn(OC)c3ccccc23)NC1=O
REMARK SMILES IDX 9 1 10 2 44 3 43 4 45 6 30 7 28 8 27 9 29 11 22 12 23 14
REMARK SMILES IDX 24 15 25 16 26 17 31 18 32 19 33 20 42 21 34 22 37 23 41 24
REMARK SMILES IDX 38 25 40 26 39 27 35 28 36 29 11 30 12 31 13 33 14 34 19 35
REMARK SMILES IDX 15 36 18 37 16 38 17 39 20 40 21 41 8 43 7 44 6 45 5 46 3 47
REMARK SMILES IDX 4 48 2 49 1 50
REMARK H PARENT 43 5 27 10 11 32
REMARK Flexibility Score: 80.00
ROOT
ATOM      1  C   UNL     1      -8.004 -14.858  11.268  1.00  0.00     0.035 C 
ENDROOT
BRANCH   1   2
ATOM      2  C   UNL     1      -8.987 -13.859  11.936  1.00  0.00     0.171 C 
BRANCH   2   3
ATOM      3  C   UNL     1      -8.659 -13.656  13.396  1.00  0.00     0.243 C 
ATOM      4  N   UNL     1      -9.666 -13.202  14.301  1.00  0.00    -0.342 N 
ATOM      5  H   UNL     1     -10.172 -13.982  14.780  1.00  0.00     0.164 HD
ATOM      6  O   UNL     1      -7.520 -13.961  13.848  1.00  0.00    -0.273 OA
BRANCH   4   7
ATOM      7  C   UNL     1      -9.516 -11.938  15.034  1.00  0.00     0.175 C 
BRANCH   7   8
ATOM      8  C   UNL     1     -10.063 -10.784  14.217  1.00  0.00     0.243 C 
ATOM      9  N   UNL     1      -9.957 -10.805  12.780  1.00  0.00    -0.342 N 
ATOM     10  H   UNL     1      -9.427 -11.585  12.348  1.00  0.00     0.164 HD
ATOM     11  O   UNL     1     -10.675  -9.837  14.790  1.00  0.00    -0.273 OA
BRANCH   9  12
ATOM     12  C   UNL     1     -10.497  -9.733  11.929  1.00  0.00     0.174 CG0
ATOM     13  G   UNL     1     -11.425 -10.246  10.832  1.00  0.00     0.000 G0
BRANCH  12  14
ATOM     14  C   UNL     1      -9.353  -8.796  11.423  1.00  0.00     0.018 C 
ATOM     15  C   UNL     1      -8.419  -8.371  12.576  1.00  0.00     0.010 C 
BRANCH  14  16
ATOM     16  C   UNL     1      -9.884  -7.568  10.647  1.00  0.00     0.002 C 
ATOM     17  C   UNL     1      -9.517  -7.581   9.162  1.00  0.00     0.004 C 
ENDBRANCH  14  16
ENDBRANCH  12  14
ENDBRANCH   9  12
ENDBRANCH   7   8
BRANCH   7  18
ATOM     18  C   UNL     1     -10.229 -12.019  16.403  1.00  0.00     0.073 C 
BRANCH  18  19
ATOM     19  C   UNL     1      -9.893 -13.264  17.177  1.00  0.00    -0.016 A 
ATOM     20  C   UNL     1      -9.918 -14.566  16.698  1.00  0.00     0.134 A 
ATOM     21  C   UNL     1      -9.424 -13.348  18.475  1.00  0.00     0.006 A 
ATOM     22  N   UNL     1      -9.502 -15.428  17.651  1.00  0.00    -0.191 N 
ATOM     23  C   UNL     1      -9.193 -14.681  18.744  1.00  0.00     0.087 A 
ATOM     24  C   UNL     1      -9.178 -12.346  19.417  1.00  0.00     0.011 A 
ATOM     25  C   UNL     1      -8.692 -15.077  19.996  1.00  0.00     0.030 A 
ATOM     26  C   UNL     1      -8.678 -12.725  20.671  1.00  0.00     0.001 A 
ATOM     27  C   UNL     1      -8.432 -14.084  20.957  1.00  0.00     0.002 A 
BRANCH  22  28
ATOM     28  O   UNL     1      -9.457 -16.797  17.436  1.00  0.00    -0.417 OA
ATOM     29  C   UNL     1     -10.239 -17.760  18.121  1.00  0.00     0.313 C 
ENDBRANCH  22  28
ENDBRANCH  18  19
ENDBRANCH   7  18
ENDBRANCH   4   7
ENDBRANCH   2   3
BRANCH   2  30
ATOM     30  N   UNL     1     -10.398 -14.260  11.800  1.00  0.00    -0.343 N 
ATOM     31  C   UNL     1     -11.515 -13.619  12.426  1.00  0.00     0.243 C 
ATOM     32  H   UNL     1     -10.572 -15.226  11.447  1.00  0.00     0.164 HD
ATOM     33  O   UNL     1     -11.914 -14.059  13.542  1.00  0.00    -0.273 OA
BRANCH  31  34
ATOM     34  C   UNL     1     -12.305 -12.507  11.776  1.00  0.00     0.174 C 
ATOM     35  N   UNL     1     -11.585 -11.768  10.703  1.00  0.00    -0.329 N 
ATOM     36  C   UNL     1     -13.641 -13.036  11.228  1.00  0.00     0.035 C 
ATOM     37  C   UNL     1     -11.722 -12.247   9.307  1.00  0.00     0.120 C 
ATOM     38  C   UNL     1     -13.447 -14.000  10.040  1.00  0.00     0.004 C 
ATOM     39  C   UNL     1     -12.185 -13.706   9.208  1.00  0.00     0.022 C 
BRANCH  35  40
ATOM     40  C   UNL     1     -11.423 -10.334  10.889  1.00  0.00     0.246 CG0
ATOM     41  O   UNL     1     -12.120  -9.553  10.177  1.00  0.00    -0.272 OA
ATOM     42  G   UNL     1     -10.499  -9.688  11.916  1.00  0.00     0.000 G0
ENDBRANCH  35  40
ENDBRANCH  31  34
ENDBRANCH   2  30
ENDBRANCH   1   2
BRANCH   1  43
ATOM     43  C   UNL     1      -7.647 -16.047  12.184  1.00  0.00     0.003 C 
BRANCH  43  44
ATOM     44  C   UNL     1      -8.135 -17.390  11.608  1.00  0.00     0.001 C 
BRANCH  44  45
ATOM     45  C   UNL     1      -9.413 -17.895  12.295  1.00  0.00     0.008 C 
BRANCH  45  46
ATOM     46  C   UNL     1      -9.452 -19.428  12.405  1.00  0.00     0.075 C 
BRANCH  46  47
ATOM     47  C   UNL     1      -9.196 -19.868  13.821  1.00  0.00     0.132 C 
ATOM     48  O   UNL     1     -10.050 -20.529  14.398  1.00  0.00    -0.300 OA
BRANCH  47  49
ATOM     49  C   UNL     1      -7.950 -19.430  14.552  1.00  0.00     0.072 C 
ATOM     50  C   UNL     1      -6.674 -20.005  13.933  1.00  0.00     0.012 C 
ENDBRANCH  47  49
ENDBRANCH  46  47
ENDBRANCH  45  46
ENDBRANCH  44  45
ENDBRANCH  43  44
ENDBRANCH   1  43
TORSDOF 12
ENDMDL
MODEL 3
REMARK VINA RESULT:    85.704      1.410      2.085
REMARK INTER + INTRA:         185.830
REMARK INTER:                 179.904
REMARK INTRA:                   5.927
REMARK UNBOUND:                 4.932
REMARK SMILES CCC(=O)CCCCC[C@H]1NC(=O)[C@@H]2CCCCN2C(=O)[C@H]([C@H](C)CC)NC(=O)[C@@H](Cc2cn(OC)c3ccccc23)NC1=O
REMARK SMILES IDX 9 1 10 2 44 3 43 4 45 6 30 7 28 8 27 9 29 11 22 12 23 14
REMARK SMILES IDX 24 15 25 16 26 17 31 18 32 19 33 20 42 21 34 22 37 23 41 24
REMARK SMILES IDX 38 25 40 26 39 27 35 28 36 29 11 30 12 31 13 33 14 34 19 35
REMARK SMILES IDX 15 36 18 37 16 38 17 39 20 40 21 41 8 43 7 44 6 45 5 46 3 47
REMARK SMILES IDX 4 48 2 49 1 50
REMARK H PARENT 43 5 27 10 11 32
REMARK Flexibility Score: 80.00
ROOT
ATOM      1  C   UNL     1      -8.655 -16.430  11.983  1.00  0.00     0.035 C 
ENDROOT
BRANCH   1   2
ATOM      2  C   UNL     1      -9.432 -15.192  11.459  1.00  0.00     0.171 C 
BRANCH   2   3
ATOM      3  C   UNL     1      -8.911 -13.915  12.073  1.00  0.00     0.243 C 
ATOM      4  N   UNL     1      -8.055 -13.965  13.215  1.00  0.00    -0.342 N 
ATOM      5  H   UNL     1      -7.039 -13.969  12.970  1.00  0.00     0.164 HD
ATOM      6  O   UNL     1      -9.155 -12.797  11.538  1.00  0.00    -0.273 OA
BRANCH   4   7
ATOM      7  C   UNL     1      -8.445 -13.339  14.485  1.00  0.00     0.175 C 
BRANCH   7   8
ATOM      8  C   UNL     1      -9.517 -12.293  14.253  1.00  0.00     0.243 C 
ATOM      9  N   UNL     1      -9.519 -11.521  13.036  1.00  0.00    -0.342 N 
ATOM     10  H   UNL     1      -8.724 -11.650  12.383  1.00  0.00     0.164 HD
ATOM     11  O   UNL     1     -10.452 -12.148  15.093  1.00  0.00    -0.273 OA
BRANCH   9  12
ATOM     12  C   UNL     1     -10.551 -10.516  12.736  1.00  0.00     0.174 CG0
ATOM     13  G   UNL     1     -11.369 -10.847  11.492  1.00  0.00     0.000 G0
BRANCH  12  14
ATOM     14  C   UNL     1      -9.942  -9.076  12.745  1.00  0.00     0.018 C 
ATOM     15  C   UNL     1      -8.408  -9.112  12.902  1.00  0.00     0.010 C 
BRANCH  14  16
ATOM     16  C   UNL     1     -10.595  -8.159  13.806  1.00  0.00     0.002 C 
ATOM     17  C   UNL     1     -11.286  -8.927  14.935  1.00  0.00     0.004 C 
ENDBRANCH  14  16
ENDBRANCH  12  14
ENDBRANCH   9  12
ENDBRANCH   7   8
BRANCH   7  18
ATOM     18  C   UNL     1      -8.937 -14.408  15.486  1.00  0.00     0.073 C 
BRANCH  18  19
ATOM     19  C   UNL     1      -9.527 -13.823  16.740  1.00  0.00    -0.016 A 
ATOM     20  C   UNL     1     -10.704 -13.096  16.838  1.00  0.00     0.134 A 
ATOM     21  C   UNL     1      -9.060 -13.962  18.035  1.00  0.00     0.006 A 
ATOM     22  N   UNL     1     -10.958 -12.779  18.127  1.00  0.00    -0.191 N 
ATOM     23  C   UNL     1      -9.949 -13.314  18.866  1.00  0.00     0.087 A 
ATOM     24  C   UNL     1      -7.929 -14.621  18.525  1.00  0.00     0.011 A 
ATOM     25  C   UNL     1      -9.742 -13.299  20.255  1.00  0.00     0.030 A 
ATOM     26  C   UNL     1      -7.709 -14.615  19.910  1.00  0.00     0.001 A 
ATOM     27  C   UNL     1      -8.614 -13.961  20.771  1.00  0.00     0.002 A 
BRANCH  22  28
ATOM     28  O   UNL     1     -12.064 -12.030  18.496  1.00  0.00    -0.417 OA
ATOM     29  C   UNL     1     -12.399 -10.753  17.980  1.00  0.00     0.313 C 
ENDBRANCH  22  28
ENDBRANCH  18  19
ENDBRANCH   7  18
ENDBRANCH   4   7
ENDBRANCH   2   3
BRANCH   2  30
ATOM     30  N   UNL     1     -10.885 -15.287  11.679  1.00  0.00    -0.343 N 
ATOM     31  C   UNL     1     -11.672 -14.392  12.474  1.00  0.00     0.243 C 
ATOM     32  H   UNL     1     -11.326 -16.208  11.468  1.00  0.00     0.164 HD
ATOM     33  O   UNL     1     -11.873 -14.683  13.687  1.00  0.00    -0.273 OA
BRANCH  31  34
ATOM     34  C   UNL     1     -12.358 -13.168  11.913  1.00  0.00     0.174 C 
ATOM     35  N   UNL     1     -11.493 -12.290  11.079  1.00  0.00    -0.329 N 
ATOM     36  C   UNL     1     -13.610 -13.565  11.113  1.00  0.00     0.035 C 
ATOM     37  C   UNL     1     -11.440 -12.535   9.618  1.00  0.00     0.120 C 
ATOM     38  C   UNL     1     -13.262 -14.332   9.821  1.00  0.00     0.004 C 
ATOM     39  C   UNL     1     -11.896 -13.946   9.224  1.00  0.00     0.022 C 
BRANCH  35  40
ATOM     40  C   UNL     1     -11.347 -10.909  11.514  1.00  0.00     0.246 CG0
ATOM     41  O   UNL     1     -11.931 -10.004  10.849  1.00  0.00    -0.272 OA
ATOM     42  G   UNL     1     -10.572 -10.462  12.750  1.00  0.00     0.000 G0
ENDBRANCH  35  40
ENDBRANCH  31  34
ENDBRANCH   2  30
ENDBRANCH   1   2
BRANCH   1  43
ATOM     43  C   UNL     1      -9.461 -17.739  11.854  1.00  0.00     0.003 C 
BRANCH  43  44
ATOM     44  C   UNL     1      -8.604 -18.981  12.167  1.00  0.00     0.001 C 
BRANCH  44  45
ATOM     45  C   UNL     1      -8.739 -19.436  13.629  1.00  0.00     0.008 C 
BRANCH  45  46
ATOM     46  C   UNL     1      -7.513 -19.059  14.474  1.00  0.00     0.075 C 
BRANCH  46  47
ATOM     47  C   UNL     1      -7.812 -19.204  15.942  1.00  0.00     0.132 C 
ATOM     48  O   UNL     1      -6.881 -19.357  16.723  1.00  0.00    -0.300 OA
BRANCH  47  49
ATOM     49  C   UNL     1      -9.237 -19.250  16.439  1.00  0.00     0.072 C 
ATOM     50  C   UNL     1      -9.537 -18.154  17.465  1.00  0.00     0.012 C 
ENDBRANCH  47  49
ENDBRANCH  46  47
ENDBRANCH  45  46
ENDBRANCH  44  45
ENDBRANCH  43  44
ENDBRANCH   1  43
TORSDOF 12
ENDMDL
