MODEL 1
REMARK VINA RESULT:    -6.801      0.000      0.000
REMARK INTER + INTRA:         -16.253
REMARK INTER:                 -14.354
REMARK INTRA:                  -1.899
REMARK UNBOUND:                -1.899
REMARK SMILES CCC(=O)CCCCC[C@@H]1NC(=O)[C@@H]2CCCCN2C(=O)[C@@H]([C@@H](C)CC)NC(=O)[C@@H](Cc2cn(OC)c3ccccc23)NC1=O
REMARK SMILES IDX 9 1 10 2 44 3 43 4 45 6 30 7 28 8 27 9 29 11 22 12 23 14
REMARK SMILES IDX 24 15 25 16 26 17 31 18 32 19 33 20 42 21 34 22 37 23 41 24
REMARK SMILES IDX 38 25 40 26 39 27 35 28 36 29 11 30 12 31 13 33 14 34 19 35
REMARK SMILES IDX 15 36 18 37 16 38 17 39 20 40 21 41 8 43 7 44 6 45 5 46 3 47
REMARK SMILES IDX 4 48 2 49 1 50
REMARK H PARENT 43 5 27 10 11 32
REMARK Flexibility Score: 80.00
ROOT
ATOM      1  C   UNL     1      18.398 -29.341  21.225  1.00  0.00     0.035 C 
ENDROOT
BRANCH   1   2
ATOM      2  C   UNL     1      18.561 -30.869  21.115  1.00  0.00     0.171 C 
BRANCH   2   3
ATOM      3  C   UNL     1      19.655 -31.460  21.973  1.00  0.00     0.243 C 
ATOM      4  N   UNL     1      19.906 -31.010  23.322  1.00  0.00    -0.342 N 
ATOM      5  H   UNL     1      19.681 -30.025  23.574  1.00  0.00     0.164 HD
ATOM      6  O   UNL     1      20.317 -32.418  21.493  1.00  0.00    -0.273 OA
BRANCH   4   7
ATOM      7  C   UNL     1      20.292 -31.880  24.444  1.00  0.00     0.175 C 
BRANCH   7   8
ATOM      8  C   UNL     1      19.145 -32.775  24.840  1.00  0.00     0.243 C 
ATOM      9  N   UNL     1      18.845 -33.974  24.111  1.00  0.00    -0.342 N 
ATOM     10  H   UNL     1      19.576 -34.383  23.491  1.00  0.00     0.164 HD
ATOM     11  O   UNL     1      18.418 -32.435  25.814  1.00  0.00    -0.273 OA
BRANCH   9  12
ATOM     12  C   UNL     1      17.541 -34.639  24.214  1.00  0.00     0.174 CG0
ATOM     13  G   UNL     1      16.879 -34.671  22.849  1.00  0.00     0.000 G0
BRANCH  12  14
ATOM     14  C   UNL     1      17.695 -36.038  24.881  1.00  0.00     0.018 C 
ATOM     15  C   UNL     1      19.175 -36.443  24.974  1.00  0.00     0.010 C 
BRANCH  14  16
ATOM     16  C   UNL     1      16.997 -36.145  26.263  1.00  0.00     0.002 C 
ATOM     17  C   UNL     1      16.577 -37.577  26.601  1.00  0.00     0.004 C 
ENDBRANCH  14  16
ENDBRANCH  12  14
ENDBRANCH   9  12
ENDBRANCH   7   8
BRANCH   7  18
ATOM     18  C   UNL     1      21.604 -32.655  24.188  1.00  0.00     0.073 C 
BRANCH  18  19
ATOM     19  C   UNL     1      22.794 -31.885  24.691  1.00  0.00    -0.016 A 
ATOM     20  C   UNL     1      22.746 -30.690  25.407  1.00  0.00     0.134 A 
ATOM     21  C   UNL     1      24.137 -32.117  24.437  1.00  0.00     0.006 A 
ATOM     22  N   UNL     1      23.999 -30.216  25.598  1.00  0.00    -0.191 N 
ATOM     23  C   UNL     1      24.838 -31.081  25.003  1.00  0.00     0.087 A 
ATOM     24  C   UNL     1      24.786 -33.144  23.749  1.00  0.00     0.011 A 
ATOM     25  C   UNL     1      26.228 -30.995  24.915  1.00  0.00     0.030 A 
ATOM     26  C   UNL     1      26.186 -33.080  23.635  1.00  0.00     0.001 A 
ATOM     27  C   UNL     1      26.904 -32.012  24.215  1.00  0.00     0.002 A 
BRANCH  22  28
ATOM     28  O   UNL     1      24.375 -29.061  26.260  1.00  0.00    -0.417 OA
ATOM     29  C   UNL     1      24.744 -29.057  27.633  1.00  0.00     0.313 C 
ENDBRANCH  22  28
ENDBRANCH  18  19
ENDBRANCH   7  18
ENDBRANCH   4   7
ENDBRANCH   2   3
BRANCH   2  30
ATOM     30  N   UNL     1      17.300 -31.531  21.454  1.00  0.00    -0.343 N 
ATOM     31  C   UNL     1      16.750 -32.595  20.657  1.00  0.00     0.243 C 
ATOM     32  H   UNL     1      16.886 -31.341  22.395  1.00  0.00     0.164 HD
ATOM     33  O   UNL     1      17.249 -32.864  19.530  1.00  0.00    -0.273 OA
BRANCH  31  34
ATOM     34  C   UNL     1      15.557 -33.392  21.132  1.00  0.00     0.174 C 
ATOM     35  N   UNL     1      15.738 -33.831  22.530  1.00  0.00    -0.329 N 
ATOM     36  C   UNL     1      14.250 -32.590  20.942  1.00  0.00     0.035 C 
ATOM     37  C   UNL     1      14.634 -33.640  23.481  1.00  0.00     0.120 C 
ATOM     38  C   UNL     1      14.024 -31.572  22.069  1.00  0.00     0.004 C 
ATOM     39  C   UNL     1      14.177 -32.176  23.484  1.00  0.00     0.022 C 
BRANCH  35  40
ATOM     40  C   UNL     1      16.856 -34.683  22.857  1.00  0.00     0.246 CG0
ATOM     41  O   UNL     1      17.358 -35.411  21.956  1.00  0.00    -0.272 OA
ATOM     42  G   UNL     1      17.536 -34.609  24.211  1.00  0.00     0.000 G0
ENDBRANCH  35  40
ENDBRANCH  31  34
ENDBRANCH   2  30
ENDBRANCH   1   2
BRANCH   1  43
ATOM     43  C   UNL     1      19.665 -28.592  20.769  1.00  0.00     0.003 C 
BRANCH  43  44
ATOM     44  C   UNL     1      19.513 -27.062  20.844  1.00  0.00     0.001 C 
BRANCH  44  45
ATOM     45  C   UNL     1      20.774 -26.311  21.308  1.00  0.00     0.008 C 
BRANCH  45  46
ATOM     46  C   UNL     1      22.071 -27.069  20.990  1.00  0.00     0.075 C 
BRANCH  46  47
ATOM     47  C   UNL     1      22.890 -26.316  19.974  1.00  0.00     0.132 C 
ATOM     48  O   UNL     1      23.786 -26.894  19.375  1.00  0.00    -0.300 OA
BRANCH  47  49
ATOM     49  C   UNL     1      22.623 -24.863  19.677  1.00  0.00     0.072 C 
ATOM     50  C   UNL     1      23.226 -23.968  20.755  1.00  0.00     0.012 C 
ENDBRANCH  47  49
ENDBRANCH  46  47
ENDBRANCH  45  46
ENDBRANCH  44  45
ENDBRANCH  43  44
ENDBRANCH   1  43
TORSDOF 12
ENDMDL
MODEL 2
REMARK VINA RESULT:    -6.704      1.122      1.911
REMARK INTER + INTRA:         -16.049
REMARK INTER:                 -14.356
REMARK INTRA:                  -1.692
REMARK UNBOUND:                -1.899
REMARK SMILES CCC(=O)CCCCC[C@@H]1NC(=O)[C@@H]2CCCCN2C(=O)[C@@H]([C@@H](C)CC)NC(=O)[C@@H](Cc2cn(OC)c3ccccc23)NC1=O
REMARK SMILES IDX 9 1 10 2 44 3 43 4 45 6 30 7 28 8 27 9 29 11 22 12 23 14
REMARK SMILES IDX 24 15 25 16 26 17 31 18 32 19 33 20 42 21 34 22 37 23 41 24
REMARK SMILES IDX 38 25 40 26 39 27 35 28 36 29 11 30 12 31 13 33 14 34 19 35
REMARK SMILES IDX 15 36 18 37 16 38 17 39 20 40 21 41 8 43 7 44 6 45 5 46 3 47
REMARK SMILES IDX 4 48 2 49 1 50
REMARK H PARENT 43 5 27 10 11 32
REMARK Flexibility Score: 80.00
ROOT
ATOM      1  C   UNL     1      18.192 -29.133  21.177  1.00  0.00     0.035 C 
ENDROOT
BRANCH   1   2
ATOM      2  C   UNL     1      18.357 -30.656  21.011  1.00  0.00     0.171 C 
BRANCH   2   3
ATOM      3  C   UNL     1      19.441 -31.279  21.859  1.00  0.00     0.243 C 
ATOM      4  N   UNL     1      19.658 -30.901  23.235  1.00  0.00    -0.342 N 
ATOM      5  H   UNL     1      19.414 -29.933  23.536  1.00  0.00     0.164 HD
ATOM      6  O   UNL     1      20.125 -32.201  21.342  1.00  0.00    -0.273 OA
BRANCH   4   7
ATOM      7  C   UNL     1      20.033 -31.825  24.316  1.00  0.00     0.175 C 
BRANCH   7   8
ATOM      8  C   UNL     1      18.863 -32.698  24.697  1.00  0.00     0.243 C 
ATOM      9  N   UNL     1      18.733 -34.035  24.192  1.00  0.00    -0.342 N 
ATOM     10  H   UNL     1      19.573 -34.510  23.797  1.00  0.00     0.164 HD
ATOM     11  O   UNL     1      17.969 -32.222  25.447  1.00  0.00    -0.273 OA
BRANCH   9  12
ATOM     12  C   UNL     1      17.453 -34.753  24.216  1.00  0.00     0.174 CG0
ATOM     13  G   UNL     1      16.824 -34.715  22.836  1.00  0.00     0.000 G0
BRANCH  12  14
ATOM     14  C   UNL     1      17.644 -36.188  24.791  1.00  0.00     0.018 C 
ATOM     15  C   UNL     1      19.136 -36.549  24.882  1.00  0.00     0.010 C 
BRANCH  14  16
ATOM     16  C   UNL     1      16.929 -36.411  26.150  1.00  0.00     0.002 C 
ATOM     17  C   UNL     1      17.225 -37.786  26.752  1.00  0.00     0.004 C 
ENDBRANCH  14  16
ENDBRANCH  12  14
ENDBRANCH   9  12
ENDBRANCH   7   8
BRANCH   7  18
ATOM     18  C   UNL     1      21.315 -32.631  24.009  1.00  0.00     0.073 C 
BRANCH  18  19
ATOM     19  C   UNL     1      22.543 -31.777  24.174  1.00  0.00    -0.016 A 
ATOM     20  C   UNL     1      23.605 -31.700  23.275  1.00  0.00     0.134 A 
ATOM     21  C   UNL     1      22.926 -31.027  25.275  1.00  0.00     0.006 A 
ATOM     22  N   UNL     1      24.590 -30.928  23.791  1.00  0.00    -0.191 N 
ATOM     23  C   UNL     1      24.176 -30.527  25.005  1.00  0.00     0.087 A 
ATOM     24  C   UNL     1      22.281 -30.759  26.484  1.00  0.00     0.011 A 
ATOM     25  C   UNL     1      24.869 -29.737  25.922  1.00  0.00     0.030 A 
ATOM     26  C   UNL     1      22.958 -29.972  27.432  1.00  0.00     0.001 A 
ATOM     27  C   UNL     1      24.244 -29.463  27.153  1.00  0.00     0.002 A 
BRANCH  22  28
ATOM     28  O   UNL     1      25.804 -30.606  23.211  1.00  0.00    -0.417 OA
ATOM     29  C   UNL     1      27.011 -31.277  23.549  1.00  0.00     0.313 C 
ENDBRANCH  22  28
ENDBRANCH  18  19
ENDBRANCH   7  18
ENDBRANCH   4   7
ENDBRANCH   2   3
BRANCH   2  30
ATOM     30  N   UNL     1      17.091 -31.330  21.311  1.00  0.00    -0.343 N 
ATOM     31  C   UNL     1      16.715 -32.572  20.691  1.00  0.00     0.243 C 
ATOM     32  H   UNL     1      16.536 -30.986  22.126  1.00  0.00     0.164 HD
ATOM     33  O   UNL     1      17.386 -33.025  19.723  1.00  0.00    -0.273 OA
BRANCH  31  34
ATOM     34  C   UNL     1      15.504 -33.345  21.159  1.00  0.00     0.174 C 
ATOM     35  N   UNL     1      15.686 -33.824  22.544  1.00  0.00    -0.329 N 
ATOM     36  C   UNL     1      14.220 -32.500  21.004  1.00  0.00     0.035 C 
ATOM     37  C   UNL     1      14.599 -33.624  23.512  1.00  0.00     0.120 C 
ATOM     38  C   UNL     1      14.036 -31.505  22.158  1.00  0.00     0.004 C 
ATOM     39  C   UNL     1      14.186 -32.148  23.556  1.00  0.00     0.022 C 
BRANCH  35  40
ATOM     40  C   UNL     1      16.782 -34.717  22.837  1.00  0.00     0.246 CG0
ATOM     41  O   UNL     1      17.280 -35.406  21.904  1.00  0.00    -0.272 OA
ATOM     42  G   UNL     1      17.447 -34.730  24.201  1.00  0.00     0.000 G0
ENDBRANCH  35  40
ENDBRANCH  31  34
ENDBRANCH   2  30
ENDBRANCH   1   2
BRANCH   1  43
ATOM     43  C   UNL     1      19.316 -28.352  20.471  1.00  0.00     0.003 C 
BRANCH  43  44
ATOM     44  C   UNL     1      20.323 -27.733  21.456  1.00  0.00     0.001 C 
BRANCH  44  45
ATOM     45  C   UNL     1      20.299 -26.195  21.523  1.00  0.00     0.008 C 
BRANCH  45  46
ATOM     46  C   UNL     1      21.410 -25.620  22.413  1.00  0.00     0.075 C 
BRANCH  46  47
ATOM     47  C   UNL     1      22.517 -25.038  21.571  1.00  0.00     0.132 C 
ATOM     48  O   UNL     1      22.817 -23.861  21.703  1.00  0.00    -0.300 OA
BRANCH  47  49
ATOM     49  C   UNL     1      23.264 -25.884  20.573  1.00  0.00     0.072 C 
ATOM     50  C   UNL     1      22.955 -25.442  19.146  1.00  0.00     0.012 C 
ENDBRANCH  47  49
ENDBRANCH  46  47
ENDBRANCH  45  46
ENDBRANCH  44  45
ENDBRANCH  43  44
ENDBRANCH   1  43
TORSDOF 12
ENDMDL
MODEL 3
REMARK VINA RESULT:    -6.583      1.378      1.819
REMARK INTER + INTRA:         -15.794
REMARK INTER:                 -13.791
REMARK INTRA:                  -2.003
REMARK UNBOUND:                -1.899
REMARK SMILES CCC(=O)CCCCC[C@@H]1NC(=O)[C@@H]2CCCCN2C(=O)[C@@H]([C@@H](C)CC)NC(=O)[C@@H](Cc2cn(OC)c3ccccc23)NC1=O
REMARK SMILES IDX 9 1 10 2 44 3 43 4 45 6 30 7 28 8 27 9 29 11 22 12 23 14
REMARK SMILES IDX 24 15 25 16 26 17 31 18 32 19 33 20 42 21 34 22 37 23 41 24
REMARK SMILES IDX 38 25 40 26 39 27 35 28 36 29 11 30 12 31 13 33 14 34 19 35
REMARK SMILES IDX 15 36 18 37 16 38 17 39 20 40 21 41 8 43 7 44 6 45 5 46 3 47
REMARK SMILES IDX 4 48 2 49 1 50
REMARK H PARENT 43 5 27 10 11 32
REMARK Flexibility Score: 80.00
ROOT
ATOM      1  C   UNL     1      17.903 -29.022  21.215  1.00  0.00     0.035 C 
ENDROOT
BRANCH   1   2
ATOM      2  C   UNL     1      17.997 -30.503  20.801  1.00  0.00     0.171 C 
BRANCH   2   3
ATOM      3  C   UNL     1      19.187 -31.250  21.355  1.00  0.00     0.243 C 
ATOM      4  N   UNL     1      19.754 -30.948  22.648  1.00  0.00    -0.342 N 
ATOM      5  H   UNL     1      19.678 -29.976  23.017  1.00  0.00     0.164 HD
ATOM      6  O   UNL     1      19.643 -32.205  20.673  1.00  0.00    -0.273 OA
BRANCH   4   7
ATOM      7  C   UNL     1      20.285 -31.944  23.591  1.00  0.00     0.175 C 
BRANCH   7   8
ATOM      8  C   UNL     1      19.168 -32.782  24.161  1.00  0.00     0.243 C 
ATOM      9  N   UNL     1      18.802 -34.039  23.573  1.00  0.00    -0.342 N 
ATOM     10  H   UNL     1      19.476 -34.514  22.936  1.00  0.00     0.164 HD
ATOM     11  O   UNL     1      18.526 -32.344  25.154  1.00  0.00    -0.273 OA
BRANCH   9  12
ATOM     12  C   UNL     1      17.506 -34.674  23.843  1.00  0.00     0.174 CG0
ATOM     13  G   UNL     1      16.656 -34.645  22.586  1.00  0.00     0.000 G0
BRANCH  12  14
ATOM     14  C   UNL     1      17.711 -36.097  24.442  1.00  0.00     0.018 C 
ATOM     15  C   UNL     1      19.189 -36.515  24.370  1.00  0.00     0.010 C 
BRANCH  14  16
ATOM     16  C   UNL     1      17.155 -36.249  25.882  1.00  0.00     0.002 C 
ATOM     17  C   UNL     1      17.286 -37.677  26.416  1.00  0.00     0.004 C 
ENDBRANCH  14  16
ENDBRANCH  12  14
ENDBRANCH   9  12
ENDBRANCH   7   8
BRANCH   7  18
ATOM     18  C   UNL     1      21.435 -32.789  22.999  1.00  0.00     0.073 C 
BRANCH  18  19
ATOM     19  C   UNL     1      22.593 -32.873  23.955  1.00  0.00    -0.016 A 
ATOM     20  C   UNL     1      23.608 -31.926  24.087  1.00  0.00     0.134 A 
ATOM     21  C   UNL     1      22.957 -33.931  24.773  1.00  0.00     0.006 A 
ATOM     22  N   UNL     1      24.545 -32.373  24.955  1.00  0.00    -0.191 N 
ATOM     23  C   UNL     1      24.150 -33.591  25.363  1.00  0.00     0.087 A 
ATOM     24  C   UNL     1      22.343 -35.158  25.029  1.00  0.00     0.011 A 
ATOM     25  C   UNL     1      24.811 -34.451  26.239  1.00  0.00     0.030 A 
ATOM     26  C   UNL     1      22.991 -36.050  25.902  1.00  0.00     0.001 A 
ATOM     27  C   UNL     1      24.218 -35.699  26.504  1.00  0.00     0.002 A 
BRANCH  22  28
ATOM     28  O   UNL     1      25.703 -31.730  25.354  1.00  0.00    -0.417 OA
ATOM     29  C   UNL     1      26.702 -31.319  24.430  1.00  0.00     0.313 C 
ENDBRANCH  22  28
ENDBRANCH  18  19
ENDBRANCH   7  18
ENDBRANCH   4   7
ENDBRANCH   2   3
BRANCH   2  30
ATOM     30  N   UNL     1      16.779 -31.211  21.202  1.00  0.00    -0.343 N 
ATOM     31  C   UNL     1      16.328 -32.405  20.538  1.00  0.00     0.243 C 
ATOM     32  H   UNL     1      16.330 -30.937  22.105  1.00  0.00     0.164 HD
ATOM     33  O   UNL     1      16.872 -32.773  19.461  1.00  0.00    -0.273 OA
BRANCH  31  34
ATOM     34  C   UNL     1      15.185 -33.224  21.092  1.00  0.00     0.174 C 
ATOM     35  N   UNL     1      15.515 -33.753  22.430  1.00  0.00    -0.329 N 
ATOM     36  C   UNL     1      13.876 -32.404  21.101  1.00  0.00     0.035 C 
ATOM     37  C   UNL     1      14.527 -33.619  23.509  1.00  0.00     0.120 C 
ATOM     38  C   UNL     1      13.790 -31.460  22.309  1.00  0.00     0.004 C 
ATOM     39  C   UNL     1      14.092 -32.155  23.657  1.00  0.00     0.022 C 
BRANCH  35  40
ATOM     40  C   UNL     1      16.652 -34.632  22.574  1.00  0.00     0.246 CG0
ATOM     41  O   UNL     1      17.039 -35.305  21.579  1.00  0.00    -0.272 OA
ATOM     42  G   UNL     1      17.483 -34.646  23.844  1.00  0.00     0.000 G0
ENDBRANCH  35  40
ENDBRANCH  31  34
ENDBRANCH   2  30
ENDBRANCH   1   2
BRANCH   1  43
ATOM     43  C   UNL     1      18.743 -28.113  20.298  1.00  0.00     0.003 C 
BRANCH  43  44
ATOM     44  C   UNL     1      19.688 -27.184  21.080  1.00  0.00     0.001 C 
BRANCH  44  45
ATOM     45  C   UNL     1      21.076 -27.780  21.379  1.00  0.00     0.008 C 
BRANCH  45  46
ATOM     46  C   UNL     1      22.120 -26.711  21.731  1.00  0.00     0.075 C 
BRANCH  46  47
ATOM     47  C   UNL     1      23.320 -26.822  20.827  1.00  0.00     0.132 C 
ATOM     48  O   UNL     1      24.374 -27.249  21.277  1.00  0.00    -0.300 OA
BRANCH  47  49
ATOM     49  C   UNL     1      23.245 -26.422  19.377  1.00  0.00     0.072 C 
ATOM     50  C   UNL     1      22.694 -25.007  19.230  1.00  0.00     0.012 C 
ENDBRANCH  47  49
ENDBRANCH  46  47
ENDBRANCH  45  46
ENDBRANCH  44  45
ENDBRANCH  43  44
ENDBRANCH   1  43
TORSDOF 12
ENDMDL
MODEL 4
REMARK VINA RESULT:    -6.407      2.343      7.436
REMARK INTER + INTRA:         -15.422
REMARK INTER:                 -13.899
REMARK INTRA:                  -1.523
REMARK UNBOUND:                -1.899
REMARK SMILES CCC(=O)CCCCC[C@@H]1NC(=O)[C@@H]2CCCCN2C(=O)[C@@H]([C@@H](C)CC)NC(=O)[C@@H](Cc2cn(OC)c3ccccc23)NC1=O
REMARK SMILES IDX 9 1 10 2 44 3 43 4 45 6 30 7 28 8 27 9 29 11 22 12 23 14
REMARK SMILES IDX 24 15 25 16 26 17 31 18 32 19 33 20 42 21 34 22 37 23 41 24
REMARK SMILES IDX 38 25 40 26 39 27 35 28 36 29 11 30 12 31 13 33 14 34 19 35
REMARK SMILES IDX 15 36 18 37 16 38 17 39 20 40 21 41 8 43 7 44 6 45 5 46 3 47
REMARK SMILES IDX 4 48 2 49 1 50
REMARK H PARENT 43 5 27 10 11 32
REMARK Flexibility Score: 80.00
ROOT
ATOM      1  C   UNL     1      23.079 -27.046  21.265  1.00  0.00     0.035 C 
ENDROOT
BRANCH   1   2
ATOM      2  C   UNL     1      22.120 -27.856  22.159  1.00  0.00     0.171 C 
BRANCH   2   3
ATOM      3  C   UNL     1      21.015 -28.577  21.424  1.00  0.00     0.243 C 
ATOM      4  N   UNL     1      21.144 -29.946  20.984  1.00  0.00    -0.342 N 
ATOM      5  H   UNL     1      22.092 -30.312  20.750  1.00  0.00     0.164 HD
ATOM      6  O   UNL     1      19.930 -27.960  21.256  1.00  0.00    -0.273 OA
BRANCH   4   7
ATOM      7  C   UNL     1      20.065 -30.945  21.004  1.00  0.00     0.175 C 
BRANCH   7   8
ATOM      8  C   UNL     1      20.170 -31.814  22.232  1.00  0.00     0.243 C 
ATOM      9  N   UNL     1      19.949 -31.282  23.546  1.00  0.00    -0.342 N 
ATOM     10  H   UNL     1      19.440 -30.377  23.645  1.00  0.00     0.164 HD
ATOM     11  O   UNL     1      20.494 -33.025  22.093  1.00  0.00    -0.273 OA
BRANCH   9  12
ATOM     12  C   UNL     1      20.416 -31.974  24.753  1.00  0.00     0.174 CG0
ATOM     13  G   UNL     1      21.435 -31.108  25.471  1.00  0.00     0.000 G0
BRANCH  12  14
ATOM     14  C   UNL     1      19.208 -32.403  25.637  1.00  0.00     0.018 C 
ATOM     15  C   UNL     1      18.077 -31.364  25.564  1.00  0.00     0.010 C 
BRANCH  14  16
ATOM     16  C   UNL     1      18.682 -33.827  25.317  1.00  0.00     0.002 C 
ATOM     17  C   UNL     1      17.439 -33.809  24.425  1.00  0.00     0.004 C 
ENDBRANCH  14  16
ENDBRANCH  12  14
ENDBRANCH   9  12
ENDBRANCH   7   8
BRANCH   7  18
ATOM     18  C   UNL     1      18.662 -30.327  20.818  1.00  0.00     0.073 C 
BRANCH  18  19
ATOM     19  C   UNL     1      17.590 -31.378  20.915  1.00  0.00    -0.016 A 
ATOM     20  C   UNL     1      17.488 -32.512  20.110  1.00  0.00     0.134 A 
ATOM     21  C   UNL     1      16.447 -31.370  21.700  1.00  0.00     0.006 A 
ATOM     22  N   UNL     1      16.344 -33.177  20.395  1.00  0.00    -0.191 N 
ATOM     23  C   UNL     1      15.715 -32.478  21.354  1.00  0.00     0.087 A 
ATOM     24  C   UNL     1      15.998 -30.475  22.672  1.00  0.00     0.011 A 
ATOM     25  C   UNL     1      14.484 -32.763  21.946  1.00  0.00     0.030 A 
ATOM     26  C   UNL     1      14.756 -30.730  23.280  1.00  0.00     0.001 A 
ATOM     27  C   UNL     1      14.003 -31.869  22.920  1.00  0.00     0.002 A 
BRANCH  22  28
ATOM     28  O   UNL     1      15.880 -34.346  19.818  1.00  0.00    -0.417 OA
ATOM     29  C   UNL     1      16.718 -35.475  19.605  1.00  0.00     0.313 C 
ENDBRANCH  22  28
ENDBRANCH  18  19
ENDBRANCH   7  18
ENDBRANCH   4   7
ENDBRANCH   2   3
BRANCH   2  30
ATOM     30  N   UNL     1      22.876 -28.841  22.936  1.00  0.00    -0.343 N 
ATOM     31  C   UNL     1      23.029 -28.742  24.363  1.00  0.00     0.243 C 
ATOM     32  H   UNL     1      23.159 -29.727  22.460  1.00  0.00     0.164 HD
ATOM     33  O   UNL     1      22.668 -27.694  24.967  1.00  0.00    -0.273 OA
BRANCH  31  34
ATOM     34  C   UNL     1      23.640 -29.868  25.164  1.00  0.00     0.174 C 
ATOM     35  N   UNL     1      22.849 -31.107  25.024  1.00  0.00    -0.329 N 
ATOM     36  C   UNL     1      25.120 -30.079  24.773  1.00  0.00     0.035 C 
ATOM     37  C   UNL     1      23.550 -32.366  24.737  1.00  0.00     0.120 C 
ATOM     38  C   UNL     1      25.269 -30.907  23.489  1.00  0.00     0.004 C 
ATOM     39  C   UNL     1      24.441 -32.212  23.497  1.00  0.00     0.022 C 
BRANCH  35  40
ATOM     40  C   UNL     1      21.470 -31.109  25.451  1.00  0.00     0.246 CG0
ATOM     41  O   UNL     1      21.099 -30.288  26.335  1.00  0.00    -0.272 OA
ATOM     42  G   UNL     1      20.429 -31.965  24.754  1.00  0.00     0.000 G0
ENDBRANCH  35  40
ENDBRANCH  31  34
ENDBRANCH   2  30
ENDBRANCH   1   2
BRANCH   1  43
ATOM     43  C   UNL     1      22.345 -25.931  20.495  1.00  0.00     0.003 C 
BRANCH  43  44
ATOM     44  C   UNL     1      22.573 -24.536  21.103  1.00  0.00     0.001 C 
BRANCH  44  45
ATOM     45  C   UNL     1      22.302 -24.440  22.616  1.00  0.00     0.008 C 
BRANCH  45  46
ATOM     46  C   UNL     1      22.186 -22.991  23.109  1.00  0.00     0.075 C 
BRANCH  46  47
ATOM     47  C   UNL     1      23.486 -22.257  22.912  1.00  0.00     0.132 C 
ATOM     48  O   UNL     1      23.883 -22.029  21.778  1.00  0.00    -0.300 OA
BRANCH  47  49
ATOM     49  C   UNL     1      24.307 -21.792  24.087  1.00  0.00     0.072 C 
ATOM     50  C   UNL     1      23.502 -21.876  25.380  1.00  0.00     0.012 C 
ENDBRANCH  47  49
ENDBRANCH  46  47
ENDBRANCH  45  46
ENDBRANCH  44  45
ENDBRANCH  43  44
ENDBRANCH   1  43
TORSDOF 12
ENDMDL
MODEL 5
REMARK VINA RESULT:    -6.382      2.371      3.930
REMARK INTER + INTRA:         -15.370
REMARK INTER:                 -12.621
REMARK INTRA:                  -2.749
REMARK UNBOUND:                -1.899
REMARK SMILES CCC(=O)CCCCC[C@@H]1NC(=O)[C@@H]2CCCCN2C(=O)[C@@H]([C@@H](C)CC)NC(=O)[C@@H](Cc2cn(OC)c3ccccc23)NC1=O
REMARK SMILES IDX 9 1 10 2 44 3 43 4 45 6 30 7 28 8 27 9 29 11 22 12 23 14
REMARK SMILES IDX 24 15 25 16 26 17 31 18 32 19 33 20 42 21 34 22 37 23 41 24
REMARK SMILES IDX 38 25 40 26 39 27 35 28 36 29 11 30 12 31 13 33 14 34 19 35
REMARK SMILES IDX 15 36 18 37 16 38 17 39 20 40 21 41 8 43 7 44 6 45 5 46 3 47
REMARK SMILES IDX 4 48 2 49 1 50
REMARK H PARENT 43 5 27 10 11 32
REMARK Flexibility Score: 80.00
ROOT
ATOM      1  C   UNL     1      19.242 -30.253  21.040  1.00  0.00     0.035 C 
ENDROOT
BRANCH   1   2
ATOM      2  C   UNL     1      19.568 -31.759  21.063  1.00  0.00     0.171 C 
BRANCH   2   3
ATOM      3  C   UNL     1      20.370 -32.223  22.256  1.00  0.00     0.243 C 
ATOM      4  N   UNL     1      20.251 -31.604  23.554  1.00  0.00    -0.342 N 
ATOM      5  H   UNL     1      19.988 -30.598  23.610  1.00  0.00     0.164 HD
ATOM      6  O   UNL     1      21.116 -33.226  22.100  1.00  0.00    -0.273 OA
BRANCH   4   7
ATOM      7  C   UNL     1      20.294 -32.321  24.839  1.00  0.00     0.175 C 
BRANCH   7   8
ATOM      8  C   UNL     1      19.134 -33.278  24.950  1.00  0.00     0.243 C 
ATOM      9  N   UNL     1      19.039 -34.439  24.111  1.00  0.00    -0.342 N 
ATOM     10  H   UNL     1      19.896 -34.782  23.627  1.00  0.00     0.164 HD
ATOM     11  O   UNL     1      18.217 -33.027  25.778  1.00  0.00    -0.273 OA
BRANCH   9  12
ATOM     12  C   UNL     1      17.773 -35.155  23.918  1.00  0.00     0.174 CG0
ATOM     13  G   UNL     1      17.604 -35.497  22.449  1.00  0.00     0.000 G0
BRANCH  12  14
ATOM     14  C   UNL     1      17.690 -36.383  24.873  1.00  0.00     0.018 C 
ATOM     15  C   UNL     1      19.071 -36.716  25.461  1.00  0.00     0.010 C 
BRANCH  14  16
ATOM     16  C   UNL     1      16.628 -36.225  25.992  1.00  0.00     0.002 C 
ATOM     17  C   UNL     1      16.884 -37.153  27.182  1.00  0.00     0.004 C 
ENDBRANCH  14  16
ENDBRANCH  12  14
ENDBRANCH   9  12
ENDBRANCH   7   8
BRANCH   7  18
ATOM     18  C   UNL     1      21.659 -32.988  25.116  1.00  0.00     0.073 C 
BRANCH  18  19
ATOM     19  C   UNL     1      22.748 -31.959  25.250  1.00  0.00    -0.016 A 
ATOM     20  C   UNL     1      22.668 -30.784  25.997  1.00  0.00     0.134 A 
ATOM     21  C   UNL     1      23.957 -31.894  24.576  1.00  0.00     0.006 A 
ATOM     22  N   UNL     1      23.780 -30.038  25.802  1.00  0.00    -0.191 N 
ATOM     23  C   UNL     1      24.556 -30.712  24.936  1.00  0.00     0.087 A 
ATOM     24  C   UNL     1      24.563 -32.771  23.674  1.00  0.00     0.011 A 
ATOM     25  C   UNL     1      25.790 -30.322  24.417  1.00  0.00     0.030 A 
ATOM     26  C   UNL     1      25.804 -32.400  23.127  1.00  0.00     0.001 A 
ATOM     27  C   UNL     1      26.415 -31.183  23.497  1.00  0.00     0.002 A 
BRANCH  22  28
ATOM     28  O   UNL     1      24.083 -28.809  26.362  1.00  0.00    -0.417 OA
ATOM     29  C   UNL     1      23.755 -27.581  25.725  1.00  0.00     0.313 C 
ENDBRANCH  22  28
ENDBRANCH  18  19
ENDBRANCH   7  18
ENDBRANCH   4   7
ENDBRANCH   2   3
BRANCH   2  30
ATOM     30  N   UNL     1      18.329 -32.539  21.008  1.00  0.00    -0.343 N 
ATOM     31  C   UNL     1      18.151 -33.638  20.097  1.00  0.00     0.243 C 
ATOM     32  H   UNL     1      17.631 -32.400  21.772  1.00  0.00     0.164 HD
ATOM     33  O   UNL     1      18.996 -33.845  19.183  1.00  0.00    -0.273 OA
BRANCH  31  34
ATOM     34  C   UNL     1      16.948 -34.547  20.194  1.00  0.00     0.174 C 
ATOM     35  N   UNL     1      16.614 -34.832  21.604  1.00  0.00    -0.329 N 
ATOM     36  C   UNL     1      15.748 -33.953  19.423  1.00  0.00     0.035 C 
ATOM     37  C   UNL     1      15.215 -34.713  22.038  1.00  0.00     0.120 C 
ATOM     38  C   UNL     1      15.008 -32.881  20.237  1.00  0.00     0.004 C 
ATOM     39  C   UNL     1      14.658 -33.331  21.674  1.00  0.00     0.022 C 
BRANCH  35  40
ATOM     40  C   UNL     1      17.593 -35.490  22.435  1.00  0.00     0.246 CG0
ATOM     41  O   UNL     1      18.423 -36.278  21.903  1.00  0.00    -0.272 OA
ATOM     42  G   UNL     1      17.746 -35.138  23.904  1.00  0.00     0.000 G0
ENDBRANCH  35  40
ENDBRANCH  31  34
ENDBRANCH   2  30
ENDBRANCH   1   2
BRANCH   1  43
ATOM     43  C   UNL     1      17.763 -29.989  20.697  1.00  0.00     0.003 C 
BRANCH  43  44
ATOM     44  C   UNL     1      17.047 -29.136  21.759  1.00  0.00     0.001 C 
BRANCH  44  45
ATOM     45  C   UNL     1      15.842 -29.820  22.431  1.00  0.00     0.008 C 
BRANCH  45  46
ATOM     46  C   UNL     1      14.518 -29.545  21.703  1.00  0.00     0.075 C 
BRANCH  46  47
ATOM     47  C   UNL     1      13.357 -29.653  22.656  1.00  0.00     0.132 C 
ATOM     48  O   UNL     1      12.725 -30.698  22.719  1.00  0.00    -0.300 OA
BRANCH  47  49
ATOM     49  C   UNL     1      12.960 -28.498  23.538  1.00  0.00     0.072 C 
ATOM     50  C   UNL     1      11.457 -28.250  23.468  1.00  0.00     0.012 C 
ENDBRANCH  47  49
ENDBRANCH  46  47
ENDBRANCH  45  46
ENDBRANCH  44  45
ENDBRANCH  43  44
ENDBRANCH   1  43
TORSDOF 12
ENDMDL
MODEL 6
REMARK VINA RESULT:    -6.365      2.464      7.136
REMARK INTER + INTRA:         -15.333
REMARK INTER:                 -13.710
REMARK INTRA:                  -1.623
REMARK UNBOUND:                -1.899
REMARK SMILES CCC(=O)CCCCC[C@@H]1NC(=O)[C@@H]2CCCCN2C(=O)[C@@H]([C@@H](C)CC)NC(=O)[C@@H](Cc2cn(OC)c3ccccc23)NC1=O
REMARK SMILES IDX 9 1 10 2 44 3 43 4 45 6 30 7 28 8 27 9 29 11 22 12 23 14
REMARK SMILES IDX 24 15 25 16 26 17 31 18 32 19 33 20 42 21 34 22 37 23 41 24
REMARK SMILES IDX 38 25 40 26 39 27 35 28 36 29 11 30 12 31 13 33 14 34 19 35
REMARK SMILES IDX 15 36 18 37 16 38 17 39 20 40 21 41 8 43 7 44 6 45 5 46 3 47
REMARK SMILES IDX 4 48 2 49 1 50
REMARK H PARENT 43 5 27 10 11 32
REMARK Flexibility Score: 80.00
ROOT
ATOM      1  C   UNL     1      23.036 -27.243  21.414  1.00  0.00     0.035 C 
ENDROOT
BRANCH   1   2
ATOM      2  C   UNL     1      22.101 -28.130  22.259  1.00  0.00     0.171 C 
BRANCH   2   3
ATOM      3  C   UNL     1      20.957 -28.761  21.500  1.00  0.00     0.243 C 
ATOM      4  N   UNL     1      21.019 -30.112  20.994  1.00  0.00    -0.342 N 
ATOM      5  H   UNL     1      21.946 -30.511  20.735  1.00  0.00     0.164 HD
ATOM      6  O   UNL     1      19.902 -28.086  21.371  1.00  0.00    -0.273 OA
BRANCH   4   7
ATOM      7  C   UNL     1      19.894 -31.059  20.975  1.00  0.00     0.175 C 
BRANCH   7   8
ATOM      8  C   UNL     1      19.978 -32.005  22.148  1.00  0.00     0.243 C 
ATOM      9  N   UNL     1      19.923 -31.526  23.499  1.00  0.00    -0.342 N 
ATOM     10  H   UNL     1      19.543 -30.573  23.682  1.00  0.00     0.164 HD
ATOM     11  O   UNL     1      20.134 -33.236  21.925  1.00  0.00    -0.273 OA
BRANCH   9  12
ATOM     12  C   UNL     1      20.386 -32.339  24.630  1.00  0.00     0.174 CG0
ATOM     13  G   UNL     1      21.508 -31.614  25.351  1.00  0.00     0.000 G0
BRANCH  12  14
ATOM     14  C   UNL     1      19.189 -32.732  25.546  1.00  0.00     0.018 C 
ATOM     15  C   UNL     1      18.002 -31.776  25.338  1.00  0.00     0.010 C 
BRANCH  14  16
ATOM     16  C   UNL     1      18.750 -34.211  25.390  1.00  0.00     0.002 C 
ATOM     17  C   UNL     1      17.803 -34.423  24.207  1.00  0.00     0.004 C 
ENDBRANCH  14  16
ENDBRANCH  12  14
ENDBRANCH   9  12
ENDBRANCH   7   8
BRANCH   7  18
ATOM     18  C   UNL     1      18.519 -30.367  20.853  1.00  0.00     0.073 C 
BRANCH  18  19
ATOM     19  C   UNL     1      17.402 -31.320  21.177  1.00  0.00    -0.016 A 
ATOM     20  C   UNL     1      16.555 -31.234  22.281  1.00  0.00     0.134 A 
ATOM     21  C   UNL     1      17.082 -32.514  20.550  1.00  0.00     0.006 A 
ATOM     22  N   UNL     1      15.742 -32.316  22.324  1.00  0.00    -0.191 N 
ATOM     23  C   UNL     1      16.070 -33.092  21.277  1.00  0.00     0.087 A 
ATOM     24  C   UNL     1      17.607 -33.134  19.415  1.00  0.00     0.011 A 
ATOM     25  C   UNL     1      15.521 -34.325  20.926  1.00  0.00     0.030 A 
ATOM     26  C   UNL     1      17.081 -34.384  19.042  1.00  0.00     0.001 A 
ATOM     27  C   UNL     1      16.043 -34.976  19.793  1.00  0.00     0.002 A 
BRANCH  22  28
ATOM     28  O   UNL     1      14.764 -32.603  23.260  1.00  0.00    -0.417 OA
ATOM     29  C   UNL     1      13.506 -31.941  23.272  1.00  0.00     0.313 C 
ENDBRANCH  22  28
ENDBRANCH  18  19
ENDBRANCH   7  18
ENDBRANCH   4   7
ENDBRANCH   2   3
BRANCH   2  30
ATOM     30  N   UNL     1      22.871 -29.195  22.904  1.00  0.00    -0.343 N 
ATOM     31  C   UNL     1      23.100 -29.229  24.324  1.00  0.00     0.243 C 
ATOM     32  H   UNL     1      23.107 -30.040  22.335  1.00  0.00     0.164 HD
ATOM     33  O   UNL     1      22.797 -28.233  25.037  1.00  0.00    -0.273 OA
BRANCH  31  34
ATOM     34  C   UNL     1      23.724 -30.434  24.987  1.00  0.00     0.174 C 
ATOM     35  N   UNL     1      22.880 -31.632  24.809  1.00  0.00    -0.329 N 
ATOM     36  C   UNL     1      25.164 -30.660  24.471  1.00  0.00     0.035 C 
ATOM     37  C   UNL     1      23.510 -32.886  24.374  1.00  0.00     0.120 C 
ATOM     38  C   UNL     1      25.189 -31.386  23.119  1.00  0.00     0.004 C 
ATOM     39  C   UNL     1      24.315 -32.661  23.088  1.00  0.00     0.022 C 
BRANCH  35  40
ATOM     40  C   UNL     1      21.536 -31.624  25.337  1.00  0.00     0.246 CG0
ATOM     41  O   UNL     1      21.278 -30.924  26.354  1.00  0.00    -0.272 OA
ATOM     42  G   UNL     1      20.397 -32.313  24.606  1.00  0.00     0.000 G0
ENDBRANCH  35  40
ENDBRANCH  31  34
ENDBRANCH   2  30
ENDBRANCH   1   2
BRANCH   1  43
ATOM     43  C   UNL     1      22.259 -26.414  20.373  1.00  0.00     0.003 C 
BRANCH  43  44
ATOM     44  C   UNL     1      21.947 -24.988  20.860  1.00  0.00     0.001 C 
BRANCH  44  45
ATOM     45  C   UNL     1      20.473 -24.741  21.231  1.00  0.00     0.008 C 
BRANCH  45  46
ATOM     46  C   UNL     1      20.292 -24.297  22.690  1.00  0.00     0.075 C 
BRANCH  46  47
ATOM     47  C   UNL     1      19.950 -22.831  22.759  1.00  0.00     0.132 C 
ATOM     48  O   UNL     1      18.809 -22.467  22.511  1.00  0.00    -0.300 OA
BRANCH  47  49
ATOM     49  C   UNL     1      20.987 -21.804  23.134  1.00  0.00     0.072 C 
ATOM     50  C   UNL     1      20.350 -20.431  23.322  1.00  0.00     0.012 C 
ENDBRANCH  47  49
ENDBRANCH  46  47
ENDBRANCH  45  46
ENDBRANCH  44  45
ENDBRANCH  43  44
ENDBRANCH   1  43
TORSDOF 12
ENDMDL
MODEL 7
REMARK VINA RESULT:    -6.292      1.696      2.134
REMARK INTER + INTRA:         -15.180
REMARK INTER:                 -13.322
REMARK INTRA:                  -1.858
REMARK UNBOUND:                -1.899
REMARK SMILES CCC(=O)CCCCC[C@@H]1NC(=O)[C@@H]2CCCCN2C(=O)[C@@H]([C@@H](C)CC)NC(=O)[C@@H](Cc2cn(OC)c3ccccc23)NC1=O
REMARK SMILES IDX 9 1 10 2 44 3 43 4 45 6 30 7 28 8 27 9 29 11 22 12 23 14
REMARK SMILES IDX 24 15 25 16 26 17 31 18 32 19 33 20 42 21 34 22 37 23 41 24
REMARK SMILES IDX 38 25 40 26 39 27 35 28 36 29 11 30 12 31 13 33 14 34 19 35
REMARK SMILES IDX 15 36 18 37 16 38 17 39 20 40 21 41 8 43 7 44 6 45 5 46 3 47
REMARK SMILES IDX 4 48 2 49 1 50
REMARK H PARENT 43 5 27 10 11 32
REMARK Flexibility Score: 80.00
ROOT
ATOM      1  C   UNL     1      18.433 -29.311  21.315  1.00  0.00     0.035 C 
ENDROOT
BRANCH   1   2
ATOM      2  C   UNL     1      18.340 -30.761  20.803  1.00  0.00     0.171 C 
BRANCH   2   3
ATOM      3  C   UNL     1      19.471 -31.666  21.233  1.00  0.00     0.243 C 
ATOM      4  N   UNL     1      20.183 -31.476  22.474  1.00  0.00    -0.342 N 
ATOM      5  H   UNL     1      20.261 -30.515  22.868  1.00  0.00     0.164 HD
ATOM      6  O   UNL     1      19.743 -32.648  20.493  1.00  0.00    -0.273 OA
BRANCH   4   7
ATOM      7  C   UNL     1      20.664 -32.560  23.345  1.00  0.00     0.175 C 
BRANCH   7   8
ATOM      8  C   UNL     1      19.504 -33.301  23.960  1.00  0.00     0.243 C 
ATOM      9  N   UNL     1      18.901 -34.424  23.301  1.00  0.00    -0.342 N 
ATOM     10  H   UNL     1      19.430 -34.910  22.546  1.00  0.00     0.164 HD
ATOM     11  O   UNL     1      19.039 -32.896  25.061  1.00  0.00    -0.273 OA
BRANCH   9  12
ATOM     12  C   UNL     1      17.562 -34.908  23.661  1.00  0.00     0.174 CG0
ATOM     13  G   UNL     1      16.634 -34.763  22.470  1.00  0.00     0.000 G0
BRANCH  12  14
ATOM     14  C   UNL     1      17.642 -36.354  24.235  1.00  0.00     0.018 C 
ATOM     15  C   UNL     1      19.069 -36.915  24.115  1.00  0.00     0.010 C 
BRANCH  14  16
ATOM     16  C   UNL     1      17.115 -36.472  25.690  1.00  0.00     0.002 C 
ATOM     17  C   UNL     1      18.242 -36.622  26.714  1.00  0.00     0.004 C 
ENDBRANCH  14  16
ENDBRANCH  12  14
ENDBRANCH   9  12
ENDBRANCH   7   8
BRANCH   7  18
ATOM     18  C   UNL     1      21.679 -33.493  22.648  1.00  0.00     0.073 C 
BRANCH  18  19
ATOM     19  C   UNL     1      22.828 -33.821  23.561  1.00  0.00    -0.016 A 
ATOM     20  C   UNL     1      22.853 -34.854  24.498  1.00  0.00     0.134 A 
ATOM     21  C   UNL     1      24.002 -33.109  23.755  1.00  0.00     0.006 A 
ATOM     22  N   UNL     1      23.994 -34.790  25.224  1.00  0.00    -0.191 N 
ATOM     23  C   UNL     1      24.684 -33.728  24.774  1.00  0.00     0.087 A 
ATOM     24  C   UNL     1      24.509 -31.971  23.126  1.00  0.00     0.011 A 
ATOM     25  C   UNL     1      25.909 -33.249  25.239  1.00  0.00     0.030 A 
ATOM     26  C   UNL     1      25.738 -31.459  23.579  1.00  0.00     0.001 A 
ATOM     27  C   UNL     1      26.435 -32.096  24.629  1.00  0.00     0.002 A 
BRANCH  22  28
ATOM     28  O   UNL     1      24.395 -35.632  26.246  1.00  0.00    -0.417 OA
ATOM     29  C   UNL     1      24.089 -37.020  26.251  1.00  0.00     0.313 C 
ENDBRANCH  22  28
ENDBRANCH  18  19
ENDBRANCH   7  18
ENDBRANCH   4   7
ENDBRANCH   2   3
BRANCH   2  30
ATOM     30  N   UNL     1      17.077 -31.363  21.236  1.00  0.00    -0.343 N 
ATOM     31  C   UNL     1      16.449 -32.437  20.515  1.00  0.00     0.243 C 
ATOM     32  H   UNL     1      16.722 -31.121  22.189  1.00  0.00     0.164 HD
ATOM     33  O   UNL     1      16.877 -32.769  19.375  1.00  0.00    -0.273 OA
BRANCH  31  34
ATOM     34  C   UNL     1      15.258 -33.171  21.085  1.00  0.00     0.174 C 
ATOM     35  N   UNL     1      15.588 -33.782  22.388  1.00  0.00    -0.329 N 
ATOM     36  C   UNL     1      14.031 -32.236  21.179  1.00  0.00     0.035 C 
ATOM     37  C   UNL     1      14.658 -33.603  23.511  1.00  0.00     0.120 C 
ATOM     38  C   UNL     1      14.079 -31.339  22.424  1.00  0.00     0.004 C 
ATOM     39  C   UNL     1      14.367 -32.113  23.731  1.00  0.00     0.022 C 
BRANCH  35  40
ATOM     40  C   UNL     1      16.643 -34.766  22.451  1.00  0.00     0.246 CG0
ATOM     41  O   UNL     1      16.898 -35.461  21.429  1.00  0.00    -0.272 OA
ATOM     42  G   UNL     1      17.550 -34.873  23.663  1.00  0.00     0.000 G0
ENDBRANCH  35  40
ENDBRANCH  31  34
ENDBRANCH   2  30
ENDBRANCH   1   2
BRANCH   1  43
ATOM     43  C   UNL     1      19.733 -28.621  20.860  1.00  0.00     0.003 C 
BRANCH  43  44
ATOM     44  C   UNL     1      19.529 -27.138  20.504  1.00  0.00     0.001 C 
BRANCH  44  45
ATOM     45  C   UNL     1      20.191 -26.144  21.475  1.00  0.00     0.008 C 
BRANCH  45  46
ATOM     46  C   UNL     1      21.407 -25.432  20.863  1.00  0.00     0.075 C 
BRANCH  46  47
ATOM     47  C   UNL     1      22.627 -26.314  20.931  1.00  0.00     0.132 C 
ATOM     48  O   UNL     1      22.905 -26.876  21.980  1.00  0.00    -0.300 OA
BRANCH  47  49
ATOM     49  C   UNL     1      23.509 -26.520  19.727  1.00  0.00     0.072 C 
ATOM     50  C   UNL     1      23.240 -25.456  18.667  1.00  0.00     0.012 C 
ENDBRANCH  47  49
ENDBRANCH  46  47
ENDBRANCH  45  46
ENDBRANCH  44  45
ENDBRANCH  43  44
ENDBRANCH   1  43
TORSDOF 12
ENDMDL
MODEL 8
REMARK VINA RESULT:    -6.221      2.637      4.393
REMARK INTER + INTRA:         -15.030
REMARK INTER:                 -12.378
REMARK INTRA:                  -2.652
REMARK UNBOUND:                -1.899
REMARK SMILES CCC(=O)CCCCC[C@@H]1NC(=O)[C@@H]2CCCCN2C(=O)[C@@H]([C@@H](C)CC)NC(=O)[C@@H](Cc2cn(OC)c3ccccc23)NC1=O
REMARK SMILES IDX 9 1 10 2 44 3 43 4 45 6 30 7 28 8 27 9 29 11 22 12 23 14
REMARK SMILES IDX 24 15 25 16 26 17 31 18 32 19 33 20 42 21 34 22 37 23 41 24
REMARK SMILES IDX 38 25 40 26 39 27 35 28 36 29 11 30 12 31 13 33 14 34 19 35
REMARK SMILES IDX 15 36 18 37 16 38 17 39 20 40 21 41 8 43 7 44 6 45 5 46 3 47
REMARK SMILES IDX 4 48 2 49 1 50
REMARK H PARENT 43 5 27 10 11 32
REMARK Flexibility Score: 80.00
ROOT
ATOM      1  C   UNL     1      17.771 -29.598  21.303  1.00  0.00     0.035 C 
ENDROOT
BRANCH   1   2
ATOM      2  C   UNL     1      18.228 -31.006  20.873  1.00  0.00     0.171 C 
BRANCH   2   3
ATOM      3  C   UNL     1      19.657 -31.351  21.222  1.00  0.00     0.243 C 
ATOM      4  N   UNL     1      20.289 -30.887  22.434  1.00  0.00    -0.342 N 
ATOM      5  H   UNL     1      19.976 -29.984  22.851  1.00  0.00     0.164 HD
ATOM      6  O   UNL     1      20.276 -32.122  20.442  1.00  0.00    -0.273 OA
BRANCH   4   7
ATOM      7  C   UNL     1      21.229 -31.670  23.250  1.00  0.00     0.175 C 
BRANCH   7   8
ATOM      8  C   UNL     1      20.525 -32.838  23.895  1.00  0.00     0.243 C 
ATOM      9  N   UNL     1      20.330 -34.074  23.193  1.00  0.00    -0.342 N 
ATOM     10  H   UNL     1      20.913 -34.275  22.353  1.00  0.00     0.164 HD
ATOM     11  O   UNL     1      20.073 -32.703  25.065  1.00  0.00    -0.273 OA
BRANCH   9  12
ATOM     12  C   UNL     1      19.334 -35.062  23.625  1.00  0.00     0.174 CG0
ATOM     13  G   UNL     1      18.309 -35.263  22.524  1.00  0.00     0.000 G0
BRANCH  12  14
ATOM     14  C   UNL     1      20.035 -36.374  24.090  1.00  0.00     0.018 C 
ATOM     15  C   UNL     1      21.331 -36.061  24.856  1.00  0.00     0.010 C 
BRANCH  14  16
ATOM     16  C   UNL     1      19.111 -37.311  24.912  1.00  0.00     0.002 C 
ATOM     17  C   UNL     1      18.503 -36.616  26.133  1.00  0.00     0.004 C 
ENDBRANCH  14  16
ENDBRANCH  12  14
ENDBRANCH   9  12
ENDBRANCH   7   8
BRANCH   7  18
ATOM     18  C   UNL     1      22.504 -32.082  22.480  1.00  0.00     0.073 C 
BRANCH  18  19
ATOM     19  C   UNL     1      23.708 -32.071  23.382  1.00  0.00    -0.016 A 
ATOM     20  C   UNL     1      24.314 -30.934  23.914  1.00  0.00     0.134 A 
ATOM     21  C   UNL     1      24.519 -33.135  23.745  1.00  0.00     0.006 A 
ATOM     22  N   UNL     1      25.437 -31.282  24.584  1.00  0.00    -0.191 N 
ATOM     23  C   UNL     1      25.560 -32.615  24.474  1.00  0.00     0.087 A 
ATOM     24  C   UNL     1      24.427 -34.503  23.481  1.00  0.00     0.011 A 
ATOM     25  C   UNL     1      26.580 -33.421  24.980  1.00  0.00     0.030 A 
ATOM     26  C   UNL     1      25.446 -35.339  23.971  1.00  0.00     0.001 A 
ATOM     27  C   UNL     1      26.516 -34.802  24.717  1.00  0.00     0.002 A 
BRANCH  22  28
ATOM     28  O   UNL     1      26.316 -30.448  25.253  1.00  0.00    -0.417 OA
ATOM     29  C   UNL     1      26.018 -29.895  26.528  1.00  0.00     0.313 C 
ENDBRANCH  22  28
ENDBRANCH  18  19
ENDBRANCH   7  18
ENDBRANCH   4   7
ENDBRANCH   2   3
BRANCH   2  30
ATOM     30  N   UNL     1      17.351 -32.018  21.465  1.00  0.00    -0.343 N 
ATOM     31  C   UNL     1      16.961 -33.208  20.758  1.00  0.00     0.243 C 
ATOM     32  H   UNL     1      17.150 -31.952  22.488  1.00  0.00     0.164 HD
ATOM     33  O   UNL     1      17.217 -33.325  19.528  1.00  0.00    -0.273 OA
BRANCH  31  34
ATOM     34  C   UNL     1      16.221 -34.326  21.455  1.00  0.00     0.174 C 
ATOM     35  N   UNL     1      16.943 -34.761  22.668  1.00  0.00    -0.329 N 
ATOM     36  C   UNL     1      14.766 -33.910  21.767  1.00  0.00     0.035 C 
ATOM     37  C   UNL     1      16.191 -34.928  23.919  1.00  0.00     0.120 C 
ATOM     38  C   UNL     1      14.667 -33.048  23.034  1.00  0.00     0.004 C 
ATOM     39  C   UNL     1      15.410 -33.650  24.249  1.00  0.00     0.022 C 
BRANCH  35  40
ATOM     40  C   UNL     1      18.282 -35.284  22.534  1.00  0.00     0.246 CG0
ATOM     41  O   UNL     1      18.622 -35.835  21.451  1.00  0.00    -0.272 OA
ATOM     42  G   UNL     1      19.332 -35.048  23.605  1.00  0.00     0.000 G0
ENDBRANCH  35  40
ENDBRANCH  31  34
ENDBRANCH   2  30
ENDBRANCH   1   2
BRANCH   1  43
ATOM     43  C   UNL     1      16.465 -29.641  22.119  1.00  0.00     0.003 C 
BRANCH  43  44
ATOM     44  C   UNL     1      15.461 -28.555  21.694  1.00  0.00     0.001 C 
BRANCH  44  45
ATOM     45  C   UNL     1      14.356 -28.260  22.724  1.00  0.00     0.008 C 
BRANCH  45  46
ATOM     46  C   UNL     1      13.642 -29.529  23.213  1.00  0.00     0.075 C 
BRANCH  46  47
ATOM     47  C   UNL     1      12.202 -29.531  22.771  1.00  0.00     0.132 C 
ATOM     48  O   UNL     1      11.458 -28.633  23.140  1.00  0.00    -0.300 OA
BRANCH  47  49
ATOM     49  C   UNL     1      11.661 -30.617  21.877  1.00  0.00     0.072 C 
ATOM     50  C   UNL     1      12.686 -31.010  20.817  1.00  0.00     0.012 C 
ENDBRANCH  47  49
ENDBRANCH  46  47
ENDBRANCH  45  46
ENDBRANCH  44  45
ENDBRANCH  43  44
ENDBRANCH   1  43
TORSDOF 12
ENDMDL
MODEL 9
REMARK VINA RESULT:    -6.073      2.753      9.252
REMARK INTER + INTRA:         -14.718
REMARK INTER:                 -11.756
REMARK INTRA:                  -2.962
REMARK UNBOUND:                -1.899
REMARK SMILES CCC(=O)CCCCC[C@@H]1NC(=O)[C@@H]2CCCCN2C(=O)[C@@H]([C@@H](C)CC)NC(=O)[C@@H](Cc2cn(OC)c3ccccc23)NC1=O
REMARK SMILES IDX 9 1 10 2 44 3 43 4 45 6 30 7 28 8 27 9 29 11 22 12 23 14
REMARK SMILES IDX 24 15 25 16 26 17 31 18 32 19 33 20 42 21 34 22 37 23 41 24
REMARK SMILES IDX 38 25 40 26 39 27 35 28 36 29 11 30 12 31 13 33 14 34 19 35
REMARK SMILES IDX 15 36 18 37 16 38 17 39 20 40 21 41 8 43 7 44 6 45 5 46 3 47
REMARK SMILES IDX 4 48 2 49 1 50
REMARK H PARENT 43 5 27 10 11 32
REMARK Flexibility Score: 80.00
ROOT
ATOM      1  C   UNL     1      21.870 -33.292  24.327  1.00  0.00     0.035 C 
ENDROOT
BRANCH   1   2
ATOM      2  C   UNL     1      22.106 -32.125  23.349  1.00  0.00     0.171 C 
BRANCH   2   3
ATOM      3  C   UNL     1      20.960 -31.836  22.409  1.00  0.00     0.243 C 
ATOM      4  N   UNL     1      19.854 -30.984  22.778  1.00  0.00    -0.342 N 
ATOM      5  H   UNL     1      19.580 -30.921  23.781  1.00  0.00     0.164 HD
ATOM      6  O   UNL     1      21.026 -32.317  21.247  1.00  0.00    -0.273 OA
BRANCH   4   7
ATOM      7  C   UNL     1      19.176 -30.041  21.875  1.00  0.00     0.175 C 
BRANCH   7   8
ATOM      8  C   UNL     1      19.965 -28.761  21.756  1.00  0.00     0.243 C 
ATOM      9  N   UNL     1      21.399 -28.757  21.830  1.00  0.00    -0.342 N 
ATOM     10  H   UNL     1      21.914 -29.651  21.679  1.00  0.00     0.164 HD
ATOM     11  O   UNL     1      19.342 -27.673  21.624  1.00  0.00    -0.273 OA
BRANCH   9  12
ATOM     12  C   UNL     1      22.158 -27.533  22.109  1.00  0.00     0.174 CG0
ATOM     13  G   UNL     1      23.364 -27.869  22.967  1.00  0.00     0.000 G0
BRANCH  12  14
ATOM     14  C   UNL     1      22.505 -26.792  20.784  1.00  0.00     0.018 C 
ATOM     15  C   UNL     1      22.081 -27.625  19.562  1.00  0.00     0.010 C 
BRANCH  14  16
ATOM     16  C   UNL     1      21.927 -25.354  20.709  1.00  0.00     0.002 C 
ATOM     17  C   UNL     1      22.874 -24.308  21.301  1.00  0.00     0.004 C 
ENDBRANCH  14  16
ENDBRANCH  12  14
ENDBRANCH   9  12
ENDBRANCH   7   8
BRANCH   7  18
ATOM     18  C   UNL     1      18.818 -30.661  20.507  1.00  0.00     0.073 C 
BRANCH  18  19
ATOM     19  C   UNL     1      17.600 -31.537  20.611  1.00  0.00    -0.016 A 
ATOM     20  C   UNL     1      16.414 -31.205  21.264  1.00  0.00     0.134 A 
ATOM     21  C   UNL     1      17.455 -32.859  20.219  1.00  0.00     0.006 A 
ATOM     22  N   UNL     1      15.573 -32.266  21.262  1.00  0.00    -0.191 N 
ATOM     23  C   UNL     1      16.211 -33.267  20.633  1.00  0.00     0.087 A 
ATOM     24  C   UNL     1      18.319 -33.725  19.547  1.00  0.00     0.011 A 
ATOM     25  C   UNL     1      15.750 -34.565  20.413  1.00  0.00     0.030 A 
ATOM     26  C   UNL     1      17.886 -35.044  19.319  1.00  0.00     0.001 A 
ATOM     27  C   UNL     1      16.608 -35.461  19.748  1.00  0.00     0.002 A 
BRANCH  22  28
ATOM     28  O   UNL     1      14.303 -32.340  21.805  1.00  0.00    -0.417 OA
ATOM     29  C   UNL     1      13.991 -31.804  23.084  1.00  0.00     0.313 C 
ENDBRANCH  22  28
ENDBRANCH  18  19
ENDBRANCH   7  18
ENDBRANCH   4   7
ENDBRANCH   2   3
BRANCH   2  30
ATOM     30  N   UNL     1      22.411 -30.902  24.095  1.00  0.00    -0.343 N 
ATOM     31  C   UNL     1      23.758 -30.511  24.415  1.00  0.00     0.243 C 
ATOM     32  H   UNL     1      21.639 -30.214  24.241  1.00  0.00     0.164 HD
ATOM     33  O   UNL     1      24.712 -31.314  24.221  1.00  0.00    -0.273 OA
BRANCH  31  34
ATOM     34  C   UNL     1      24.059 -29.155  25.008  1.00  0.00     0.174 C 
ATOM     35  N   UNL     1      23.227 -28.108  24.382  1.00  0.00    -0.329 N 
ATOM     36  C   UNL     1      23.897 -29.180  26.545  1.00  0.00     0.035 C 
ATOM     37  C   UNL     1      22.535 -27.141  25.246  1.00  0.00     0.120 C 
ATOM     38  C   UNL     1      22.429 -29.048  26.977  1.00  0.00     0.004 C 
ATOM     39  C   UNL     1      21.690 -27.872  26.297  1.00  0.00     0.022 C 
BRANCH  35  40
ATOM     40  C   UNL     1      23.343 -27.880  22.961  1.00  0.00     0.246 CG0
ATOM     41  O   UNL     1      24.450 -28.088  22.393  1.00  0.00    -0.272 OA
ATOM     42  G   UNL     1      22.129 -27.547  22.114  1.00  0.00     0.000 G0
ENDBRANCH  35  40
ENDBRANCH  31  34
ENDBRANCH   2  30
ENDBRANCH   1   2
BRANCH   1  43
ATOM     43  C   UNL     1      22.533 -34.595  23.841  1.00  0.00     0.003 C 
BRANCH  43  44
ATOM     44  C   UNL     1      21.658 -35.372  22.842  1.00  0.00     0.001 C 
BRANCH  44  45
ATOM     45  C   UNL     1      20.402 -36.020  23.452  1.00  0.00     0.008 C 
BRANCH  45  46
ATOM     46  C   UNL     1      19.097 -35.423  22.906  1.00  0.00     0.075 C 
BRANCH  46  47
ATOM     47  C   UNL     1      18.476 -34.493  23.916  1.00  0.00     0.132 C 
ATOM     48  O   UNL     1      18.152 -33.364  23.575  1.00  0.00    -0.300 OA
BRANCH  47  49
ATOM     49  C   UNL     1      18.240 -34.931  25.338  1.00  0.00     0.072 C 
ATOM     50  C   UNL     1      17.142 -35.988  25.408  1.00  0.00     0.012 C 
ENDBRANCH  47  49
ENDBRANCH  46  47
ENDBRANCH  45  46
ENDBRANCH  44  45
ENDBRANCH  43  44
ENDBRANCH   1  43
TORSDOF 12
ENDMDL
