MODEL 1
REMARK VINA RESULT:    -6.879      0.000      0.000
REMARK INTER + INTRA:         -10.445
REMARK INTER:                  -9.493
REMARK INTRA:                  -0.953
REMARK UNBOUND:                -0.953
REMARK SMILES CC[C@H](CC[C@@H](C)[C@H]1CC[C@H]2[C@H]3CC=C4C[C@H](O)CC[C@]4(C)[C@@H]3CC[C@]12C)C(C)C
REMARK SMILES IDX 5 1 4 2 3 3 2 4 1 5 28 6 29 7 30 8 6 9 7 10 8 11 9 12 26 13
REMARK SMILES IDX 10 14 11 15 25 16 27 17 12 18 24 19 23 20 13 21 21 22 14 23
REMARK SMILES IDX 15 24 20 25 22 26 16 27 19 28 17 29 18 30
REMARK H PARENT 18 31
REMARK Flexibility Score: inf
ROOT
ATOM      1  C   UNL     1       4.661   3.729  15.466  1.00  0.00     0.004 C 
ENDROOT
BRANCH   1   2
ATOM      2  C   UNL     1       4.196   2.580  16.394  1.00  0.00     0.004 C 
BRANCH   2   3
ATOM      3  C   UNL     1       5.317   1.931  17.273  1.00  0.00    -0.009 C 
BRANCH   3   4
ATOM      4  C   UNL     1       5.017   2.206  18.778  1.00  0.00     0.000 C 
ATOM      5  C   UNL     1       5.921   3.283  19.385  1.00  0.00     0.004 C 
ENDBRANCH   3   4
BRANCH   3   6
ATOM      6  C   UNL     1       5.450   0.390  16.988  1.00  0.00    -0.014 C 
ATOM      7  C   UNL     1       6.923  -0.066  16.947  1.00  0.00     0.007 C 
ATOM      8  C   UNL     1       4.703  -0.477  18.028  1.00  0.00     0.007 C 
ENDBRANCH   3   6
ENDBRANCH   2   3
ENDBRANCH   1   2
BRANCH   1   9
ATOM      9  C   UNL     1       5.453   4.861  16.181  1.00  0.00    -0.011 C 
ATOM     10  C   UNL     1       6.253   5.713  15.166  1.00  0.00     0.008 C 
BRANCH   9  11
ATOM     11  C   UNL     1       4.548   5.655  17.196  1.00  0.00    -0.002 C 
ATOM     12  C   UNL     1       5.320   6.672  18.089  1.00  0.00     0.005 C 
ATOM     13  C   UNL     1       3.261   6.412  16.720  1.00  0.00    -0.026 C 
ATOM     14  C   UNL     1       4.360   7.837  18.371  1.00  0.00     0.005 C 
ATOM     15  C   UNL     1       3.006   7.290  17.958  1.00  0.00    -0.001 C 
ATOM     16  C   UNL     1       1.999   5.500  16.496  1.00  0.00     0.007 C 
ATOM     17  C   UNL     1       3.567   7.250  15.445  1.00  0.00     0.012 C 
ATOM     18  C   UNL     1       1.763   8.221  17.910  1.00  0.00     0.000 C 
ATOM     19  C   UNL     1       0.657   6.099  17.025  1.00  0.00     0.005 C 
ATOM     20  C   UNL     1       0.646   7.649  16.998  1.00  0.00     0.003 C 
ATOM     21  C   UNL     1       1.996   9.685  17.526  1.00  0.00     0.031 C 
ATOM     22  C   UNL     1      -0.733   8.351  17.293  1.00  0.00    -0.008 C 
ATOM     23  C   UNL     1       0.697  10.444  17.654  1.00  0.00    -0.027 C 
ATOM     24  C   UNL     1      -0.528   9.858  17.565  1.00  0.00    -0.065 C 
ATOM     25  C   UNL     1      -1.441   7.725  18.536  1.00  0.00     0.014 C 
ATOM     26  C   UNL     1      -1.641   8.191  16.042  1.00  0.00     0.016 C 
ATOM     27  C   UNL     1      -1.743  10.652  17.991  1.00  0.00     0.063 C 
ATOM     28  C   UNL     1      -2.671   8.529  19.017  1.00  0.00     0.033 C 
ATOM     29  C   UNL     1      -2.352  10.015  19.252  1.00  0.00     0.118 C 
BRANCH  29  30
ATOM     30  O   UNL     1      -1.470  10.139  20.338  1.00  0.00    -0.393 OA
ATOM     31  H   UNL     1      -0.637  10.544  19.985  1.00  0.00     0.210 HD
ENDBRANCH  29  30
ENDBRANCH   9  11
ENDBRANCH   1   9
TORSDOF 7
ENDMDL
MODEL 2
REMARK VINA RESULT:    -6.808      2.509      4.574
REMARK INTER + INTRA:         -10.348
REMARK INTER:                  -8.970
REMARK INTRA:                  -1.377
REMARK UNBOUND:                -0.953
REMARK SMILES CC[C@H](CC[C@@H](C)[C@H]1CC[C@H]2[C@H]3CC=C4C[C@H](O)CC[C@]4(C)[C@@H]3CC[C@]12C)C(C)C
REMARK SMILES IDX 5 1 4 2 3 3 2 4 1 5 28 6 29 7 30 8 6 9 7 10 8 11 9 12 26 13
REMARK SMILES IDX 10 14 11 15 25 16 27 17 12 18 24 19 23 20 13 21 21 22 14 23
REMARK SMILES IDX 15 24 20 25 22 26 16 27 19 28 17 29 18 30
REMARK H PARENT 18 31
REMARK Flexibility Score: inf
ROOT
ATOM      1  C   UNL     1       7.358   7.151  18.522  1.00  0.00     0.004 C 
ENDROOT
BRANCH   1   2
ATOM      2  C   UNL     1       7.416   6.485  19.918  1.00  0.00     0.004 C 
BRANCH   2   3
ATOM      3  C   UNL     1       7.001   7.401  21.118  1.00  0.00    -0.009 C 
BRANCH   3   4
ATOM      4  C   UNL     1       6.331   8.698  20.569  1.00  0.00     0.000 C 
ATOM      5  C   UNL     1       7.055   9.977  20.997  1.00  0.00     0.004 C 
ENDBRANCH   3   4
BRANCH   3   6
ATOM      6  C   UNL     1       6.051   6.645  22.117  1.00  0.00    -0.014 C 
ATOM      7  C   UNL     1       4.562   6.902  21.809  1.00  0.00     0.007 C 
ATOM      8  C   UNL     1       6.287   5.116  22.125  1.00  0.00     0.007 C 
ENDBRANCH   3   6
ENDBRANCH   2   3
ENDBRANCH   1   2
BRANCH   1   9
ATOM      9  C   UNL     1       7.104   6.167  17.343  1.00  0.00    -0.011 C 
ATOM     10  C   UNL     1       7.268   4.696  17.796  1.00  0.00     0.008 C 
BRANCH   9  11
ATOM     11  C   UNL     1       5.778   6.514  16.568  1.00  0.00    -0.002 C 
ATOM     12  C   UNL     1       5.440   5.540  15.400  1.00  0.00     0.005 C 
ATOM     13  C   UNL     1       4.425   6.738  17.329  1.00  0.00    -0.026 C 
ATOM     14  C   UNL     1       3.908   5.469  15.306  1.00  0.00     0.005 C 
ATOM     15  C   UNL     1       3.446   6.648  16.144  1.00  0.00    -0.001 C 
ATOM     16  C   UNL     1       4.264   8.154  17.993  1.00  0.00     0.007 C 
ATOM     17  C   UNL     1       4.201   5.610  18.377  1.00  0.00     0.012 C 
ATOM     18  C   UNL     1       1.939   6.840  16.468  1.00  0.00     0.000 C 
ATOM     19  C   UNL     1       2.851   8.798  17.827  1.00  0.00     0.005 C 
ATOM     20  C   UNL     1       1.724   7.738  17.715  1.00  0.00     0.003 C 
ATOM     21  C   UNL     1       1.090   5.576  16.633  1.00  0.00     0.031 C 
ATOM     22  C   UNL     1       0.244   8.272  17.772  1.00  0.00    -0.008 C 
ATOM     23  C   UNL     1      -0.356   5.972  16.821  1.00  0.00    -0.027 C 
ATOM     24  C   UNL     1      -0.747   7.177  17.316  1.00  0.00    -0.065 C 
ATOM     25  C   UNL     1       0.047   9.518  16.853  1.00  0.00     0.014 C 
ATOM     26  C   UNL     1      -0.082   8.654  19.243  1.00  0.00     0.016 C 
ATOM     27  C   UNL     1      -2.201   7.572  17.194  1.00  0.00     0.063 C 
ATOM     28  C   UNL     1      -1.433   9.932  16.681  1.00  0.00     0.033 C 
ATOM     29  C   UNL     1      -2.326   8.765  16.229  1.00  0.00     0.118 C 
BRANCH  29  30
ATOM     30  O   UNL     1      -1.970   8.379  14.926  1.00  0.00    -0.393 OA
ATOM     31  H   UNL     1      -1.176   7.792  15.009  1.00  0.00     0.210 HD
ENDBRANCH  29  30
ENDBRANCH   9  11
ENDBRANCH   1   9
TORSDOF 7
ENDMDL
MODEL 3
REMARK VINA RESULT:    -6.739      1.931      3.549
REMARK INTER + INTRA:         -10.252
REMARK INTER:                  -8.033
REMARK INTRA:                  -2.220
REMARK UNBOUND:                -0.953
REMARK SMILES CC[C@H](CC[C@@H](C)[C@H]1CC[C@H]2[C@H]3CC=C4C[C@H](O)CC[C@]4(C)[C@@H]3CC[C@]12C)C(C)C
REMARK SMILES IDX 5 1 4 2 3 3 2 4 1 5 28 6 29 7 30 8 6 9 7 10 8 11 9 12 26 13
REMARK SMILES IDX 10 14 11 15 25 16 27 17 12 18 24 19 23 20 13 21 21 22 14 23
REMARK SMILES IDX 15 24 20 25 22 26 16 27 19 28 17 29 18 30
REMARK H PARENT 18 31
REMARK Flexibility Score: inf
ROOT
ATOM      1  C   UNL     1       7.571   6.146  16.911  1.00  0.00     0.004 C 
ENDROOT
BRANCH   1   2
ATOM      2  C   UNL     1       7.796   4.769  17.581  1.00  0.00     0.004 C 
BRANCH   2   3
ATOM      3  C   UNL     1       6.603   4.241  18.447  1.00  0.00    -0.009 C 
BRANCH   3   4
ATOM      4  C   UNL     1       6.104   2.884  17.865  1.00  0.00     0.000 C 
ATOM      5  C   UNL     1       4.610   2.887  17.527  1.00  0.00     0.004 C 
ENDBRANCH   3   4
BRANCH   3   6
ATOM      6  C   UNL     1       7.009   4.101  19.960  1.00  0.00    -0.014 C 
ATOM      7  C   UNL     1       8.504   4.403  20.189  1.00  0.00     0.007 C 
ATOM      8  C   UNL     1       6.181   5.018  20.890  1.00  0.00     0.007 C 
ENDBRANCH   3   6
ENDBRANCH   2   3
ENDBRANCH   1   2
BRANCH   1   9
ATOM      9  C   UNL     1       6.535   7.058  17.631  1.00  0.00    -0.011 C 
ATOM     10  C   UNL     1       7.192   8.368  18.129  1.00  0.00     0.008 C 
BRANCH   9  11
ATOM     11  C   UNL     1       5.214   7.217  16.789  1.00  0.00    -0.002 C 
ATOM     12  C   UNL     1       4.999   6.113  15.712  1.00  0.00     0.005 C 
ATOM     13  C   UNL     1       3.821   7.397  17.486  1.00  0.00    -0.026 C 
ATOM     14  C   UNL     1       3.483   5.905  15.582  1.00  0.00     0.005 C 
ATOM     15  C   UNL     1       2.896   7.114  16.288  1.00  0.00    -0.001 C 
ATOM     16  C   UNL     1       3.521   8.851  18.005  1.00  0.00     0.007 C 
ATOM     17  C   UNL     1       3.651   6.359  18.631  1.00  0.00     0.012 C 
ATOM     18  C   UNL     1       1.367   7.208  16.549  1.00  0.00     0.000 C 
ATOM     19  C   UNL     1       2.068   9.355  17.737  1.00  0.00     0.005 C 
ATOM     20  C   UNL     1       1.035   8.198  17.696  1.00  0.00     0.003 C 
ATOM     21  C   UNL     1       0.618   5.899  16.811  1.00  0.00     0.031 C 
ATOM     22  C   UNL     1      -0.484   8.609  17.659  1.00  0.00    -0.008 C 
ATOM     23  C   UNL     1      -0.860   6.187  16.919  1.00  0.00    -0.027 C 
ATOM     24  C   UNL     1      -1.365   7.396  17.284  1.00  0.00    -0.065 C 
ATOM     25  C   UNL     1      -0.748   9.742  16.618  1.00  0.00     0.014 C 
ATOM     26  C   UNL     1      -0.893   9.099  19.076  1.00  0.00     0.016 C 
ATOM     27  C   UNL     1      -2.842   7.654  17.082  1.00  0.00     0.063 C 
ATOM     28  C   UNL     1      -2.249  10.012  16.365  1.00  0.00     0.033 C 
ATOM     29  C   UNL     1      -3.028   8.736  16.003  1.00  0.00     0.118 C 
BRANCH  29  30
ATOM     30  O   UNL     1      -2.594   8.260  14.754  1.00  0.00    -0.393 OA
ATOM     31  H   UNL     1      -2.757   8.987  14.100  1.00  0.00     0.210 HD
ENDBRANCH  29  30
ENDBRANCH   9  11
ENDBRANCH   1   9
TORSDOF 7
ENDMDL
MODEL 4
REMARK VINA RESULT:    -5.280      1.580      2.985
REMARK INTER + INTRA:          -8.240
REMARK INTER:                  -7.046
REMARK INTRA:                  -1.194
REMARK UNBOUND:                -0.953
REMARK SMILES CC[C@H](CC[C@@H](C)[C@H]1CC[C@H]2[C@H]3CC=C4C[C@H](O)CC[C@]4(C)[C@@H]3CC[C@]12C)C(C)C
REMARK SMILES IDX 5 1 4 2 3 3 2 4 1 5 28 6 29 7 30 8 6 9 7 10 8 11 9 12 26 13
REMARK SMILES IDX 10 14 11 15 25 16 27 17 12 18 24 19 23 20 13 21 21 22 14 23
REMARK SMILES IDX 15 24 20 25 22 26 16 27 19 28 17 29 18 30
REMARK H PARENT 18 31
REMARK Flexibility Score: inf
ROOT
ATOM      1  C   UNL     1       7.303   4.351  17.344  1.00  0.00     0.004 C 
ENDROOT
BRANCH   1   2
ATOM      2  C   UNL     1       6.628   3.245  18.191  1.00  0.00     0.004 C 
BRANCH   2   3
ATOM      3  C   UNL     1       5.583   2.360  17.431  1.00  0.00    -0.009 C 
BRANCH   3   4
ATOM      4  C   UNL     1       5.734   2.587  15.896  1.00  0.00     0.000 C 
ATOM      5  C   UNL     1       4.399   2.849  15.192  1.00  0.00     0.004 C 
ENDBRANCH   3   4
BRANCH   3   6
ATOM      6  C   UNL     1       5.740   0.840  17.803  1.00  0.00    -0.014 C 
ATOM      7  C   UNL     1       4.379   0.118  17.876  1.00  0.00     0.007 C 
ATOM      8  C   UNL     1       6.643   0.071  16.810  1.00  0.00     0.007 C 
ENDBRANCH   3   6
ENDBRANCH   2   3
ENDBRANCH   1   2
BRANCH   1   9
ATOM      9  C   UNL     1       7.085   5.798  17.874  1.00  0.00    -0.011 C 
ATOM     10  C   UNL     1       8.421   6.577  17.943  1.00  0.00     0.008 C 
BRANCH   9  11
ATOM     11  C   UNL     1       5.897   6.518  17.132  1.00  0.00    -0.002 C 
ATOM     12  C   UNL     1       5.667   6.041  15.667  1.00  0.00     0.005 C 
ATOM     13  C   UNL     1       4.468   6.602  17.772  1.00  0.00    -0.026 C 
ATOM     14  C   UNL     1       4.161   6.158  15.390  1.00  0.00     0.005 C 
ATOM     15  C   UNL     1       3.655   7.020  16.534  1.00  0.00    -0.001 C 
ATOM     16  C   UNL     1       4.297   7.715  18.870  1.00  0.00     0.007 C 
ATOM     17  C   UNL     1       4.042   5.213  18.327  1.00  0.00     0.012 C 
ATOM     18  C   UNL     1       2.131   7.238  16.739  1.00  0.00     0.000 C 
ATOM     19  C   UNL     1       2.957   8.514  18.789  1.00  0.00     0.005 C 
ATOM     20  C   UNL     1       1.799   7.673  18.191  1.00  0.00     0.003 C 
ATOM     21  C   UNL     1       1.199   6.085  16.357  1.00  0.00     0.031 C 
ATOM     22  C   UNL     1       0.357   8.299  18.272  1.00  0.00    -0.008 C 
ATOM     23  C   UNL     1      -0.234   6.533  16.515  1.00  0.00    -0.027 C 
ATOM     24  C   UNL     1      -0.622   7.530  17.357  1.00  0.00    -0.065 C 
ATOM     25  C   UNL     1       0.355   9.798  17.833  1.00  0.00     0.014 C 
ATOM     26  C   UNL     1      -0.144   8.187  19.739  1.00  0.00     0.016 C 
ATOM     27  C   UNL     1      -2.022   8.085  17.225  1.00  0.00     0.063 C 
ATOM     28  C   UNL     1      -1.062  10.390  17.660  1.00  0.00     0.033 C 
ATOM     29  C   UNL     1      -1.949   9.541  16.733  1.00  0.00     0.118 C 
BRANCH  29  30
ATOM     30  O   UNL     1      -1.441   9.590  15.424  1.00  0.00    -0.393 OA
ATOM     31  H   UNL     1      -1.443  10.544  15.153  1.00  0.00     0.210 HD
ENDBRANCH  29  30
ENDBRANCH   9  11
ENDBRANCH   1   9
TORSDOF 7
ENDMDL
MODEL 5
REMARK VINA RESULT:    -5.273      2.833      7.981
REMARK INTER + INTRA:          -8.229
REMARK INTER:                  -6.737
REMARK INTRA:                  -1.492
REMARK UNBOUND:                -0.953
REMARK SMILES CC[C@H](CC[C@@H](C)[C@H]1CC[C@H]2[C@H]3CC=C4C[C@H](O)CC[C@]4(C)[C@@H]3CC[C@]12C)C(C)C
REMARK SMILES IDX 5 1 4 2 3 3 2 4 1 5 28 6 29 7 30 8 6 9 7 10 8 11 9 12 26 13
REMARK SMILES IDX 10 14 11 15 25 16 27 17 12 18 24 19 23 20 13 21 21 22 14 23
REMARK SMILES IDX 15 24 20 25 22 26 16 27 19 28 17 29 18 30
REMARK H PARENT 18 31
REMARK Flexibility Score: inf
ROOT
ATOM      1  C   UNL     1      -1.137   9.363  17.648  1.00  0.00     0.004 C 
ENDROOT
BRANCH   1   2
ATOM      2  C   UNL     1      -2.435   8.524  17.745  1.00  0.00     0.004 C 
BRANCH   2   3
ATOM      3  C   UNL     1      -2.618   7.723  19.078  1.00  0.00    -0.009 C 
BRANCH   3   4
ATOM      4  C   UNL     1      -2.125   6.259  18.872  1.00  0.00     0.000 C 
ATOM      5  C   UNL     1      -2.132   5.821  17.404  1.00  0.00     0.004 C 
ENDBRANCH   3   4
BRANCH   3   6
ATOM      6  C   UNL     1      -1.868   8.418  20.273  1.00  0.00    -0.014 C 
ATOM      7  C   UNL     1      -2.834   9.194  21.191  1.00  0.00     0.007 C 
ATOM      8  C   UNL     1      -1.073   7.416  21.143  1.00  0.00     0.007 C 
ENDBRANCH   3   6
ENDBRANCH   2   3
ENDBRANCH   1   2
BRANCH   1   9
ATOM      9  C   UNL     1      -0.310   9.130  16.350  1.00  0.00    -0.011 C 
ATOM     10  C   UNL     1      -0.876   9.955  15.169  1.00  0.00     0.008 C 
BRANCH   9  11
ATOM     11  C   UNL     1       1.237   9.262  16.613  1.00  0.00    -0.002 C 
ATOM     12  C   UNL     1       1.626  10.382  17.623  1.00  0.00     0.005 C 
ATOM     13  C   UNL     1       2.104   8.019  17.015  1.00  0.00    -0.026 C 
ATOM     14  C   UNL     1       2.886   9.903  18.359  1.00  0.00     0.005 C 
ATOM     15  C   UNL     1       3.370   8.739  17.513  1.00  0.00    -0.001 C 
ATOM     16  C   UNL     1       2.511   7.080  15.821  1.00  0.00     0.007 C 
ATOM     17  C   UNL     1       1.397   7.207  18.138  1.00  0.00     0.012 C 
ATOM     18  C   UNL     1       4.536   7.839  18.007  1.00  0.00     0.000 C 
ATOM     19  C   UNL     1       3.986   6.570  15.862  1.00  0.00     0.005 C 
ATOM     20  C   UNL     1       4.535   6.454  17.308  1.00  0.00     0.003 C 
ATOM     21  C   UNL     1       4.661   7.617  19.517  1.00  0.00     0.031 C 
ATOM     22  C   UNL     1       5.927   5.738  17.481  1.00  0.00    -0.008 C 
ATOM     23  C   UNL     1       5.914   6.824  19.799  1.00  0.00    -0.027 C 
ATOM     24  C   UNL     1       6.497   5.991  18.894  1.00  0.00    -0.065 C 
ATOM     25  C   UNL     1       6.969   6.252  16.438  1.00  0.00     0.014 C 
ATOM     26  C   UNL     1       5.717   4.209  17.296  1.00  0.00     0.016 C 
ATOM     27  C   UNL     1       7.890   5.475  19.177  1.00  0.00     0.063 C 
ATOM     28  C   UNL     1       8.411   5.767  16.714  1.00  0.00     0.033 C 
ATOM     29  C   UNL     1       8.872   6.067  18.151  1.00  0.00     0.118 C 
BRANCH  29  30
ATOM     30  O   UNL     1       8.984   7.456  18.326  1.00  0.00    -0.393 OA
ATOM     31  H   UNL     1       9.947   7.677  18.254  1.00  0.00     0.210 HD
ENDBRANCH  29  30
ENDBRANCH   9  11
ENDBRANCH   1   9
TORSDOF 7
ENDMDL
MODEL 6
REMARK VINA RESULT:    -5.145      2.787      7.892
REMARK INTER + INTRA:          -8.054
REMARK INTER:                  -7.056
REMARK INTRA:                  -0.997
REMARK UNBOUND:                -0.953
REMARK SMILES CC[C@H](CC[C@@H](C)[C@H]1CC[C@H]2[C@H]3CC=C4C[C@H](O)CC[C@]4(C)[C@@H]3CC[C@]12C)C(C)C
REMARK SMILES IDX 5 1 4 2 3 3 2 4 1 5 28 6 29 7 30 8 6 9 7 10 8 11 9 12 26 13
REMARK SMILES IDX 10 14 11 15 25 16 27 17 12 18 24 19 23 20 13 21 21 22 14 23
REMARK SMILES IDX 15 24 20 25 22 26 16 27 19 28 17 29 18 30
REMARK H PARENT 18 31
REMARK Flexibility Score: inf
ROOT
ATOM      1  C   UNL     1      -1.711   8.559  17.705  1.00  0.00     0.004 C 
ENDROOT
BRANCH   1   2
ATOM      2  C   UNL     1      -2.948   8.567  18.635  1.00  0.00     0.004 C 
BRANCH   2   3
ATOM      3  C   UNL     1      -3.123   7.295  19.531  1.00  0.00    -0.009 C 
BRANCH   3   4
ATOM      4  C   UNL     1      -2.249   6.137  18.961  1.00  0.00     0.000 C 
ATOM      5  C   UNL     1      -3.042   5.155  18.094  1.00  0.00     0.004 C 
ENDBRANCH   3   4
BRANCH   3   6
ATOM      6  C   UNL     1      -2.764   7.597  21.033  1.00  0.00    -0.014 C 
ATOM      7  C   UNL     1      -1.386   7.027  21.425  1.00  0.00     0.007 C 
ATOM      8  C   UNL     1      -2.774   9.109  21.358  1.00  0.00     0.007 C 
ENDBRANCH   3   6
ENDBRANCH   2   3
ENDBRANCH   1   2
BRANCH   1   9
ATOM      9  C   UNL     1      -1.095   9.962  17.432  1.00  0.00    -0.011 C 
ATOM     10  C   UNL     1      -1.524  10.982  18.514  1.00  0.00     0.008 C 
BRANCH   9  11
ATOM     11  C   UNL     1       0.448   9.873  17.130  1.00  0.00    -0.002 C 
ATOM     12  C   UNL     1       1.279  11.079  17.660  1.00  0.00     0.005 C 
ATOM     13  C   UNL     1       1.279   8.597  17.505  1.00  0.00    -0.026 C 
ATOM     14  C   UNL     1       2.668  10.537  18.030  1.00  0.00     0.005 C 
ATOM     15  C   UNL     1       2.702   9.170  17.371  1.00  0.00    -0.001 C 
ATOM     16  C   UNL     1       1.138   7.395  16.501  1.00  0.00     0.007 C 
ATOM     17  C   UNL     1       0.950   8.145  18.956  1.00  0.00     0.012 C 
ATOM     18  C   UNL     1       3.877   8.192  17.650  1.00  0.00     0.000 C 
ATOM     19  C   UNL     1       2.474   6.656  16.172  1.00  0.00     0.005 C 
ATOM     20  C   UNL     1       3.492   6.721  17.339  1.00  0.00     0.003 C 
ATOM     21  C   UNL     1       4.514   8.239  19.041  1.00  0.00     0.031 C 
ATOM     22  C   UNL     1       4.778   5.822  17.206  1.00  0.00    -0.008 C 
ATOM     23  C   UNL     1       5.704   7.310  19.073  1.00  0.00    -0.027 C 
ATOM     24  C   UNL     1       5.840   6.234  18.249  1.00  0.00    -0.065 C 
ATOM     25  C   UNL     1       5.419   5.944  15.787  1.00  0.00     0.014 C 
ATOM     26  C   UNL     1       4.372   4.345  17.468  1.00  0.00     0.016 C 
ATOM     27  C   UNL     1       7.186   5.549  18.170  1.00  0.00     0.063 C 
ATOM     28  C   UNL     1       6.810   5.280  15.678  1.00  0.00     0.033 C 
ATOM     29  C   UNL     1       7.784   5.761  16.768  1.00  0.00     0.118 C 
BRANCH  29  30
ATOM     30  O   UNL     1       8.083   7.118  16.563  1.00  0.00    -0.393 OA
ATOM     31  H   UNL     1       8.765   7.155  15.846  1.00  0.00     0.210 HD
ENDBRANCH  29  30
ENDBRANCH   9  11
ENDBRANCH   1   9
TORSDOF 7
ENDMDL
MODEL 7
REMARK VINA RESULT:    -5.082      0.993      1.545
REMARK INTER + INTRA:          -7.965
REMARK INTER:                  -7.395
REMARK INTRA:                  -0.570
REMARK UNBOUND:                -0.953
REMARK SMILES CC[C@H](CC[C@@H](C)[C@H]1CC[C@H]2[C@H]3CC=C4C[C@H](O)CC[C@]4(C)[C@@H]3CC[C@]12C)C(C)C
REMARK SMILES IDX 5 1 4 2 3 3 2 4 1 5 28 6 29 7 30 8 6 9 7 10 8 11 9 12 26 13
REMARK SMILES IDX 10 14 11 15 25 16 27 17 12 18 24 19 23 20 13 21 21 22 14 23
REMARK SMILES IDX 15 24 20 25 22 26 16 27 19 28 17 29 18 30
REMARK H PARENT 18 31
REMARK Flexibility Score: inf
ROOT
ATOM      1  C   UNL     1       6.606   3.603  17.544  1.00  0.00     0.004 C 
ENDROOT
BRANCH   1   2
ATOM      2  C   UNL     1       5.254   2.985  17.976  1.00  0.00     0.004 C 
BRANCH   2   3
ATOM      3  C   UNL     1       4.560   2.074  16.908  1.00  0.00    -0.009 C 
BRANCH   3   4
ATOM      4  C   UNL     1       5.144   2.395  15.499  1.00  0.00     0.000 C 
ATOM      5  C   UNL     1       4.219   3.269  14.648  1.00  0.00     0.004 C 
ENDBRANCH   3   4
BRANCH   3   6
ATOM      6  C   UNL     1       4.720   0.550  17.262  1.00  0.00    -0.014 C 
ATOM      7  C   UNL     1       6.175   0.066  17.094  1.00  0.00     0.007 C 
ATOM      8  C   UNL     1       4.262   0.218  18.701  1.00  0.00     0.007 C 
ENDBRANCH   3   6
ENDBRANCH   2   3
ENDBRANCH   1   2
BRANCH   1   9
ATOM      9  C   UNL     1       6.571   5.142  17.312  1.00  0.00    -0.011 C 
ATOM     10  C   UNL     1       6.610   5.482  15.803  1.00  0.00     0.008 C 
BRANCH   9  11
ATOM     11  C   UNL     1       5.434   5.833  18.153  1.00  0.00    -0.002 C 
ATOM     12  C   UNL     1       5.940   6.901  19.168  1.00  0.00     0.005 C 
ATOM     13  C   UNL     1       4.184   6.478  17.459  1.00  0.00    -0.026 C 
ATOM     14  C   UNL     1       4.843   7.970  19.277  1.00  0.00     0.005 C 
ATOM     15  C   UNL     1       3.637   7.308  18.634  1.00  0.00    -0.001 C 
ATOM     16  C   UNL     1       3.071   5.459  17.018  1.00  0.00     0.007 C 
ATOM     17  C   UNL     1       4.629   7.361  16.258  1.00  0.00     0.012 C 
ATOM     18  C   UNL     1       2.341   8.123  18.369  1.00  0.00     0.000 C 
ATOM     19  C   UNL     1       1.607   5.923  17.303  1.00  0.00     0.005 C 
ATOM     20  C   UNL     1       1.458   7.467  17.275  1.00  0.00     0.003 C 
ATOM     21  C   UNL     1       2.501   9.608  18.032  1.00  0.00     0.031 C 
ATOM     22  C   UNL     1      -0.010   8.035  17.325  1.00  0.00    -0.008 C 
ATOM     23  C   UNL     1       1.135  10.243  17.931  1.00  0.00    -0.027 C 
ATOM     24  C   UNL     1       0.004   9.550  17.629  1.00  0.00    -0.065 C 
ATOM     25  C   UNL     1      -0.863   7.327  18.424  1.00  0.00     0.014 C 
ATOM     26  C   UNL     1      -0.667   7.814  15.934  1.00  0.00     0.016 C 
ATOM     27  C   UNL     1      -1.334  10.223  17.835  1.00  0.00     0.063 C 
ATOM     28  C   UNL     1      -2.227   8.007  18.682  1.00  0.00     0.033 C 
ATOM     29  C   UNL     1      -2.093   9.512  18.970  1.00  0.00     0.118 C 
BRANCH  29  30
ATOM     30  O   UNL     1      -1.429   9.699  20.194  1.00  0.00    -0.393 OA
ATOM     31  H   UNL     1      -1.975   9.245  20.886  1.00  0.00     0.210 HD
ENDBRANCH  29  30
ENDBRANCH   9  11
ENDBRANCH   1   9
TORSDOF 7
ENDMDL
MODEL 8
REMARK VINA RESULT:    -5.031      2.895      8.446
REMARK INTER + INTRA:          -7.895
REMARK INTER:                  -7.116
REMARK INTRA:                  -0.779
REMARK UNBOUND:                -0.953
REMARK SMILES CC[C@H](CC[C@@H](C)[C@H]1CC[C@H]2[C@H]3CC=C4C[C@H](O)CC[C@]4(C)[C@@H]3CC[C@]12C)C(C)C
REMARK SMILES IDX 5 1 4 2 3 3 2 4 1 5 28 6 29 7 30 8 6 9 7 10 8 11 9 12 26 13
REMARK SMILES IDX 10 14 11 15 25 16 27 17 12 18 24 19 23 20 13 21 21 22 14 23
REMARK SMILES IDX 15 24 20 25 22 26 16 27 19 28 17 29 18 30
REMARK H PARENT 18 31
REMARK Flexibility Score: inf
ROOT
ATOM      1  C   UNL     1      -2.208  10.317  16.128  1.00  0.00     0.004 C 
ENDROOT
BRANCH   1   2
ATOM      2  C   UNL     1      -1.547   9.879  14.798  1.00  0.00     0.004 C 
BRANCH   2   3
ATOM      3  C   UNL     1      -1.813  10.818  13.574  1.00  0.00    -0.009 C 
BRANCH   3   4
ATOM      4  C   UNL     1      -0.464  11.122  12.854  1.00  0.00     0.000 C 
ATOM      5  C   UNL     1       0.763  10.760  13.696  1.00  0.00     0.004 C 
ENDBRANCH   3   4
BRANCH   3   6
ATOM      6  C   UNL     1      -2.861  10.188  12.584  1.00  0.00    -0.014 C 
ATOM      7  C   UNL     1      -2.443  10.361  11.110  1.00  0.00     0.007 C 
ATOM      8  C   UNL     1      -3.102   8.683  12.846  1.00  0.00     0.007 C 
ENDBRANCH   3   6
ENDBRANCH   2   3
ENDBRANCH   1   2
BRANCH   1   9
ATOM      9  C   UNL     1      -1.391   9.967  17.405  1.00  0.00    -0.011 C 
ATOM     10  C   UNL     1      -2.016   8.770  18.160  1.00  0.00     0.008 C 
BRANCH   9  11
ATOM     11  C   UNL     1       0.151   9.872  17.103  1.00  0.00    -0.002 C 
ATOM     12  C   UNL     1       0.988  11.074  17.634  1.00  0.00     0.005 C 
ATOM     13  C   UNL     1       0.977   8.592  17.476  1.00  0.00    -0.026 C 
ATOM     14  C   UNL     1       2.375  10.525  18.003  1.00  0.00     0.005 C 
ATOM     15  C   UNL     1       2.402   9.158  17.342  1.00  0.00    -0.001 C 
ATOM     16  C   UNL     1       0.829   7.391  16.471  1.00  0.00     0.007 C 
ATOM     17  C   UNL     1       0.646   8.139  18.927  1.00  0.00     0.012 C 
ATOM     18  C   UNL     1       3.573   8.174  17.620  1.00  0.00     0.000 C 
ATOM     19  C   UNL     1       2.162   6.647  16.141  1.00  0.00     0.005 C 
ATOM     20  C   UNL     1       3.181   6.706  17.308  1.00  0.00     0.003 C 
ATOM     21  C   UNL     1       4.211   8.217  19.011  1.00  0.00     0.031 C 
ATOM     22  C   UNL     1       4.463   5.801  17.173  1.00  0.00    -0.008 C 
ATOM     23  C   UNL     1       5.397   7.282  19.041  1.00  0.00    -0.027 C 
ATOM     24  C   UNL     1       5.527   6.207  18.216  1.00  0.00    -0.065 C 
ATOM     25  C   UNL     1       5.104   5.922  15.754  1.00  0.00     0.014 C 
ATOM     26  C   UNL     1       4.050   4.326  17.433  1.00  0.00     0.016 C 
ATOM     27  C   UNL     1       6.870   5.516  18.136  1.00  0.00     0.063 C 
ATOM     28  C   UNL     1       6.492   5.251  15.644  1.00  0.00     0.033 C 
ATOM     29  C   UNL     1       7.468   5.726  16.733  1.00  0.00     0.118 C 
BRANCH  29  30
ATOM     30  O   UNL     1       7.773   7.082  16.530  1.00  0.00    -0.393 OA
ATOM     31  H   UNL     1       8.754   7.138  16.397  1.00  0.00     0.210 HD
ENDBRANCH  29  30
ENDBRANCH   9  11
ENDBRANCH   1   9
TORSDOF 7
ENDMDL
