MODEL 1
REMARK VINA RESULT:    -7.148      0.000      0.000
REMARK INTER + INTRA:         -11.339
REMARK INTER:                  -9.864
REMARK INTRA:                  -1.475
REMARK UNBOUND:                -1.475
REMARK SMILES CC[C@H](CC[C@@H](C)[C@H]1CC[C@H]2[C@@H]3CC=C4C[C@@H](O)CC[C@@]4(C)[C@H]3CC[C@]12C)C(C)C
REMARK SMILES IDX 5 1 4 2 3 3 2 4 1 5 28 6 29 7 30 8 6 9 7 10 8 11 9 12 26 13
REMARK SMILES IDX 10 14 11 15 25 16 27 17 12 18 24 19 23 20 13 21 21 22 14 23
REMARK SMILES IDX 15 24 20 25 22 26 16 27 19 28 17 29 18 30
REMARK H PARENT 18 31
REMARK Flexibility Score: inf
ROOT
ATOM      1  C   UNL     1      31.844  29.057  14.645  1.00  0.00     0.004 C 
ENDROOT
BRANCH   1   2
ATOM      2  C   UNL     1      32.394  30.428  15.103  1.00  0.00     0.004 C 
BRANCH   2   3
ATOM      3  C   UNL     1      31.387  31.355  15.851  1.00  0.00    -0.009 C 
BRANCH   3   4
ATOM      4  C   UNL     1      30.854  32.535  14.990  1.00  0.00     0.000 C 
ATOM      5  C   UNL     1      31.823  33.720  14.961  1.00  0.00     0.004 C 
ENDBRANCH   3   4
BRANCH   3   6
ATOM      6  C   UNL     1      30.266  30.548  16.590  1.00  0.00    -0.014 C 
ATOM      7  C   UNL     1      28.850  30.796  16.050  1.00  0.00     0.007 C 
ATOM      8  C   UNL     1      30.297  30.769  18.113  1.00  0.00     0.007 C 
ENDBRANCH   3   6
ENDBRANCH   2   3
ENDBRANCH   1   2
BRANCH   1   9
ATOM      9  C   UNL     1      30.984  29.174  13.355  1.00  0.00    -0.011 C 
ATOM     10  C   UNL     1      31.896  29.052  12.118  1.00  0.00     0.008 C 
BRANCH   9  11
ATOM     11  C   UNL     1      29.796  28.153  13.242  1.00  0.00    -0.002 C 
ATOM     12  C   UNL     1      29.260  27.542  14.563  1.00  0.00     0.005 C 
ATOM     13  C   UNL     1      28.526  28.618  12.480  1.00  0.00    -0.026 C 
ATOM     14  C   UNL     1      27.772  27.224  14.317  1.00  0.00     0.005 C 
ATOM     15  C   UNL     1      27.573  27.466  12.824  1.00  0.00    -0.001 C 
ATOM     16  C   UNL     1      28.675  28.647  10.939  1.00  0.00     0.007 C 
ATOM     17  C   UNL     1      28.024  30.001  13.002  1.00  0.00     0.012 C 
ATOM     18  C   UNL     1      26.145  27.681  12.278  1.00  0.00     0.000 C 
ATOM     19  C   UNL     1      27.305  28.821  10.245  1.00  0.00     0.005 C 
ATOM     20  C   UNL     1      26.216  27.801  10.725  1.00  0.00     0.003 C 
ATOM     21  C   UNL     1      25.256  26.482  12.628  1.00  0.00     0.031 C 
ATOM     22  C   UNL     1      24.783  28.023  10.080  1.00  0.00    -0.008 C 
ATOM     23  C   UNL     1      23.899  26.626  12.015  1.00  0.00    -0.027 C 
ATOM     24  C   UNL     1      23.678  27.273  10.850  1.00  0.00    -0.065 C 
ATOM     25  C   UNL     1      24.388  29.534  10.068  1.00  0.00     0.014 C 
ATOM     26  C   UNL     1      24.828  27.484   8.626  1.00  0.00     0.016 C 
ATOM     27  C   UNL     1      22.243  27.496  10.414  1.00  0.00     0.063 C 
ATOM     28  C   UNL     1      22.927  29.805   9.652  1.00  0.00     0.033 C 
ATOM     29  C   UNL     1      21.916  28.992  10.476  1.00  0.00     0.118 C 
BRANCH  29  30
ATOM     30  O   UNL     1      21.930  29.439  11.808  1.00  0.00    -0.393 OA
ATOM     31  H   UNL     1      21.789  30.420  11.784  1.00  0.00     0.210 HD
ENDBRANCH  29  30
ENDBRANCH   9  11
ENDBRANCH   1   9
TORSDOF 7
ENDMDL
MODEL 2
REMARK VINA RESULT:    -6.786      1.208      2.084
REMARK INTER + INTRA:         -10.840
REMARK INTER:                  -9.950
REMARK INTRA:                  -0.890
REMARK UNBOUND:                -1.475
REMARK SMILES CC[C@H](CC[C@@H](C)[C@H]1CC[C@H]2[C@@H]3CC=C4C[C@@H](O)CC[C@@]4(C)[C@H]3CC[C@]12C)C(C)C
REMARK SMILES IDX 5 1 4 2 3 3 2 4 1 5 28 6 29 7 30 8 6 9 7 10 8 11 9 12 26 13
REMARK SMILES IDX 10 14 11 15 25 16 27 17 12 18 24 19 23 20 13 21 21 22 14 23
REMARK SMILES IDX 15 24 20 25 22 26 16 27 19 28 17 29 18 30
REMARK H PARENT 18 31
REMARK Flexibility Score: inf
ROOT
ATOM      1  C   UNL     1      31.221  28.839  12.694  1.00  0.00     0.004 C 
ENDROOT
BRANCH   1   2
ATOM      2  C   UNL     1      31.325  30.145  13.516  1.00  0.00     0.004 C 
BRANCH   2   3
ATOM      3  C   UNL     1      31.250  29.985  15.066  1.00  0.00    -0.009 C 
BRANCH   3   4
ATOM      4  C   UNL     1      32.607  29.619  15.730  1.00  0.00     0.000 C 
ATOM      5  C   UNL     1      33.017  28.169  15.460  1.00  0.00     0.004 C 
ENDBRANCH   3   4
BRANCH   3   6
ATOM      6  C   UNL     1      30.504  31.177  15.754  1.00  0.00    -0.014 C 
ATOM      7  C   UNL     1      30.958  32.565  15.280  1.00  0.00     0.007 C 
ATOM      8  C   UNL     1      30.571  31.097  17.290  1.00  0.00     0.007 C 
ENDBRANCH   3   6
ENDBRANCH   2   3
ENDBRANCH   1   2
BRANCH   1   9
ATOM      9  C   UNL     1      30.264  28.988  11.478  1.00  0.00    -0.011 C 
ATOM     10  C   UNL     1      31.023  28.643  10.181  1.00  0.00     0.008 C 
BRANCH   9  11
ATOM     11  C   UNL     1      28.938  28.151  11.555  1.00  0.00    -0.002 C 
ATOM     12  C   UNL     1      28.600  27.486  12.916  1.00  0.00     0.005 C 
ATOM     13  C   UNL     1      27.623  28.854  11.124  1.00  0.00    -0.026 C 
ATOM     14  C   UNL     1      27.063  27.395  12.979  1.00  0.00     0.005 C 
ATOM     15  C   UNL     1      26.598  27.810  11.586  1.00  0.00    -0.001 C 
ATOM     16  C   UNL     1      27.454  29.018   9.594  1.00  0.00     0.007 C 
ATOM     17  C   UNL     1      27.454  30.232  11.838  1.00  0.00     0.012 C 
ATOM     18  C   UNL     1      25.138  28.265  11.381  1.00  0.00     0.000 C 
ATOM     19  C   UNL     1      26.012  29.440   9.229  1.00  0.00     0.005 C 
ATOM     20  C   UNL     1      24.904  28.531   9.863  1.00  0.00     0.003 C 
ATOM     21  C   UNL     1      24.170  27.165  11.833  1.00  0.00     0.031 C 
ATOM     22  C   UNL     1      23.420  29.004   9.564  1.00  0.00    -0.008 C 
ATOM     23  C   UNL     1      22.753  27.549  11.542  1.00  0.00    -0.027 C 
ATOM     24  C   UNL     1      22.396  28.334  10.502  1.00  0.00    -0.065 C 
ATOM     25  C   UNL     1      23.263  30.548   9.744  1.00  0.00     0.014 C 
ATOM     26  C   UNL     1      23.082  28.613   8.101  1.00  0.00     0.016 C 
ATOM     27  C   UNL     1      20.953  28.786  10.407  1.00  0.00     0.063 C 
ATOM     28  C   UNL     1      21.805  31.050   9.677  1.00  0.00     0.033 C 
ATOM     29  C   UNL     1      20.875  30.299  10.643  1.00  0.00     0.118 C 
BRANCH  29  30
ATOM     30  O   UNL     1      21.230  30.604  11.968  1.00  0.00    -0.393 OA
ATOM     31  H   UNL     1      22.147  30.253  12.108  1.00  0.00     0.210 HD
ENDBRANCH  29  30
ENDBRANCH   9  11
ENDBRANCH   1   9
TORSDOF 7
ENDMDL
MODEL 3
REMARK VINA RESULT:    -6.478      1.236      2.029
REMARK INTER + INTRA:         -10.414
REMARK INTER:                  -9.707
REMARK INTRA:                  -0.707
REMARK UNBOUND:                -1.475
REMARK SMILES CC[C@H](CC[C@@H](C)[C@H]1CC[C@H]2[C@@H]3CC=C4C[C@@H](O)CC[C@@]4(C)[C@H]3CC[C@]12C)C(C)C
REMARK SMILES IDX 5 1 4 2 3 3 2 4 1 5 28 6 29 7 30 8 6 9 7 10 8 11 9 12 26 13
REMARK SMILES IDX 10 14 11 15 25 16 27 17 12 18 24 19 23 20 13 21 21 22 14 23
REMARK SMILES IDX 15 24 20 25 22 26 16 27 19 28 17 29 18 30
REMARK H PARENT 18 31
REMARK Flexibility Score: inf
ROOT
ATOM      1  C   UNL     1      30.669  27.573  14.447  1.00  0.00     0.004 C 
ENDROOT
BRANCH   1   2
ATOM      2  C   UNL     1      31.446  28.909  14.509  1.00  0.00     0.004 C 
BRANCH   2   3
ATOM      3  C   UNL     1      30.591  30.186  14.774  1.00  0.00    -0.009 C 
BRANCH   3   4
ATOM      4  C   UNL     1      29.116  29.889  15.165  1.00  0.00     0.000 C 
ATOM      5  C   UNL     1      28.166  31.018  14.758  1.00  0.00     0.004 C 
ENDBRANCH   3   4
BRANCH   3   6
ATOM      6  C   UNL     1      31.311  31.201  15.726  1.00  0.00    -0.014 C 
ATOM      7  C   UNL     1      30.752  31.229  17.156  1.00  0.00     0.007 C 
ATOM      8  C   UNL     1      31.340  32.625  15.143  1.00  0.00     0.007 C 
ENDBRANCH   3   6
ENDBRANCH   2   3
ENDBRANCH   1   2
BRANCH   1   9
ATOM      9  C   UNL     1      30.176  27.249  13.009  1.00  0.00    -0.011 C 
ATOM     10  C   UNL     1      31.046  26.127  12.409  1.00  0.00     0.008 C 
BRANCH   9  11
ATOM     11  C   UNL     1      28.658  26.868  12.886  1.00  0.00    -0.002 C 
ATOM     12  C   UNL     1      27.855  26.725  14.206  1.00  0.00     0.005 C 
ATOM     13  C   UNL     1      27.769  27.761  11.979  1.00  0.00    -0.026 C 
ATOM     14  C   UNL     1      26.396  27.085  13.863  1.00  0.00     0.005 C 
ATOM     15  C   UNL     1      26.383  27.212  12.342  1.00  0.00    -0.001 C 
ATOM     16  C   UNL     1      27.969  27.536  10.461  1.00  0.00     0.007 C 
ATOM     17  C   UNL     1      27.937  29.272  12.331  1.00  0.00     0.012 C 
ATOM     18  C   UNL     1      25.232  27.979  11.659  1.00  0.00     0.000 C 
ATOM     19  C   UNL     1      26.856  28.224   9.639  1.00  0.00     0.005 C 
ATOM     20  C   UNL     1      25.404  27.870  10.113  1.00  0.00     0.003 C 
ATOM     21  C   UNL     1      23.881  27.361  12.038  1.00  0.00     0.031 C 
ATOM     22  C   UNL     1      24.256  28.635   9.331  1.00  0.00    -0.008 C 
ATOM     23  C   UNL     1      22.762  28.027  11.300  1.00  0.00    -0.027 C 
ATOM     24  C   UNL     1      22.903  28.561  10.067  1.00  0.00    -0.065 C 
ATOM     25  C   UNL     1      24.596  30.149   9.150  1.00  0.00     0.014 C 
ATOM     26  C   UNL     1      24.100  27.965   7.940  1.00  0.00     0.016 C 
ATOM     27  C   UNL     1      21.745  29.352   9.492  1.00  0.00     0.063 C 
ATOM     28  C   UNL     1      23.435  30.997   8.587  1.00  0.00     0.033 C 
ATOM     29  C   UNL     1      22.137  30.831   9.391  1.00  0.00     0.118 C 
BRANCH  29  30
ATOM     30  O   UNL     1      22.305  31.378  10.674  1.00  0.00    -0.393 OA
ATOM     31  H   UNL     1      22.316  32.364  10.568  1.00  0.00     0.210 HD
ENDBRANCH  29  30
ENDBRANCH   9  11
ENDBRANCH   1   9
TORSDOF 7
ENDMDL
MODEL 4
REMARK VINA RESULT:    -6.067      1.556      2.223
REMARK INTER + INTRA:          -9.847
REMARK INTER:                  -8.796
REMARK INTRA:                  -1.051
REMARK UNBOUND:                -1.475
REMARK SMILES CC[C@H](CC[C@@H](C)[C@H]1CC[C@H]2[C@@H]3CC=C4C[C@@H](O)CC[C@@]4(C)[C@H]3CC[C@]12C)C(C)C
REMARK SMILES IDX 5 1 4 2 3 3 2 4 1 5 28 6 29 7 30 8 6 9 7 10 8 11 9 12 26 13
REMARK SMILES IDX 10 14 11 15 25 16 27 17 12 18 24 19 23 20 13 21 21 22 14 23
REMARK SMILES IDX 15 24 20 25 22 26 16 27 19 28 17 29 18 30
REMARK H PARENT 18 31
REMARK Flexibility Score: inf
ROOT
ATOM      1  C   UNL     1      32.547  28.147  14.662  1.00  0.00     0.004 C 
ENDROOT
BRANCH   1   2
ATOM      2  C   UNL     1      32.324  29.670  14.507  1.00  0.00     0.004 C 
BRANCH   2   3
ATOM      3  C   UNL     1      31.164  30.281  15.352  1.00  0.00    -0.009 C 
BRANCH   3   4
ATOM      4  C   UNL     1      31.513  30.480  16.854  1.00  0.00     0.000 C 
ATOM      5  C   UNL     1      30.275  30.755  17.710  1.00  0.00     0.004 C 
ENDBRANCH   3   4
BRANCH   3   6
ATOM      6  C   UNL     1      30.528  31.541  14.674  1.00  0.00    -0.014 C 
ATOM      7  C   UNL     1      31.032  32.880  15.231  1.00  0.00     0.007 C 
ATOM      8  C   UNL     1      28.990  31.504  14.702  1.00  0.00     0.007 C 
ENDBRANCH   3   6
ENDBRANCH   2   3
ENDBRANCH   1   2
BRANCH   1   9
ATOM      9  C   UNL     1      32.102  27.360  13.397  1.00  0.00    -0.011 C 
ATOM     10  C   UNL     1      33.264  26.471  12.911  1.00  0.00     0.008 C 
BRANCH   9  11
ATOM     11  C   UNL     1      30.804  26.493  13.564  1.00  0.00    -0.002 C 
ATOM     12  C   UNL     1      30.273  26.286  15.007  1.00  0.00     0.005 C 
ATOM     13  C   UNL     1      29.555  26.912  12.741  1.00  0.00    -0.026 C 
ATOM     14  C   UNL     1      28.747  26.101  14.881  1.00  0.00     0.005 C 
ATOM     15  C   UNL     1      28.499  26.000  13.378  1.00  0.00    -0.001 C 
ATOM     16  C   UNL     1      29.627  26.553  11.238  1.00  0.00     0.007 C 
ATOM     17  C   UNL     1      29.239  28.430  12.922  1.00  0.00     0.012 C 
ATOM     18  C   UNL     1      27.078  26.248  12.830  1.00  0.00     0.000 C 
ATOM     19  C   UNL     1      28.250  26.719  10.554  1.00  0.00     0.005 C 
ATOM     20  C   UNL     1      27.080  25.984  11.294  1.00  0.00     0.003 C 
ATOM     21  C   UNL     1      26.080  25.284  13.483  1.00  0.00     0.031 C 
ATOM     22  C   UNL     1      25.650  26.216  10.648  1.00  0.00    -0.008 C 
ATOM     23  C   UNL     1      24.717  25.440  12.885  1.00  0.00    -0.027 C 
ATOM     24  C   UNL     1      24.509  25.811  11.603  1.00  0.00    -0.065 C 
ATOM     25  C   UNL     1      25.426  27.716  10.277  1.00  0.00     0.014 C 
ATOM     26  C   UNL     1      25.558  25.342   9.369  1.00  0.00     0.016 C 
ATOM     27  C   UNL     1      23.088  26.094  11.160  1.00  0.00     0.063 C 
ATOM     28  C   UNL     1      23.984  28.053   9.841  1.00  0.00     0.033 C 
ATOM     29  C   UNL     1      22.933  27.590  10.862  1.00  0.00     0.118 C 
BRANCH  29  30
ATOM     30  O   UNL     1      23.065  28.338  12.045  1.00  0.00    -0.393 OA
ATOM     31  H   UNL     1      23.570  27.775  12.686  1.00  0.00     0.210 HD
ENDBRANCH  29  30
ENDBRANCH   9  11
ENDBRANCH   1   9
TORSDOF 7
ENDMDL
MODEL 5
REMARK VINA RESULT:    -6.038      2.183      3.706
REMARK INTER + INTRA:          -9.808
REMARK INTER:                  -8.992
REMARK INTRA:                  -0.815
REMARK UNBOUND:                -1.475
REMARK SMILES CC[C@H](CC[C@@H](C)[C@H]1CC[C@H]2[C@@H]3CC=C4C[C@@H](O)CC[C@@]4(C)[C@H]3CC[C@]12C)C(C)C
REMARK SMILES IDX 5 1 4 2 3 3 2 4 1 5 28 6 29 7 30 8 6 9 7 10 8 11 9 12 26 13
REMARK SMILES IDX 10 14 11 15 25 16 27 17 12 18 24 19 23 20 13 21 21 22 14 23
REMARK SMILES IDX 15 24 20 25 22 26 16 27 19 28 17 29 18 30
REMARK H PARENT 18 31
REMARK Flexibility Score: inf
ROOT
ATOM      1  C   UNL     1      32.246  28.587  14.964  1.00  0.00     0.004 C 
ENDROOT
BRANCH   1   2
ATOM      2  C   UNL     1      32.301  29.871  15.825  1.00  0.00     0.004 C 
BRANCH   2   3
ATOM      3  C   UNL     1      30.936  30.575  16.092  1.00  0.00    -0.009 C 
BRANCH   3   4
ATOM      4  C   UNL     1      30.817  31.210  17.506  1.00  0.00     0.000 C 
ATOM      5  C   UNL     1      29.955  30.372  18.452  1.00  0.00     0.004 C 
ENDBRANCH   3   4
BRANCH   3   6
ATOM      6  C   UNL     1      30.519  31.533  14.926  1.00  0.00    -0.014 C 
ATOM      7  C   UNL     1      31.037  32.971  15.074  1.00  0.00     0.007 C 
ATOM      8  C   UNL     1      28.997  31.544  14.696  1.00  0.00     0.007 C 
ENDBRANCH   3   6
ENDBRANCH   2   3
ENDBRANCH   1   2
BRANCH   1   9
ATOM      9  C   UNL     1      32.737  28.836  13.510  1.00  0.00    -0.011 C 
ATOM     10  C   UNL     1      33.654  27.677  13.072  1.00  0.00     0.008 C 
BRANCH   9  11
ATOM     11  C   UNL     1      31.605  29.051  12.443  1.00  0.00    -0.002 C 
ATOM     12  C   UNL     1      32.039  29.106  10.954  1.00  0.00     0.005 C 
ATOM     13  C   UNL     1      30.405  28.066  12.467  1.00  0.00    -0.026 C 
ATOM     14  C   UNL     1      30.838  28.589  10.138  1.00  0.00     0.005 C 
ATOM     15  C   UNL     1      29.710  28.461  11.158  1.00  0.00    -0.001 C 
ATOM     16  C   UNL     1      29.397  28.310  13.616  1.00  0.00     0.007 C 
ATOM     17  C   UNL     1      30.888  26.581  12.477  1.00  0.00     0.012 C 
ATOM     18  C   UNL     1      28.492  27.573  10.830  1.00  0.00     0.000 C 
ATOM     19  C   UNL     1      28.095  27.505  13.402  1.00  0.00     0.005 C 
ATOM     20  C   UNL     1      27.453  27.700  11.985  1.00  0.00     0.003 C 
ATOM     21  C   UNL     1      27.827  28.042   9.530  1.00  0.00     0.031 C 
ATOM     22  C   UNL     1      26.163  26.815  11.724  1.00  0.00    -0.008 C 
ATOM     23  C   UNL     1      26.582  27.258   9.254  1.00  0.00    -0.027 C 
ATOM     24  C   UNL     1      25.801  26.742  10.228  1.00  0.00    -0.065 C 
ATOM     25  C   UNL     1      26.366  25.347  12.218  1.00  0.00     0.014 C 
ATOM     26  C   UNL     1      24.978  27.463  12.489  1.00  0.00     0.016 C 
ATOM     27  C   UNL     1      24.660  25.829   9.823  1.00  0.00     0.063 C 
ATOM     28  C   UNL     1      25.236  24.378  11.808  1.00  0.00     0.033 C 
ATOM     29  C   UNL     1      24.954  24.401  10.298  1.00  0.00     0.118 C 
BRANCH  29  30
ATOM     30  O   UNL     1      26.059  23.876   9.606  1.00  0.00    -0.393 OA
ATOM     31  H   UNL     1      26.547  24.647   9.217  1.00  0.00     0.210 HD
ENDBRANCH  29  30
ENDBRANCH   9  11
ENDBRANCH   1   9
TORSDOF 7
ENDMDL
MODEL 6
REMARK VINA RESULT:    -5.937      1.614      3.216
REMARK INTER + INTRA:          -9.668
REMARK INTER:                  -8.087
REMARK INTRA:                  -1.581
REMARK UNBOUND:                -1.475
REMARK SMILES CC[C@H](CC[C@@H](C)[C@H]1CC[C@H]2[C@@H]3CC=C4C[C@@H](O)CC[C@@]4(C)[C@H]3CC[C@]12C)C(C)C
REMARK SMILES IDX 5 1 4 2 3 3 2 4 1 5 28 6 29 7 30 8 6 9 7 10 8 11 9 12 26 13
REMARK SMILES IDX 10 14 11 15 25 16 27 17 12 18 24 19 23 20 13 21 21 22 14 23
REMARK SMILES IDX 15 24 20 25 22 26 16 27 19 28 17 29 18 30
REMARK H PARENT 18 31
REMARK Flexibility Score: inf
ROOT
ATOM      1  C   UNL     1      31.615  29.083  14.794  1.00  0.00     0.004 C 
ENDROOT
BRANCH   1   2
ATOM      2  C   UNL     1      33.030  28.640  14.356  1.00  0.00     0.004 C 
BRANCH   2   3
ATOM      3  C   UNL     1      33.344  27.118  14.494  1.00  0.00    -0.009 C 
BRANCH   3   4
ATOM      4  C   UNL     1      32.327  26.340  15.376  1.00  0.00     0.000 C 
ATOM      5  C   UNL     1      32.816  24.934  15.729  1.00  0.00     0.004 C 
ENDBRANCH   3   4
BRANCH   3   6
ATOM      6  C   UNL     1      33.639  26.440  13.114  1.00  0.00    -0.014 C 
ATOM      7  C   UNL     1      34.543  27.265  12.186  1.00  0.00     0.007 C 
ATOM      8  C   UNL     1      32.350  26.039  12.374  1.00  0.00     0.007 C 
ENDBRANCH   3   6
ENDBRANCH   2   3
ENDBRANCH   1   2
BRANCH   1   9
ATOM      9  C   UNL     1      30.689  29.368  13.578  1.00  0.00    -0.011 C 
ATOM     10  C   UNL     1      31.542  29.489  12.300  1.00  0.00     0.008 C 
BRANCH   9  11
ATOM     11  C   UNL     1      29.535  28.328  13.350  1.00  0.00    -0.002 C 
ATOM     12  C   UNL     1      29.010  27.569  14.598  1.00  0.00     0.005 C 
ATOM     13  C   UNL     1      28.255  28.828  12.627  1.00  0.00    -0.026 C 
ATOM     14  C   UNL     1      27.535  27.231  14.307  1.00  0.00     0.005 C 
ATOM     15  C   UNL     1      27.338  27.617  12.843  1.00  0.00    -0.001 C 
ATOM     16  C   UNL     1      28.414  29.017  11.099  1.00  0.00     0.007 C 
ATOM     17  C   UNL     1      27.706  30.134  13.281  1.00  0.00     0.012 C 
ATOM     18  C   UNL     1      25.908  27.841  12.308  1.00  0.00     0.000 C 
ATOM     19  C   UNL     1      27.043  29.217  10.412  1.00  0.00     0.005 C 
ATOM     20  C   UNL     1      25.984  28.121  10.776  1.00  0.00     0.003 C 
ATOM     21  C   UNL     1      25.055  26.585  12.526  1.00  0.00     0.031 C 
ATOM     22  C   UNL     1      24.550  28.361  10.143  1.00  0.00    -0.008 C 
ATOM     23  C   UNL     1      23.698  26.748  11.917  1.00  0.00    -0.027 C 
ATOM     24  C   UNL     1      23.464  27.503  10.821  1.00  0.00    -0.065 C 
ATOM     25  C   UNL     1      24.106  29.853  10.280  1.00  0.00     0.014 C 
ATOM     26  C   UNL     1      24.621  27.974   8.642  1.00  0.00     0.016 C 
ATOM     27  C   UNL     1      22.026  27.723  10.397  1.00  0.00     0.063 C 
ATOM     28  C   UNL     1      22.640  30.118   9.878  1.00  0.00     0.033 C 
ATOM     29  C   UNL     1      21.650  29.195  10.606  1.00  0.00     0.118 C 
BRANCH  29  30
ATOM     30  O   UNL     1      21.641  29.504  11.977  1.00  0.00    -0.393 OA
ATOM     31  H   UNL     1      22.530  29.252  12.335  1.00  0.00     0.210 HD
ENDBRANCH  29  30
ENDBRANCH   9  11
ENDBRANCH   1   9
TORSDOF 7
ENDMDL
MODEL 7
REMARK VINA RESULT:    -5.909      2.056      2.991
REMARK INTER + INTRA:          -9.629
REMARK INTER:                  -8.741
REMARK INTRA:                  -0.888
REMARK UNBOUND:                -1.475
REMARK SMILES CC[C@H](CC[C@@H](C)[C@H]1CC[C@H]2[C@@H]3CC=C4C[C@@H](O)CC[C@@]4(C)[C@H]3CC[C@]12C)C(C)C
REMARK SMILES IDX 5 1 4 2 3 3 2 4 1 5 28 6 29 7 30 8 6 9 7 10 8 11 9 12 26 13
REMARK SMILES IDX 10 14 11 15 25 16 27 17 12 18 24 19 23 20 13 21 21 22 14 23
REMARK SMILES IDX 15 24 20 25 22 26 16 27 19 28 17 29 18 30
REMARK H PARENT 18 31
REMARK Flexibility Score: inf
ROOT
ATOM      1  C   UNL     1      32.426  28.994  13.146  1.00  0.00     0.004 C 
ENDROOT
BRANCH   1   2
ATOM      2  C   UNL     1      31.917  29.204  14.592  1.00  0.00     0.004 C 
BRANCH   2   3
ATOM      3  C   UNL     1      30.838  30.314  14.784  1.00  0.00    -0.009 C 
BRANCH   3   4
ATOM      4  C   UNL     1      29.398  29.767  14.990  1.00  0.00     0.000 C 
ATOM      5  C   UNL     1      28.334  30.671  14.362  1.00  0.00     0.004 C 
ENDBRANCH   3   4
BRANCH   3   6
ATOM      6  C   UNL     1      31.268  31.391  15.836  1.00  0.00    -0.014 C 
ATOM      7  C   UNL     1      30.587  31.244  17.204  1.00  0.00     0.007 C 
ATOM      8  C   UNL     1      31.087  32.826  15.308  1.00  0.00     0.007 C 
ENDBRANCH   3   6
ENDBRANCH   2   3
ENDBRANCH   1   2
BRANCH   1   9
ATOM      9  C   UNL     1      32.630  27.490  12.810  1.00  0.00    -0.011 C 
ATOM     10  C   UNL     1      32.456  26.650  14.091  1.00  0.00     0.008 C 
BRANCH   9  11
ATOM     11  C   UNL     1      31.709  26.922  11.673  1.00  0.00    -0.002 C 
ATOM     12  C   UNL     1      31.852  25.415  11.334  1.00  0.00     0.005 C 
ATOM     13  C   UNL     1      30.180  27.150  11.812  1.00  0.00    -0.026 C 
ATOM     14  C   UNL     1      30.475  24.958  10.814  1.00  0.00     0.005 C 
ATOM     15  C   UNL     1      29.672  26.249  10.679  1.00  0.00    -0.001 C 
ATOM     16  C   UNL     1      29.714  28.592  11.496  1.00  0.00     0.007 C 
ATOM     17  C   UNL     1      29.665  26.710  13.218  1.00  0.00     0.012 C 
ATOM     18  C   UNL     1      28.133  26.177  10.609  1.00  0.00     0.000 C 
ATOM     19  C   UNL     1      28.177  28.670  11.358  1.00  0.00     0.005 C 
ATOM     20  C   UNL     1      27.573  27.612  10.371  1.00  0.00     0.003 C 
ATOM     21  C   UNL     1      27.694  25.288   9.438  1.00  0.00     0.031 C 
ATOM     22  C   UNL     1      25.990  27.627  10.284  1.00  0.00    -0.008 C 
ATOM     23  C   UNL     1      26.205  25.293   9.293  1.00  0.00    -0.027 C 
ATOM     24  C   UNL     1      25.432  26.351   9.623  1.00  0.00    -0.065 C 
ATOM     25  C   UNL     1      25.340  27.730  11.701  1.00  0.00     0.014 C 
ATOM     26  C   UNL     1      25.571  28.852   9.428  1.00  0.00     0.016 C 
ATOM     27  C   UNL     1      23.927  26.178   9.587  1.00  0.00     0.063 C 
ATOM     28  C   UNL     1      23.808  27.537  11.712  1.00  0.00     0.033 C 
ATOM     29  C   UNL     1      23.369  26.241  11.014  1.00  0.00     0.118 C 
BRANCH  29  30
ATOM     30  O   UNL     1      23.811  25.134  11.757  1.00  0.00    -0.393 OA
ATOM     31  H   UNL     1      23.156  24.405  11.604  1.00  0.00     0.210 HD
ENDBRANCH  29  30
ENDBRANCH   9  11
ENDBRANCH   1   9
TORSDOF 7
ENDMDL
MODEL 8
REMARK VINA RESULT:    -5.900      1.601      2.583
REMARK INTER + INTRA:          -9.617
REMARK INTER:                  -9.398
REMARK INTRA:                  -0.218
REMARK UNBOUND:                -1.475
REMARK SMILES CC[C@H](CC[C@@H](C)[C@H]1CC[C@H]2[C@@H]3CC=C4C[C@@H](O)CC[C@@]4(C)[C@H]3CC[C@]12C)C(C)C
REMARK SMILES IDX 5 1 4 2 3 3 2 4 1 5 28 6 29 7 30 8 6 9 7 10 8 11 9 12 26 13
REMARK SMILES IDX 10 14 11 15 25 16 27 17 12 18 24 19 23 20 13 21 21 22 14 23
REMARK SMILES IDX 15 24 20 25 22 26 16 27 19 28 17 29 18 30
REMARK H PARENT 18 31
REMARK Flexibility Score: inf
ROOT
ATOM      1  C   UNL     1      30.229  29.128  13.159  1.00  0.00     0.004 C 
ENDROOT
BRANCH   1   2
ATOM      2  C   UNL     1      31.235  30.140  13.755  1.00  0.00     0.004 C 
BRANCH   2   3
ATOM      3  C   UNL     1      31.610  29.930  15.255  1.00  0.00    -0.009 C 
BRANCH   3   4
ATOM      4  C   UNL     1      33.007  29.284  15.472  1.00  0.00     0.000 C 
ATOM      5  C   UNL     1      33.050  27.821  15.025  1.00  0.00     0.004 C 
ENDBRANCH   3   4
BRANCH   3   6
ATOM      6  C   UNL     1      31.357  31.210  16.120  1.00  0.00    -0.014 C 
ATOM      7  C   UNL     1      30.328  31.019  17.244  1.00  0.00     0.007 C 
ATOM      8  C   UNL     1      30.978  32.429  15.260  1.00  0.00     0.007 C 
ENDBRANCH   3   6
ENDBRANCH   2   3
ENDBRANCH   1   2
BRANCH   1   9
ATOM      9  C   UNL     1      29.075  28.799  14.147  1.00  0.00    -0.011 C 
ATOM     10  C   UNL     1      28.160  30.030  14.297  1.00  0.00     0.008 C 
BRANCH   9  11
ATOM     11  C   UNL     1      28.214  27.537  13.783  1.00  0.00    -0.002 C 
ATOM     12  C   UNL     1      27.378  26.899  14.923  1.00  0.00     0.005 C 
ATOM     13  C   UNL     1      27.223  27.668  12.595  1.00  0.00    -0.026 C 
ATOM     14  C   UNL     1      26.155  26.249  14.247  1.00  0.00     0.005 C 
ATOM     15  C   UNL     1      26.444  26.357  12.753  1.00  0.00    -0.001 C 
ATOM     16  C   UNL     1      27.889  27.643  11.198  1.00  0.00     0.007 C 
ATOM     17  C   UNL     1      26.323  28.935  12.743  1.00  0.00     0.012 C 
ATOM     18  C   UNL     1      25.281  26.221  11.747  1.00  0.00     0.000 C 
ATOM     19  C   UNL     1      26.838  27.472  10.077  1.00  0.00     0.005 C 
ATOM     20  C   UNL     1      25.861  26.266  10.301  1.00  0.00     0.003 C 
ATOM     21  C   UNL     1      24.567  24.877  11.938  1.00  0.00     0.031 C 
ATOM     22  C   UNL     1      24.727  26.131   9.200  1.00  0.00    -0.008 C 
ATOM     23  C   UNL     1      23.505  24.685  10.901  1.00  0.00    -0.027 C 
ATOM     24  C   UNL     1      23.584  25.201   9.655  1.00  0.00    -0.065 C 
ATOM     25  C   UNL     1      24.085  27.516   8.866  1.00  0.00     0.014 C 
ATOM     26  C   UNL     1      25.373  25.534   7.922  1.00  0.00     0.016 C 
ATOM     27  C   UNL     1      22.375  25.078   8.750  1.00  0.00     0.063 C 
ATOM     28  C   UNL     1      22.835  27.434   7.964  1.00  0.00     0.033 C 
ATOM     29  C   UNL     1      21.773  26.467   8.509  1.00  0.00     0.118 C 
BRANCH  29  30
ATOM     30  O   UNL     1      21.240  26.980   9.704  1.00  0.00    -0.393 OA
ATOM     31  H   UNL     1      22.007  27.178  10.299  1.00  0.00     0.210 HD
ENDBRANCH  29  30
ENDBRANCH   9  11
ENDBRANCH   1   9
TORSDOF 7
ENDMDL
MODEL 9
REMARK VINA RESULT:    -5.881      2.121      4.083
REMARK INTER + INTRA:          -9.591
REMARK INTER:                  -7.892
REMARK INTRA:                  -1.699
REMARK UNBOUND:                -1.475
REMARK SMILES CC[C@H](CC[C@@H](C)[C@H]1CC[C@H]2[C@@H]3CC=C4C[C@@H](O)CC[C@@]4(C)[C@H]3CC[C@]12C)C(C)C
REMARK SMILES IDX 5 1 4 2 3 3 2 4 1 5 28 6 29 7 30 8 6 9 7 10 8 11 9 12 26 13
REMARK SMILES IDX 10 14 11 15 25 16 27 17 12 18 24 19 23 20 13 21 21 22 14 23
REMARK SMILES IDX 15 24 20 25 22 26 16 27 19 28 17 29 18 30
REMARK H PARENT 18 31
REMARK Flexibility Score: inf
ROOT
ATOM      1  C   UNL     1      32.791  29.550  15.246  1.00  0.00     0.004 C 
ENDROOT
BRANCH   1   2
ATOM      2  C   UNL     1      32.683  28.116  15.815  1.00  0.00     0.004 C 
BRANCH   2   3
ATOM      3  C   UNL     1      32.852  26.957  14.786  1.00  0.00    -0.009 C 
BRANCH   3   4
ATOM      4  C   UNL     1      34.332  26.610  14.460  1.00  0.00     0.000 C 
ATOM      5  C   UNL     1      34.620  26.631  12.957  1.00  0.00     0.004 C 
ENDBRANCH   3   4
BRANCH   3   6
ATOM      6  C   UNL     1      31.968  25.712  15.135  1.00  0.00    -0.014 C 
ATOM      7  C   UNL     1      32.697  24.626  15.939  1.00  0.00     0.007 C 
ATOM      8  C   UNL     1      31.312  25.094  13.887  1.00  0.00     0.007 C 
ENDBRANCH   3   6
ENDBRANCH   2   3
ENDBRANCH   1   2
BRANCH   1   9
ATOM      9  C   UNL     1      31.400  30.142  14.884  1.00  0.00    -0.011 C 
ATOM     10  C   UNL     1      31.407  31.662  15.138  1.00  0.00     0.008 C 
BRANCH   9  11
ATOM     11  C   UNL     1      30.902  29.851  13.423  1.00  0.00    -0.002 C 
ATOM     12  C   UNL     1      31.807  28.959  12.533  1.00  0.00     0.005 C 
ATOM     13  C   UNL     1      29.478  29.254  13.260  1.00  0.00    -0.026 C 
ATOM     14  C   UNL     1      30.865  28.242  11.545  1.00  0.00     0.005 C 
ATOM     15  C   UNL     1      29.507  28.902  11.768  1.00  0.00    -0.001 C 
ATOM     16  C   UNL     1      28.329  30.268  13.472  1.00  0.00     0.007 C 
ATOM     17  C   UNL     1      29.276  28.007  14.177  1.00  0.00     0.012 C 
ATOM     18  C   UNL     1      28.229  28.178  11.294  1.00  0.00     0.000 C 
ATOM     19  C   UNL     1      26.974  29.690  13.002  1.00  0.00     0.005 C 
ATOM     20  C   UNL     1      27.003  29.107  11.547  1.00  0.00     0.003 C 
ATOM     21  C   UNL     1      28.309  27.885   9.791  1.00  0.00     0.031 C 
ATOM     22  C   UNL     1      25.643  28.436  11.084  1.00  0.00    -0.008 C 
ATOM     23  C   UNL     1      27.034  27.279   9.295  1.00  0.00    -0.027 C 
ATOM     24  C   UNL     1      25.826  27.552   9.835  1.00  0.00    -0.065 C 
ATOM     25  C   UNL     1      25.043  27.526  12.204  1.00  0.00     0.014 C 
ATOM     26  C   UNL     1      24.642  29.573  10.745  1.00  0.00     0.016 C 
ATOM     27  C   UNL     1      24.630  26.753   9.356  1.00  0.00     0.063 C 
ATOM     28  C   UNL     1      23.835  26.677  11.753  1.00  0.00     0.033 C 
ATOM     29  C   UNL     1      24.131  25.851  10.491  1.00  0.00     0.118 C 
BRANCH  29  30
ATOM     30  O   UNL     1      25.088  24.867  10.787  1.00  0.00    -0.393 OA
ATOM     31  H   UNL     1      24.686  23.993  10.549  1.00  0.00     0.210 HD
ENDBRANCH  29  30
ENDBRANCH   9  11
ENDBRANCH   1   9
TORSDOF 7
ENDMDL
