MODEL 1
REMARK VINA RESULT:    25.213      0.000      0.000
REMARK INTER + INTRA:          29.358
REMARK INTER:                  29.635
REMARK INTRA:                  -0.278
REMARK UNBOUND:                -0.278
REMARK SMILES Oc1ccc(-c2[o+]c3cc(O)cc(O)c3cc2O)cc1
REMARK SMILES IDX 6 1 7 2 8 3 9 4 10 5 12 6 13 7 15 8 16 9 17 10 5 11 4 12
REMARK SMILES IDX 3 13 2 14 19 15 20 16 1 17 18 19 11 21 14 23
REMARK H PARENT 1 18 18 20 11 22 14 24
REMARK Flexibility Score: inf
ROOT
ATOM      1  C   UNL     1      20.025 -12.552 -15.436  1.00  0.00     0.401 A 
ATOM      2  O   UNL     1      20.077 -12.636 -16.763  1.00  0.00    -0.202 OA
ATOM      3  C   UNL     1      21.173 -12.379 -17.469  1.00  0.00     0.368 A 
ATOM      4  C   UNL     1      21.129 -12.498 -18.860  1.00  0.00     0.162 A 
ATOM      5  C   UNL     1      22.265 -12.237 -19.627  1.00  0.00     0.128 A 
ATOM      6  C   UNL     1      23.456 -11.856 -18.999  1.00  0.00     0.093 A 
ATOM      7  C   UNL     1      23.527 -11.730 -17.606  1.00  0.00     0.136 A 
ATOM      8  C   UNL     1      22.372 -11.992 -16.824  1.00  0.00     0.125 A 
ATOM      9  C   UNL     1      22.346 -11.879 -15.424  1.00  0.00     0.078 A 
ATOM     10  C   UNL     1      21.169 -12.149 -14.720  1.00  0.00     0.223 A 
ENDROOT
BRANCH   1  11
ATOM     11  C   UNL     1      18.747 -12.874 -14.763  1.00  0.00     0.084 A 
ATOM     12  C   UNL     1      17.889 -11.860 -14.294  1.00  0.00     0.022 A 
ATOM     13  C   UNL     1      16.698 -12.189 -13.641  1.00  0.00     0.047 A 
ATOM     14  C   UNL     1      16.354 -13.532 -13.435  1.00  0.00     0.115 A 
ATOM     15  C   UNL     1      18.405 -14.217 -14.534  1.00  0.00     0.022 A 
ATOM     16  C   UNL     1      17.212 -14.542 -13.880  1.00  0.00     0.047 A 
BRANCH  14  17
ATOM     17  O   UNL     1      15.169 -13.872 -12.786  1.00  0.00    -0.508 OA
ATOM     18  H   UNL     1      14.855 -13.371 -11.963  1.00  0.00     0.293 HD
ENDBRANCH  14  17
ENDBRANCH   1  11
BRANCH  10  19
ATOM     19  O   UNL     1      21.129 -11.988 -13.335  1.00  0.00    -0.500 OA
ATOM     20  H   UNL     1      20.467 -12.494 -12.760  1.00  0.00     0.294 HD
ENDBRANCH  10  19
BRANCH   5  21
ATOM     21  O   UNL     1      22.201 -12.361 -21.013  1.00  0.00    -0.507 OA
ATOM     22  H   UNL     1      22.257 -13.266 -21.467  1.00  0.00     0.293 HD
ENDBRANCH   5  21
BRANCH   7  23
ATOM     23  O   UNL     1      24.754 -11.349 -17.055  1.00  0.00    -0.507 OA
ATOM     24  H   UNL     1      25.407 -11.984 -16.622  1.00  0.00     0.293 HD
ENDBRANCH   7  23
TORSDOF 5
ENDMDL
MODEL 2
REMARK VINA RESULT:    25.661      1.078      2.871
REMARK INTER + INTRA:          29.883
REMARK INTER:                  30.140
REMARK INTRA:                  -0.256
REMARK UNBOUND:                -0.278
REMARK SMILES Oc1ccc(-c2[o+]c3cc(O)cc(O)c3cc2O)cc1
REMARK SMILES IDX 6 1 7 2 8 3 9 4 10 5 12 6 13 7 15 8 16 9 17 10 5 11 4 12
REMARK SMILES IDX 3 13 2 14 19 15 20 16 1 17 18 19 11 21 14 23
REMARK H PARENT 1 18 18 20 11 22 14 24
REMARK Flexibility Score: inf
ROOT
ATOM      1  C   UNL     1      19.884 -12.684 -16.228  1.00  0.00     0.401 A 
ATOM      2  O   UNL     1      21.057 -12.212 -15.816  1.00  0.00    -0.202 OA
ATOM      3  C   UNL     1      22.057 -11.917 -16.642  1.00  0.00     0.368 A 
ATOM      4  C   UNL     1      23.251 -11.422 -16.114  1.00  0.00     0.162 A 
ATOM      5  C   UNL     1      24.316 -11.102 -16.956  1.00  0.00     0.128 A 
ATOM      6  C   UNL     1      24.187 -11.275 -18.338  1.00  0.00     0.093 A 
ATOM      7  C   UNL     1      23.000 -11.769 -18.893  1.00  0.00     0.136 A 
ATOM      8  C   UNL     1      21.915 -12.099 -18.038  1.00  0.00     0.125 A 
ATOM      9  C   UNL     1      20.694 -12.611 -18.504  1.00  0.00     0.078 A 
ATOM     10  C   UNL     1      19.672 -12.918 -17.600  1.00  0.00     0.223 A 
ENDROOT
BRANCH   1  11
ATOM     11  C   UNL     1      18.846 -12.965 -15.211  1.00  0.00     0.084 A 
ATOM     12  C   UNL     1      18.538 -14.282 -14.822  1.00  0.00     0.022 A 
ATOM     13  C   UNL     1      17.537 -14.524 -13.876  1.00  0.00     0.047 A 
ATOM     14  C   UNL     1      16.823 -13.455 -13.317  1.00  0.00     0.115 A 
ATOM     15  C   UNL     1      18.111 -11.902 -14.662  1.00  0.00     0.022 A 
ATOM     16  C   UNL     1      17.111 -12.146 -13.716  1.00  0.00     0.047 A 
BRANCH  14  17
ATOM     17  O   UNL     1      15.824 -13.683 -12.373  1.00  0.00    -0.508 OA
ATOM     18  H   UNL     1      15.833 -13.221 -11.472  1.00  0.00     0.293 HD
ENDBRANCH  14  17
ENDBRANCH   1  11
BRANCH  10  19
ATOM     19  O   UNL     1      18.477 -13.474 -18.057  1.00  0.00    -0.500 OA
ATOM     20  H   UNL     1      17.607 -12.955 -18.039  1.00  0.00     0.294 HD
ENDBRANCH  10  19
BRANCH   5  21
ATOM     21  O   UNL     1      25.500 -10.610 -16.410  1.00  0.00    -0.507 OA
ATOM     22  H   UNL     1      25.531  -9.718 -15.928  1.00  0.00     0.293 HD
ENDBRANCH   5  21
BRANCH   7  23
ATOM     23  O   UNL     1      22.947 -11.910 -20.283  1.00  0.00    -0.507 OA
ATOM     24  H   UNL     1      23.709 -12.247 -20.852  1.00  0.00     0.293 HD
ENDBRANCH   7  23
TORSDOF 5
ENDMDL
MODEL 3
REMARK VINA RESULT:    27.103      4.784      7.104
REMARK INTER + INTRA:          31.578
REMARK INTER:                  31.870
REMARK INTRA:                  -0.292
REMARK UNBOUND:                -0.278
REMARK SMILES Oc1ccc(-c2[o+]c3cc(O)cc(O)c3cc2O)cc1
REMARK SMILES IDX 6 1 7 2 8 3 9 4 10 5 12 6 13 7 15 8 16 9 17 10 5 11 4 12
REMARK SMILES IDX 3 13 2 14 19 15 20 16 1 17 18 19 11 21 14 23
REMARK H PARENT 1 18 18 20 11 22 14 24
REMARK Flexibility Score: inf
ROOT
ATOM      1  C   UNL     1      22.392  -8.039 -18.393  1.00  0.00     0.401 A 
ATOM      2  O   UNL     1      22.090  -9.063 -19.187  1.00  0.00    -0.202 OA
ATOM      3  C   UNL     1      22.367 -10.328 -18.885  1.00  0.00     0.368 A 
ATOM      4  C   UNL     1      22.007 -11.335 -19.783  1.00  0.00     0.162 A 
ATOM      5  C   UNL     1      22.282 -12.671 -19.492  1.00  0.00     0.128 A 
ATOM      6  C   UNL     1      22.921 -13.005 -18.292  1.00  0.00     0.093 A 
ATOM      7  C   UNL     1      23.292 -12.015 -17.375  1.00  0.00     0.136 A 
ATOM      8  C   UNL     1      23.015 -10.653 -17.670  1.00  0.00     0.125 A 
ATOM      9  C   UNL     1      23.361  -9.593 -16.816  1.00  0.00     0.078 A 
ATOM     10  C   UNL     1      23.061  -8.276 -17.177  1.00  0.00     0.223 A 
ENDROOT
BRANCH   1  11
ATOM     11  C   UNL     1      22.022  -6.676 -18.837  1.00  0.00     0.084 A 
ATOM     12  C   UNL     1      22.965  -5.819 -19.436  1.00  0.00     0.022 A 
ATOM     13  C   UNL     1      22.598  -4.527 -19.825  1.00  0.00     0.047 A 
ATOM     14  C   UNL     1      21.290  -4.071 -19.610  1.00  0.00     0.115 A 
ATOM     15  C   UNL     1      20.720  -6.203 -18.605  1.00  0.00     0.022 A 
ATOM     16  C   UNL     1      20.356  -4.911 -18.996  1.00  0.00     0.047 A 
BRANCH  14  17
ATOM     17  O   UNL     1      20.913  -2.786 -19.995  1.00  0.00    -0.508 OA
ATOM     18  H   UNL     1      20.488  -2.141 -19.339  1.00  0.00     0.293 HD
ENDBRANCH  14  17
ENDBRANCH   1  11
BRANCH  10  19
ATOM     19  O   UNL     1      23.449  -7.219 -16.354  1.00  0.00    -0.500 OA
ATOM     20  H   UNL     1      22.770  -6.611 -15.913  1.00  0.00     0.294 HD
ENDBRANCH  10  19
BRANCH   5  21
ATOM     21  O   UNL     1      21.916 -13.662 -20.401  1.00  0.00    -0.507 OA
ATOM     22  H   UNL     1      22.551 -14.412 -20.651  1.00  0.00     0.293 HD
ENDBRANCH   5  21
BRANCH   7  23
ATOM     23  O   UNL     1      23.922 -12.429 -16.198  1.00  0.00    -0.507 OA
ATOM     24  H   UNL     1      24.154 -13.386 -15.981  1.00  0.00     0.293 HD
ENDBRANCH   7  23
TORSDOF 5
ENDMDL
MODEL 4
REMARK VINA RESULT:    27.839      5.015      7.738
REMARK INTER + INTRA:          32.444
REMARK INTER:                  32.727
REMARK INTRA:                  -0.283
REMARK UNBOUND:                -0.278
REMARK SMILES Oc1ccc(-c2[o+]c3cc(O)cc(O)c3cc2O)cc1
REMARK SMILES IDX 6 1 7 2 8 3 9 4 10 5 12 6 13 7 15 8 16 9 17 10 5 11 4 12
REMARK SMILES IDX 3 13 2 14 19 15 20 16 1 17 18 19 11 21 14 23
REMARK H PARENT 1 18 18 20 11 22 14 24
REMARK Flexibility Score: inf
ROOT
ATOM      1  C   UNL     1      22.004  -7.870 -19.091  1.00  0.00     0.401 A 
ATOM      2  O   UNL     1      22.683  -8.345 -18.049  1.00  0.00    -0.202 OA
ATOM      3  C   UNL     1      22.989  -9.630 -17.901  1.00  0.00     0.368 A 
ATOM      4  C   UNL     1      23.709 -10.032 -16.774  1.00  0.00     0.162 A 
ATOM      5  C   UNL     1      24.046 -11.373 -16.593  1.00  0.00     0.128 A 
ATOM      6  C   UNL     1      23.664 -12.322 -17.548  1.00  0.00     0.093 A 
ATOM      7  C   UNL     1      22.942 -11.945 -18.687  1.00  0.00     0.136 A 
ATOM      8  C   UNL     1      22.595 -10.581 -18.872  1.00  0.00     0.125 A 
ATOM      9  C   UNL     1      21.863 -10.114 -19.976  1.00  0.00     0.078 A 
ATOM     10  C   UNL     1      21.553  -8.755 -20.088  1.00  0.00     0.223 A 
ENDROOT
BRANCH   1  11
ATOM     11  C   UNL     1      21.734  -6.416 -19.146  1.00  0.00     0.084 A 
ATOM     12  C   UNL     1      20.477  -5.889 -18.793  1.00  0.00     0.022 A 
ATOM     13  C   UNL     1      20.239  -4.514 -18.876  1.00  0.00     0.047 A 
ATOM     14  C   UNL     1      21.247  -3.650 -19.325  1.00  0.00     0.115 A 
ATOM     15  C   UNL     1      22.731  -5.545 -19.616  1.00  0.00     0.022 A 
ATOM     16  C   UNL     1      22.490  -4.170 -19.697  1.00  0.00     0.047 A 
BRANCH  14  17
ATOM     17  O   UNL     1      21.021  -2.278 -19.412  1.00  0.00    -0.508 OA
ATOM     18  H   UNL     1      20.195  -1.852 -19.009  1.00  0.00     0.293 HD
ENDBRANCH  14  17
ENDBRANCH   1  11
BRANCH  10  19
ATOM     19  O   UNL     1      20.783  -8.299 -21.158  1.00  0.00    -0.500 OA
ATOM     20  H   UNL     1      20.710  -7.313 -21.378  1.00  0.00     0.294 HD
ENDBRANCH  10  19
BRANCH   5  21
ATOM     21  O   UNL     1      24.764 -11.754 -15.461  1.00  0.00    -0.507 OA
ATOM     22  H   UNL     1      24.300 -11.951 -14.581  1.00  0.00     0.293 HD
ENDBRANCH   5  21
BRANCH   7  23
ATOM     23  O   UNL     1      22.600 -12.951 -19.596  1.00  0.00    -0.507 OA
ATOM     24  H   UNL     1      22.669 -13.939 -19.406  1.00  0.00     0.293 HD
ENDBRANCH   7  23
TORSDOF 5
ENDMDL
