MODEL 1
REMARK VINA RESULT:    -2.323      0.000      0.000
REMARK INTER + INTRA:          -4.333
REMARK INTER:                  -3.205
REMARK INTRA:                  -1.127
REMARK UNBOUND:                -1.127
REMARK SMILES CC[C@H](CC[C@@H](C)[C@H]1CC[C@@H]2[C@H]3CC=C4C[C@H](O)CC[C@@]4(C)[C@H]3CC[C@@]21C)C(C)C
REMARK SMILES IDX 5 1 4 2 3 3 2 4 1 5 28 6 29 7 30 8 6 9 7 10 8 11 9 12 26 13
REMARK SMILES IDX 10 14 11 15 25 16 27 17 12 18 24 19 23 20 13 21 21 22 14 23
REMARK SMILES IDX 15 24 20 25 22 26 16 27 19 28 17 29 18 30
REMARK H PARENT 18 31
REMARK Flexibility Score: inf
ROOT
ATOM      1  C   UNL     1       2.676  40.758  12.157  1.00  0.00     0.004 C 
ENDROOT
BRANCH   1   2
ATOM      2  C   UNL     1       1.847  40.683  13.469  1.00  0.00     0.004 C 
BRANCH   2   3
ATOM      3  C   UNL     1       0.388  40.173  13.255  1.00  0.00    -0.009 C 
BRANCH   3   4
ATOM      4  C   UNL     1       0.330  38.615  13.216  1.00  0.00     0.000 C 
ATOM      5  C   UNL     1      -1.007  38.035  12.740  1.00  0.00     0.004 C 
ENDBRANCH   3   4
BRANCH   3   6
ATOM      6  C   UNL     1      -0.616  40.818  14.280  1.00  0.00    -0.014 C 
ATOM      7  C   UNL     1       0.020  40.983  15.680  1.00  0.00     0.007 C 
ATOM      8  C   UNL     1      -1.124  42.200  13.812  1.00  0.00     0.007 C 
ENDBRANCH   3   6
ENDBRANCH   2   3
ENDBRANCH   1   2
BRANCH   1   9
ATOM      9  C   UNL     1       3.943  41.647  12.295  1.00  0.00    -0.011 C 
ATOM     10  C   UNL     1       5.206  40.776  12.409  1.00  0.00     0.008 C 
BRANCH   9  11
ATOM     11  C   UNL     1       3.974  42.822  11.220  1.00  0.00    -0.002 C 
ATOM     12  C   UNL     1       3.803  42.274   9.787  1.00  0.00     0.005 C 
ATOM     13  C   UNL     1       2.985  44.055  11.272  1.00  0.00    -0.026 C 
ATOM     14  C   UNL     1       2.386  42.608   9.337  1.00  0.00     0.005 C 
ATOM     15  C   UNL     1       1.808  43.621  10.343  1.00  0.00    -0.001 C 
ATOM     16  C   UNL     1       3.743  45.296  10.682  1.00  0.00     0.007 C 
ATOM     17  C   UNL     1       2.506  44.428  12.702  1.00  0.00     0.012 C 
ATOM     18  C   UNL     1       0.997  44.754   9.640  1.00  0.00     0.000 C 
ATOM     19  C   UNL     1       2.840  46.411  10.132  1.00  0.00     0.005 C 
ATOM     20  C   UNL     1       1.893  45.870   9.037  1.00  0.00     0.003 C 
ATOM     21  C   UNL     1      -0.078  45.337  10.572  1.00  0.00     0.031 C 
ATOM     22  C   UNL     1       1.017  46.963   8.282  1.00  0.00    -0.008 C 
ATOM     23  C   UNL     1      -0.818  46.495   9.963  1.00  0.00    -0.027 C 
ATOM     24  C   UNL     1      -0.291  47.296   9.010  1.00  0.00    -0.065 C 
ATOM     25  C   UNL     1       1.813  48.292   8.074  1.00  0.00     0.014 C 
ATOM     26  C   UNL     1       0.648  46.383   6.886  1.00  0.00     0.016 C 
ATOM     27  C   UNL     1      -1.125  48.462   8.502  1.00  0.00     0.063 C 
ATOM     28  C   UNL     1       0.978  49.428   7.462  1.00  0.00     0.033 C 
ATOM     29  C   UNL     1      -0.259  49.728   8.322  1.00  0.00     0.118 C 
BRANCH  29  30
ATOM     30  O   UNL     1      -0.970  50.786   7.725  1.00  0.00    -0.393 OA
ATOM     31  H   UNL     1      -1.468  50.449   6.936  1.00  0.00     0.210 HD
ENDBRANCH  29  30
ENDBRANCH   9  11
ENDBRANCH   1   9
TORSDOF 7
ENDMDL
MODEL 2
REMARK VINA RESULT:    -2.181      0.581      1.694
REMARK INTER + INTRA:          -4.137
REMARK INTER:                  -3.375
REMARK INTRA:                  -0.762
REMARK UNBOUND:                -1.127
REMARK SMILES CC[C@H](CC[C@@H](C)[C@H]1CC[C@@H]2[C@H]3CC=C4C[C@H](O)CC[C@@]4(C)[C@H]3CC[C@@]21C)C(C)C
REMARK SMILES IDX 5 1 4 2 3 3 2 4 1 5 28 6 29 7 30 8 6 9 7 10 8 11 9 12 26 13
REMARK SMILES IDX 10 14 11 15 25 16 27 17 12 18 24 19 23 20 13 21 21 22 14 23
REMARK SMILES IDX 15 24 20 25 22 26 16 27 19 28 17 29 18 30
REMARK H PARENT 18 31
REMARK Flexibility Score: inf
ROOT
ATOM      1  C   UNL     1       2.369  41.009  12.516  1.00  0.00     0.004 C 
ENDROOT
BRANCH   1   2
ATOM      2  C   UNL     1       2.346  39.585  13.136  1.00  0.00     0.004 C 
BRANCH   2   3
ATOM      3  C   UNL     1       0.917  39.104  13.538  1.00  0.00    -0.009 C 
BRANCH   3   4
ATOM      4  C   UNL     1      -0.001  40.306  13.921  1.00  0.00     0.000 C 
ATOM      5  C   UNL     1      -0.028  40.640  15.417  1.00  0.00     0.004 C 
ENDBRANCH   3   4
BRANCH   3   6
ATOM      6  C   UNL     1       0.291  38.149  12.456  1.00  0.00    -0.014 C 
ATOM      7  C   UNL     1       1.206  36.936  12.165  1.00  0.00     0.007 C 
ATOM      8  C   UNL     1      -1.098  37.619  12.876  1.00  0.00     0.007 C 
ENDBRANCH   3   6
ENDBRANCH   2   3
ENDBRANCH   1   2
BRANCH   1   9
ATOM      9  C   UNL     1       3.795  41.625  12.473  1.00  0.00    -0.011 C 
ATOM     10  C   UNL     1       4.858  40.522  12.337  1.00  0.00     0.008 C 
BRANCH   9  11
ATOM     11  C   UNL     1       3.892  42.848  11.456  1.00  0.00    -0.002 C 
ATOM     12  C   UNL     1       3.911  42.358   9.993  1.00  0.00     0.005 C 
ATOM     13  C   UNL     1       2.847  44.034  11.443  1.00  0.00    -0.026 C 
ATOM     14  C   UNL     1       2.540  42.652   9.396  1.00  0.00     0.005 C 
ATOM     15  C   UNL     1       1.804  43.594  10.368  1.00  0.00    -0.001 C 
ATOM     16  C   UNL     1       3.607  45.331  10.994  1.00  0.00     0.007 C 
ATOM     17  C   UNL     1       2.192  44.323  12.822  1.00  0.00     0.012 C 
ATOM     18  C   UNL     1       1.026  44.721   9.622  1.00  0.00     0.000 C 
ATOM     19  C   UNL     1       2.721  46.431  10.389  1.00  0.00     0.005 C 
ATOM     20  C   UNL     1       1.931  45.901   9.171  1.00  0.00     0.003 C 
ATOM     21  C   UNL     1      -0.174  45.217  10.446  1.00  0.00     0.031 C 
ATOM     22  C   UNL     1       1.097  46.988   8.364  1.00  0.00    -0.008 C 
ATOM     23  C   UNL     1      -0.893  46.368   9.802  1.00  0.00    -0.027 C 
ATOM     24  C   UNL     1      -0.300  47.233   8.949  1.00  0.00    -0.065 C 
ATOM     25  C   UNL     1       1.848  48.358   8.302  1.00  0.00     0.014 C 
ATOM     26  C   UNL     1       0.915  46.456   6.913  1.00  0.00     0.016 C 
ATOM     27  C   UNL     1      -1.125  48.384   8.395  1.00  0.00     0.063 C 
ATOM     28  C   UNL     1       1.035  49.484   7.644  1.00  0.00     0.033 C 
ATOM     29  C   UNL     1      -0.305  49.692   8.366  1.00  0.00     0.118 C 
BRANCH  29  30
ATOM     30  O   UNL     1      -0.992  50.746   7.735  1.00  0.00    -0.393 OA
ATOM     31  H   UNL     1      -0.479  51.588   7.841  1.00  0.00     0.210 HD
ENDBRANCH  29  30
ENDBRANCH   9  11
ENDBRANCH   1   9
TORSDOF 7
ENDMDL
MODEL 3
REMARK VINA RESULT:    -1.465      3.136      8.323
REMARK INTER + INTRA:          -3.149
REMARK INTER:                  -2.035
REMARK INTRA:                  -1.113
REMARK UNBOUND:                -1.127
REMARK SMILES CC[C@H](CC[C@@H](C)[C@H]1CC[C@@H]2[C@H]3CC=C4C[C@H](O)CC[C@@]4(C)[C@H]3CC[C@@]21C)C(C)C
REMARK SMILES IDX 5 1 4 2 3 3 2 4 1 5 28 6 29 7 30 8 6 9 7 10 8 11 9 12 26 13
REMARK SMILES IDX 10 14 11 15 25 16 27 17 12 18 24 19 23 20 13 21 21 22 14 23
REMARK SMILES IDX 15 24 20 25 22 26 16 27 19 28 17 29 18 30
REMARK H PARENT 18 31
REMARK Flexibility Score: inf
ROOT
ATOM      1  C   UNL     1       2.172  47.954   9.576  1.00  0.00     0.004 C 
ENDROOT
BRANCH   1   2
ATOM      2  C   UNL     1       0.637  48.044   9.357  1.00  0.00     0.004 C 
BRANCH   2   3
ATOM      3  C   UNL     1       0.240  48.591   7.951  1.00  0.00    -0.009 C 
BRANCH   3   4
ATOM      4  C   UNL     1      -1.045  47.890   7.411  1.00  0.00     0.000 C 
ATOM      5  C   UNL     1      -0.817  46.482   6.847  1.00  0.00     0.004 C 
ENDBRANCH   3   4
BRANCH   3   6
ATOM      6  C   UNL     1       0.158  50.162   7.932  1.00  0.00    -0.014 C 
ATOM      7  C   UNL     1       1.378  50.790   7.217  1.00  0.00     0.007 C 
ATOM      8  C   UNL     1      -1.125  50.674   7.241  1.00  0.00     0.007 C 
ENDBRANCH   3   6
ENDBRANCH   2   3
ENDBRANCH   1   2
BRANCH   1   9
ATOM      9  C   UNL     1       2.914  47.297   8.379  1.00  0.00    -0.011 C 
ATOM     10  C   UNL     1       3.861  48.306   7.708  1.00  0.00     0.008 C 
BRANCH   9  11
ATOM     11  C   UNL     1       3.528  45.876   8.759  1.00  0.00    -0.002 C 
ATOM     12  C   UNL     1       4.686  46.019   9.770  1.00  0.00     0.005 C 
ATOM     13  C   UNL     1       2.655  44.697   9.350  1.00  0.00    -0.026 C 
ATOM     14  C   UNL     1       4.161  45.569  11.129  1.00  0.00     0.005 C 
ATOM     15  C   UNL     1       2.814  44.860  10.894  1.00  0.00    -0.001 C 
ATOM     16  C   UNL     1       3.285  43.348   8.856  1.00  0.00     0.007 C 
ATOM     17  C   UNL     1       1.168  44.719   8.901  1.00  0.00     0.012 C 
ATOM     18  C   UNL     1       2.663  43.576  11.767  1.00  0.00     0.000 C 
ATOM     19  C   UNL     1       2.963  42.121   9.724  1.00  0.00     0.005 C 
ATOM     20  C   UNL     1       3.409  42.343  11.187  1.00  0.00     0.003 C 
ATOM     21  C   UNL     1       1.185  43.258  12.049  1.00  0.00     0.031 C 
ATOM     22  C   UNL     1       3.270  41.084  12.148  1.00  0.00    -0.008 C 
ATOM     23  C   UNL     1       0.994  41.976  12.808  1.00  0.00    -0.027 C 
ATOM     24  C   UNL     1       1.875  40.951  12.772  1.00  0.00    -0.065 C 
ATOM     25  C   UNL     1       3.599  39.752  11.400  1.00  0.00     0.014 C 
ATOM     26  C   UNL     1       4.291  41.267  13.308  1.00  0.00     0.016 C 
ATOM     27  C   UNL     1       1.548  39.688  13.553  1.00  0.00     0.063 C 
ATOM     28  C   UNL     1       3.361  38.489  12.243  1.00  0.00     0.033 C 
ATOM     29  C   UNL     1       1.910  38.424  12.741  1.00  0.00     0.118 C 
BRANCH  29  30
ATOM     30  O   UNL     1       1.747  37.241  13.486  1.00  0.00    -0.393 OA
ATOM     31  H   UNL     1       0.854  36.851  13.298  1.00  0.00     0.210 HD
ENDBRANCH  29  30
ENDBRANCH   9  11
ENDBRANCH   1   9
TORSDOF 7
ENDMDL
MODEL 4
REMARK VINA RESULT:    -1.154      3.778      8.838
REMARK INTER + INTRA:          -2.720
REMARK INTER:                  -3.089
REMARK INTRA:                   0.369
REMARK UNBOUND:                -1.127
REMARK SMILES CC[C@H](CC[C@@H](C)[C@H]1CC[C@@H]2[C@H]3CC=C4C[C@H](O)CC[C@@]4(C)[C@H]3CC[C@@]21C)C(C)C
REMARK SMILES IDX 5 1 4 2 3 3 2 4 1 5 28 6 29 7 30 8 6 9 7 10 8 11 9 12 26 13
REMARK SMILES IDX 10 14 11 15 25 16 27 17 12 18 24 19 23 20 13 21 21 22 14 23
REMARK SMILES IDX 15 24 20 25 22 26 16 27 19 28 17 29 18 30
REMARK H PARENT 18 31
REMARK Flexibility Score: inf
ROOT
ATOM      1  C   UNL     1       3.737  47.688   8.017  1.00  0.00     0.004 C 
ENDROOT
BRANCH   1   2
ATOM      2  C   UNL     1       4.899  48.717   7.952  1.00  0.00     0.004 C 
BRANCH   2   3
ATOM      3  C   UNL     1       5.901  48.600   9.141  1.00  0.00    -0.009 C 
BRANCH   3   4
ATOM      4  C   UNL     1       6.736  47.285   9.055  1.00  0.00     0.000 C 
ATOM      5  C   UNL     1       8.138  47.375   9.667  1.00  0.00     0.004 C 
ENDBRANCH   3   4
BRANCH   3   6
ATOM      6  C   UNL     1       6.778  49.897   9.302  1.00  0.00    -0.014 C 
ATOM      7  C   UNL     1       6.289  51.037   8.377  1.00  0.00     0.007 C 
ATOM      8  C   UNL     1       6.789  50.421  10.755  1.00  0.00     0.007 C 
ENDBRANCH   3   6
ENDBRANCH   2   3
ENDBRANCH   1   2
BRANCH   1   9
ATOM      9  C   UNL     1       3.459  47.183   9.460  1.00  0.00    -0.011 C 
ATOM     10  C   UNL     1       2.027  47.542   9.893  1.00  0.00     0.008 C 
BRANCH   9  11
ATOM     11  C   UNL     1       3.916  45.671   9.667  1.00  0.00    -0.002 C 
ATOM     12  C   UNL     1       5.015  45.562  10.746  1.00  0.00     0.005 C 
ATOM     13  C   UNL     1       2.905  44.515  10.042  1.00  0.00    -0.026 C 
ATOM     14  C   UNL     1       4.367  44.986  11.999  1.00  0.00     0.005 C 
ATOM     15  C   UNL     1       2.979  44.451  11.600  1.00  0.00    -0.001 C 
ATOM     16  C   UNL     1       3.439  43.189   9.396  1.00  0.00     0.007 C 
ATOM     17  C   UNL     1       1.457  44.743   9.525  1.00  0.00     0.012 C 
ATOM     18  C   UNL     1       2.657  43.083  12.275  1.00  0.00     0.000 C 
ATOM     19  C   UNL     1       2.953  41.894  10.066  1.00  0.00     0.005 C 
ATOM     20  C   UNL     1       3.323  41.872  11.566  1.00  0.00     0.003 C 
ATOM     21  C   UNL     1       1.141  42.877  12.434  1.00  0.00     0.031 C 
ATOM     22  C   UNL     1       3.011  40.515  12.334  1.00  0.00    -0.008 C 
ATOM     23  C   UNL     1       0.787  41.529  12.996  1.00  0.00    -0.027 C 
ATOM     24  C   UNL     1       1.572  40.437  12.861  1.00  0.00    -0.065 C 
ATOM     25  C   UNL     1       3.265  39.270  11.423  1.00  0.00     0.014 C 
ATOM     26  C   UNL     1       3.968  40.438  13.557  1.00  0.00     0.016 C 
ATOM     27  C   UNL     1       1.084  39.118  13.439  1.00  0.00     0.063 C 
ATOM     28  C   UNL     1       2.861  37.935  12.068  1.00  0.00     0.033 C 
ATOM     29  C   UNL     1       1.380  37.946  12.478  1.00  0.00     0.118 C 
BRANCH  29  30
ATOM     30  O   UNL     1       1.064  36.695  13.040  1.00  0.00    -0.393 OA
ATOM     31  H   UNL     1       0.181  36.747  13.490  1.00  0.00     0.210 HD
ENDBRANCH  29  30
ENDBRANCH   9  11
ENDBRANCH   1   9
TORSDOF 7
ENDMDL
MODEL 5
REMARK VINA RESULT:    -1.151      3.022      8.156
REMARK INTER + INTRA:          -2.716
REMARK INTER:                  -2.363
REMARK INTRA:                  -0.353
REMARK UNBOUND:                -1.127
REMARK SMILES CC[C@H](CC[C@@H](C)[C@H]1CC[C@@H]2[C@H]3CC=C4C[C@H](O)CC[C@@]4(C)[C@H]3CC[C@@]21C)C(C)C
REMARK SMILES IDX 5 1 4 2 3 3 2 4 1 5 28 6 29 7 30 8 6 9 7 10 8 11 9 12 26 13
REMARK SMILES IDX 10 14 11 15 25 16 27 17 12 18 24 19 23 20 13 21 21 22 14 23
REMARK SMILES IDX 15 24 20 25 22 26 16 27 19 28 17 29 18 30
REMARK H PARENT 18 31
REMARK Flexibility Score: inf
ROOT
ATOM      1  C   UNL     1       2.280  47.596   9.008  1.00  0.00     0.004 C 
ENDROOT
BRANCH   1   2
ATOM      2  C   UNL     1       1.357  48.181   7.905  1.00  0.00     0.004 C 
BRANCH   2   3
ATOM      3  C   UNL     1      -0.057  48.587   8.426  1.00  0.00    -0.009 C 
BRANCH   3   4
ATOM      4  C   UNL     1      -0.542  49.919   7.775  1.00  0.00     0.000 C 
ATOM      5  C   UNL     1       0.574  50.922   7.461  1.00  0.00     0.004 C 
ENDBRANCH   3   4
BRANCH   3   6
ATOM      6  C   UNL     1      -1.091  47.408   8.300  1.00  0.00    -0.014 C 
ATOM      7  C   UNL     1      -0.798  46.517   7.070  1.00  0.00     0.007 C 
ATOM      8  C   UNL     1      -1.111  46.509   9.556  1.00  0.00     0.007 C 
ENDBRANCH   3   6
ENDBRANCH   2   3
ENDBRANCH   1   2
BRANCH   1   9
ATOM      9  C   UNL     1       3.693  47.227   8.478  1.00  0.00    -0.011 C 
ATOM     10  C   UNL     1       4.688  48.369   8.745  1.00  0.00     0.008 C 
BRANCH   9  11
ATOM     11  C   UNL     1       4.141  45.764   8.926  1.00  0.00    -0.002 C 
ATOM     12  C   UNL     1       5.193  45.822  10.053  1.00  0.00     0.005 C 
ATOM     13  C   UNL     1       3.113  44.671   9.424  1.00  0.00    -0.026 C 
ATOM     14  C   UNL     1       4.491  45.434  11.350  1.00  0.00     0.005 C 
ATOM     15  C   UNL     1       3.121  44.838  10.976  1.00  0.00    -0.001 C 
ATOM     16  C   UNL     1       3.674  43.267   9.004  1.00  0.00     0.007 C 
ATOM     17  C   UNL     1       1.688  44.812   8.820  1.00  0.00     0.012 C 
ATOM     18  C   UNL     1       2.770  43.583  11.833  1.00  0.00     0.000 C 
ATOM     19  C   UNL     1       3.159  42.082   9.837  1.00  0.00     0.005 C 
ATOM     20  C   UNL     1       3.465  42.284  11.338  1.00  0.00     0.003 C 
ATOM     21  C   UNL     1       1.249  43.394  11.957  1.00  0.00     0.031 C 
ATOM     22  C   UNL     1       3.119  41.053  12.284  1.00  0.00    -0.008 C 
ATOM     23  C   UNL     1       0.871  42.142  12.696  1.00  0.00    -0.027 C 
ATOM     24  C   UNL     1       1.660  41.046  12.757  1.00  0.00    -0.065 C 
ATOM     25  C   UNL     1       3.411  39.689  11.579  1.00  0.00     0.014 C 
ATOM     26  C   UNL     1       4.024  41.163  13.544  1.00  0.00     0.016 C 
ATOM     27  C   UNL     1       1.146  39.824  13.502  1.00  0.00     0.063 C 
ATOM     28  C   UNL     1       2.979  38.461  12.396  1.00  0.00     0.033 C 
ATOM     29  C   UNL     1       1.482  38.525  12.738  1.00  0.00     0.118 C 
BRANCH  29  30
ATOM     30  O   UNL     1       1.141  37.369  13.465  1.00  0.00    -0.393 OA
ATOM     31  H   UNL     1       0.584  36.773  12.899  1.00  0.00     0.210 HD
ENDBRANCH  29  30
ENDBRANCH   9  11
ENDBRANCH   1   9
TORSDOF 7
ENDMDL
MODEL 6
REMARK VINA RESULT:    -0.459      1.680      2.970
REMARK INTER + INTRA:          -1.760
REMARK INTER:                  -1.735
REMARK INTRA:                  -0.025
REMARK UNBOUND:                -1.127
REMARK SMILES CC[C@H](CC[C@@H](C)[C@H]1CC[C@@H]2[C@H]3CC=C4C[C@H](O)CC[C@@]4(C)[C@H]3CC[C@@]21C)C(C)C
REMARK SMILES IDX 5 1 4 2 3 3 2 4 1 5 28 6 29 7 30 8 6 9 7 10 8 11 9 12 26 13
REMARK SMILES IDX 10 14 11 15 25 16 27 17 12 18 24 19 23 20 13 21 21 22 14 23
REMARK SMILES IDX 15 24 20 25 22 26 16 27 19 28 17 29 18 30
REMARK H PARENT 18 31
REMARK Flexibility Score: inf
ROOT
ATOM      1  C   UNL     1       2.348  39.191  12.557  1.00  0.00     0.004 C 
ENDROOT
BRANCH   1   2
ATOM      2  C   UNL     1       1.256  38.916  13.627  1.00  0.00     0.004 C 
BRANCH   2   3
ATOM      3  C   UNL     1      -0.162  39.422  13.215  1.00  0.00    -0.009 C 
BRANCH   3   4
ATOM      4  C   UNL     1      -1.105  38.234  12.850  1.00  0.00     0.000 C 
ATOM      5  C   UNL     1      -0.384  36.955  12.411  1.00  0.00     0.004 C 
ENDBRANCH   3   4
BRANCH   3   6
ATOM      6  C   UNL     1      -0.768  40.408  14.280  1.00  0.00    -0.014 C 
ATOM      7  C   UNL     1       0.200  40.637  15.465  1.00  0.00     0.007 C 
ATOM      8  C   UNL     1      -1.124  41.782  13.672  1.00  0.00     0.007 C 
ENDBRANCH   3   6
ENDBRANCH   2   3
ENDBRANCH   1   2
BRANCH   1   9
ATOM      9  C   UNL     1       3.027  40.578  12.732  1.00  0.00    -0.011 C 
ATOM     10  C   UNL     1       4.547  40.467  12.528  1.00  0.00     0.008 C 
BRANCH   9  11
ATOM     11  C   UNL     1       2.274  41.723  11.919  1.00  0.00    -0.002 C 
ATOM     12  C   UNL     1       1.529  42.685  12.869  1.00  0.00     0.005 C 
ATOM     13  C   UNL     1       3.018  42.689  10.912  1.00  0.00    -0.026 C 
ATOM     14  C   UNL     1       2.331  43.980  12.925  1.00  0.00     0.005 C 
ATOM     15  C   UNL     1       3.367  43.934  11.787  1.00  0.00    -0.001 C 
ATOM     16  C   UNL     1       2.004  43.063   9.775  1.00  0.00     0.007 C 
ATOM     17  C   UNL     1       4.273  42.065  10.241  1.00  0.00     0.012 C 
ATOM     18  C   UNL     1       3.503  45.305  11.056  1.00  0.00     0.000 C 
ATOM     19  C   UNL     1       2.309  44.374   9.034  1.00  0.00     0.005 C 
ATOM     20  C   UNL     1       2.378  45.565  10.016  1.00  0.00     0.003 C 
ATOM     21  C   UNL     1       4.897  45.474  10.430  1.00  0.00     0.031 C 
ATOM     22  C   UNL     1       2.533  47.000   9.349  1.00  0.00    -0.008 C 
ATOM     23  C   UNL     1       5.036  46.742   9.637  1.00  0.00    -0.027 C 
ATOM     24  C   UNL     1       3.992  47.376   9.057  1.00  0.00    -0.065 C 
ATOM     25  C   UNL     1       1.726  47.103   8.015  1.00  0.00     0.014 C 
ATOM     26  C   UNL     1       1.968  48.046  10.353  1.00  0.00     0.016 C 
ATOM     27  C   UNL     1       4.267  48.631   8.244  1.00  0.00     0.063 C 
ATOM     28  C   UNL     1       1.937  48.424   7.260  1.00  0.00     0.033 C 
ATOM     29  C   UNL     1       3.425  48.650   6.950  1.00  0.00     0.118 C 
BRANCH  29  30
ATOM     30  O   UNL     1       3.554  49.860   6.241  1.00  0.00    -0.393 OA
ATOM     31  H   UNL     1       4.432  49.882   5.780  1.00  0.00     0.210 HD
ENDBRANCH  29  30
ENDBRANCH   9  11
ENDBRANCH   1   9
TORSDOF 7
ENDMDL
MODEL 7
REMARK VINA RESULT:    -0.209      1.452      3.155
REMARK INTER + INTRA:          -1.416
REMARK INTER:                  -2.544
REMARK INTRA:                   1.128
REMARK UNBOUND:                -1.127
REMARK SMILES CC[C@H](CC[C@@H](C)[C@H]1CC[C@@H]2[C@H]3CC=C4C[C@H](O)CC[C@@]4(C)[C@H]3CC[C@@]21C)C(C)C
REMARK SMILES IDX 5 1 4 2 3 3 2 4 1 5 28 6 29 7 30 8 6 9 7 10 8 11 9 12 26 13
REMARK SMILES IDX 10 14 11 15 25 16 27 17 12 18 24 19 23 20 13 21 21 22 14 23
REMARK SMILES IDX 15 24 20 25 22 26 16 27 19 28 17 29 18 30
REMARK H PARENT 18 31
REMARK Flexibility Score: inf
ROOT
ATOM      1  C   UNL     1       3.331  38.683  13.019  1.00  0.00     0.004 C 
ENDROOT
BRANCH   1   2
ATOM      2  C   UNL     1       2.114  38.252  12.155  1.00  0.00     0.004 C 
BRANCH   2   3
ATOM      3  C   UNL     1       0.898  37.756  12.996  1.00  0.00    -0.009 C 
BRANCH   3   4
ATOM      4  C   UNL     1      -0.262  38.800  12.990  1.00  0.00     0.000 C 
ATOM      5  C   UNL     1      -0.381  39.632  14.271  1.00  0.00     0.004 C 
ENDBRANCH   3   4
BRANCH   3   6
ATOM      6  C   UNL     1       0.447  36.307  12.580  1.00  0.00    -0.014 C 
ATOM      7  C   UNL     1      -1.065  36.248  12.258  1.00  0.00     0.007 C 
ATOM      8  C   UNL     1       1.225  35.780  11.354  1.00  0.00     0.007 C 
ENDBRANCH   3   6
ENDBRANCH   2   3
ENDBRANCH   1   2
BRANCH   1   9
ATOM      9  C   UNL     1       3.663  40.195  12.882  1.00  0.00    -0.011 C 
ATOM     10  C   UNL     1       5.171  40.401  12.660  1.00  0.00     0.008 C 
BRANCH   9  11
ATOM     11  C   UNL     1       2.679  40.938  11.873  1.00  0.00    -0.002 C 
ATOM     12  C   UNL     1       1.309  41.214  12.529  1.00  0.00     0.005 C 
ATOM     13  C   UNL     1       3.045  42.308  11.173  1.00  0.00    -0.026 C 
ATOM     14  C   UNL     1       1.253  42.702  12.853  1.00  0.00     0.005 C 
ATOM     15  C   UNL     1       2.424  43.382  12.120  1.00  0.00    -0.001 C 
ATOM     16  C   UNL     1       2.349  42.323   9.767  1.00  0.00     0.007 C 
ATOM     17  C   UNL     1       4.568  42.522  10.950  1.00  0.00     0.012 C 
ATOM     18  C   UNL     1       2.011  44.744  11.483  1.00  0.00     0.000 C 
ATOM     19  C   UNL     1       2.106  43.721   9.175  1.00  0.00     0.005 C 
ATOM     20  C   UNL     1       1.260  44.591  10.132  1.00  0.00     0.003 C 
ATOM     21  C   UNL     1       3.215  45.692  11.353  1.00  0.00     0.031 C 
ATOM     22  C   UNL     1       0.811  46.006   9.561  1.00  0.00    -0.008 C 
ATOM     23  C   UNL     1       2.876  46.980  10.656  1.00  0.00    -0.027 C 
ATOM     24  C   UNL     1       1.864  47.102   9.768  1.00  0.00    -0.065 C 
ATOM     25  C   UNL     1       0.479  45.929   8.035  1.00  0.00     0.014 C 
ATOM     26  C   UNL     1      -0.473  46.433  10.327  1.00  0.00     0.016 C 
ATOM     27  C   UNL     1       1.647  48.449   9.098  1.00  0.00     0.063 C 
ATOM     28  C   UNL     1       0.160  47.291   7.399  1.00  0.00     0.033 C 
ATOM     29  C   UNL     1       1.320  48.279   7.598  1.00  0.00     0.118 C 
BRANCH  29  30
ATOM     30  O   UNL     1       0.981  49.496   6.979  1.00  0.00    -0.393 OA
ATOM     31  H   UNL     1       0.723  49.328   6.036  1.00  0.00     0.210 HD
ENDBRANCH  29  30
ENDBRANCH   9  11
ENDBRANCH   1   9
TORSDOF 7
ENDMDL
MODEL 8
REMARK VINA RESULT:     0.352      3.216      8.548
REMARK INTER + INTRA:          -0.642
REMARK INTER:                  -0.301
REMARK INTRA:                  -0.341
REMARK UNBOUND:                -1.127
REMARK SMILES CC[C@H](CC[C@@H](C)[C@H]1CC[C@@H]2[C@H]3CC=C4C[C@H](O)CC[C@@]4(C)[C@H]3CC[C@@]21C)C(C)C
REMARK SMILES IDX 5 1 4 2 3 3 2 4 1 5 28 6 29 7 30 8 6 9 7 10 8 11 9 12 26 13
REMARK SMILES IDX 10 14 11 15 25 16 27 17 12 18 24 19 23 20 13 21 21 22 14 23
REMARK SMILES IDX 15 24 20 25 22 26 16 27 19 28 17 29 18 30
REMARK H PARENT 18 31
REMARK Flexibility Score: inf
ROOT
ATOM      1  C   UNL     1       1.391  47.664   7.676  1.00  0.00     0.004 C 
ENDROOT
BRANCH   1   2
ATOM      2  C   UNL     1       2.664  48.035   8.485  1.00  0.00     0.004 C 
BRANCH   2   3
ATOM      3  C   UNL     1       3.927  48.251   7.595  1.00  0.00    -0.009 C 
BRANCH   3   4
ATOM      4  C   UNL     1       3.907  49.652   6.910  1.00  0.00     0.000 C 
ATOM      5  C   UNL     1       2.603  50.437   7.094  1.00  0.00     0.004 C 
ENDBRANCH   3   4
BRANCH   3   6
ATOM      6  C   UNL     1       5.257  47.948   8.378  1.00  0.00    -0.014 C 
ATOM      7  C   UNL     1       6.005  49.248   8.759  1.00  0.00     0.007 C 
ATOM      8  C   UNL     1       5.007  47.137   9.668  1.00  0.00     0.007 C 
ENDBRANCH   3   6
ENDBRANCH   2   3
ENDBRANCH   1   2
BRANCH   1   9
ATOM      9  C   UNL     1       0.125  47.538   8.568  1.00  0.00    -0.011 C 
ATOM     10  C   UNL     1      -1.114  48.075   7.831  1.00  0.00     0.008 C 
BRANCH   9  11
ATOM     11  C   UNL     1      -0.002  46.095   9.232  1.00  0.00    -0.002 C 
ATOM     12  C   UNL     1      -0.160  44.997   8.158  1.00  0.00     0.005 C 
ATOM     13  C   UNL     1       1.087  45.507  10.215  1.00  0.00    -0.026 C 
ATOM     14  C   UNL     1       1.171  44.259   8.064  1.00  0.00     0.005 C 
ATOM     15  C   UNL     1       2.021  44.679   9.277  1.00  0.00    -0.001 C 
ATOM     16  C   UNL     1       0.348  44.577  11.241  1.00  0.00     0.007 C 
ATOM     17  C   UNL     1       1.863  46.583  11.025  1.00  0.00     0.012 C 
ATOM     18  C   UNL     1       2.783  43.474   9.909  1.00  0.00     0.000 C 
ATOM     19  C   UNL     1       1.229  43.504  11.901  1.00  0.00     0.005 C 
ATOM     20  C   UNL     1       1.895  42.601  10.838  1.00  0.00     0.003 C 
ATOM     21  C   UNL     1       4.066  43.931  10.624  1.00  0.00     0.031 C 
ATOM     22  C   UNL     1       2.707  41.355  11.404  1.00  0.00    -0.008 C 
ATOM     23  C   UNL     1       4.778  42.810  11.326  1.00  0.00    -0.027 C 
ATOM     24  C   UNL     1       4.156  41.698  11.775  1.00  0.00    -0.065 C 
ATOM     25  C   UNL     1       2.012  40.741  12.661  1.00  0.00     0.014 C 
ATOM     26  C   UNL     1       2.748  40.277  10.283  1.00  0.00     0.016 C 
ATOM     27  C   UNL     1       4.981  40.652  12.509  1.00  0.00     0.063 C 
ATOM     28  C   UNL     1       2.815  39.613  13.327  1.00  0.00     0.033 C 
ATOM     29  C   UNL     1       4.216  40.098  13.731  1.00  0.00     0.118 C 
BRANCH  29  30
ATOM     30  O   UNL     1       4.895  39.032  14.352  1.00  0.00    -0.393 OA
ATOM     31  H   UNL     1       5.871  39.211  14.346  1.00  0.00     0.210 HD
ENDBRANCH  29  30
ENDBRANCH   9  11
ENDBRANCH   1   9
TORSDOF 7
ENDMDL
MODEL 9
REMARK VINA RESULT:     0.383      1.725      3.476
REMARK INTER + INTRA:          -0.598
REMARK INTER:                  -0.217
REMARK INTRA:                  -0.381
REMARK UNBOUND:                -1.127
REMARK SMILES CC[C@H](CC[C@@H](C)[C@H]1CC[C@@H]2[C@H]3CC=C4C[C@H](O)CC[C@@]4(C)[C@H]3CC[C@@]21C)C(C)C
REMARK SMILES IDX 5 1 4 2 3 3 2 4 1 5 28 6 29 7 30 8 6 9 7 10 8 11 9 12 26 13
REMARK SMILES IDX 10 14 11 15 25 16 27 17 12 18 24 19 23 20 13 21 21 22 14 23
REMARK SMILES IDX 15 24 20 25 22 26 16 27 19 28 17 29 18 30
REMARK H PARENT 18 31
REMARK Flexibility Score: inf
ROOT
ATOM      1  C   UNL     1       2.746  39.161  12.060  1.00  0.00     0.004 C 
ENDROOT
BRANCH   1   2
ATOM      2  C   UNL     1       2.226  38.272  13.223  1.00  0.00     0.004 C 
BRANCH   2   3
ATOM      3  C   UNL     1       0.674  38.107  13.235  1.00  0.00    -0.009 C 
BRANCH   3   4
ATOM      4  C   UNL     1      -0.044  39.492  13.238  1.00  0.00     0.000 C 
ATOM      5  C   UNL     1       0.010  40.239  14.576  1.00  0.00     0.004 C 
ENDBRANCH   3   4
BRANCH   3   6
ATOM      6  C   UNL     1       0.176  37.138  12.101  1.00  0.00    -0.014 C 
ATOM      7  C   UNL     1       1.247  36.083  11.737  1.00  0.00     0.007 C 
ATOM      8  C   UNL     1      -1.122  36.397  12.491  1.00  0.00     0.007 C 
ENDBRANCH   3   6
ENDBRANCH   2   3
ENDBRANCH   1   2
BRANCH   1   9
ATOM      9  C   UNL     1       3.171  40.580  12.530  1.00  0.00    -0.011 C 
ATOM     10  C   UNL     1       4.704  40.701  12.570  1.00  0.00     0.008 C 
BRANCH   9  11
ATOM     11  C   UNL     1       2.377  41.730  11.765  1.00  0.00    -0.002 C 
ATOM     12  C   UNL     1       1.640  42.655  12.755  1.00  0.00     0.005 C 
ATOM     13  C   UNL     1       3.080  42.733  10.764  1.00  0.00    -0.026 C 
ATOM     14  C   UNL     1       2.419  43.963  12.823  1.00  0.00     0.005 C 
ATOM     15  C   UNL     1       3.428  43.963  11.659  1.00  0.00    -0.001 C 
ATOM     16  C   UNL     1       2.031  43.115   9.661  1.00  0.00     0.007 C 
ATOM     17  C   UNL     1       4.328  42.148  10.047  1.00  0.00     0.012 C 
ATOM     18  C   UNL     1       3.521  45.354  10.959  1.00  0.00     0.000 C 
ATOM     19  C   UNL     1       2.293  44.449   8.945  1.00  0.00     0.005 C 
ATOM     20  C   UNL     1       2.366  45.617   9.954  1.00  0.00     0.003 C 
ATOM     21  C   UNL     1       4.896  45.562  10.303  1.00  0.00     0.031 C 
ATOM     22  C   UNL     1       2.479  47.071   9.318  1.00  0.00    -0.008 C 
ATOM     23  C   UNL     1       4.992  46.852   9.538  1.00  0.00    -0.027 C 
ATOM     24  C   UNL     1       3.923  47.479   8.999  1.00  0.00    -0.065 C 
ATOM     25  C   UNL     1       1.637  47.190   8.007  1.00  0.00     0.014 C 
ATOM     26  C   UNL     1       1.920  48.081  10.360  1.00  0.00     0.016 C 
ATOM     27  C   UNL     1       4.156  48.758   8.211  1.00  0.00     0.063 C 
ATOM     28  C   UNL     1       1.806  48.533   7.279  1.00  0.00     0.033 C 
ATOM     29  C   UNL     1       3.281  48.793   6.938  1.00  0.00     0.118 C 
BRANCH  29  30
ATOM     30  O   UNL     1       3.371  50.021   6.256  1.00  0.00    -0.393 OA
ATOM     31  H   UNL     1       3.693  49.865   5.331  1.00  0.00     0.210 HD
ENDBRANCH  29  30
ENDBRANCH   9  11
ENDBRANCH   1   9
TORSDOF 7
ENDMDL
