MODEL 1
REMARK VINA RESULT:    -6.276      0.000      0.000
REMARK INTER + INTRA:         -10.337
REMARK INTER:                  -8.660
REMARK INTRA:                  -1.677
REMARK UNBOUND:                -1.677
REMARK SMILES CC[C@@H](CC[C@@H](C)[C@H]1CC[C@H]2[C@H]3CC=C4C[C@@H](O)CC[C@]4(C)[C@@H]3CC[C@@]12C)C(C)C
REMARK SMILES IDX 5 1 4 2 3 3 2 4 1 5 28 6 29 7 30 8 6 9 7 10 8 11 9 12 26 13
REMARK SMILES IDX 10 14 11 15 25 16 27 17 12 18 24 19 23 20 13 21 21 22 14 23
REMARK SMILES IDX 15 24 20 25 22 26 16 27 19 28 17 29 18 30
REMARK H PARENT 18 31
REMARK Flexibility Score: inf
ROOT
ATOM      1  C   UNL     1     175.364 174.640 181.030  1.00  0.00     0.004 C 
ENDROOT
BRANCH   1   2
ATOM      2  C   UNL     1     176.804 175.207 180.934  1.00  0.00     0.004 C 
BRANCH   2   3
ATOM      3  C   UNL     1     176.932 176.431 179.982  1.00  0.00    -0.009 C 
BRANCH   3   4
ATOM      4  C   UNL     1     176.911 177.813 180.710  1.00  0.00     0.000 C 
ATOM      5  C   UNL     1     177.345 177.804 182.181  1.00  0.00     0.004 C 
ENDBRANCH   3   4
BRANCH   3   6
ATOM      6  C   UNL     1     175.933 176.323 178.783  1.00  0.00    -0.014 C 
ATOM      7  C   UNL     1     174.844 177.403 178.777  1.00  0.00     0.007 C 
ATOM      8  C   UNL     1     176.653 176.289 177.424  1.00  0.00     0.007 C 
ENDBRANCH   3   6
ENDBRANCH   2   3
ENDBRANCH   1   2
BRANCH   1   9
ATOM      9  C   UNL     1     174.817 174.524 182.481  1.00  0.00    -0.011 C 
ATOM     10  C   UNL     1     175.945 174.770 183.504  1.00  0.00     0.008 C 
BRANCH   9  11
ATOM     11  C   UNL     1     173.601 175.486 182.793  1.00  0.00    -0.002 C 
ATOM     12  C   UNL     1     173.502 176.798 181.996  1.00  0.00     0.005 C 
ATOM     13  C   UNL     1     172.174 174.869 182.687  1.00  0.00    -0.026 C 
ATOM     14  C   UNL     1     172.043 177.247 182.099  1.00  0.00     0.005 C 
ATOM     15  C   UNL     1     171.285 176.127 182.838  1.00  0.00    -0.001 C 
ATOM     16  C   UNL     1     171.931 174.197 181.297  1.00  0.00     0.007 C 
ATOM     17  C   UNL     1     171.914 173.863 183.833  1.00  0.00     0.012 C 
ATOM     18  C   UNL     1     169.792 175.935 182.425  1.00  0.00     0.000 C 
ATOM     19  C   UNL     1     170.450 173.948 181.005  1.00  0.00     0.005 C 
ATOM     20  C   UNL     1     169.618 175.253 181.051  1.00  0.00     0.003 C 
ATOM     21  C   UNL     1     169.047 177.278 182.427  1.00  0.00     0.031 C 
ATOM     22  C   UNL     1     168.090 175.044 180.661  1.00  0.00    -0.008 C 
ATOM     23  C   UNL     1     167.608 177.100 182.074  1.00  0.00    -0.027 C 
ATOM     24  C   UNL     1     167.173 176.147 181.224  1.00  0.00    -0.065 C 
ATOM     25  C   UNL     1     167.535 173.683 181.198  1.00  0.00     0.014 C 
ATOM     26  C   UNL     1     168.000 175.068 179.111  1.00  0.00     0.016 C 
ATOM     27  C   UNL     1     165.680 176.000 181.014  1.00  0.00     0.063 C 
ATOM     28  C   UNL     1     166.015 173.499 181.013  1.00  0.00     0.033 C 
ATOM     29  C   UNL     1     165.217 174.665 181.613  1.00  0.00     0.118 C 
BRANCH  29  30
ATOM     30  O   UNL     1     163.852 174.471 181.349  1.00  0.00    -0.393 OA
ATOM     31  H   UNL     1     163.459 174.055 182.161  1.00  0.00     0.210 HD
ENDBRANCH  29  30
ENDBRANCH   9  11
ENDBRANCH   1   9
TORSDOF 7
ENDMDL
MODEL 2
REMARK VINA RESULT:    -6.157      2.139      4.934
REMARK INTER + INTRA:         -10.173
REMARK INTER:                  -8.587
REMARK INTRA:                  -1.587
REMARK UNBOUND:                -1.677
REMARK SMILES CC[C@@H](CC[C@@H](C)[C@H]1CC[C@H]2[C@H]3CC=C4C[C@@H](O)CC[C@]4(C)[C@@H]3CC[C@@]12C)C(C)C
REMARK SMILES IDX 5 1 4 2 3 3 2 4 1 5 28 6 29 7 30 8 6 9 7 10 8 11 9 12 26 13
REMARK SMILES IDX 10 14 11 15 25 16 27 17 12 18 24 19 23 20 13 21 21 22 14 23
REMARK SMILES IDX 15 24 20 25 22 26 16 27 19 28 17 29 18 30
REMARK H PARENT 18 31
REMARK Flexibility Score: inf
ROOT
ATOM      1  C   UNL     1     171.558 177.565 181.055  1.00  0.00     0.004 C 
ENDROOT
BRANCH   1   2
ATOM      2  C   UNL     1     172.948 176.891 180.917  1.00  0.00     0.004 C 
BRANCH   2   3
ATOM      3  C   UNL     1     173.483 176.283 182.246  1.00  0.00    -0.009 C 
BRANCH   3   4
ATOM      4  C   UNL     1     174.807 176.932 182.759  1.00  0.00     0.000 C 
ATOM      5  C   UNL     1     175.906 175.958 183.201  1.00  0.00     0.004 C 
ENDBRANCH   3   4
BRANCH   3   6
ATOM      6  C   UNL     1     173.517 174.720 182.179  1.00  0.00    -0.014 C 
ATOM      7  C   UNL     1     172.717 174.030 183.292  1.00  0.00     0.007 C 
ATOM      8  C   UNL     1     173.084 174.184 180.805  1.00  0.00     0.007 C 
ENDBRANCH   3   6
ENDBRANCH   2   3
ENDBRANCH   1   2
BRANCH   1   9
ATOM      9  C   UNL     1     170.526 177.133 179.975  1.00  0.00    -0.011 C 
ATOM     10  C   UNL     1     171.244 176.770 178.659  1.00  0.00     0.008 C 
BRANCH   9  11
ATOM     11  C   UNL     1     169.591 175.936 180.416  1.00  0.00    -0.002 C 
ATOM     12  C   UNL     1     169.682 175.455 181.874  1.00  0.00     0.005 C 
ATOM     13  C   UNL     1     168.062 176.114 180.169  1.00  0.00    -0.026 C 
ATOM     14  C   UNL     1     168.375 174.709 182.155  1.00  0.00     0.005 C 
ATOM     15  C   UNL     1     167.488 174.880 180.907  1.00  0.00    -0.001 C 
ATOM     16  C   UNL     1     167.518 177.431 180.810  1.00  0.00     0.007 C 
ATOM     17  C   UNL     1     167.730 176.063 178.660  1.00  0.00     0.012 C 
ATOM     18  C   UNL     1     165.950 174.925 181.172  1.00  0.00     0.000 C 
ATOM     19  C   UNL     1     165.994 177.444 180.945  1.00  0.00     0.005 C 
ATOM     20  C   UNL     1     165.473 176.256 181.790  1.00  0.00     0.003 C 
ATOM     21  C   UNL     1     165.517 173.758 182.071  1.00  0.00     0.031 C 
ATOM     22  C   UNL     1     163.900 176.290 182.029  1.00  0.00    -0.008 C 
ATOM     23  C   UNL     1     164.041 173.767 182.296  1.00  0.00    -0.027 C 
ATOM     24  C   UNL     1     163.315 174.902 182.353  1.00  0.00    -0.065 C 
ATOM     25  C   UNL     1     163.134 176.816 180.769  1.00  0.00     0.014 C 
ATOM     26  C   UNL     1     163.634 177.234 183.232  1.00  0.00     0.016 C 
ATOM     27  C   UNL     1     161.810 174.784 182.491  1.00  0.00     0.063 C 
ATOM     28  C   UNL     1     161.599 176.703 180.867  1.00  0.00     0.033 C 
ATOM     29  C   UNL     1     161.146 175.274 181.198  1.00  0.00     0.118 C 
BRANCH  29  30
ATOM     30  O   UNL     1     159.750 175.256 181.341  1.00  0.00    -0.393 OA
ATOM     31  H   UNL     1     159.520 175.959 182.003  1.00  0.00     0.210 HD
ENDBRANCH  29  30
ENDBRANCH   9  11
ENDBRANCH   1   9
TORSDOF 7
ENDMDL
MODEL 3
REMARK VINA RESULT:    -6.010      3.118      9.173
REMARK INTER + INTRA:          -9.970
REMARK INTER:                  -8.855
REMARK INTRA:                  -1.116
REMARK UNBOUND:                -1.677
REMARK SMILES CC[C@@H](CC[C@@H](C)[C@H]1CC[C@H]2[C@H]3CC=C4C[C@@H](O)CC[C@]4(C)[C@@H]3CC[C@@]12C)C(C)C
REMARK SMILES IDX 5 1 4 2 3 3 2 4 1 5 28 6 29 7 30 8 6 9 7 10 8 11 9 12 26 13
REMARK SMILES IDX 10 14 11 15 25 16 27 17 12 18 24 19 23 20 13 21 21 22 14 23
REMARK SMILES IDX 15 24 20 25 22 26 16 27 19 28 17 29 18 30
REMARK H PARENT 18 31
REMARK Flexibility Score: inf
ROOT
ATOM      1  C   UNL     1     166.177 175.400 181.735  1.00  0.00     0.004 C 
ENDROOT
BRANCH   1   2
ATOM      2  C   UNL     1     164.709 175.026 181.406  1.00  0.00     0.004 C 
BRANCH   2   3
ATOM      3  C   UNL     1     163.721 175.276 182.582  1.00  0.00    -0.009 C 
BRANCH   3   4
ATOM      4  C   UNL     1     162.787 174.066 182.901  1.00  0.00     0.000 C 
ATOM      5  C   UNL     1     163.390 172.964 183.781  1.00  0.00     0.004 C 
ENDBRANCH   3   4
BRANCH   3   6
ATOM      6  C   UNL     1     162.971 176.639 182.413  1.00  0.00    -0.014 C 
ATOM      7  C   UNL     1     161.451 176.542 182.594  1.00  0.00     0.007 C 
ATOM      8  C   UNL     1     163.545 177.738 183.322  1.00  0.00     0.007 C 
ENDBRANCH   3   6
ENDBRANCH   2   3
ENDBRANCH   1   2
BRANCH   1   9
ATOM      9  C   UNL     1     166.896 176.214 180.623  1.00  0.00    -0.011 C 
ATOM     10  C   UNL     1     165.930 177.242 179.998  1.00  0.00     0.008 C 
BRANCH   9  11
ATOM     11  C   UNL     1     168.212 176.949 181.106  1.00  0.00    -0.002 C 
ATOM     12  C   UNL     1     168.422 177.119 182.619  1.00  0.00     0.005 C 
ATOM     13  C   UNL     1     169.565 176.368 180.597  1.00  0.00    -0.026 C 
ATOM     14  C   UNL     1     169.922 177.355 182.813  1.00  0.00     0.005 C 
ATOM     15  C   UNL     1     170.581 177.185 181.431  1.00  0.00    -0.001 C 
ATOM     16  C   UNL     1     169.703 174.844 180.915  1.00  0.00     0.007 C 
ATOM     17  C   UNL     1     169.751 176.629 179.084  1.00  0.00     0.012 C 
ATOM     18  C   UNL     1     172.036 176.619 181.440  1.00  0.00     0.000 C 
ATOM     19  C   UNL     1     171.143 174.339 180.806  1.00  0.00     0.005 C 
ATOM     20  C   UNL     1     172.104 175.107 181.745  1.00  0.00     0.003 C 
ATOM     21  C   UNL     1     172.913 177.383 182.443  1.00  0.00     0.031 C 
ATOM     22  C   UNL     1     173.592 174.545 181.725  1.00  0.00    -0.008 C 
ATOM     23  C   UNL     1     174.317 176.877 182.430  1.00  0.00    -0.027 C 
ATOM     24  C   UNL     1     174.631 175.588 182.182  1.00  0.00    -0.065 C 
ATOM     25  C   UNL     1     174.020 174.086 180.292  1.00  0.00     0.014 C 
ATOM     26  C   UNL     1     173.644 173.336 182.697  1.00  0.00     0.016 C 
ATOM     27  C   UNL     1     176.096 175.210 182.100  1.00  0.00     0.063 C 
ATOM     28  C   UNL     1     175.508 173.702 180.165  1.00  0.00     0.033 C 
ATOM     29  C   UNL     1     176.436 174.822 180.655  1.00  0.00     0.118 C 
BRANCH  29  30
ATOM     30  O   UNL     1     177.767 174.383 180.579  1.00  0.00    -0.393 OA
ATOM     31  H   UNL     1     178.065 174.533 179.644  1.00  0.00     0.210 HD
ENDBRANCH  29  30
ENDBRANCH   9  11
ENDBRANCH   1   9
TORSDOF 7
ENDMDL
MODEL 4
REMARK VINA RESULT:    -6.003      4.164      7.162
REMARK INTER + INTRA:          -9.960
REMARK INTER:                  -7.962
REMARK INTRA:                  -1.998
REMARK UNBOUND:                -1.677
REMARK SMILES CC[C@@H](CC[C@@H](C)[C@H]1CC[C@H]2[C@H]3CC=C4C[C@@H](O)CC[C@]4(C)[C@@H]3CC[C@@]12C)C(C)C
REMARK SMILES IDX 5 1 4 2 3 3 2 4 1 5 28 6 29 7 30 8 6 9 7 10 8 11 9 12 26 13
REMARK SMILES IDX 10 14 11 15 25 16 27 17 12 18 24 19 23 20 13 21 21 22 14 23
REMARK SMILES IDX 15 24 20 25 22 26 16 27 19 28 17 29 18 30
REMARK H PARENT 18 31
REMARK Flexibility Score: inf
ROOT
ATOM      1  C   UNL     1     174.211 176.582 182.682  1.00  0.00     0.004 C 
ENDROOT
BRANCH   1   2
ATOM      2  C   UNL     1     173.035 177.570 182.473  1.00  0.00     0.004 C 
BRANCH   2   3
ATOM      3  C   UNL     1     171.735 176.895 181.947  1.00  0.00    -0.009 C 
BRANCH   3   4
ATOM      4  C   UNL     1     170.950 177.748 180.901  1.00  0.00     0.000 C 
ATOM      5  C   UNL     1     170.277 176.967 179.766  1.00  0.00     0.004 C 
ENDBRANCH   3   4
BRANCH   3   6
ATOM      6  C   UNL     1     170.859 176.359 183.127  1.00  0.00    -0.014 C 
ATOM      7  C   UNL     1     169.628 177.223 183.433  1.00  0.00     0.007 C 
ATOM      8  C   UNL     1     170.441 174.893 182.924  1.00  0.00     0.007 C 
ENDBRANCH   3   6
ENDBRANCH   2   3
ENDBRANCH   1   2
BRANCH   1   9
ATOM      9  C   UNL     1     175.251 176.570 181.526  1.00  0.00    -0.011 C 
ATOM     10  C   UNL     1     176.661 176.262 182.072  1.00  0.00     0.008 C 
BRANCH   9  11
ATOM     11  C   UNL     1     174.906 175.563 180.355  1.00  0.00    -0.002 C 
ATOM     12  C   UNL     1     173.651 174.687 180.509  1.00  0.00     0.005 C 
ATOM     13  C   UNL     1     174.771 176.171 178.926  1.00  0.00    -0.026 C 
ATOM     14  C   UNL     1     173.275 174.235 179.096  1.00  0.00     0.005 C 
ATOM     15  C   UNL     1     174.230 174.960 178.128  1.00  0.00    -0.001 C 
ATOM     16  C   UNL     1     173.744 177.348 178.888  1.00  0.00     0.007 C 
ATOM     17  C   UNL     1     176.145 176.627 178.381  1.00  0.00     0.012 C 
ATOM     18  C   UNL     1     173.638 175.303 176.725  1.00  0.00     0.000 C 
ATOM     19  C   UNL     1     173.285 177.695 177.470  1.00  0.00     0.005 C 
ATOM     20  C   UNL     1     172.643 176.483 176.751  1.00  0.00     0.003 C 
ATOM     21  C   UNL     1     172.958 174.074 176.104  1.00  0.00     0.031 C 
ATOM     22  C   UNL     1     172.071 176.833 175.308  1.00  0.00    -0.008 C 
ATOM     23  C   UNL     1     172.425 174.381 174.744  1.00  0.00    -0.027 C 
ATOM     24  C   UNL     1     171.955 175.596 174.396  1.00  0.00    -0.065 C 
ATOM     25  C   UNL     1     172.982 177.860 174.557  1.00  0.00     0.014 C 
ATOM     26  C   UNL     1     170.656 177.438 175.505  1.00  0.00     0.016 C 
ATOM     27  C   UNL     1     171.528 175.816 172.959  1.00  0.00     0.063 C 
ATOM     28  C   UNL     1     172.586 178.103 173.086  1.00  0.00     0.033 C 
ATOM     29  C   UNL     1     172.501 176.794 172.288  1.00  0.00     0.118 C 
BRANCH  29  30
ATOM     30  O   UNL     1     172.070 177.079 170.983  1.00  0.00    -0.393 OA
ATOM     31  H   UNL     1     171.569 177.935 171.027  1.00  0.00     0.210 HD
ENDBRANCH  29  30
ENDBRANCH   9  11
ENDBRANCH   1   9
TORSDOF 7
ENDMDL
MODEL 5
REMARK VINA RESULT:    -5.948      3.737      5.622
REMARK INTER + INTRA:          -9.885
REMARK INTER:                  -7.802
REMARK INTRA:                  -2.084
REMARK UNBOUND:                -1.677
REMARK SMILES CC[C@@H](CC[C@@H](C)[C@H]1CC[C@H]2[C@H]3CC=C4C[C@@H](O)CC[C@]4(C)[C@@H]3CC[C@@]12C)C(C)C
REMARK SMILES IDX 5 1 4 2 3 3 2 4 1 5 28 6 29 7 30 8 6 9 7 10 8 11 9 12 26 13
REMARK SMILES IDX 10 14 11 15 25 16 27 17 12 18 24 19 23 20 13 21 21 22 14 23
REMARK SMILES IDX 15 24 20 25 22 26 16 27 19 28 17 29 18 30
REMARK H PARENT 18 31
REMARK Flexibility Score: inf
ROOT
ATOM      1  C   UNL     1     174.353 174.674 183.250  1.00  0.00     0.004 C 
ENDROOT
BRANCH   1   2
ATOM      2  C   UNL     1     175.635 174.262 182.480  1.00  0.00     0.004 C 
BRANCH   2   3
ATOM      3  C   UNL     1     176.640 175.431 182.268  1.00  0.00    -0.009 C 
BRANCH   3   4
ATOM      4  C   UNL     1     176.237 176.759 182.983  1.00  0.00     0.000 C 
ATOM      5  C   UNL     1     177.375 177.752 183.249  1.00  0.00     0.004 C 
ENDBRANCH   3   4
BRANCH   3   6
ATOM      6  C   UNL     1     177.000 175.600 180.754  1.00  0.00    -0.014 C 
ATOM      7  C   UNL     1     176.837 174.318 179.927  1.00  0.00     0.007 C 
ATOM      8  C   UNL     1     176.230 176.757 180.097  1.00  0.00     0.007 C 
ENDBRANCH   3   6
ENDBRANCH   2   3
ENDBRANCH   1   2
BRANCH   1   9
ATOM      9  C   UNL     1     173.028 174.202 182.586  1.00  0.00    -0.011 C 
ATOM     10  C   UNL     1     172.034 173.710 183.658  1.00  0.00     0.008 C 
BRANCH   9  11
ATOM     11  C   UNL     1     172.332 175.298 181.682  1.00  0.00    -0.002 C 
ATOM     12  C   UNL     1     172.943 176.710 181.668  1.00  0.00     0.005 C 
ATOM     13  C   UNL     1     172.148 174.949 180.174  1.00  0.00    -0.026 C 
ATOM     14  C   UNL     1     172.440 177.375 180.385  1.00  0.00     0.005 C 
ATOM     15  C   UNL     1     171.656 176.302 179.605  1.00  0.00    -0.001 C 
ATOM     16  C   UNL     1     173.498 174.536 179.503  1.00  0.00     0.007 C 
ATOM     17  C   UNL     1     171.083 173.845 179.983  1.00  0.00     0.012 C 
ATOM     18  C   UNL     1     171.709 176.423 178.050  1.00  0.00     0.000 C 
ATOM     19  C   UNL     1     173.443 174.582 177.975  1.00  0.00     0.005 C 
ATOM     20  C   UNL     1     173.062 175.986 177.446  1.00  0.00     0.003 C 
ATOM     21  C   UNL     1     171.388 177.856 177.602  1.00  0.00     0.031 C 
ATOM     22  C   UNL     1     173.086 176.093 175.859  1.00  0.00    -0.008 C 
ATOM     23  C   UNL     1     171.395 177.973 176.114  1.00  0.00    -0.027 C 
ATOM     24  C   UNL     1     172.206 177.240 175.324  1.00  0.00    -0.065 C 
ATOM     25  C   UNL     1     172.571 174.780 175.181  1.00  0.00     0.014 C 
ATOM     26  C   UNL     1     174.555 176.357 175.434  1.00  0.00     0.016 C 
ATOM     27  C   UNL     1     172.057 177.375 173.822  1.00  0.00     0.063 C 
ATOM     28  C   UNL     1     172.396 174.880 173.652  1.00  0.00     0.033 C 
ATOM     29  C   UNL     1     171.503 176.063 173.251  1.00  0.00     0.118 C 
BRANCH  29  30
ATOM     30  O   UNL     1     171.443 176.139 171.850  1.00  0.00    -0.393 OA
ATOM     31  H   UNL     1     171.470 175.206 171.511  1.00  0.00     0.210 HD
ENDBRANCH  29  30
ENDBRANCH   9  11
ENDBRANCH   1   9
TORSDOF 7
ENDMDL
MODEL 6
REMARK VINA RESULT:    -5.912      1.721      2.672
REMARK INTER + INTRA:          -9.836
REMARK INTER:                  -7.854
REMARK INTRA:                  -1.981
REMARK UNBOUND:                -1.677
REMARK SMILES CC[C@@H](CC[C@@H](C)[C@H]1CC[C@H]2[C@H]3CC=C4C[C@@H](O)CC[C@]4(C)[C@@H]3CC[C@@]12C)C(C)C
REMARK SMILES IDX 5 1 4 2 3 3 2 4 1 5 28 6 29 7 30 8 6 9 7 10 8 11 9 12 26 13
REMARK SMILES IDX 10 14 11 15 25 16 27 17 12 18 24 19 23 20 13 21 21 22 14 23
REMARK SMILES IDX 15 24 20 25 22 26 16 27 19 28 17 29 18 30
REMARK H PARENT 18 31
REMARK Flexibility Score: inf
ROOT
ATOM      1  C   UNL     1     176.892 173.777 181.328  1.00  0.00     0.004 C 
ENDROOT
BRANCH   1   2
ATOM      2  C   UNL     1     176.815 174.888 180.249  1.00  0.00     0.004 C 
BRANCH   2   3
ATOM      3  C   UNL     1     176.916 176.330 180.826  1.00  0.00    -0.009 C 
BRANCH   3   4
ATOM      4  C   UNL     1     176.996 176.390 182.385  1.00  0.00     0.000 C 
ATOM      5  C   UNL     1     177.389 177.745 182.986  1.00  0.00     0.004 C 
ENDBRANCH   3   4
BRANCH   3   6
ATOM      6  C   UNL     1     175.831 177.268 180.201  1.00  0.00    -0.014 C 
ATOM      7  C   UNL     1     175.554 176.999 178.716  1.00  0.00     0.007 C 
ATOM      8  C   UNL     1     174.516 177.251 180.998  1.00  0.00     0.007 C 
ENDBRANCH   3   6
ENDBRANCH   2   3
ENDBRANCH   1   2
BRANCH   1   9
ATOM      9  C   UNL     1     175.811 172.668 181.183  1.00  0.00    -0.011 C 
ATOM     10  C   UNL     1     176.366 171.310 181.661  1.00  0.00     0.008 C 
BRANCH   9  11
ATOM     11  C   UNL     1     174.457 172.982 181.938  1.00  0.00    -0.002 C 
ATOM     12  C   UNL     1     174.446 174.154 182.934  1.00  0.00     0.005 C 
ATOM     13  C   UNL     1     173.200 173.227 181.049  1.00  0.00    -0.026 C 
ATOM     14  C   UNL     1     172.978 174.554 183.100  1.00  0.00     0.005 C 
ATOM     15  C   UNL     1     172.170 173.703 182.101  1.00  0.00    -0.001 C 
ATOM     16  C   UNL     1     173.447 174.347 179.986  1.00  0.00     0.007 C 
ATOM     17  C   UNL     1     172.735 171.920 180.366  1.00  0.00     0.012 C 
ATOM     18  C   UNL     1     170.892 174.381 181.515  1.00  0.00     0.000 C 
ATOM     19  C   UNL     1     172.152 174.893 179.382  1.00  0.00     0.005 C 
ATOM     20  C   UNL     1     171.201 175.466 180.461  1.00  0.00     0.003 C 
ATOM     21  C   UNL     1     170.032 174.986 182.635  1.00  0.00     0.031 C 
ATOM     22  C   UNL     1     169.885 176.126 179.858  1.00  0.00    -0.008 C 
ATOM     23  C   UNL     1     168.786 175.600 182.089  1.00  0.00    -0.027 C 
ATOM     24  C   UNL     1     168.726 176.181 180.873  1.00  0.00    -0.065 C 
ATOM     25  C   UNL     1     169.355 175.334 178.617  1.00  0.00     0.014 C 
ATOM     26  C   UNL     1     170.245 177.576 179.437  1.00  0.00     0.016 C 
ATOM     27  C   UNL     1     167.383 176.687 180.385  1.00  0.00     0.063 C 
ATOM     28  C   UNL     1     167.984 175.812 178.096  1.00  0.00     0.033 C 
ATOM     29  C   UNL     1     166.920 175.826 179.203  1.00  0.00     0.118 C 
BRANCH  29  30
ATOM     30  O   UNL     1     165.721 176.335 178.681  1.00  0.00    -0.393 OA
ATOM     31  H   UNL     1     165.207 175.559 178.334  1.00  0.00     0.210 HD
ENDBRANCH  29  30
ENDBRANCH   9  11
ENDBRANCH   1   9
TORSDOF 7
ENDMDL
MODEL 7
REMARK VINA RESULT:    -5.883      4.125      5.892
REMARK INTER + INTRA:          -9.796
REMARK INTER:                  -8.125
REMARK INTRA:                  -1.671
REMARK UNBOUND:                -1.677
REMARK SMILES CC[C@@H](CC[C@@H](C)[C@H]1CC[C@H]2[C@H]3CC=C4C[C@@H](O)CC[C@]4(C)[C@@H]3CC[C@@]12C)C(C)C
REMARK SMILES IDX 5 1 4 2 3 3 2 4 1 5 28 6 29 7 30 8 6 9 7 10 8 11 9 12 26 13
REMARK SMILES IDX 10 14 11 15 25 16 27 17 12 18 24 19 23 20 13 21 21 22 14 23
REMARK SMILES IDX 15 24 20 25 22 26 16 27 19 28 17 29 18 30
REMARK H PARENT 18 31
REMARK Flexibility Score: inf
ROOT
ATOM      1  C   UNL     1     173.673 175.142 181.825  1.00  0.00     0.004 C 
ENDROOT
BRANCH   1   2
ATOM      2  C   UNL     1     174.796 175.289 182.884  1.00  0.00     0.004 C 
BRANCH   2   3
ATOM      3  C   UNL     1     176.222 175.007 182.329  1.00  0.00    -0.009 C 
BRANCH   3   4
ATOM      4  C   UNL     1     176.985 176.283 181.849  1.00  0.00     0.000 C 
ATOM      5  C   UNL     1     176.949 177.485 182.799  1.00  0.00     0.004 C 
ENDBRANCH   3   4
BRANCH   3   6
ATOM      6  C   UNL     1     176.203 173.840 181.287  1.00  0.00    -0.014 C 
ATOM      7  C   UNL     1     176.639 174.255 179.876  1.00  0.00     0.007 C 
ATOM      8  C   UNL     1     177.019 172.624 181.758  1.00  0.00     0.007 C 
ENDBRANCH   3   6
ENDBRANCH   2   3
ENDBRANCH   1   2
BRANCH   1   9
ATOM      9  C   UNL     1     172.798 176.414 181.639  1.00  0.00    -0.011 C 
ATOM     10  C   UNL     1     173.012 177.392 182.812  1.00  0.00     0.008 C 
BRANCH   9  11
ATOM     11  C   UNL     1     173.038 177.169 180.269  1.00  0.00    -0.002 C 
ATOM     12  C   UNL     1     174.361 176.910 179.530  1.00  0.00     0.005 C 
ATOM     13  C   UNL     1     171.947 176.991 179.171  1.00  0.00    -0.026 C 
ATOM     14  C   UNL     1     174.117 177.311 178.073  1.00  0.00     0.005 C 
ATOM     15  C   UNL     1     172.623 177.671 177.955  1.00  0.00    -0.001 C 
ATOM     16  C   UNL     1     171.669 175.484 178.864  1.00  0.00     0.007 C 
ATOM     17  C   UNL     1     170.639 177.719 179.559  1.00  0.00     0.012 C 
ATOM     18  C   UNL     1     171.961 177.366 176.575  1.00  0.00     0.000 C 
ATOM     19  C   UNL     1     170.928 175.270 177.543  1.00  0.00     0.005 C 
ATOM     20  C   UNL     1     171.698 175.863 176.339  1.00  0.00     0.003 C 
ATOM     21  C   UNL     1     172.813 177.924 175.426  1.00  0.00     0.031 C 
ATOM     22  C   UNL     1     171.001 175.577 174.938  1.00  0.00    -0.008 C 
ATOM     23  C   UNL     1     172.168 177.674 174.103  1.00  0.00    -0.027 C 
ATOM     24  C   UNL     1     171.412 176.587 173.848  1.00  0.00    -0.065 C 
ATOM     25  C   UNL     1     169.441 175.643 175.042  1.00  0.00     0.014 C 
ATOM     26  C   UNL     1     171.433 174.157 174.486  1.00  0.00     0.016 C 
ATOM     27  C   UNL     1     170.730 176.488 172.499  1.00  0.00     0.063 C 
ATOM     28  C   UNL     1     168.709 175.556 173.688  1.00  0.00     0.033 C 
ATOM     29  C   UNL     1     169.213 176.610 172.692  1.00  0.00     0.118 C 
BRANCH  29  30
ATOM     30  O   UNL     1     168.558 176.431 171.463  1.00  0.00    -0.393 OA
ATOM     31  H   UNL     1     169.233 176.593 170.753  1.00  0.00     0.210 HD
ENDBRANCH  29  30
ENDBRANCH   9  11
ENDBRANCH   1   9
TORSDOF 7
ENDMDL
MODEL 8
REMARK VINA RESULT:    -5.772      3.018      9.172
REMARK INTER + INTRA:          -9.643
REMARK INTER:                  -8.163
REMARK INTRA:                  -1.480
REMARK UNBOUND:                -1.677
REMARK SMILES CC[C@@H](CC[C@@H](C)[C@H]1CC[C@H]2[C@H]3CC=C4C[C@@H](O)CC[C@]4(C)[C@@H]3CC[C@@]12C)C(C)C
REMARK SMILES IDX 5 1 4 2 3 3 2 4 1 5 28 6 29 7 30 8 6 9 7 10 8 11 9 12 26 13
REMARK SMILES IDX 10 14 11 15 25 16 27 17 12 18 24 19 23 20 13 21 21 22 14 23
REMARK SMILES IDX 15 24 20 25 22 26 16 27 19 28 17 29 18 30
REMARK H PARENT 18 31
REMARK Flexibility Score: inf
ROOT
ATOM      1  C   UNL     1     165.235 176.283 180.047  1.00  0.00     0.004 C 
ENDROOT
BRANCH   1   2
ATOM      2  C   UNL     1     163.807 176.797 180.366  1.00  0.00     0.004 C 
BRANCH   2   3
ATOM      3  C   UNL     1     162.924 175.762 181.122  1.00  0.00    -0.009 C 
BRANCH   3   4
ATOM      4  C   UNL     1     161.906 176.399 182.120  1.00  0.00     0.000 C 
ATOM      5  C   UNL     1     162.145 177.871 182.477  1.00  0.00     0.004 C 
ENDBRANCH   3   4
BRANCH   3   6
ATOM      6  C   UNL     1     163.794 174.616 181.736  1.00  0.00    -0.014 C 
ATOM      7  C   UNL     1     163.929 174.684 183.262  1.00  0.00     0.007 C 
ATOM      8  C   UNL     1     163.309 173.221 181.307  1.00  0.00     0.007 C 
ENDBRANCH   3   6
ENDBRANCH   2   3
ENDBRANCH   1   2
BRANCH   1   9
ATOM      9  C   UNL     1     166.365 176.996 180.843  1.00  0.00    -0.011 C 
ATOM     10  C   UNL     1     165.772 178.081 181.766  1.00  0.00     0.008 C 
BRANCH   9  11
ATOM     11  C   UNL     1     167.275 176.018 181.691  1.00  0.00    -0.002 C 
ATOM     12  C   UNL     1     167.426 174.570 181.197  1.00  0.00     0.005 C 
ATOM     13  C   UNL     1     168.738 176.481 181.963  1.00  0.00    -0.026 C 
ATOM     14  C   UNL     1     168.702 174.032 181.848  1.00  0.00     0.005 C 
ATOM     15  C   UNL     1     169.347 175.211 182.603  1.00  0.00    -0.001 C 
ATOM     16  C   UNL     1     169.491 176.838 180.641  1.00  0.00     0.007 C 
ATOM     17  C   UNL     1     168.773 177.672 182.949  1.00  0.00     0.012 C 
ATOM     18  C   UNL     1     170.906 175.192 182.680  1.00  0.00     0.000 C 
ATOM     19  C   UNL     1     171.010 176.900 180.817  1.00  0.00     0.005 C 
ATOM     20  C   UNL     1     171.591 175.567 181.348  1.00  0.00     0.003 C 
ATOM     21  C   UNL     1     171.414 173.820 183.147  1.00  0.00     0.031 C 
ATOM     22  C   UNL     1     173.178 175.567 181.455  1.00  0.00    -0.008 C 
ATOM     23  C   UNL     1     172.901 173.804 183.264  1.00  0.00    -0.027 C 
ATOM     24  C   UNL     1     173.709 174.527 182.462  1.00  0.00    -0.065 C 
ATOM     25  C   UNL     1     173.729 176.957 181.915  1.00  0.00     0.014 C 
ATOM     26  C   UNL     1     173.738 175.225 180.048  1.00  0.00     0.016 C 
ATOM     27  C   UNL     1     175.199 174.506 182.736  1.00  0.00     0.063 C 
ATOM     28  C   UNL     1     175.242 176.974 182.215  1.00  0.00     0.033 C 
ATOM     29  C   UNL     1     175.641 175.890 183.227  1.00  0.00     0.118 C 
BRANCH  29  30
ATOM     30  O   UNL     1     177.033 175.915 183.401  1.00  0.00    -0.393 OA
ATOM     31  H   UNL     1     177.214 176.485 184.193  1.00  0.00     0.210 HD
ENDBRANCH  29  30
ENDBRANCH   9  11
ENDBRANCH   1   9
TORSDOF 7
ENDMDL
MODEL 9
REMARK VINA RESULT:    -5.759      4.744      6.859
REMARK INTER + INTRA:          -9.624
REMARK INTER:                  -7.961
REMARK INTRA:                  -1.663
REMARK UNBOUND:                -1.677
REMARK SMILES CC[C@@H](CC[C@@H](C)[C@H]1CC[C@H]2[C@H]3CC=C4C[C@@H](O)CC[C@]4(C)[C@@H]3CC[C@@]12C)C(C)C
REMARK SMILES IDX 5 1 4 2 3 3 2 4 1 5 28 6 29 7 30 8 6 9 7 10 8 11 9 12 26 13
REMARK SMILES IDX 10 14 11 15 25 16 27 17 12 18 24 19 23 20 13 21 21 22 14 23
REMARK SMILES IDX 15 24 20 25 22 26 16 27 19 28 17 29 18 30
REMARK H PARENT 18 31
REMARK Flexibility Score: inf
ROOT
ATOM      1  C   UNL     1     173.993 174.651 180.891  1.00  0.00     0.004 C 
ENDROOT
BRANCH   1   2
ATOM      2  C   UNL     1     175.053 174.931 181.987  1.00  0.00     0.004 C 
BRANCH   2   3
ATOM      3  C   UNL     1     176.498 175.095 181.433  1.00  0.00    -0.009 C 
BRANCH   3   4
ATOM      4  C   UNL     1     177.450 173.902 181.764  1.00  0.00     0.000 C 
ATOM      5  C   UNL     1     176.918 172.504 181.425  1.00  0.00     0.004 C 
ENDBRANCH   3   4
BRANCH   3   6
ATOM      6  C   UNL     1     177.084 176.501 181.788  1.00  0.00    -0.014 C 
ATOM      7  C   UNL     1     176.898 177.552 180.685  1.00  0.00     0.007 C 
ATOM      8  C   UNL     1     176.549 177.036 183.127  1.00  0.00     0.007 C 
ENDBRANCH   3   6
ENDBRANCH   2   3
ENDBRANCH   1   2
BRANCH   1   9
ATOM      9  C   UNL     1     173.197 175.906 180.435  1.00  0.00    -0.011 C 
ATOM     10  C   UNL     1     173.272 177.012 181.508  1.00  0.00     0.008 C 
BRANCH   9  11
ATOM     11  C   UNL     1     173.657 176.492 179.039  1.00  0.00    -0.002 C 
ATOM     12  C   UNL     1     174.810 175.783 178.309  1.00  0.00     0.005 C 
ATOM     13  C   UNL     1     172.555 176.648 177.947  1.00  0.00    -0.026 C 
ATOM     14  C   UNL     1     174.695 176.193 176.839  1.00  0.00     0.005 C 
ATOM     15  C   UNL     1     173.404 177.024 176.708  1.00  0.00    -0.001 C 
ATOM     16  C   UNL     1     171.790 175.309 177.696  1.00  0.00     0.007 C 
ATOM     17  C   UNL     1     171.568 177.782 178.309  1.00  0.00     0.012 C 
ATOM     18  C   UNL     1     172.662 176.909 175.340  1.00  0.00     0.000 C 
ATOM     19  C   UNL     1     171.004 175.308 176.383  1.00  0.00     0.005 C 
ATOM     20  C   UNL     1     171.913 175.571 175.158  1.00  0.00     0.003 C 
ATOM     21  C   UNL     1     173.637 177.113 174.171  1.00  0.00     0.031 C 
ATOM     22  C   UNL     1     171.143 175.486 173.768  1.00  0.00    -0.008 C 
ATOM     23  C   UNL     1     172.930 177.047 172.858  1.00  0.00    -0.027 C 
ATOM     24  C   UNL     1     171.853 176.263 172.643  1.00  0.00    -0.065 C 
ATOM     25  C   UNL     1     169.695 176.068 173.871  1.00  0.00     0.014 C 
ATOM     26  C   UNL     1     171.075 173.987 173.368  1.00  0.00     0.016 C 
ATOM     27  C   UNL     1     171.160 176.351 171.298  1.00  0.00     0.063 C 
ATOM     28  C   UNL     1     168.959 176.183 172.520  1.00  0.00     0.033 C 
ATOM     29  C   UNL     1     169.772 176.976 171.487  1.00  0.00     0.118 C 
BRANCH  29  30
ATOM     30  O   UNL     1     169.080 176.982 170.265  1.00  0.00    -0.393 OA
ATOM     31  H   UNL     1     168.356 176.308 170.342  1.00  0.00     0.210 HD
ENDBRANCH  29  30
ENDBRANCH   9  11
ENDBRANCH   1   9
TORSDOF 7
ENDMDL
