MODEL 1
REMARK VINA RESULT:    22.453      0.000      0.000
REMARK INTER + INTRA:          30.408
REMARK INTER:                  30.985
REMARK INTRA:                  -0.577
REMARK UNBOUND:                -0.577
REMARK SMILES CC[C@H](CC[C@@H](C)[C@H]1CC[C@H]2[C@@H]3CC=C4C[C@@H](O)CC[C@]4(C)[C@H]3CC[C@@]12C)C(C)C
REMARK SMILES IDX 5 1 4 2 3 3 2 4 1 5 28 6 29 7 30 8 6 9 7 10 8 11 9 12 26 13
REMARK SMILES IDX 10 14 11 15 25 16 27 17 12 18 24 19 23 20 13 21 21 22 14 23
REMARK SMILES IDX 15 24 20 25 22 26 16 27 19 28 17 29 18 30
REMARK H PARENT 18 31
REMARK Flexibility Score: inf
ROOT
ATOM      1  C   UNL     1      14.859  23.164   4.206  1.00  0.00     0.004 C 
ENDROOT
BRANCH   1   2
ATOM      2  C   UNL     1      15.376  23.191   5.663  1.00  0.00     0.004 C 
BRANCH   2   3
ATOM      3  C   UNL     1      15.069  21.922   6.510  1.00  0.00    -0.009 C 
BRANCH   3   4
ATOM      4  C   UNL     1      14.337  20.844   5.666  1.00  0.00     0.000 C 
ATOM      5  C   UNL     1      12.826  21.068   5.587  1.00  0.00     0.004 C 
ENDBRANCH   3   4
BRANCH   3   6
ATOM      6  C   UNL     1      16.255  21.376   7.379  1.00  0.00    -0.014 C 
ATOM      7  C   UNL     1      17.614  22.059   7.155  1.00  0.00     0.007 C 
ATOM      8  C   UNL     1      15.917  21.355   8.880  1.00  0.00     0.007 C 
ENDBRANCH   3   6
ENDBRANCH   2   3
ENDBRANCH   1   2
BRANCH   1   9
ATOM      9  C   UNL     1      15.528  24.163   3.220  1.00  0.00    -0.011 C 
ATOM     10  C   UNL     1      16.743  24.851   3.878  1.00  0.00     0.008 C 
BRANCH   9  11
ATOM     11  C   UNL     1      15.868  23.717   1.750  1.00  0.00    -0.002 C 
ATOM     12  C   UNL     1      16.955  22.662   1.543  1.00  0.00     0.005 C 
ATOM     13  C   UNL     1      14.732  23.338   0.752  1.00  0.00    -0.026 C 
ATOM     14  C   UNL     1      16.788  22.189   0.093  1.00  0.00     0.005 C 
ATOM     15  C   UNL     1      15.574  22.944  -0.490  1.00  0.00    -0.001 C 
ATOM     16  C   UNL     1      13.861  22.130   1.251  1.00  0.00     0.007 C 
ATOM     17  C   UNL     1      13.854  24.584   0.461  1.00  0.00     0.012 C 
ATOM     18  C   UNL     1      14.836  22.146  -1.622  1.00  0.00     0.000 C 
ATOM     19  C   UNL     1      13.521  21.048   0.206  1.00  0.00     0.005 C 
ATOM     20  C   UNL     1      13.436  21.625  -1.215  1.00  0.00     0.003 C 
ATOM     21  C   UNL     1      14.716  22.974  -2.911  1.00  0.00     0.031 C 
ATOM     22  C   UNL     1      12.854  20.663  -2.320  1.00  0.00    -0.008 C 
ATOM     23  C   UNL     1      13.807  22.355  -3.943  1.00  0.00    -0.027 C 
ATOM     24  C   UNL     1      12.887  21.398  -3.671  1.00  0.00    -0.065 C 
ATOM     25  C   UNL     1      11.370  20.321  -1.997  1.00  0.00     0.014 C 
ATOM     26  C   UNL     1      13.678  19.349  -2.422  1.00  0.00     0.016 C 
ATOM     27  C   UNL     1      11.754  21.227  -4.665  1.00  0.00     0.063 C 
ATOM     28  C   UNL     1      10.639  19.523  -3.099  1.00  0.00     0.033 C 
ATOM     29  C   UNL     1      11.045  19.875  -4.550  1.00  0.00     0.118 C 
BRANCH  29  30
ATOM     30  O   UNL     1      11.873  18.878  -5.095  1.00  0.00    -0.393 OA
ATOM     31  H   UNL     1      11.703  18.045  -4.579  1.00  0.00     0.210 HD
ENDBRANCH  29  30
ENDBRANCH   9  11
ENDBRANCH   1   9
TORSDOF 7
ENDMDL
MODEL 2
REMARK VINA RESULT:    23.271      0.583      1.777
REMARK INTER + INTRA:          31.537
REMARK INTER:                  32.465
REMARK INTRA:                  -0.928
REMARK UNBOUND:                -0.577
REMARK SMILES CC[C@H](CC[C@@H](C)[C@H]1CC[C@H]2[C@@H]3CC=C4C[C@@H](O)CC[C@]4(C)[C@H]3CC[C@@]12C)C(C)C
REMARK SMILES IDX 5 1 4 2 3 3 2 4 1 5 28 6 29 7 30 8 6 9 7 10 8 11 9 12 26 13
REMARK SMILES IDX 10 14 11 15 25 16 27 17 12 18 24 19 23 20 13 21 21 22 14 23
REMARK SMILES IDX 15 24 20 25 22 26 16 27 19 28 17 29 18 30
REMARK H PARENT 18 31
REMARK Flexibility Score: inf
ROOT
ATOM      1  C   UNL     1      16.152  23.250   4.372  1.00  0.00     0.004 C 
ENDROOT
BRANCH   1   2
ATOM      2  C   UNL     1      15.232  23.172   5.611  1.00  0.00     0.004 C 
BRANCH   2   3
ATOM      3  C   UNL     1      14.655  21.763   5.936  1.00  0.00    -0.009 C 
BRANCH   3   4
ATOM      4  C   UNL     1      14.901  21.382   7.420  1.00  0.00     0.000 C 
ATOM      5  C   UNL     1      16.373  21.464   7.826  1.00  0.00     0.004 C 
ENDBRANCH   3   4
BRANCH   3   6
ATOM      6  C   UNL     1      13.200  21.483   5.422  1.00  0.00    -0.014 C 
ATOM      7  C   UNL     1      12.787  22.239   4.149  1.00  0.00     0.007 C 
ATOM      8  C   UNL     1      12.918  19.980   5.259  1.00  0.00     0.007 C 
ENDBRANCH   3   6
ENDBRANCH   2   3
ENDBRANCH   1   2
BRANCH   1   9
ATOM      9  C   UNL     1      15.637  24.113   3.185  1.00  0.00    -0.011 C 
ATOM     10  C   UNL     1      15.969  25.603   3.409  1.00  0.00     0.008 C 
BRANCH   9  11
ATOM     11  C   UNL     1      15.950  23.688   1.703  1.00  0.00    -0.002 C 
ATOM     12  C   UNL     1      17.043  22.647   1.460  1.00  0.00     0.005 C 
ATOM     13  C   UNL     1      14.796  23.307   0.726  1.00  0.00    -0.026 C 
ATOM     14  C   UNL     1      16.850  22.189   0.008  1.00  0.00     0.005 C 
ATOM     15  C   UNL     1      15.615  22.937  -0.539  1.00  0.00    -0.001 C 
ATOM     16  C   UNL     1      13.949  22.084   1.230  1.00  0.00     0.007 C 
ATOM     17  C   UNL     1      13.898  24.547   0.469  1.00  0.00     0.012 C 
ATOM     18  C   UNL     1      14.861  22.145  -1.664  1.00  0.00     0.000 C 
ATOM     19  C   UNL     1      13.598  21.010   0.179  1.00  0.00     0.005 C 
ATOM     20  C   UNL     1      13.476  21.603  -1.232  1.00  0.00     0.003 C 
ATOM     21  C   UNL     1      14.703  22.986  -2.940  1.00  0.00     0.031 C 
ATOM     22  C   UNL     1      12.880  20.647  -2.335  1.00  0.00    -0.008 C 
ATOM     23  C   UNL     1      13.778  22.369  -3.959  1.00  0.00    -0.027 C 
ATOM     24  C   UNL     1      12.875  21.399  -3.678  1.00  0.00    -0.065 C 
ATOM     25  C   UNL     1      11.407  20.286  -1.984  1.00  0.00     0.014 C 
ATOM     26  C   UNL     1      13.715  19.344  -2.471  1.00  0.00     0.016 C 
ATOM     27  C   UNL     1      11.722  21.227  -4.649  1.00  0.00     0.063 C 
ATOM     28  C   UNL     1      10.660  19.492  -3.079  1.00  0.00     0.033 C 
ATOM     29  C   UNL     1      11.031  19.866  -4.535  1.00  0.00     0.118 C 
BRANCH  29  30
ATOM     30  O   UNL     1      11.857  18.884  -5.110  1.00  0.00    -0.393 OA
ATOM     31  H   UNL     1      11.317  18.420  -5.804  1.00  0.00     0.210 HD
ENDBRANCH  29  30
ENDBRANCH   9  11
ENDBRANCH   1   9
TORSDOF 7
ENDMDL
MODEL 3
REMARK VINA RESULT:    23.935      1.258      2.209
REMARK INTER + INTRA:          32.452
REMARK INTER:                  31.539
REMARK INTRA:                   0.913
REMARK UNBOUND:                -0.577
REMARK SMILES CC[C@H](CC[C@@H](C)[C@H]1CC[C@H]2[C@@H]3CC=C4C[C@@H](O)CC[C@]4(C)[C@H]3CC[C@@]12C)C(C)C
REMARK SMILES IDX 5 1 4 2 3 3 2 4 1 5 28 6 29 7 30 8 6 9 7 10 8 11 9 12 26 13
REMARK SMILES IDX 10 14 11 15 25 16 27 17 12 18 24 19 23 20 13 21 21 22 14 23
REMARK SMILES IDX 15 24 20 25 22 26 16 27 19 28 17 29 18 30
REMARK H PARENT 18 31
REMARK Flexibility Score: inf
ROOT
ATOM      1  C   UNL     1      16.654  23.254   3.973  1.00  0.00     0.004 C 
ENDROOT
BRANCH   1   2
ATOM      2  C   UNL     1      17.147  23.756   5.349  1.00  0.00     0.004 C 
BRANCH   2   3
ATOM      3  C   UNL     1      16.549  23.026   6.587  1.00  0.00    -0.009 C 
BRANCH   3   4
ATOM      4  C   UNL     1      15.169  22.397   6.258  1.00  0.00     0.000 C 
ATOM      5  C   UNL     1      14.489  21.769   7.475  1.00  0.00     0.004 C 
ENDBRANCH   3   4
BRANCH   3   6
ATOM      6  C   UNL     1      17.529  22.079   7.363  1.00  0.00    -0.014 C 
ATOM      7  C   UNL     1      18.735  22.766   8.023  1.00  0.00     0.007 C 
ATOM      8  C   UNL     1      16.798  21.196   8.388  1.00  0.00     0.007 C 
ENDBRANCH   3   6
ENDBRANCH   2   3
ENDBRANCH   1   2
BRANCH   1   9
ATOM      9  C   UNL     1      16.856  24.223   2.774  1.00  0.00    -0.011 C 
ATOM     10  C   UNL     1      18.163  23.894   2.020  1.00  0.00     0.008 C 
BRANCH   9  11
ATOM     11  C   UNL     1      15.680  24.487   1.763  1.00  0.00    -0.002 C 
ATOM     12  C   UNL     1      15.898  25.508   0.645  1.00  0.00     0.005 C 
ATOM     13  C   UNL     1      14.926  23.299   1.093  1.00  0.00    -0.026 C 
ATOM     14  C   UNL     1      14.756  25.266  -0.351  1.00  0.00     0.005 C 
ATOM     15  C   UNL     1      13.933  24.075   0.187  1.00  0.00    -0.001 C 
ATOM     16  C   UNL     1      15.872  22.381   0.238  1.00  0.00     0.007 C 
ATOM     17  C   UNL     1      14.174  22.480   2.175  1.00  0.00     0.012 C 
ATOM     18  C   UNL     1      13.218  23.257  -0.944  1.00  0.00     0.000 C 
ATOM     19  C   UNL     1      15.345  21.948  -1.146  1.00  0.00     0.005 C 
ATOM     20  C   UNL     1      13.813  21.846  -1.173  1.00  0.00     0.003 C 
ATOM     21  C   UNL     1      11.708  23.137  -0.688  1.00  0.00     0.031 C 
ATOM     22  C   UNL     1      13.186  21.175  -2.454  1.00  0.00    -0.008 C 
ATOM     23  C   UNL     1      11.015  22.161  -1.606  1.00  0.00    -0.027 C 
ATOM     24  C   UNL     1      11.654  21.201  -2.316  1.00  0.00    -0.065 C 
ATOM     25  C   UNL     1      13.633  19.686  -2.546  1.00  0.00     0.014 C 
ATOM     26  C   UNL     1      13.605  21.922  -3.751  1.00  0.00     0.016 C 
ATOM     27  C   UNL     1      10.821  20.027  -2.794  1.00  0.00     0.063 C 
ATOM     28  C   UNL     1      12.946  18.875  -3.667  1.00  0.00     0.033 C 
ATOM     29  C   UNL     1      11.470  19.250  -3.943  1.00  0.00     0.118 C 
BRANCH  29  30
ATOM     30  O   UNL     1      11.356  20.003  -5.125  1.00  0.00    -0.393 OA
ATOM     31  H   UNL     1      10.429  19.879  -5.461  1.00  0.00     0.210 HD
ENDBRANCH  29  30
ENDBRANCH   9  11
ENDBRANCH   1   9
TORSDOF 7
ENDMDL
MODEL 4
REMARK VINA RESULT:    24.457      1.158      2.875
REMARK INTER + INTRA:          33.173
REMARK INTER:                  32.861
REMARK INTRA:                   0.312
REMARK UNBOUND:                -0.577
REMARK SMILES CC[C@H](CC[C@@H](C)[C@H]1CC[C@H]2[C@@H]3CC=C4C[C@@H](O)CC[C@]4(C)[C@H]3CC[C@@]12C)C(C)C
REMARK SMILES IDX 5 1 4 2 3 3 2 4 1 5 28 6 29 7 30 8 6 9 7 10 8 11 9 12 26 13
REMARK SMILES IDX 10 14 11 15 25 16 27 17 12 18 24 19 23 20 13 21 21 22 14 23
REMARK SMILES IDX 15 24 20 25 22 26 16 27 19 28 17 29 18 30
REMARK H PARENT 18 31
REMARK Flexibility Score: inf
ROOT
ATOM      1  C   UNL     1      16.939  24.503   4.111  1.00  0.00     0.004 C 
ENDROOT
BRANCH   1   2
ATOM      2  C   UNL     1      15.934  24.212   5.248  1.00  0.00     0.004 C 
BRANCH   2   3
ATOM      3  C   UNL     1      16.191  22.907   6.058  1.00  0.00    -0.009 C 
BRANCH   3   4
ATOM      4  C   UNL     1      17.326  23.105   7.098  1.00  0.00     0.000 C 
ATOM      5  C   UNL     1      18.401  22.020   7.027  1.00  0.00     0.004 C 
ENDBRANCH   3   4
BRANCH   3   6
ATOM      6  C   UNL     1      14.915  22.185   6.614  1.00  0.00    -0.014 C 
ATOM      7  C   UNL     1      13.918  21.685   5.555  1.00  0.00     0.007 C 
ATOM      8  C   UNL     1      15.267  21.045   7.586  1.00  0.00     0.007 C 
ENDBRANCH   3   6
ENDBRANCH   2   3
ENDBRANCH   1   2
BRANCH   1   9
ATOM      9  C   UNL     1      16.438  24.237   2.664  1.00  0.00    -0.011 C 
ATOM     10  C   UNL     1      17.627  24.018   1.705  1.00  0.00     0.008 C 
BRANCH   9  11
ATOM     11  C   UNL     1      15.306  23.178   2.400  1.00  0.00    -0.002 C 
ATOM     12  C   UNL     1      13.897  23.474   2.915  1.00  0.00     0.005 C 
ATOM     13  C   UNL     1      15.104  22.568   0.978  1.00  0.00    -0.026 C 
ATOM     14  C   UNL     1      12.984  22.471   2.196  1.00  0.00     0.005 C 
ATOM     15  C   UNL     1      13.879  21.652   1.241  1.00  0.00    -0.001 C 
ATOM     16  C   UNL     1      14.775  23.654  -0.109  1.00  0.00     0.007 C 
ATOM     17  C   UNL     1      16.352  21.736   0.584  1.00  0.00     0.012 C 
ATOM     18  C   UNL     1      13.112  21.118  -0.019  1.00  0.00     0.000 C 
ATOM     19  C   UNL     1      13.640  23.316  -1.098  1.00  0.00     0.005 C 
ATOM     20  C   UNL     1      13.521  21.805  -1.344  1.00  0.00     0.003 C 
ATOM     21  C   UNL     1      13.260  19.596  -0.168  1.00  0.00     0.031 C 
ATOM     22  C   UNL     1      12.566  21.369  -2.519  1.00  0.00    -0.008 C 
ATOM     23  C   UNL     1      12.753  19.066  -1.486  1.00  0.00    -0.027 C 
ATOM     24  C   UNL     1      12.546  19.832  -2.584  1.00  0.00    -0.065 C 
ATOM     25  C   UNL     1      13.118  21.897  -3.876  1.00  0.00     0.014 C 
ATOM     26  C   UNL     1      11.121  21.900  -2.306  1.00  0.00     0.016 C 
ATOM     27  C   UNL     1      12.506  19.121  -3.924  1.00  0.00     0.063 C 
ATOM     28  C   UNL     1      12.360  21.389  -5.122  1.00  0.00     0.033 C 
ATOM     29  C   UNL     1      11.827  19.939  -5.025  1.00  0.00     0.118 C 
BRANCH  29  30
ATOM     30  O   UNL     1      10.437  19.928  -4.811  1.00  0.00    -0.393 OA
ATOM     31  H   UNL     1      10.261  19.283  -4.076  1.00  0.00     0.210 HD
ENDBRANCH  29  30
ENDBRANCH   9  11
ENDBRANCH   1   9
TORSDOF 7
ENDMDL
MODEL 5
REMARK VINA RESULT:    24.819      2.687      8.145
REMARK INTER + INTRA:          33.673
REMARK INTER:                  33.438
REMARK INTRA:                   0.234
REMARK UNBOUND:                -0.577
REMARK SMILES CC[C@H](CC[C@@H](C)[C@H]1CC[C@H]2[C@@H]3CC=C4C[C@@H](O)CC[C@]4(C)[C@H]3CC[C@@]12C)C(C)C
REMARK SMILES IDX 5 1 4 2 3 3 2 4 1 5 28 6 29 7 30 8 6 9 7 10 8 11 9 12 26 13
REMARK SMILES IDX 10 14 11 15 25 16 27 17 12 18 24 19 23 20 13 21 21 22 14 23
REMARK SMILES IDX 15 24 20 25 22 26 16 27 19 28 17 29 18 30
REMARK H PARENT 18 31
REMARK Flexibility Score: inf
ROOT
ATOM      1  C   UNL     1      14.177  20.713  -3.297  1.00  0.00     0.004 C 
ENDROOT
BRANCH   1   2
ATOM      2  C   UNL     1      13.339  19.892  -4.302  1.00  0.00     0.004 C 
BRANCH   2   3
ATOM      3  C   UNL     1      11.808  19.847  -4.025  1.00  0.00    -0.009 C 
BRANCH   3   4
ATOM      4  C   UNL     1      11.080  18.922  -5.037  1.00  0.00     0.000 C 
ATOM      5  C   UNL     1       9.566  18.875  -4.826  1.00  0.00     0.004 C 
ENDBRANCH   3   4
BRANCH   3   6
ATOM      6  C   UNL     1      11.389  19.635  -2.529  1.00  0.00    -0.014 C 
ATOM      7  C   UNL     1      12.429  18.933  -1.640  1.00  0.00     0.007 C 
ATOM      8  C   UNL     1      10.922  20.941  -1.864  1.00  0.00     0.007 C 
ENDBRANCH   3   6
ENDBRANCH   2   3
ENDBRANCH   1   2
BRANCH   1   9
ATOM      9  C   UNL     1      14.171  22.256  -3.491  1.00  0.00    -0.011 C 
ATOM     10  C   UNL     1      12.950  22.696  -4.327  1.00  0.00     0.008 C 
BRANCH   9  11
ATOM     11  C   UNL     1      14.376  23.210  -2.258  1.00  0.00    -0.002 C 
ATOM     12  C   UNL     1      13.414  24.386  -2.080  1.00  0.00     0.005 C 
ATOM     13  C   UNL     1      14.582  22.627  -0.827  1.00  0.00    -0.026 C 
ATOM     14  C   UNL     1      13.636  24.876  -0.643  1.00  0.00     0.005 C 
ATOM     15  C   UNL     1      14.685  23.939  -0.005  1.00  0.00    -0.001 C 
ATOM     16  C   UNL     1      13.369  21.752  -0.346  1.00  0.00     0.007 C 
ATOM     17  C   UNL     1      15.910  21.827  -0.775  1.00  0.00     0.012 C 
ATOM     18  C   UNL     1      14.535  23.813   1.552  1.00  0.00     0.000 C 
ATOM     19  C   UNL     1      12.887  21.980   1.102  1.00  0.00     0.005 C 
ATOM     20  C   UNL     1      14.029  22.428   2.026  1.00  0.00     0.003 C 
ATOM     21  C   UNL     1      15.847  24.150   2.276  1.00  0.00     0.031 C 
ATOM     22  C   UNL     1      13.705  22.448   3.568  1.00  0.00    -0.008 C 
ATOM     23  C   UNL     1      15.831  23.810   3.746  1.00  0.00    -0.027 C 
ATOM     24  C   UNL     1      14.946  22.959   4.319  1.00  0.00    -0.065 C 
ATOM     25  C   UNL     1      13.405  21.004   4.066  1.00  0.00     0.014 C 
ATOM     26  C   UNL     1      12.492  23.367   3.883  1.00  0.00     0.016 C 
ATOM     27  C   UNL     1      15.337  22.356   5.655  1.00  0.00     0.063 C 
ATOM     28  C   UNL     1      13.241  20.871   5.596  1.00  0.00     0.033 C 
ATOM     29  C   UNL     1      14.146  21.800   6.441  1.00  0.00     0.118 C 
BRANCH  29  30
ATOM     30  O   UNL     1      13.408  22.872   6.972  1.00  0.00    -0.393 OA
ATOM     31  H   UNL     1      14.052  23.459   7.452  1.00  0.00     0.210 HD
ENDBRANCH  29  30
ENDBRANCH   9  11
ENDBRANCH   1   9
TORSDOF 7
ENDMDL
