MODEL 1
REMARK VINA RESULT:    -5.909      0.000      0.000
REMARK INTER + INTRA:          -6.255
REMARK INTER:                  -6.255
REMARK INTRA:                   0.000
REMARK UNBOUND:                 0.000
REMARK SMILES C[C@@H]1CC[C@@H]2[N@@H+](C1)C[C@@H]1[C@H]3C[C@H]4[C@H](CC(=O)[C@@H]5C[C@H](O)CC[C@]54C)[C@@H]3CC[C@H]1[C@@]2(C)O
REMARK SMILES IDX 5 1 6 2 8 3 7 4 4 5 29 6 3 7 28 8 30 9 2 10 27 11 9 12 1 13
REMARK SMILES IDX 26 14 10 15 25 16 11 17 13 18 12 19 14 20 23 21 15 22 17 23
REMARK SMILES IDX 22 24 24 25 16 26 18 27 21 28 19 29 31 31 20 33
REMARK H PARENT 6 30 31 32 20 34
REMARK Flexibility Score: inf
ROOT
ATOM      1  C   UNL     1       6.864  -6.082  -7.106  1.00  0.00     0.216 C 
ATOM      2  N   UNL     1       6.015  -5.889  -5.897  1.00  0.00    -0.330 N 
ATOM      3  C   UNL     1       4.596  -5.670  -6.280  1.00  0.00     0.266 C 
ATOM      4  C   UNL     1       6.497  -4.758  -5.072  1.00  0.00     0.265 C 
ATOM      5  C   UNL     1       8.373  -5.790  -6.848  1.00  0.00     0.069 C 
ATOM      6  C   UNL     1       6.565  -7.475  -7.774  1.00  0.00     0.117 C 
ATOM      7  C   UNL     1       8.746  -5.968  -5.374  1.00  0.00     0.015 C 
ATOM      8  C   UNL     1       5.019  -7.795  -7.670  1.00  0.00     0.036 C 
ATOM      9  C   UNL     1       7.351  -8.630  -7.087  1.00  0.00     0.049 C 
ATOM     10  C   UNL     1       7.888  -5.061  -4.458  1.00  0.00     0.041 C 
ATOM     11  C   UNL     1       4.503  -8.714  -8.824  1.00  0.00     0.007 C 
ATOM     12  C   UNL     1       4.160  -6.497  -7.526  1.00  0.00     0.054 C 
ATOM     13  C   UNL     1       8.622  -3.756  -4.124  1.00  0.00     0.013 C 
ATOM     14  C   UNL     1       2.991  -8.998  -8.728  1.00  0.00     0.004 C 
ATOM     15  C   UNL     1       2.669  -6.884  -7.432  1.00  0.00     0.002 C 
ATOM     16  C   UNL     1       2.255  -7.656  -8.673  1.00  0.00    -0.004 C 
ATOM     17  C   UNL     1       1.644  -5.748  -7.320  1.00  0.00     0.009 C 
ATOM     18  C   UNL     1       0.725  -7.635  -8.636  1.00  0.00     0.003 C 
ATOM     19  C   UNL     1       0.462  -6.152  -8.242  1.00  0.00    -0.000 C 
ATOM     20  C   UNL     1       0.132  -8.687  -7.651  1.00  0.00     0.080 C 
ATOM     21  C   UNL     1      -0.995  -5.860  -7.729  1.00  0.00    -0.020 C 
ATOM     22  C   UNL     1      -1.201  -8.274  -7.104  1.00  0.00     0.136 C 
ATOM     23  C   UNL     1      -1.349  -6.862  -6.592  1.00  0.00     0.065 C 
ATOM     24  C   UNL     1      -1.111  -4.400  -7.190  1.00  0.00     0.010 C 
ATOM     25  C   UNL     1      -1.961  -6.018  -8.944  1.00  0.00     0.012 C 
ATOM     26  O   UNL     1      -2.112  -9.082  -7.023  1.00  0.00    -0.299 OA
ATOM     27  C   UNL     1      -2.728  -6.579  -5.955  1.00  0.00     0.043 C 
ATOM     28  C   UNL     1      -2.471  -4.109  -6.533  1.00  0.00     0.032 C 
ATOM     29  C   UNL     1      -2.795  -5.133  -5.428  1.00  0.00     0.115 C 
ATOM     30  H   UNL     1       6.053  -6.749  -5.299  1.00  0.00     0.348 HD
ENDROOT
BRANCH   6  31
ATOM     31  O   UNL     1       6.967  -7.366  -9.125  1.00  0.00    -0.384 OA
ATOM     32  H   UNL     1       6.748  -8.211  -9.594  1.00  0.00     0.211 HD
ENDBRANCH   6  31
BRANCH  29  33
ATOM     33  O   UNL     1      -4.052  -4.870  -4.860  1.00  0.00    -0.393 OA
ATOM     34  H   UNL     1      -4.333  -3.966  -5.158  1.00  0.00     0.210 HD
ENDBRANCH  29  33
TORSDOF 2
ENDMDL
MODEL 2
REMARK VINA RESULT:    -5.762      1.232      1.611
REMARK INTER + INTRA:          -6.099
REMARK INTER:                  -6.099
REMARK INTRA:                   0.000
REMARK UNBOUND:                 0.000
REMARK SMILES C[C@@H]1CC[C@@H]2[N@@H+](C1)C[C@@H]1[C@H]3C[C@H]4[C@H](CC(=O)[C@@H]5C[C@H](O)CC[C@]54C)[C@@H]3CC[C@H]1[C@@]2(C)O
REMARK SMILES IDX 5 1 6 2 8 3 7 4 4 5 29 6 3 7 28 8 30 9 2 10 27 11 9 12 1 13
REMARK SMILES IDX 26 14 10 15 25 16 11 17 13 18 12 19 14 20 23 21 15 22 17 23
REMARK SMILES IDX 22 24 24 25 16 26 18 27 21 28 19 29 31 31 20 33
REMARK H PARENT 6 30 31 32 20 34
REMARK Flexibility Score: inf
ROOT
ATOM      1  C   UNL     1       5.322  -6.379  -7.130  1.00  0.00     0.216 C 
ATOM      2  N   UNL     1       4.555  -6.106  -5.882  1.00  0.00    -0.330 N 
ATOM      3  C   UNL     1       3.136  -5.795  -6.195  1.00  0.00     0.266 C 
ATOM      4  C   UNL     1       5.157  -4.999  -5.106  1.00  0.00     0.265 C 
ATOM      5  C   UNL     1       6.860  -6.189  -6.957  1.00  0.00     0.069 C 
ATOM      6  C   UNL     1       4.892  -7.758  -7.752  1.00  0.00     0.117 C 
ATOM      7  C   UNL     1       7.298  -6.368  -5.501  1.00  0.00     0.015 C 
ATOM      8  C   UNL     1       3.336  -7.967  -7.560  1.00  0.00     0.036 C 
ATOM      9  C   UNL     1       5.632  -8.954  -7.084  1.00  0.00     0.049 C 
ATOM     10  C   UNL     1       6.555  -5.388  -4.560  1.00  0.00     0.041 C 
ATOM     11  C   UNL     1       2.697  -8.867  -8.667  1.00  0.00     0.007 C 
ATOM     12  C   UNL     1       2.578  -6.610  -7.399  1.00  0.00     0.054 C 
ATOM     13  C   UNL     1       7.394  -4.132  -4.292  1.00  0.00     0.013 C 
ATOM     14  C   UNL     1       1.176  -9.042  -8.487  1.00  0.00     0.004 C 
ATOM     15  C   UNL     1       1.070  -6.890  -7.219  1.00  0.00     0.002 C 
ATOM     16  C   UNL     1       0.538  -7.652  -8.421  1.00  0.00    -0.004 C 
ATOM     17  C   UNL     1       0.134  -5.683  -7.077  1.00  0.00     0.009 C 
ATOM     18  C   UNL     1      -0.982  -7.523  -8.304  1.00  0.00     0.003 C 
ATOM     19  C   UNL     1      -1.121  -6.019  -7.927  1.00  0.00    -0.000 C 
ATOM     20  C   UNL     1      -1.593  -8.514  -7.268  1.00  0.00     0.080 C 
ATOM     21  C   UNL     1      -2.524  -5.617  -7.345  1.00  0.00    -0.020 C 
ATOM     22  C   UNL     1      -2.863  -7.999  -6.660  1.00  0.00     0.136 C 
ATOM     23  C   UNL     1      -2.885  -6.572  -6.170  1.00  0.00     0.065 C 
ATOM     24  C   UNL     1      -2.510  -4.143  -6.831  1.00  0.00     0.010 C 
ATOM     25  C   UNL     1      -3.562  -5.727  -8.504  1.00  0.00     0.012 C 
ATOM     26  O   UNL     1      -3.822  -8.740  -6.515  1.00  0.00    -0.299 OA
ATOM     27  C   UNL     1      -4.205  -6.182  -5.468  1.00  0.00     0.043 C 
ATOM     28  C   UNL     1      -3.810  -3.746  -6.109  1.00  0.00     0.032 C 
ATOM     29  C   UNL     1      -4.143  -4.726  -4.968  1.00  0.00     0.115 C 
ATOM     30  H   UNL     1       4.566  -6.957  -5.269  1.00  0.00     0.348 HD
ENDROOT
BRANCH   6  31
ATOM     31  O   UNL     1       5.228  -7.701  -9.124  1.00  0.00    -0.384 OA
ATOM     32  H   UNL     1       5.579  -6.798  -9.332  1.00  0.00     0.211 HD
ENDBRANCH   6  31
BRANCH  29  33
ATOM     33  O   UNL     1      -5.347  -4.367  -4.340  1.00  0.00    -0.393 OA
ATOM     34  H   UNL     1      -6.081  -4.518  -4.990  1.00  0.00     0.210 HD
ENDBRANCH  29  33
TORSDOF 2
ENDMDL
MODEL 3
REMARK VINA RESULT:    -5.374     16.152     20.766
REMARK INTER + INTRA:          -5.688
REMARK INTER:                  -5.688
REMARK INTRA:                   0.000
REMARK UNBOUND:                 0.000
REMARK SMILES C[C@@H]1CC[C@@H]2[N@@H+](C1)C[C@@H]1[C@H]3C[C@H]4[C@H](CC(=O)[C@@H]5C[C@H](O)CC[C@]54C)[C@@H]3CC[C@H]1[C@@]2(C)O
REMARK SMILES IDX 5 1 6 2 8 3 7 4 4 5 29 6 3 7 28 8 30 9 2 10 27 11 9 12 1 13
REMARK SMILES IDX 26 14 10 15 25 16 11 17 13 18 12 19 14 20 23 21 15 22 17 23
REMARK SMILES IDX 22 24 24 25 16 26 18 27 21 28 19 29 31 31 20 33
REMARK H PARENT 6 30 31 32 20 34
REMARK Flexibility Score: inf
ROOT
ATOM      1  C   UNL     1      -8.569   3.544   8.812  1.00  0.00     0.216 C 
ATOM      2  N   UNL     1      -9.390   2.959   7.716  1.00  0.00    -0.330 N 
ATOM      3  C   UNL     1      -8.902   1.601   7.360  1.00  0.00     0.266 C 
ATOM      4  C   UNL     1      -9.393   3.826   6.517  1.00  0.00     0.265 C 
ATOM      5  C   UNL     1      -8.655   5.099   8.878  1.00  0.00     0.069 C 
ATOM      6  C   UNL     1      -8.856   2.807  10.172  1.00  0.00     0.117 C 
ATOM      7  C   UNL     1      -9.956   5.626   8.266  1.00  0.00     0.015 C 
ATOM      8  C   UNL     1      -9.075   1.264   9.905  1.00  0.00     0.036 C 
ATOM      9  C   UNL     1     -10.125   3.366  10.880  1.00  0.00     0.049 C 
ATOM     10  C   UNL     1     -10.116   5.170   6.795  1.00  0.00     0.041 C 
ATOM     11  C   UNL     1      -8.681   0.368  11.125  1.00  0.00     0.007 C 
ATOM     12  C   UNL     1      -8.382   0.792   8.586  1.00  0.00     0.054 C 
ATOM     13  C   UNL     1      -9.630   6.251   5.822  1.00  0.00     0.013 C 
ATOM     14  C   UNL     1      -8.873  -1.136  10.846  1.00  0.00     0.004 C 
ATOM     15  C   UNL     1      -8.635  -0.718   8.392  1.00  0.00     0.002 C 
ATOM     16  C   UNL     1      -8.088  -1.491   9.580  1.00  0.00    -0.004 C 
ATOM     17  C   UNL     1      -8.009  -1.393   7.165  1.00  0.00     0.009 C 
ATOM     18  C   UNL     1      -8.050  -2.943   9.098  1.00  0.00     0.003 C 
ATOM     19  C   UNL     1      -7.469  -2.762   7.665  1.00  0.00    -0.000 C 
ATOM     20  C   UNL     1      -9.446  -3.634   9.153  1.00  0.00     0.080 C 
ATOM     21  C   UNL     1      -7.653  -4.005   6.722  1.00  0.00    -0.020 C 
ATOM     22  C   UNL     1      -9.589  -4.723   8.133  1.00  0.00     0.136 C 
ATOM     23  C   UNL     1      -9.150  -4.431   6.719  1.00  0.00     0.065 C 
ATOM     24  C   UNL     1      -7.207  -3.667   5.264  1.00  0.00     0.010 C 
ATOM     25  C   UNL     1      -6.739  -5.146   7.267  1.00  0.00     0.012 C 
ATOM     26  O   UNL     1     -10.104  -5.787   8.436  1.00  0.00    -0.299 OA
ATOM     27  C   UNL     1      -9.440  -5.585   5.734  1.00  0.00     0.043 C 
ATOM     28  C   UNL     1      -7.510  -4.797   4.266  1.00  0.00     0.032 C 
ATOM     29  C   UNL     1      -8.996  -5.205   4.308  1.00  0.00     0.115 C 
ATOM     30  H   UNL     1     -10.385   2.864   8.034  1.00  0.00     0.348 HD
ENDROOT
BRANCH   6  31
ATOM     31  O   UNL     1      -7.724   3.021  10.991  1.00  0.00    -0.384 OA
ATOM     32  H   UNL     1      -7.104   3.640  10.528  1.00  0.00     0.211 HD
ENDBRANCH   6  31
BRANCH  29  33
ATOM     33  O   UNL     1      -9.248  -6.257   3.414  1.00  0.00    -0.393 OA
ATOM     34  H   UNL     1      -9.160  -7.107   3.918  1.00  0.00     0.210 HD
ENDBRANCH  29  33
TORSDOF 2
ENDMDL
MODEL 4
REMARK VINA RESULT:    -5.246      2.417      4.329
REMARK INTER + INTRA:          -5.553
REMARK INTER:                  -5.553
REMARK INTRA:                   0.000
REMARK UNBOUND:                 0.000
REMARK SMILES C[C@@H]1CC[C@@H]2[N@@H+](C1)C[C@@H]1[C@H]3C[C@H]4[C@H](CC(=O)[C@@H]5C[C@H](O)CC[C@]54C)[C@@H]3CC[C@H]1[C@@]2(C)O
REMARK SMILES IDX 5 1 6 2 8 3 7 4 4 5 29 6 3 7 28 8 30 9 2 10 27 11 9 12 1 13
REMARK SMILES IDX 26 14 10 15 25 16 11 17 13 18 12 19 14 20 23 21 15 22 17 23
REMARK SMILES IDX 22 24 24 25 16 26 18 27 21 28 19 29 31 31 20 33
REMARK H PARENT 6 30 31 32 20 34
REMARK Flexibility Score: inf
ROOT
ATOM      1  C   UNL     1       2.678  -6.770  -7.419  1.00  0.00     0.216 C 
ATOM      2  N   UNL     1       2.177  -6.197  -6.139  1.00  0.00    -0.330 N 
ATOM      3  C   UNL     1       0.782  -5.708  -6.292  1.00  0.00     0.266 C 
ATOM      4  C   UNL     1       3.048  -5.100  -5.658  1.00  0.00     0.265 C 
ATOM      5  C   UNL     1       4.234  -6.809  -7.505  1.00  0.00     0.069 C 
ATOM      6  C   UNL     1       1.964  -8.137  -7.729  1.00  0.00     0.117 C 
ATOM      7  C   UNL     1       4.882  -6.843  -6.118  1.00  0.00     0.015 C 
ATOM      8  C   UNL     1       0.448  -8.059  -7.282  1.00  0.00     0.036 C 
ATOM      9  C   UNL     1       2.634  -9.326  -6.981  1.00  0.00     0.049 C 
ATOM     10  C   UNL     1       4.451  -5.628  -5.261  1.00  0.00     0.041 C 
ATOM     11  C   UNL     1      -0.486  -8.995  -8.116  1.00  0.00     0.007 C 
ATOM     12  C   UNL     1      -0.078  -6.588  -7.246  1.00  0.00     0.054 C 
ATOM     13  C   UNL     1       5.487  -4.500  -5.334  1.00  0.00     0.013 C 
ATOM     14  C   UNL     1      -1.964  -8.893  -7.691  1.00  0.00     0.004 C 
ATOM     15  C   UNL     1      -1.558  -6.590  -6.806  1.00  0.00     0.002 C 
ATOM     16  C   UNL     1      -2.384  -7.422  -7.771  1.00  0.00    -0.004 C 
ATOM     17  C   UNL     1      -2.281  -5.238  -6.738  1.00  0.00     0.009 C 
ATOM     18  C   UNL     1      -3.831  -7.032  -7.459  1.00  0.00     0.003 C 
ATOM     19  C   UNL     1      -3.696  -5.487  -7.328  1.00  0.00    -0.000 C 
ATOM     20  C   UNL     1      -4.389  -7.748  -6.193  1.00  0.00     0.080 C 
ATOM     21  C   UNL     1      -4.912  -4.781  -6.626  1.00  0.00    -0.020 C 
ATOM     22  C   UNL     1      -5.455  -6.950  -5.505  1.00  0.00     0.136 C 
ATOM     23  C   UNL     1      -5.198  -5.482  -5.267  1.00  0.00     0.065 C 
ATOM     24  C   UNL     1      -4.609  -3.270  -6.378  1.00  0.00     0.010 C 
ATOM     25  C   UNL     1      -6.136  -4.889  -7.588  1.00  0.00     0.012 C 
ATOM     26  O   UNL     1      -6.469  -7.495  -5.099  1.00  0.00    -0.299 OA
ATOM     27  C   UNL     1      -6.315  -4.785  -4.459  1.00  0.00     0.043 C 
ATOM     28  C   UNL     1      -5.701  -2.565  -5.554  1.00  0.00     0.032 C 
ATOM     29  C   UNL     1      -5.969  -3.301  -4.227  1.00  0.00     0.115 C 
ATOM     30  H   UNL     1       2.173  -6.939  -5.398  1.00  0.00     0.348 HD
ENDROOT
BRANCH   6  31
ATOM     31  O   UNL     1       2.068  -8.336  -9.125  1.00  0.00    -0.384 OA
ATOM     32  H   UNL     1       2.813  -7.784  -9.474  1.00  0.00     0.211 HD
ENDBRANCH   6  31
BRANCH  29  33
ATOM     33  O   UNL     1      -6.989  -2.662  -3.503  1.00  0.00    -0.393 OA
ATOM     34  H   UNL     1      -6.899  -1.686  -3.655  1.00  0.00     0.210 HD
ENDBRANCH  29  33
TORSDOF 2
ENDMDL
MODEL 5
REMARK VINA RESULT:    -5.201      2.024      8.276
REMARK INTER + INTRA:          -5.505
REMARK INTER:                  -5.505
REMARK INTRA:                   0.000
REMARK UNBOUND:                 0.000
REMARK SMILES C[C@@H]1CC[C@@H]2[N@@H+](C1)C[C@@H]1[C@H]3C[C@H]4[C@H](CC(=O)[C@@H]5C[C@H](O)CC[C@]54C)[C@@H]3CC[C@H]1[C@@]2(C)O
REMARK SMILES IDX 5 1 6 2 8 3 7 4 4 5 29 6 3 7 28 8 30 9 2 10 27 11 9 12 1 13
REMARK SMILES IDX 26 14 10 15 25 16 11 17 13 18 12 19 14 20 23 21 15 22 17 23
REMARK SMILES IDX 22 24 24 25 16 26 18 27 21 28 19 29 31 31 20 33
REMARK H PARENT 6 30 31 32 20 34
REMARK Flexibility Score: inf
ROOT
ATOM      1  C   UNL     1      -1.094  -6.833  -7.389  1.00  0.00     0.216 C 
ATOM      2  N   UNL     1      -0.357  -5.767  -8.122  1.00  0.00    -0.330 N 
ATOM      3  C   UNL     1       1.043  -5.662  -7.632  1.00  0.00     0.266 C 
ATOM      4  C   UNL     1      -1.035  -4.457  -8.001  1.00  0.00     0.265 C 
ATOM      5  C   UNL     1      -2.641  -6.660  -7.449  1.00  0.00     0.069 C 
ATOM      6  C   UNL     1      -0.571  -8.256  -7.810  1.00  0.00     0.117 C 
ATOM      7  C   UNL     1      -3.080  -5.861  -8.679  1.00  0.00     0.015 C 
ATOM      8  C   UNL     1       0.994  -8.203  -8.036  1.00  0.00     0.036 C 
ATOM      9  C   UNL     1      -1.238  -8.755  -9.125  1.00  0.00     0.049 C 
ATOM     10  C   UNL     1      -2.410  -4.466  -8.718  1.00  0.00     0.041 C 
ATOM     11  C   UNL     1       1.699  -9.572  -7.771  1.00  0.00     0.007 C 
ATOM     12  C   UNL     1       1.663  -7.035  -7.240  1.00  0.00     0.054 C 
ATOM     13  C   UNL     1      -3.330  -3.391  -8.125  1.00  0.00     0.013 C 
ATOM     14  C   UNL     1       3.227  -9.503  -7.968  1.00  0.00     0.004 C 
ATOM     15  C   UNL     1       3.183  -7.047  -7.506  1.00  0.00     0.002 C 
ATOM     16  C   UNL     1       3.774  -8.381  -7.082  1.00  0.00    -0.004 C 
ATOM     17  C   UNL     1       4.039  -5.995  -6.788  1.00  0.00     0.009 C 
ATOM     18  C   UNL     1       5.281  -8.125  -7.032  1.00  0.00     0.003 C 
ATOM     19  C   UNL     1       5.321  -6.739  -6.323  1.00  0.00    -0.000 C 
ATOM     20  C   UNL     1       5.946  -8.156  -8.441  1.00  0.00     0.080 C 
ATOM     21  C   UNL     1       6.690  -5.978  -6.448  1.00  0.00    -0.020 C 
ATOM     22  C   UNL     1       7.174  -7.300  -8.516  1.00  0.00     0.136 C 
ATOM     23  C   UNL     1       7.101  -5.904  -7.947  1.00  0.00     0.065 C 
ATOM     24  C   UNL     1       6.577  -4.533  -5.868  1.00  0.00     0.010 C 
ATOM     25  C   UNL     1       7.743  -6.767  -5.610  1.00  0.00     0.012 C 
ATOM     26  O   UNL     1       8.178  -7.709  -9.078  1.00  0.00    -0.299 OA
ATOM     27  C   UNL     1       8.387  -5.079  -8.173  1.00  0.00     0.043 C 
ATOM     28  C   UNL     1       7.842  -3.690  -6.105  1.00  0.00     0.032 C 
ATOM     29  C   UNL     1       8.228  -3.659  -7.597  1.00  0.00     0.115 C 
ATOM     30  H   UNL     1      -0.318  -6.003  -9.143  1.00  0.00     0.348 HD
ENDROOT
BRANCH   6  31
ATOM     31  O   UNL     1      -0.897  -9.133  -6.751  1.00  0.00    -0.384 OA
ATOM     32  H   UNL     1      -0.381  -8.871  -5.946  1.00  0.00     0.211 HD
ENDBRANCH   6  31
BRANCH  29  33
ATOM     33  O   UNL     1       9.400  -2.911  -7.791  1.00  0.00    -0.393 OA
ATOM     34  H   UNL     1      10.073  -3.510  -8.207  1.00  0.00     0.210 HD
ENDBRANCH  29  33
TORSDOF 2
ENDMDL
MODEL 6
REMARK VINA RESULT:    -4.907      2.408      8.795
REMARK INTER + INTRA:          -5.194
REMARK INTER:                  -5.194
REMARK INTRA:                   0.000
REMARK UNBOUND:                 0.000
REMARK SMILES C[C@@H]1CC[C@@H]2[N@@H+](C1)C[C@@H]1[C@H]3C[C@H]4[C@H](CC(=O)[C@@H]5C[C@H](O)CC[C@]54C)[C@@H]3CC[C@H]1[C@@]2(C)O
REMARK SMILES IDX 5 1 6 2 8 3 7 4 4 5 29 6 3 7 28 8 30 9 2 10 27 11 9 12 1 13
REMARK SMILES IDX 26 14 10 15 25 16 11 17 13 18 12 19 14 20 23 21 15 22 17 23
REMARK SMILES IDX 22 24 24 25 16 26 18 27 21 28 19 29 31 31 20 33
REMARK H PARENT 6 30 31 32 20 34
REMARK Flexibility Score: inf
ROOT
ATOM      1  C   UNL     1      -1.902  -6.547  -7.315  1.00  0.00     0.216 C 
ATOM      2  N   UNL     1      -1.191  -7.855  -7.301  1.00  0.00    -0.330 N 
ATOM      3  C   UNL     1       0.259  -7.669  -7.574  1.00  0.00     0.266 C 
ATOM      4  C   UNL     1      -1.772  -8.800  -8.281  1.00  0.00     0.265 C 
ATOM      5  C   UNL     1      -3.434  -6.686  -7.567  1.00  0.00     0.069 C 
ATOM      6  C   UNL     1      -1.515  -5.694  -6.052  1.00  0.00     0.117 C 
ATOM      7  C   UNL     1      -3.960  -8.062  -7.148  1.00  0.00     0.015 C 
ATOM      8  C   UNL     1       0.015  -5.910  -5.712  1.00  0.00     0.036 C 
ATOM      9  C   UNL     1      -2.354  -6.092  -4.802  1.00  0.00     0.049 C 
ATOM     10  C   UNL     1      -3.217  -9.202  -7.887  1.00  0.00     0.041 C 
ATOM     11  C   UNL     1       0.664  -4.682  -4.995  1.00  0.00     0.007 C 
ATOM     12  C   UNL     1       0.836  -6.358  -6.964  1.00  0.00     0.054 C 
ATOM     13  C   UNL     1      -4.000  -9.667  -9.122  1.00  0.00     0.013 C 
ATOM     14  C   UNL     1       2.161  -4.891  -4.692  1.00  0.00     0.004 C 
ATOM     15  C   UNL     1       2.314  -6.546  -6.560  1.00  0.00     0.002 C 
ATOM     16  C   UNL     1       2.869  -5.246  -6.003  1.00  0.00    -0.004 C 
ATOM     17  C   UNL     1       3.306  -6.955  -7.658  1.00  0.00     0.009 C 
ATOM     18  C   UNL     1       4.385  -5.451  -6.010  1.00  0.00     0.003 C 
ATOM     19  C   UNL     1       4.585  -6.111  -7.406  1.00  0.00    -0.000 C 
ATOM     20  C   UNL     1       4.884  -6.306  -4.807  1.00  0.00     0.080 C 
ATOM     21  C   UNL     1       5.974  -6.819  -7.602  1.00  0.00    -0.020 C 
ATOM     22  C   UNL     1       6.145  -7.055  -5.118  1.00  0.00     0.136 C 
ATOM     23  C   UNL     1       6.219  -7.806  -6.425  1.00  0.00     0.065 C 
ATOM     24  C   UNL     1       6.012  -7.601  -8.953  1.00  0.00     0.010 C 
ATOM     25  C   UNL     1       7.066  -5.705  -7.644  1.00  0.00     0.012 C 
ATOM     26  O   UNL     1       7.053  -7.098  -4.304  1.00  0.00    -0.299 OA
ATOM     27  C   UNL     1       7.517  -8.625  -6.592  1.00  0.00     0.043 C 
ATOM     28  C   UNL     1       7.290  -8.441  -9.125  1.00  0.00     0.032 C 
ATOM     29  C   UNL     1       7.508  -9.389  -7.930  1.00  0.00     0.115 C 
ATOM     30  H   UNL     1      -1.280  -8.296  -6.354  1.00  0.00     0.348 HD
ENDROOT
BRANCH   6  31
ATOM     31  O   UNL     1      -1.771  -4.344  -6.384  1.00  0.00    -0.384 OA
ATOM     32  H   UNL     1      -0.928  -3.829  -6.311  1.00  0.00     0.211 HD
ENDBRANCH   6  31
BRANCH  29  33
ATOM     33  O   UNL     1       8.693 -10.125  -8.089  1.00  0.00    -0.393 OA
ATOM     34  H   UNL     1       9.451  -9.486  -8.042  1.00  0.00     0.210 HD
ENDBRANCH  29  33
TORSDOF 2
ENDMDL
MODEL 7
REMARK VINA RESULT:    -4.792      2.178      2.837
REMARK INTER + INTRA:          -5.072
REMARK INTER:                  -5.072
REMARK INTRA:                   0.000
REMARK UNBOUND:                 0.000
REMARK SMILES C[C@@H]1CC[C@@H]2[N@@H+](C1)C[C@@H]1[C@H]3C[C@H]4[C@H](CC(=O)[C@@H]5C[C@H](O)CC[C@]54C)[C@@H]3CC[C@H]1[C@@]2(C)O
REMARK SMILES IDX 5 1 6 2 8 3 7 4 4 5 29 6 3 7 28 8 30 9 2 10 27 11 9 12 1 13
REMARK SMILES IDX 26 14 10 15 25 16 11 17 13 18 12 19 14 20 23 21 15 22 17 23
REMARK SMILES IDX 22 24 24 25 16 26 18 27 21 28 19 29 31 31 20 33
REMARK H PARENT 6 30 31 32 20 34
REMARK Flexibility Score: inf
ROOT
ATOM      1  C   UNL     1       7.900  -7.497  -5.458  1.00  0.00     0.216 C 
ATOM      2  N   UNL     1       6.849  -8.431  -4.965  1.00  0.00    -0.330 N 
ATOM      3  C   UNL     1       5.508  -7.791  -5.021  1.00  0.00     0.266 C 
ATOM      4  C   UNL     1       7.133  -8.889  -3.587  1.00  0.00     0.265 C 
ATOM      5  C   UNL     1       9.328  -7.862  -4.953  1.00  0.00     0.069 C 
ATOM      6  C   UNL     1       7.778  -7.300  -7.014  1.00  0.00     0.117 C 
ATOM      7  C   UNL     1       9.449  -9.349  -4.606  1.00  0.00     0.015 C 
ATOM      8  C   UNL     1       6.252  -7.276  -7.430  1.00  0.00     0.036 C 
ATOM      9  C   UNL     1       8.482  -8.444  -7.801  1.00  0.00     0.049 C 
ATOM     10  C   UNL     1       8.410  -9.768  -3.538  1.00  0.00     0.041 C 
ATOM     11  C   UNL     1       5.981  -6.436  -8.720  1.00  0.00     0.007 C 
ATOM     12  C   UNL     1       5.328  -6.846  -6.246  1.00  0.00     0.054 C 
ATOM     13  C   UNL     1       9.020  -9.748  -2.130  1.00  0.00     0.013 C 
ATOM     14  C   UNL     1       4.488  -6.396  -9.102  1.00  0.00     0.004 C 
ATOM     15  C   UNL     1       3.860  -6.843  -6.724  1.00  0.00     0.002 C 
ATOM     16  C   UNL     1       3.698  -5.887  -7.894  1.00  0.00    -0.004 C 
ATOM     17  C   UNL     1       2.785  -6.413  -5.718  1.00  0.00     0.009 C 
ATOM     18  C   UNL     1       2.185  -5.689  -8.010  1.00  0.00     0.003 C 
ATOM     19  C   UNL     1       1.796  -5.516  -6.513  1.00  0.00    -0.000 C 
ATOM     20  C   UNL     1       1.476  -6.870  -8.737  1.00  0.00     0.080 C 
ATOM     21  C   UNL     1       0.262  -5.680  -6.212  1.00  0.00    -0.020 C 
ATOM     22  C   UNL     1       0.053  -7.043  -8.299  1.00  0.00     0.136 C 
ATOM     23  C   UNL     1      -0.240  -7.022  -6.818  1.00  0.00     0.065 C 
ATOM     24  C   UNL     1      -0.006  -5.672  -4.674  1.00  0.00     0.010 C 
ATOM     25  C   UNL     1      -0.473  -4.460  -6.849  1.00  0.00     0.012 C 
ATOM     26  O   UNL     1      -0.824  -7.255  -9.121  1.00  0.00    -0.299 OA
ATOM     27  C   UNL     1      -1.718  -7.315  -6.479  1.00  0.00     0.043 C 
ATOM     28  C   UNL     1      -1.469  -5.984  -4.318  1.00  0.00     0.032 C 
ATOM     29  C   UNL     1      -1.935  -7.309  -4.953  1.00  0.00     0.115 C 
ATOM     30  H   UNL     1       6.819  -9.282  -5.576  1.00  0.00     0.348 HD
ENDROOT
BRANCH   6  31
ATOM     31  O   UNL     1       8.401  -6.067  -7.312  1.00  0.00    -0.384 OA
ATOM     32  H   UNL     1       8.930  -6.167  -8.144  1.00  0.00     0.211 HD
ENDBRANCH   6  31
BRANCH  29  33
ATOM     33  O   UNL     1      -3.281  -7.563  -4.643  1.00  0.00    -0.393 OA
ATOM     34  H   UNL     1      -3.325  -7.820  -3.686  1.00  0.00     0.210 HD
ENDBRANCH  29  33
TORSDOF 2
ENDMDL
MODEL 8
REMARK VINA RESULT:    -4.169      3.309      9.334
REMARK INTER + INTRA:          -4.413
REMARK INTER:                  -4.413
REMARK INTRA:                   0.000
REMARK UNBOUND:                 0.000
REMARK SMILES C[C@@H]1CC[C@@H]2[N@@H+](C1)C[C@@H]1[C@H]3C[C@H]4[C@H](CC(=O)[C@@H]5C[C@H](O)CC[C@]54C)[C@@H]3CC[C@H]1[C@@]2(C)O
REMARK SMILES IDX 5 1 6 2 8 3 7 4 4 5 29 6 3 7 28 8 30 9 2 10 27 11 9 12 1 13
REMARK SMILES IDX 26 14 10 15 25 16 11 17 13 18 12 19 14 20 23 21 15 22 17 23
REMARK SMILES IDX 22 24 24 25 16 26 18 27 21 28 19 29 31 31 20 33
REMARK H PARENT 6 30 31 32 20 34
REMARK Flexibility Score: inf
ROOT
ATOM      1  C   UNL     1      -4.917  -6.643  -7.613  1.00  0.00     0.216 C 
ATOM      2  N   UNL     1      -4.209  -7.635  -6.759  1.00  0.00    -0.330 N 
ATOM      3  C   UNL     1      -2.770  -7.714  -7.126  1.00  0.00     0.266 C 
ATOM      4  C   UNL     1      -4.829  -8.976  -6.854  1.00  0.00     0.265 C 
ATOM      5  C   UNL     1      -6.458  -6.872  -7.669  1.00  0.00     0.069 C 
ATOM      6  C   UNL     1      -4.480  -5.179  -7.239  1.00  0.00     0.117 C 
ATOM      7  C   UNL     1      -6.970  -7.615  -6.432  1.00  0.00     0.015 C 
ATOM      8  C   UNL     1      -2.939  -5.158  -6.883  1.00  0.00     0.036 C 
ATOM      9  C   UNL     1      -5.272  -4.631  -6.016  1.00  0.00     0.049 C 
ATOM     10  C   UNL     1      -6.259  -8.979  -6.254  1.00  0.00     0.041 C 
ATOM     11  C   UNL     1      -2.261  -3.780  -7.173  1.00  0.00     0.007 C 
ATOM     12  C   UNL     1      -2.167  -6.342  -7.549  1.00  0.00     0.054 C 
ATOM     13  C   UNL     1      -7.089 -10.121  -6.853  1.00  0.00     0.013 C 
ATOM     14  C   UNL     1      -0.754  -3.777  -6.848  1.00  0.00     0.004 C 
ATOM     15  C   UNL     1      -0.675  -6.256  -7.162  1.00  0.00     0.002 C 
ATOM     16  C   UNL     1      -0.097  -4.927  -7.616  1.00  0.00    -0.004 C 
ATOM     17  C   UNL     1       0.273  -7.314  -7.742  1.00  0.00     0.009 C 
ATOM     18  C   UNL     1       1.417  -5.127  -7.528  1.00  0.00     0.003 C 
ATOM     19  C   UNL     1       1.563  -6.549  -8.146  1.00  0.00    -0.000 C 
ATOM     20  C   UNL     1       1.960  -4.989  -6.074  1.00  0.00     0.080 C 
ATOM     21  C   UNL     1       2.942  -7.247  -7.863  1.00  0.00    -0.020 C 
ATOM     22  C   UNL     1       3.207  -5.790  -5.847  1.00  0.00     0.136 C 
ATOM     23  C   UNL     1       3.229  -7.218  -6.334  1.00  0.00     0.065 C 
ATOM     24  C   UNL     1       2.927  -8.727  -8.361  1.00  0.00     0.010 C 
ATOM     25  C   UNL     1       4.034  -6.468  -8.659  1.00  0.00     0.012 C 
ATOM     26  O   UNL     1       4.145  -5.310  -5.232  1.00  0.00    -0.299 OA
ATOM     27  C   UNL     1       4.518  -7.978  -5.954  1.00  0.00     0.043 C 
ATOM     28  C   UNL     1       4.196  -9.505  -7.971  1.00  0.00     0.032 C 
ATOM     29  C   UNL     1       4.456  -9.435  -6.454  1.00  0.00     0.115 C 
ATOM     30  H   UNL     1      -4.263  -7.338  -5.754  1.00  0.00     0.348 HD
ENDROOT
BRANCH   6  31
ATOM     31  O   UNL     1      -4.746  -4.378  -8.373  1.00  0.00    -0.384 OA
ATOM     32  H   UNL     1      -5.366  -3.649  -8.113  1.00  0.00     0.211 HD
ENDBRANCH   6  31
BRANCH  29  33
ATOM     33  O   UNL     1       5.633 -10.124  -6.119  1.00  0.00    -0.393 OA
ATOM     34  H   UNL     1       5.924 -10.628  -6.923  1.00  0.00     0.210 HD
ENDBRANCH  29  33
TORSDOF 2
ENDMDL
