MODEL 1
REMARK VINA RESULT:    -6.770      0.000      0.000
REMARK INTER + INTRA:         -10.701
REMARK INTER:                  -9.343
REMARK INTRA:                  -1.359
REMARK UNBOUND:                -1.359
REMARK SMILES CC[C@@H](CC[C@H](C)[C@@H]1CC[C@@H]2[C@@H]3CC=C4C[C@H](O)CC[C@]4(C)[C@@H]3CC[C@@]21C)C(C)C
REMARK SMILES IDX 5 1 4 2 3 3 2 4 1 5 28 6 29 7 30 8 6 9 7 10 8 11 9 12 26 13
REMARK SMILES IDX 10 14 11 15 25 16 27 17 12 18 24 19 23 20 13 21 21 22 14 23
REMARK SMILES IDX 15 24 20 25 22 26 16 27 19 28 17 29 18 30
REMARK H PARENT 18 31
REMARK Flexibility Score: inf
ROOT
ATOM      1  C   UNL     1     141.408 141.088 145.227  1.00  0.00     0.004 C 
ENDROOT
BRANCH   1   2
ATOM      2  C   UNL     1     140.101 141.876 144.995  1.00  0.00     0.004 C 
BRANCH   2   3
ATOM      3  C   UNL     1     139.125 141.769 146.207  1.00  0.00    -0.009 C 
BRANCH   3   4
ATOM      4  C   UNL     1     137.861 142.653 146.007  1.00  0.00     0.000 C 
ATOM      5  C   UNL     1     137.615 143.031 144.547  1.00  0.00     0.004 C 
ENDBRANCH   3   4
BRANCH   3   6
ATOM      6  C   UNL     1     139.865 142.071 147.553  1.00  0.00    -0.014 C 
ATOM      7  C   UNL     1     139.983 143.573 147.864  1.00  0.00     0.007 C 
ATOM      8  C   UNL     1     139.234 141.334 148.747  1.00  0.00     0.007 C 
ENDBRANCH   3   6
ENDBRANCH   2   3
ENDBRANCH   1   2
BRANCH   1   9
ATOM      9  C   UNL     1     141.503 139.785 144.386  1.00  0.00    -0.011 C 
ATOM     10  C   UNL     1     140.206 139.577 143.575  1.00  0.00     0.008 C 
BRANCH   9  11
ATOM     11  C   UNL     1     141.808 138.486 145.237  1.00  0.00    -0.002 C 
ATOM     12  C   UNL     1     141.718 138.569 146.768  1.00  0.00     0.005 C 
ATOM     13  C   UNL     1     143.195 137.828 144.998  1.00  0.00    -0.026 C 
ATOM     14  C   UNL     1     142.447 137.324 147.287  1.00  0.00     0.005 C 
ATOM     15  C   UNL     1     143.180 136.712 146.074  1.00  0.00    -0.001 C 
ATOM     16  C   UNL     1     144.374 138.853 145.216  1.00  0.00     0.007 C 
ATOM     17  C   UNL     1     143.283 137.212 143.584  1.00  0.00     0.012 C 
ATOM     18  C   UNL     1     144.567 136.049 146.344  1.00  0.00     0.000 C 
ATOM     19  C   UNL     1     145.352 138.499 146.345  1.00  0.00     0.005 C 
ATOM     20  C   UNL     1     145.788 137.023 146.283  1.00  0.00     0.003 C 
ATOM     21  C   UNL     1     144.557 135.164 147.589  1.00  0.00     0.031 C 
ATOM     22  C   UNL     1     147.015 136.677 147.242  1.00  0.00    -0.008 C 
ATOM     23  C   UNL     1     145.884 134.502 147.768  1.00  0.00    -0.027 C 
ATOM     24  C   UNL     1     147.029 135.204 147.662  1.00  0.00    -0.065 C 
ATOM     25  C   UNL     1     147.001 137.488 148.577  1.00  0.00     0.014 C 
ATOM     26  C   UNL     1     148.316 137.007 146.451  1.00  0.00     0.016 C 
ATOM     27  C   UNL     1     148.194 134.743 148.505  1.00  0.00     0.063 C 
ATOM     28  C   UNL     1     148.113 137.067 149.574  1.00  0.00     0.033 C 
ATOM     29  C   UNL     1     148.182 135.543 149.825  1.00  0.00     0.118 C 
BRANCH  29  30
ATOM     30  O   UNL     1     147.089 135.155 150.619  1.00  0.00    -0.393 OA
ATOM     31  H   UNL     1     146.379 134.846 149.996  1.00  0.00     0.210 HD
ENDBRANCH  29  30
ENDBRANCH   9  11
ENDBRANCH   1   9
TORSDOF 7
ENDMDL
MODEL 2
REMARK VINA RESULT:    -6.514      1.868      2.689
REMARK INTER + INTRA:         -10.347
REMARK INTER:                  -8.925
REMARK INTRA:                  -1.423
REMARK UNBOUND:                -1.359
REMARK SMILES CC[C@@H](CC[C@H](C)[C@@H]1CC[C@@H]2[C@@H]3CC=C4C[C@H](O)CC[C@]4(C)[C@@H]3CC[C@@]21C)C(C)C
REMARK SMILES IDX 5 1 4 2 3 3 2 4 1 5 28 6 29 7 30 8 6 9 7 10 8 11 9 12 26 13
REMARK SMILES IDX 10 14 11 15 25 16 27 17 12 18 24 19 23 20 13 21 21 22 14 23
REMARK SMILES IDX 15 24 20 25 22 26 16 27 19 28 17 29 18 30
REMARK H PARENT 18 31
REMARK Flexibility Score: inf
ROOT
ATOM      1  C   UNL     1     140.034 140.147 144.555  1.00  0.00     0.004 C 
ENDROOT
BRANCH   1   2
ATOM      2  C   UNL     1     138.706 140.743 145.068  1.00  0.00     0.004 C 
BRANCH   2   3
ATOM      3  C   UNL     1     138.934 141.938 146.045  1.00  0.00    -0.009 C 
BRANCH   3   4
ATOM      4  C   UNL     1     140.440 142.312 146.153  1.00  0.00     0.000 C 
ATOM      5  C   UNL     1     140.673 143.767 146.557  1.00  0.00     0.004 C 
ENDBRANCH   3   4
BRANCH   3   6
ATOM      6  C   UNL     1     138.281 141.658 147.439  1.00  0.00    -0.014 C 
ATOM      7  C   UNL     1     139.269 141.105 148.480  1.00  0.00     0.007 C 
ATOM      8  C   UNL     1     137.554 142.891 148.004  1.00  0.00     0.007 C 
ENDBRANCH   3   6
ENDBRANCH   2   3
ENDBRANCH   1   2
BRANCH   1   9
ATOM      9  C   UNL     1     140.083 138.595 144.621  1.00  0.00    -0.011 C 
ATOM     10  C   UNL     1     138.709 138.034 145.046  1.00  0.00     0.008 C 
BRANCH   9  11
ATOM     11  C   UNL     1     141.206 138.023 145.579  1.00  0.00    -0.002 C 
ATOM     12  C   UNL     1     141.691 138.893 146.748  1.00  0.00     0.005 C 
ATOM     13  C   UNL     1     142.528 137.586 144.890  1.00  0.00    -0.026 C 
ATOM     14  C   UNL     1     143.011 138.262 147.207  1.00  0.00     0.005 C 
ATOM     15  C   UNL     1     143.398 137.232 146.123  1.00  0.00    -0.001 C 
ATOM     16  C   UNL     1     143.153 138.751 144.032  1.00  0.00     0.007 C 
ATOM     17  C   UNL     1     142.309 136.337 144.009  1.00  0.00     0.012 C 
ATOM     18  C   UNL     1     144.919 137.062 145.819  1.00  0.00     0.000 C 
ATOM     19  C   UNL     1     144.543 139.226 144.481  1.00  0.00     0.005 C 
ATOM     20  C   UNL     1     145.493 138.043 144.747  1.00  0.00     0.003 C 
ATOM     21  C   UNL     1     145.764 136.991 147.091  1.00  0.00     0.031 C 
ATOM     22  C   UNL     1     147.018 138.475 144.930  1.00  0.00    -0.008 C 
ATOM     23  C   UNL     1     147.200 136.761 146.751  1.00  0.00    -0.027 C 
ATOM     24  C   UNL     1     147.807 137.480 145.787  1.00  0.00    -0.065 C 
ATOM     25  C   UNL     1     147.185 139.857 145.639  1.00  0.00     0.014 C 
ATOM     26  C   UNL     1     147.643 138.547 143.504  1.00  0.00     0.016 C 
ATOM     27  C   UNL     1     149.283 137.746 145.959  1.00  0.00     0.063 C 
ATOM     28  C   UNL     1     148.661 140.228 145.941  1.00  0.00     0.033 C 
ATOM     29  C   UNL     1     149.452 139.110 146.659  1.00  0.00     0.118 C 
BRANCH  29  30
ATOM     30  O   UNL     1     149.023 139.027 147.995  1.00  0.00    -0.393 OA
ATOM     31  H   UNL     1     148.056 139.253 148.000  1.00  0.00     0.210 HD
ENDBRANCH  29  30
ENDBRANCH   9  11
ENDBRANCH   1   9
TORSDOF 7
ENDMDL
MODEL 3
REMARK VINA RESULT:    -6.405      1.491      1.885
REMARK INTER + INTRA:         -10.198
REMARK INTER:                  -8.817
REMARK INTRA:                  -1.381
REMARK UNBOUND:                -1.359
REMARK SMILES CC[C@@H](CC[C@H](C)[C@@H]1CC[C@@H]2[C@@H]3CC=C4C[C@H](O)CC[C@]4(C)[C@@H]3CC[C@@]21C)C(C)C
REMARK SMILES IDX 5 1 4 2 3 3 2 4 1 5 28 6 29 7 30 8 6 9 7 10 8 11 9 12 26 13
REMARK SMILES IDX 10 14 11 15 25 16 27 17 12 18 24 19 23 20 13 21 21 22 14 23
REMARK SMILES IDX 15 24 20 25 22 26 16 27 19 28 17 29 18 30
REMARK H PARENT 18 31
REMARK Flexibility Score: inf
ROOT
ATOM      1  C   UNL     1     138.895 138.998 146.724  1.00  0.00     0.004 C 
ENDROOT
BRANCH   1   2
ATOM      2  C   UNL     1     139.637 140.257 147.223  1.00  0.00     0.004 C 
BRANCH   2   3
ATOM      3  C   UNL     1     138.918 141.574 146.794  1.00  0.00    -0.009 C 
BRANCH   3   4
ATOM      4  C   UNL     1     139.640 142.260 145.600  1.00  0.00     0.000 C 
ATOM      5  C   UNL     1     140.988 141.623 145.263  1.00  0.00     0.004 C 
ENDBRANCH   3   4
BRANCH   3   6
ATOM      6  C   UNL     1     138.728 142.533 148.015  1.00  0.00    -0.014 C 
ATOM      7  C   UNL     1     139.632 143.776 147.966  1.00  0.00     0.007 C 
ATOM      8  C   UNL     1     137.261 142.956 148.205  1.00  0.00     0.007 C 
ENDBRANCH   3   6
ENDBRANCH   2   3
ENDBRANCH   1   2
BRANCH   1   9
ATOM      9  C   UNL     1     139.616 138.278 145.552  1.00  0.00    -0.011 C 
ATOM     10  C   UNL     1     138.610 137.948 144.428  1.00  0.00     0.008 C 
BRANCH   9  11
ATOM     11  C   UNL     1     140.384 136.961 145.975  1.00  0.00    -0.002 C 
ATOM     12  C   UNL     1     140.324 136.512 147.443  1.00  0.00     0.005 C 
ATOM     13  C   UNL     1     141.905 136.930 145.658  1.00  0.00    -0.026 C 
ATOM     14  C   UNL     1     141.459 135.494 147.605  1.00  0.00     0.005 C 
ATOM     15  C   UNL     1     142.318 135.593 146.325  1.00  0.00    -0.001 C 
ATOM     16  C   UNL     1     142.658 138.167 146.280  1.00  0.00     0.007 C 
ATOM     17  C   UNL     1     142.153 136.870 144.134  1.00  0.00     0.012 C 
ATOM     18  C   UNL     1     143.857 135.394 146.487  1.00  0.00     0.000 C 
ATOM     19  C   UNL     1     143.737 137.825 147.318  1.00  0.00     0.005 C 
ATOM     20  C   UNL     1     144.658 136.691 146.833  1.00  0.00     0.003 C 
ATOM     21  C   UNL     1     144.200 134.209 147.388  1.00  0.00     0.031 C 
ATOM     22  C   UNL     1     145.961 136.495 147.733  1.00  0.00    -0.008 C 
ATOM     23  C   UNL     1     145.679 134.019 147.458  1.00  0.00    -0.027 C 
ATOM     24  C   UNL     1     146.503 135.063 147.670  1.00  0.00    -0.065 C 
ATOM     25  C   UNL     1     145.711 136.778 149.249  1.00  0.00     0.014 C 
ATOM     26  C   UNL     1     147.037 137.485 147.193  1.00  0.00     0.016 C 
ATOM     27  C   UNL     1     147.784 134.783 148.420  1.00  0.00     0.063 C 
ATOM     28  C   UNL     1     146.933 136.465 150.151  1.00  0.00     0.033 C 
ATOM     29  C   UNL     1     147.540 135.062 149.918  1.00  0.00     0.118 C 
BRANCH  29  30
ATOM     30  O   UNL     1     146.679 134.091 150.458  1.00  0.00    -0.393 OA
ATOM     31  H   UNL     1     147.175 133.648 151.197  1.00  0.00     0.210 HD
ENDBRANCH  29  30
ENDBRANCH   9  11
ENDBRANCH   1   9
TORSDOF 7
ENDMDL
MODEL 4
REMARK VINA RESULT:    -6.387      1.633      2.629
REMARK INTER + INTRA:         -10.172
REMARK INTER:                  -8.739
REMARK INTRA:                  -1.434
REMARK UNBOUND:                -1.359
REMARK SMILES CC[C@@H](CC[C@H](C)[C@@H]1CC[C@@H]2[C@@H]3CC=C4C[C@H](O)CC[C@]4(C)[C@@H]3CC[C@@]21C)C(C)C
REMARK SMILES IDX 5 1 4 2 3 3 2 4 1 5 28 6 29 7 30 8 6 9 7 10 8 11 9 12 26 13
REMARK SMILES IDX 10 14 11 15 25 16 27 17 12 18 24 19 23 20 13 21 21 22 14 23
REMARK SMILES IDX 15 24 20 25 22 26 16 27 19 28 17 29 18 30
REMARK H PARENT 18 31
REMARK Flexibility Score: inf
ROOT
ATOM      1  C   UNL     1     138.601 141.290 144.864  1.00  0.00     0.004 C 
ENDROOT
BRANCH   1   2
ATOM      2  C   UNL     1     139.733 142.171 145.434  1.00  0.00     0.004 C 
BRANCH   2   3
ATOM      3  C   UNL     1     139.290 142.944 146.715  1.00  0.00    -0.009 C 
BRANCH   3   4
ATOM      4  C   UNL     1     140.512 143.452 147.531  1.00  0.00     0.000 C 
ATOM      5  C   UNL     1     140.199 144.681 148.384  1.00  0.00     0.004 C 
ENDBRANCH   3   4
BRANCH   3   6
ATOM      6  C   UNL     1     138.304 142.087 147.576  1.00  0.00    -0.014 C 
ATOM      7  C   UNL     1     138.997 141.302 148.703  1.00  0.00     0.007 C 
ATOM      8  C   UNL     1     137.147 142.923 148.150  1.00  0.00     0.007 C 
ENDBRANCH   3   6
ENDBRANCH   2   3
ENDBRANCH   1   2
BRANCH   1   9
ATOM      9  C   UNL     1     139.104 140.183 143.897  1.00  0.00    -0.011 C 
ATOM     10  C   UNL     1     138.096 139.978 142.746  1.00  0.00     0.008 C 
BRANCH   9  11
ATOM     11  C   UNL     1     139.392 138.794 144.599  1.00  0.00    -0.002 C 
ATOM     12  C   UNL     1     139.165 138.671 146.114  1.00  0.00     0.005 C 
ATOM     13  C   UNL     1     140.825 138.222 144.409  1.00  0.00    -0.026 C 
ATOM     14  C   UNL     1     139.902 137.395 146.535  1.00  0.00     0.005 C 
ATOM     15  C   UNL     1     140.766 136.974 145.327  1.00  0.00    -0.001 C 
ATOM     16  C   UNL     1     141.930 139.248 144.865  1.00  0.00     0.007 C 
ATOM     17  C   UNL     1     141.064 137.800 142.942  1.00  0.00     0.012 C 
ATOM     18  C   UNL     1     142.153 136.329 145.637  1.00  0.00     0.000 C 
ATOM     19  C   UNL     1     142.821 138.782 146.026  1.00  0.00     0.005 C 
ATOM     20  C   UNL     1     143.328 137.343 145.815  1.00  0.00     0.003 C 
ATOM     21  C   UNL     1     142.075 135.287 146.753  1.00  0.00     0.031 C 
ATOM     22  C   UNL     1     144.481 136.916 146.832  1.00  0.00    -0.008 C 
ATOM     23  C   UNL     1     143.409 134.653 146.968  1.00  0.00    -0.027 C 
ATOM     24  C   UNL     1     144.526 135.401 147.059  1.00  0.00    -0.065 C 
ATOM     25  C   UNL     1     144.313 137.543 148.253  1.00  0.00     0.014 C 
ATOM     26  C   UNL     1     145.830 137.392 146.214  1.00  0.00     0.016 C 
ATOM     27  C   UNL     1     145.632 134.874 147.942  1.00  0.00     0.063 C 
ATOM     28  C   UNL     1     145.351 137.033 149.287  1.00  0.00     0.033 C 
ATOM     29  C   UNL     1     145.468 135.492 149.346  1.00  0.00     0.118 C 
BRANCH  29  30
ATOM     30  O   UNL     1     144.329 134.966 149.978  1.00  0.00    -0.393 OA
ATOM     31  H   UNL     1     144.455 133.981 150.022  1.00  0.00     0.210 HD
ENDBRANCH  29  30
ENDBRANCH   9  11
ENDBRANCH   1   9
TORSDOF 7
ENDMDL
MODEL 5
REMARK VINA RESULT:    -6.257      4.454      6.861
REMARK INTER + INTRA:          -9.994
REMARK INTER:                  -8.172
REMARK INTRA:                  -1.822
REMARK UNBOUND:                -1.359
REMARK SMILES CC[C@@H](CC[C@H](C)[C@@H]1CC[C@@H]2[C@@H]3CC=C4C[C@H](O)CC[C@]4(C)[C@@H]3CC[C@@]21C)C(C)C
REMARK SMILES IDX 5 1 4 2 3 3 2 4 1 5 28 6 29 7 30 8 6 9 7 10 8 11 9 12 26 13
REMARK SMILES IDX 10 14 11 15 25 16 27 17 12 18 24 19 23 20 13 21 21 22 14 23
REMARK SMILES IDX 15 24 20 25 22 26 16 27 19 28 17 29 18 30
REMARK H PARENT 18 31
REMARK Flexibility Score: inf
ROOT
ATOM      1  C   UNL     1     149.173 140.728 143.142  1.00  0.00     0.004 C 
ENDROOT
BRANCH   1   2
ATOM      2  C   UNL     1     147.761 141.351 143.115  1.00  0.00     0.004 C 
BRANCH   2   3
ATOM      3  C   UNL     1     146.796 140.585 142.157  1.00  0.00    -0.009 C 
BRANCH   3   4
ATOM      4  C   UNL     1     147.113 139.063 142.120  1.00  0.00     0.000 C 
ATOM      5  C   UNL     1     145.970 138.196 142.646  1.00  0.00     0.004 C 
ENDBRANCH   3   4
BRANCH   3   6
ATOM      6  C   UNL     1     146.786 141.234 140.733  1.00  0.00    -0.014 C 
ATOM      7  C   UNL     1     145.657 140.710 139.829  1.00  0.00     0.007 C 
ATOM      8  C   UNL     1     146.745 142.771 140.790  1.00  0.00     0.007 C 
ENDBRANCH   3   6
ENDBRANCH   2   3
ENDBRANCH   1   2
BRANCH   1   9
ATOM      9  C   UNL     1     149.789 140.651 144.567  1.00  0.00    -0.011 C 
ATOM     10  C   UNL     1     151.239 141.180 144.551  1.00  0.00     0.008 C 
BRANCH   9  11
ATOM     11  C   UNL     1     149.762 139.203 145.205  1.00  0.00    -0.002 C 
ATOM     12  C   UNL     1     149.394 138.009 144.312  1.00  0.00     0.005 C 
ATOM     13  C   UNL     1     148.835 139.022 146.439  1.00  0.00    -0.026 C 
ATOM     14  C   UNL     1     149.061 136.865 145.277  1.00  0.00     0.005 C 
ATOM     15  C   UNL     1     148.964 137.497 146.683  1.00  0.00    -0.001 C 
ATOM     16  C   UNL     1     147.352 139.453 146.124  1.00  0.00     0.007 C 
ATOM     17  C   UNL     1     149.369 139.809 147.656  1.00  0.00     0.012 C 
ATOM     18  C   UNL     1     147.900 136.901 147.657  1.00  0.00     0.000 C 
ATOM     19  C   UNL     1     146.303 138.338 146.243  1.00  0.00     0.005 C 
ATOM     20  C   UNL     1     146.474 137.529 147.542  1.00  0.00     0.003 C 
ATOM     21  C   UNL     1     147.894 135.373 147.648  1.00  0.00     0.031 C 
ATOM     22  C   UNL     1     145.248 136.557 147.857  1.00  0.00    -0.008 C 
ATOM     23  C   UNL     1     146.909 134.850 148.641  1.00  0.00    -0.027 C 
ATOM     24  C   UNL     1     145.662 135.356 148.712  1.00  0.00    -0.065 C 
ATOM     25  C   UNL     1     144.598 135.949 146.573  1.00  0.00     0.014 C 
ATOM     26  C   UNL     1     144.186 137.402 148.623  1.00  0.00     0.016 C 
ATOM     27  C   UNL     1     144.565 134.411 149.141  1.00  0.00     0.063 C 
ATOM     28  C   UNL     1     143.493 134.903 146.870  1.00  0.00     0.033 C 
ATOM     29  C   UNL     1     143.921 133.808 147.875  1.00  0.00     0.118 C 
BRANCH  29  30
ATOM     30  O   UNL     1     144.819 132.929 147.245  1.00  0.00    -0.393 OA
ATOM     31  H   UNL     1     144.275 132.326 146.673  1.00  0.00     0.210 HD
ENDBRANCH  29  30
ENDBRANCH   9  11
ENDBRANCH   1   9
TORSDOF 7
ENDMDL
MODEL 6
REMARK VINA RESULT:    -6.116      5.951      9.751
REMARK INTER + INTRA:          -9.799
REMARK INTER:                  -8.596
REMARK INTRA:                  -1.203
REMARK UNBOUND:                -1.359
REMARK SMILES CC[C@@H](CC[C@H](C)[C@@H]1CC[C@@H]2[C@@H]3CC=C4C[C@H](O)CC[C@]4(C)[C@@H]3CC[C@@]21C)C(C)C
REMARK SMILES IDX 5 1 4 2 3 3 2 4 1 5 28 6 29 7 30 8 6 9 7 10 8 11 9 12 26 13
REMARK SMILES IDX 10 14 11 15 25 16 27 17 12 18 24 19 23 20 13 21 21 22 14 23
REMARK SMILES IDX 15 24 20 25 22 26 16 27 19 28 17 29 18 30
REMARK H PARENT 18 31
REMARK Flexibility Score: inf
ROOT
ATOM      1  C   UNL     1     150.072 139.018 139.180  1.00  0.00     0.004 C 
ENDROOT
BRANCH   1   2
ATOM      2  C   UNL     1     151.401 139.440 138.517  1.00  0.00     0.004 C 
BRANCH   2   3
ATOM      3  C   UNL     1     152.354 138.227 138.284  1.00  0.00    -0.009 C 
BRANCH   3   4
ATOM      4  C   UNL     1     152.781 138.110 136.793  1.00  0.00     0.000 C 
ATOM      5  C   UNL     1     152.591 139.408 136.008  1.00  0.00     0.004 C 
ENDBRANCH   3   4
BRANCH   3   6
ATOM      6  C   UNL     1     151.727 136.905 138.837  1.00  0.00    -0.014 C 
ATOM      7  C   UNL     1     151.253 135.943 137.735  1.00  0.00     0.007 C 
ATOM      8  C   UNL     1     152.668 136.171 139.808  1.00  0.00     0.007 C 
ENDBRANCH   3   6
ENDBRANCH   2   3
ENDBRANCH   1   2
BRANCH   1   9
ATOM      9  C   UNL     1     149.414 140.145 140.023  1.00  0.00    -0.011 C 
ATOM     10  C   UNL     1     149.564 141.505 139.306  1.00  0.00     0.008 C 
BRANCH   9  11
ATOM     11  C   UNL     1     149.976 140.262 141.497  1.00  0.00    -0.002 C 
ATOM     12  C   UNL     1     150.959 139.194 141.999  1.00  0.00     0.005 C 
ATOM     13  C   UNL     1     148.910 140.320 142.627  1.00  0.00    -0.026 C 
ATOM     14  C   UNL     1     150.983 139.346 143.524  1.00  0.00     0.005 C 
ATOM     15  C   UNL     1     149.814 140.287 143.886  1.00  0.00    -0.001 C 
ATOM     16  C   UNL     1     147.925 139.091 142.566  1.00  0.00     0.007 C 
ATOM     17  C   UNL     1     148.113 141.642 142.571  1.00  0.00     0.012 C 
ATOM     18  C   UNL     1     149.059 140.001 145.221  1.00  0.00     0.000 C 
ATOM     19  C   UNL     1     147.940 138.175 143.798  1.00  0.00     0.005 C 
ATOM     20  C   UNL     1     147.883 138.979 145.109  1.00  0.00     0.003 C 
ATOM     21  C   UNL     1     150.014 139.704 146.377  1.00  0.00     0.031 C 
ATOM     22  C   UNL     1     147.603 138.081 146.399  1.00  0.00    -0.008 C 
ATOM     23  C   UNL     1     149.250 139.503 147.645  1.00  0.00    -0.027 C 
ATOM     24  C   UNL     1     148.161 138.710 147.679  1.00  0.00    -0.065 C 
ATOM     25  C   UNL     1     148.254 136.664 146.315  1.00  0.00     0.014 C 
ATOM     26  C   UNL     1     146.057 137.933 146.521  1.00  0.00     0.016 C 
ATOM     27  C   UNL     1     147.883 137.987 148.975  1.00  0.00     0.063 C 
ATOM     28  C   UNL     1     148.102 135.830 147.615  1.00  0.00     0.033 C 
ATOM     29  C   UNL     1     148.525 136.586 148.896  1.00  0.00     0.118 C 
BRANCH  29  30
ATOM     30  O   UNL     1     149.926 136.692 148.927  1.00  0.00    -0.393 OA
ATOM     31  H   UNL     1     150.152 137.604 148.606  1.00  0.00     0.210 HD
ENDBRANCH  29  30
ENDBRANCH   9  11
ENDBRANCH   1   9
TORSDOF 7
ENDMDL
MODEL 7
REMARK VINA RESULT:    -6.084      4.046      8.637
REMARK INTER + INTRA:          -9.754
REMARK INTER:                  -8.022
REMARK INTRA:                  -1.732
REMARK UNBOUND:                -1.359
REMARK SMILES CC[C@@H](CC[C@H](C)[C@@H]1CC[C@@H]2[C@@H]3CC=C4C[C@H](O)CC[C@]4(C)[C@@H]3CC[C@@]21C)C(C)C
REMARK SMILES IDX 5 1 4 2 3 3 2 4 1 5 28 6 29 7 30 8 6 9 7 10 8 11 9 12 26 13
REMARK SMILES IDX 10 14 11 15 25 16 27 17 12 18 24 19 23 20 13 21 21 22 14 23
REMARK SMILES IDX 15 24 20 25 22 26 16 27 19 28 17 29 18 30
REMARK H PARENT 18 31
REMARK Flexibility Score: inf
ROOT
ATOM      1  C   UNL     1     149.139 135.040 150.422  1.00  0.00     0.004 C 
ENDROOT
BRANCH   1   2
ATOM      2  C   UNL     1     149.940 136.086 149.617  1.00  0.00     0.004 C 
BRANCH   2   3
ATOM      3  C   UNL     1     150.125 137.420 150.404  1.00  0.00    -0.009 C 
BRANCH   3   4
ATOM      4  C   UNL     1     150.219 138.644 149.449  1.00  0.00     0.000 C 
ATOM      5  C   UNL     1     150.548 138.259 148.007  1.00  0.00     0.004 C 
ENDBRANCH   3   4
BRANCH   3   6
ATOM      6  C   UNL     1     151.339 137.329 151.388  1.00  0.00    -0.014 C 
ATOM      7  C   UNL     1     152.493 136.461 150.859  1.00  0.00     0.007 C 
ATOM      8  C   UNL     1     151.867 138.714 151.798  1.00  0.00     0.007 C 
ENDBRANCH   3   6
ENDBRANCH   2   3
ENDBRANCH   1   2
BRANCH   1   9
ATOM      9  C   UNL     1     147.691 135.493 150.758  1.00  0.00    -0.011 C 
ATOM     10  C   UNL     1     147.232 134.868 152.093  1.00  0.00     0.008 C 
BRANCH   9  11
ATOM     11  C   UNL     1     146.632 135.164 149.630  1.00  0.00    -0.002 C 
ATOM     12  C   UNL     1     147.087 134.361 148.402  1.00  0.00     0.005 C 
ATOM     13  C   UNL     1     145.906 136.387 149.004  1.00  0.00    -0.026 C 
ATOM     14  C   UNL     1     145.990 134.566 147.350  1.00  0.00     0.005 C 
ATOM     15  C   UNL     1     145.086 135.699 147.882  1.00  0.00    -0.001 C 
ATOM     16  C   UNL     1     146.926 137.445 148.434  1.00  0.00     0.007 C 
ATOM     17  C   UNL     1     144.962 137.057 150.027  1.00  0.00     0.012 C 
ATOM     18  C   UNL     1     144.478 136.676 146.828  1.00  0.00     0.000 C 
ATOM     19  C   UNL     1     146.836 137.698 146.923  1.00  0.00     0.005 C 
ATOM     20  C   UNL     1     145.380 137.898 146.462  1.00  0.00     0.003 C 
ATOM     21  C   UNL     1     143.923 135.943 145.607  1.00  0.00     0.031 C 
ATOM     22  C   UNL     1     145.251 138.449 144.970  1.00  0.00    -0.008 C 
ATOM     23  C   UNL     1     143.294 136.911 144.659  1.00  0.00    -0.027 C 
ATOM     24  C   UNL     1     143.924 138.052 144.316  1.00  0.00    -0.065 C 
ATOM     25  C   UNL     1     146.363 137.908 144.015  1.00  0.00     0.014 C 
ATOM     26  C   UNL     1     145.350 140.002 145.050  1.00  0.00     0.016 C 
ATOM     27  C   UNL     1     143.657 138.589 142.929  1.00  0.00     0.063 C 
ATOM     28  C   UNL     1     146.172 138.331 142.535  1.00  0.00     0.033 C 
ATOM     29  C   UNL     1     144.754 138.056 141.984  1.00  0.00     0.118 C 
BRANCH  29  30
ATOM     30  O   UNL     1     144.595 136.674 141.786  1.00  0.00    -0.393 OA
ATOM     31  H   UNL     1     144.662 136.247 142.680  1.00  0.00     0.210 HD
ENDBRANCH  29  30
ENDBRANCH   9  11
ENDBRANCH   1   9
TORSDOF 7
ENDMDL
MODEL 8
REMARK VINA RESULT:    -6.077      4.174      6.376
REMARK INTER + INTRA:          -9.745
REMARK INTER:                  -7.901
REMARK INTRA:                  -1.844
REMARK UNBOUND:                -1.359
REMARK SMILES CC[C@@H](CC[C@H](C)[C@@H]1CC[C@@H]2[C@@H]3CC=C4C[C@H](O)CC[C@]4(C)[C@@H]3CC[C@@]21C)C(C)C
REMARK SMILES IDX 5 1 4 2 3 3 2 4 1 5 28 6 29 7 30 8 6 9 7 10 8 11 9 12 26 13
REMARK SMILES IDX 10 14 11 15 25 16 27 17 12 18 24 19 23 20 13 21 21 22 14 23
REMARK SMILES IDX 15 24 20 25 22 26 16 27 19 28 17 29 18 30
REMARK H PARENT 18 31
REMARK Flexibility Score: inf
ROOT
ATOM      1  C   UNL     1     138.683 142.859 145.520  1.00  0.00     0.004 C 
ENDROOT
BRANCH   1   2
ATOM      2  C   UNL     1     137.338 143.137 144.815  1.00  0.00     0.004 C 
BRANCH   2   3
ATOM      3  C   UNL     1     137.502 143.290 143.271  1.00  0.00    -0.009 C 
BRANCH   3   4
ATOM      4  C   UNL     1     136.212 143.853 142.609  1.00  0.00     0.000 C 
ATOM      5  C   UNL     1     135.431 144.800 143.519  1.00  0.00     0.004 C 
ENDBRANCH   3   4
BRANCH   3   6
ATOM      6  C   UNL     1     137.977 141.949 142.621  1.00  0.00    -0.014 C 
ATOM      7  C   UNL     1     136.935 141.318 141.682  1.00  0.00     0.007 C 
ATOM      8  C   UNL     1     139.324 142.097 141.891  1.00  0.00     0.007 C 
ENDBRANCH   3   6
ENDBRANCH   2   3
ENDBRANCH   1   2
BRANCH   1   9
ATOM      9  C   UNL     1     138.685 141.549 146.355  1.00  0.00    -0.011 C 
ATOM     10  C   UNL     1     138.502 141.871 147.854  1.00  0.00     0.008 C 
BRANCH   9  11
ATOM     11  C   UNL     1     139.980 140.660 146.161  1.00  0.00    -0.002 C 
ATOM     12  C   UNL     1     141.050 141.123 145.161  1.00  0.00     0.005 C 
ATOM     13  C   UNL     1     139.733 139.181 145.756  1.00  0.00    -0.026 C 
ATOM     14  C   UNL     1     141.929 139.894 144.905  1.00  0.00     0.005 C 
ATOM     15  C   UNL     1     141.187 138.692 145.529  1.00  0.00    -0.001 C 
ATOM     16  C   UNL     1     138.855 139.069 144.453  1.00  0.00     0.007 C 
ATOM     17  C   UNL     1     139.074 138.392 146.909  1.00  0.00     0.012 C 
ATOM     18  C   UNL     1     141.305 137.323 144.789  1.00  0.00     0.000 C 
ATOM     19  C   UNL     1     139.536 138.390 143.256  1.00  0.00     0.005 C 
ATOM     20  C   UNL     1     140.244 137.086 143.666  1.00  0.00     0.003 C 
ATOM     21  C   UNL     1     142.737 137.023 144.345  1.00  0.00     0.031 C 
ATOM     22  C   UNL     1     140.715 136.196 142.428  1.00  0.00    -0.008 C 
ATOM     23  C   UNL     1     142.811 135.677 143.702  1.00  0.00    -0.027 C 
ATOM     24  C   UNL     1     141.910 135.302 142.774  1.00  0.00    -0.065 C 
ATOM     25  C   UNL     1     141.172 137.044 141.199  1.00  0.00     0.014 C 
ATOM     26  C   UNL     1     139.500 135.309 142.020  1.00  0.00     0.016 C 
ATOM     27  C   UNL     1     142.389 134.355 141.699  1.00  0.00     0.063 C 
ATOM     28  C   UNL     1     141.755 136.196 140.038  1.00  0.00     0.033 C 
ATOM     29  C   UNL     1     142.842 135.190 140.484  1.00  0.00     0.118 C 
BRANCH  29  30
ATOM     30  O   UNL     1     144.022 135.891 140.788  1.00  0.00    -0.393 OA
ATOM     31  H   UNL     1     144.668 135.695 140.059  1.00  0.00     0.210 HD
ENDBRANCH  29  30
ENDBRANCH   9  11
ENDBRANCH   1   9
TORSDOF 7
ENDMDL
MODEL 9
REMARK VINA RESULT:    -5.911      3.339      8.252
REMARK INTER + INTRA:          -9.516
REMARK INTER:                  -7.404
REMARK INTRA:                  -2.112
REMARK UNBOUND:                -1.359
REMARK SMILES CC[C@@H](CC[C@H](C)[C@@H]1CC[C@@H]2[C@@H]3CC=C4C[C@H](O)CC[C@]4(C)[C@@H]3CC[C@@]21C)C(C)C
REMARK SMILES IDX 5 1 4 2 3 3 2 4 1 5 28 6 29 7 30 8 6 9 7 10 8 11 9 12 26 13
REMARK SMILES IDX 10 14 11 15 25 16 27 17 12 18 24 19 23 20 13 21 21 22 14 23
REMARK SMILES IDX 15 24 20 25 22 26 16 27 19 28 17 29 18 30
REMARK H PARENT 18 31
REMARK Flexibility Score: inf
ROOT
ATOM      1  C   UNL     1     149.516 136.298 149.964  1.00  0.00     0.004 C 
ENDROOT
BRANCH   1   2
ATOM      2  C   UNL     1     149.435 137.750 149.447  1.00  0.00     0.004 C 
BRANCH   2   3
ATOM      3  C   UNL     1     149.834 137.863 147.943  1.00  0.00    -0.009 C 
BRANCH   3   4
ATOM      4  C   UNL     1     150.906 138.967 147.714  1.00  0.00     0.000 C 
ATOM      5  C   UNL     1     152.002 138.549 146.735  1.00  0.00     0.004 C 
ENDBRANCH   3   4
BRANCH   3   6
ATOM      6  C   UNL     1     148.571 138.053 147.039  1.00  0.00    -0.014 C 
ATOM      7  C   UNL     1     148.328 139.513 146.622  1.00  0.00     0.007 C 
ATOM      8  C   UNL     1     148.598 137.147 145.796  1.00  0.00     0.007 C 
ENDBRANCH   3   6
ENDBRANCH   2   3
ENDBRANCH   1   2
BRANCH   1   9
ATOM      9  C   UNL     1     148.236 135.836 150.715  1.00  0.00    -0.011 C 
ATOM     10  C   UNL     1     148.617 135.017 151.967  1.00  0.00     0.008 C 
BRANCH   9  11
ATOM     11  C   UNL     1     147.230 134.999 149.824  1.00  0.00    -0.002 C 
ATOM     12  C   UNL     1     147.626 134.667 148.378  1.00  0.00     0.005 C 
ATOM     13  C   UNL     1     145.802 135.594 149.673  1.00  0.00    -0.026 C 
ATOM     14  C   UNL     1     146.326 134.239 147.687  1.00  0.00     0.005 C 
ATOM     15  C   UNL     1     145.179 134.606 148.654  1.00  0.00    -0.001 C 
ATOM     16  C   UNL     1     145.839 137.072 149.127  1.00  0.00     0.007 C 
ATOM     17  C   UNL     1     145.034 135.542 151.012  1.00  0.00     0.012 C 
ATOM     18  C   UNL     1     143.840 135.089 148.015  1.00  0.00     0.000 C 
ATOM     19  C   UNL     1     145.148 137.291 147.773  1.00  0.00     0.005 C 
ATOM     20  C   UNL     1     143.761 136.623 147.725  1.00  0.00     0.003 C 
ATOM     21  C   UNL     1     143.415 134.224 146.829  1.00  0.00     0.031 C 
ATOM     22  C   UNL     1     142.884 137.058 146.466  1.00  0.00    -0.008 C 
ATOM     23  C   UNL     1     142.099 134.683 146.294  1.00  0.00    -0.027 C 
ATOM     24  C   UNL     1     141.859 135.990 146.072  1.00  0.00    -0.065 C 
ATOM     25  C   UNL     1     143.735 137.311 145.180  1.00  0.00     0.014 C 
ATOM     26  C   UNL     1     142.144 138.372 146.861  1.00  0.00     0.016 C 
ATOM     27  C   UNL     1     140.917 136.330 144.941  1.00  0.00     0.063 C 
ATOM     28  C   UNL     1     142.884 137.606 143.917  1.00  0.00     0.033 C 
ATOM     29  C   UNL     1     141.755 136.580 143.670  1.00  0.00     0.118 C 
BRANCH  29  30
ATOM     30  O   UNL     1     142.317 135.375 143.215  1.00  0.00    -0.393 OA
ATOM     31  H   UNL     1     141.588 134.869 142.768  1.00  0.00     0.210 HD
ENDBRANCH  29  30
ENDBRANCH   9  11
ENDBRANCH   1   9
TORSDOF 7
ENDMDL
