MODEL 1
REMARK VINA RESULT:    -6.123      0.000      0.000
REMARK INTER + INTRA:         -10.292
REMARK INTER:                  -8.449
REMARK INTRA:                  -1.843
REMARK UNBOUND:                -1.843
REMARK SMILES CC[C@@H](CC[C@H](C)[C@H]1CC[C@H]2[C@@H]3CC=C4C[C@@H](O)CC[C@@]4(C)[C@@H]3CC[C@]12C)C(C)C
REMARK SMILES IDX 5 1 4 2 3 3 2 4 1 5 28 6 29 7 30 8 6 9 7 10 8 11 9 12 26 13
REMARK SMILES IDX 10 14 11 15 25 16 27 17 12 18 24 19 23 20 13 21 21 22 14 23
REMARK SMILES IDX 15 24 20 25 22 26 16 27 19 28 17 29 18 30
REMARK H PARENT 18 31
REMARK Flexibility Score: inf
ROOT
ATOM      1  C   UNL     1      10.374  15.329  12.362  1.00  0.00     0.004 C 
ENDROOT
BRANCH   1   2
ATOM      2  C   UNL     1      10.969  14.135  13.147  1.00  0.00     0.004 C 
BRANCH   2   3
ATOM      3  C   UNL     1      11.357  14.477  14.620  1.00  0.00    -0.009 C 
BRANCH   3   4
ATOM      4  C   UNL     1      12.609  15.396  14.685  1.00  0.00     0.000 C 
ATOM      5  C   UNL     1      13.884  14.714  14.190  1.00  0.00     0.004 C 
ENDBRANCH   3   4
BRANCH   3   6
ATOM      6  C   UNL     1      11.533  13.172  15.464  1.00  0.00    -0.014 C 
ATOM      7  C   UNL     1      10.603  12.041  14.997  1.00  0.00     0.007 C 
ATOM      8  C   UNL     1      11.378  13.400  16.977  1.00  0.00     0.007 C 
ENDBRANCH   3   6
ENDBRANCH   2   3
ENDBRANCH   1   2
BRANCH   1   9
ATOM      9  C   UNL     1      10.964  15.555  10.943  1.00  0.00    -0.011 C 
ATOM     10  C   UNL     1      10.026  15.009   9.853  1.00  0.00     0.008 C 
BRANCH   9  11
ATOM     11  C   UNL     1      12.468  15.103  10.829  1.00  0.00    -0.002 C 
ATOM     12  C   UNL     1      12.805  13.925   9.875  1.00  0.00     0.005 C 
ATOM     13  C   UNL     1      13.481  16.210  10.431  1.00  0.00    -0.026 C 
ATOM     14  C   UNL     1      14.266  14.130   9.435  1.00  0.00     0.005 C 
ATOM     15  C   UNL     1      14.741  15.351  10.219  1.00  0.00    -0.001 C 
ATOM     16  C   UNL     1      13.754  17.267  11.544  1.00  0.00     0.007 C 
ATOM     17  C   UNL     1      13.031  16.932   9.120  1.00  0.00     0.012 C 
ATOM     18  C   UNL     1      15.926  16.164   9.650  1.00  0.00     0.000 C 
ATOM     19  C   UNL     1      15.259  17.577  11.754  1.00  0.00     0.005 C 
ATOM     20  C   UNL     1      16.114  17.518  10.445  1.00  0.00     0.003 C 
ATOM     21  C   UNL     1      17.201  15.317   9.613  1.00  0.00     0.031 C 
ATOM     22  C   UNL     1      17.626  17.978  10.662  1.00  0.00    -0.008 C 
ATOM     23  C   UNL     1      18.346  16.147   9.121  1.00  0.00    -0.027 C 
ATOM     24  C   UNL     1      18.536  17.405   9.562  1.00  0.00    -0.065 C 
ATOM     25  C   UNL     1      17.670  19.542  10.633  1.00  0.00     0.014 C 
ATOM     26  C   UNL     1      18.193  17.494  12.025  1.00  0.00     0.016 C 
ATOM     27  C   UNL     1      19.841  18.089   9.198  1.00  0.00     0.063 C 
ATOM     28  C   UNL     1      19.079  20.121  10.472  1.00  0.00     0.033 C 
ATOM     29  C   UNL     1      19.729  19.615   9.179  1.00  0.00     0.118 C 
BRANCH  29  30
ATOM     30  O   UNL     1      18.986  20.018   8.057  1.00  0.00    -0.393 OA
ATOM     31  H   UNL     1      18.125  20.376   8.397  1.00  0.00     0.210 HD
ENDBRANCH  29  30
ENDBRANCH   9  11
ENDBRANCH   1   9
TORSDOF 7
ENDMDL
MODEL 2
REMARK VINA RESULT:    -5.956      1.938      3.503
REMARK INTER + INTRA:         -10.062
REMARK INTER:                  -8.529
REMARK INTRA:                  -1.533
REMARK UNBOUND:                -1.843
REMARK SMILES CC[C@@H](CC[C@H](C)[C@H]1CC[C@H]2[C@@H]3CC=C4C[C@@H](O)CC[C@@]4(C)[C@@H]3CC[C@]12C)C(C)C
REMARK SMILES IDX 5 1 4 2 3 3 2 4 1 5 28 6 29 7 30 8 6 9 7 10 8 11 9 12 26 13
REMARK SMILES IDX 10 14 11 15 25 16 27 17 12 18 24 19 23 20 13 21 21 22 14 23
REMARK SMILES IDX 15 24 20 25 22 26 16 27 19 28 17 29 18 30
REMARK H PARENT 18 31
REMARK Flexibility Score: inf
ROOT
ATOM      1  C   UNL     1      10.966  16.175  12.963  1.00  0.00     0.004 C 
ENDROOT
BRANCH   1   2
ATOM      2  C   UNL     1      11.165  14.707  13.412  1.00  0.00     0.004 C 
BRANCH   2   3
ATOM      3  C   UNL     1      11.727  14.560  14.861  1.00  0.00    -0.009 C 
BRANCH   3   4
ATOM      4  C   UNL     1      13.207  14.084  14.857  1.00  0.00     0.000 C 
ATOM      5  C   UNL     1      13.601  13.352  13.574  1.00  0.00     0.004 C 
ENDBRANCH   3   4
BRANCH   3   6
ATOM      6  C   UNL     1      10.807  13.632  15.720  1.00  0.00    -0.014 C 
ATOM      7  C   UNL     1      11.328  13.455  17.156  1.00  0.00     0.007 C 
ATOM      8  C   UNL     1      10.552  12.260  15.073  1.00  0.00     0.007 C 
ENDBRANCH   3   6
ENDBRANCH   2   3
ENDBRANCH   1   2
BRANCH   1   9
ATOM      9  C   UNL     1      11.726  17.238  13.802  1.00  0.00    -0.011 C 
ATOM     10  C   UNL     1      10.759  18.072  14.661  1.00  0.00     0.008 C 
BRANCH   9  11
ATOM     11  C   UNL     1      12.757  18.067  12.948  1.00  0.00    -0.002 C 
ATOM     12  C   UNL     1      13.086  19.514  13.404  1.00  0.00     0.005 C 
ATOM     13  C   UNL     1      14.150  17.413  12.742  1.00  0.00    -0.026 C 
ATOM     14  C   UNL     1      14.505  19.818  12.887  1.00  0.00     0.005 C 
ATOM     15  C   UNL     1      14.897  18.584  12.079  1.00  0.00    -0.001 C 
ATOM     16  C   UNL     1      14.152  16.185  11.781  1.00  0.00     0.007 C 
ATOM     17  C   UNL     1      14.783  17.008  14.112  1.00  0.00     0.012 C 
ATOM     18  C   UNL     1      16.402  18.294  11.881  1.00  0.00     0.000 C 
ATOM     19  C   UNL     1      15.293  16.217  10.731  1.00  0.00     0.005 C 
ATOM     20  C   UNL     1      16.621  16.862  11.247  1.00  0.00     0.003 C 
ATOM     21  C   UNL     1      17.071  19.408  11.071  1.00  0.00     0.031 C 
ATOM     22  C   UNL     1      17.820  16.755  10.200  1.00  0.00    -0.008 C 
ATOM     23  C   UNL     1      18.510  19.070  10.838  1.00  0.00    -0.027 C 
ATOM     24  C   UNL     1      18.885  17.829  10.476  1.00  0.00    -0.065 C 
ATOM     25  C   UNL     1      18.451  15.328  10.324  1.00  0.00     0.014 C 
ATOM     26  C   UNL     1      17.335  16.954   8.737  1.00  0.00     0.016 C 
ATOM     27  C   UNL     1      20.324  17.629  10.032  1.00  0.00     0.063 C 
ATOM     28  C   UNL     1      19.819  15.194   9.648  1.00  0.00     0.033 C 
ATOM     29  C   UNL     1      20.817  16.196  10.239  1.00  0.00     0.118 C 
BRANCH  29  30
ATOM     30  O   UNL     1      21.009  15.958  11.610  1.00  0.00    -0.393 OA
ATOM     31  H   UNL     1      20.608  16.726  12.094  1.00  0.00     0.210 HD
ENDBRANCH  29  30
ENDBRANCH   9  11
ENDBRANCH   1   9
TORSDOF 7
ENDMDL
MODEL 3
REMARK VINA RESULT:    -5.698      2.106      4.511
REMARK INTER + INTRA:          -9.707
REMARK INTER:                  -7.929
REMARK INTRA:                  -1.778
REMARK UNBOUND:                -1.843
REMARK SMILES CC[C@@H](CC[C@H](C)[C@H]1CC[C@H]2[C@@H]3CC=C4C[C@@H](O)CC[C@@]4(C)[C@@H]3CC[C@]12C)C(C)C
REMARK SMILES IDX 5 1 4 2 3 3 2 4 1 5 28 6 29 7 30 8 6 9 7 10 8 11 9 12 26 13
REMARK SMILES IDX 10 14 11 15 25 16 27 17 12 18 24 19 23 20 13 21 21 22 14 23
REMARK SMILES IDX 15 24 20 25 22 26 16 27 19 28 17 29 18 30
REMARK H PARENT 18 31
REMARK Flexibility Score: inf
ROOT
ATOM      1  C   UNL     1       9.524  14.520  14.339  1.00  0.00     0.004 C 
ENDROOT
BRANCH   1   2
ATOM      2  C   UNL     1       9.013  15.954  14.621  1.00  0.00     0.004 C 
BRANCH   2   3
ATOM      3  C   UNL     1       8.601  16.743  13.339  1.00  0.00    -0.009 C 
BRANCH   3   4
ATOM      4  C   UNL     1       8.974  15.968  12.043  1.00  0.00     0.000 C 
ATOM      5  C   UNL     1       7.868  15.990  10.988  1.00  0.00     0.004 C 
ENDBRANCH   3   4
BRANCH   3   6
ATOM      6  C   UNL     1       9.199  18.188  13.360  1.00  0.00    -0.014 C 
ATOM      7  C   UNL     1      10.501  18.296  12.551  1.00  0.00     0.007 C 
ATOM      8  C   UNL     1       9.405  18.740  14.780  1.00  0.00     0.007 C 
ENDBRANCH   3   6
ENDBRANCH   2   3
ENDBRANCH   1   2
BRANCH   1   9
ATOM      9  C   UNL     1      11.025  14.274  14.650  1.00  0.00    -0.011 C 
ATOM     10  C   UNL     1      11.223  13.754  16.084  1.00  0.00     0.008 C 
BRANCH   9  11
ATOM     11  C   UNL     1      11.941  15.487  14.239  1.00  0.00    -0.002 C 
ATOM     12  C   UNL     1      12.341  16.505  15.341  1.00  0.00     0.005 C 
ATOM     13  C   UNL     1      13.288  15.122  13.558  1.00  0.00    -0.026 C 
ATOM     14  C   UNL     1      13.681  17.120  14.895  1.00  0.00     0.005 C 
ATOM     15  C   UNL     1      13.951  16.511  13.522  1.00  0.00    -0.001 C 
ATOM     16  C   UNL     1      13.150  14.573  12.106  1.00  0.00     0.007 C 
ATOM     17  C   UNL     1      14.094  14.105  14.430  1.00  0.00     0.012 C 
ATOM     18  C   UNL     1      15.413  16.458  13.025  1.00  0.00     0.000 C 
ATOM     19  C   UNL     1      14.142  15.215  11.100  1.00  0.00     0.005 C 
ATOM     20  C   UNL     1      15.533  15.579  11.716  1.00  0.00     0.003 C 
ATOM     21  C   UNL     1      15.979  17.869  12.844  1.00  0.00     0.031 C 
ATOM     22  C   UNL     1      16.581  16.104  10.634  1.00  0.00    -0.008 C 
ATOM     23  C   UNL     1      17.371  17.791  12.300  1.00  0.00    -0.027 C 
ATOM     24  C   UNL     1      17.683  16.943  11.302  1.00  0.00    -0.065 C 
ATOM     25  C   UNL     1      17.210  14.862   9.920  1.00  0.00     0.014 C 
ATOM     26  C   UNL     1      15.908  17.003   9.560  1.00  0.00     0.016 C 
ATOM     27  C   UNL     1      19.048  17.091  10.653  1.00  0.00     0.063 C 
ATOM     28  C   UNL     1      18.474  15.182   9.116  1.00  0.00     0.033 C 
ATOM     29  C   UNL     1      19.551  15.792  10.021  1.00  0.00     0.118 C 
BRANCH  29  30
ATOM     30  O   UNL     1      19.922  14.890  11.032  1.00  0.00    -0.393 OA
ATOM     31  H   UNL     1      20.452  14.173  10.597  1.00  0.00     0.210 HD
ENDBRANCH  29  30
ENDBRANCH   9  11
ENDBRANCH   1   9
TORSDOF 7
ENDMDL
MODEL 4
REMARK VINA RESULT:    -5.631      1.992      4.545
REMARK INTER + INTRA:          -9.614
REMARK INTER:                  -7.312
REMARK INTRA:                  -2.302
REMARK UNBOUND:                -1.843
REMARK SMILES CC[C@@H](CC[C@H](C)[C@H]1CC[C@H]2[C@@H]3CC=C4C[C@@H](O)CC[C@@]4(C)[C@@H]3CC[C@]12C)C(C)C
REMARK SMILES IDX 5 1 4 2 3 3 2 4 1 5 28 6 29 7 30 8 6 9 7 10 8 11 9 12 26 13
REMARK SMILES IDX 10 14 11 15 25 16 27 17 12 18 24 19 23 20 13 21 21 22 14 23
REMARK SMILES IDX 15 24 20 25 22 26 16 27 19 28 17 29 18 30
REMARK H PARENT 18 31
REMARK Flexibility Score: inf
ROOT
ATOM      1  C   UNL     1       9.681  14.887  12.669  1.00  0.00     0.004 C 
ENDROOT
BRANCH   1   2
ATOM      2  C   UNL     1       9.682  16.081  11.683  1.00  0.00     0.004 C 
BRANCH   2   3
ATOM      3  C   UNL     1       9.575  15.662  10.183  1.00  0.00    -0.009 C 
BRANCH   3   4
ATOM      4  C   UNL     1       9.886  14.152   9.984  1.00  0.00     0.000 C 
ATOM      5  C   UNL     1       8.725  13.374   9.364  1.00  0.00     0.004 C 
ENDBRANCH   3   4
BRANCH   3   6
ATOM      6  C   UNL     1      10.474  16.576   9.287  1.00  0.00    -0.014 C 
ATOM      7  C   UNL     1      11.426  15.767   8.392  1.00  0.00     0.007 C 
ATOM      8  C   UNL     1      11.260  17.628  10.087  1.00  0.00     0.007 C 
ENDBRANCH   3   6
ENDBRANCH   2   3
ENDBRANCH   1   2
BRANCH   1   9
ATOM      9  C   UNL     1      10.924  14.788  13.595  1.00  0.00    -0.011 C 
ATOM     10  C   UNL     1      10.514  14.551  15.059  1.00  0.00     0.008 C 
BRANCH   9  11
ATOM     11  C   UNL     1      11.954  15.955  13.362  1.00  0.00    -0.002 C 
ATOM     12  C   UNL     1      12.227  16.933  14.538  1.00  0.00     0.005 C 
ATOM     13  C   UNL     1      13.371  15.528  12.894  1.00  0.00    -0.026 C 
ATOM     14  C   UNL     1      13.650  17.480  14.324  1.00  0.00     0.005 C 
ATOM     15  C   UNL     1      14.102  16.879  12.995  1.00  0.00    -0.001 C 
ATOM     16  C   UNL     1      13.437  15.011  11.425  1.00  0.00     0.007 C 
ATOM     17  C   UNL     1      13.976  14.456  13.856  1.00  0.00     0.012 C 
ATOM     18  C   UNL     1      15.620  16.755  12.733  1.00  0.00     0.000 C 
ATOM     19  C   UNL     1      14.607  15.613  10.603  1.00  0.00     0.005 C 
ATOM     20  C   UNL     1      15.899  15.892  11.438  1.00  0.00     0.003 C 
ATOM     21  C   UNL     1      16.278  18.136  12.677  1.00  0.00     0.031 C 
ATOM     22  C   UNL     1      17.131  16.376  10.547  1.00  0.00    -0.008 C 
ATOM     23  C   UNL     1      17.733  17.991  12.356  1.00  0.00    -0.027 C 
ATOM     24  C   UNL     1      18.156  17.143  11.400  1.00  0.00    -0.065 C 
ATOM     25  C   UNL     1      17.800  15.113   9.910  1.00  0.00     0.014 C 
ATOM     26  C   UNL     1      16.683  17.327   9.402  1.00  0.00     0.016 C 
ATOM     27  C   UNL     1      19.611  17.227  10.977  1.00  0.00     0.063 C 
ATOM     28  C   UNL     1      19.191  15.376   9.323  1.00  0.00     0.033 C 
ATOM     29  C   UNL     1      20.141  15.912  10.401  1.00  0.00     0.118 C 
BRANCH  29  30
ATOM     30  O   UNL     1      20.300  14.975  11.435  1.00  0.00    -0.393 OA
ATOM     31  H   UNL     1      21.180  14.539  11.295  1.00  0.00     0.210 HD
ENDBRANCH  29  30
ENDBRANCH   9  11
ENDBRANCH   1   9
TORSDOF 7
ENDMDL
MODEL 5
REMARK VINA RESULT:    -5.486      1.743      2.752
REMARK INTER + INTRA:          -9.414
REMARK INTER:                  -7.954
REMARK INTRA:                  -1.460
REMARK UNBOUND:                -1.843
REMARK SMILES CC[C@@H](CC[C@H](C)[C@H]1CC[C@H]2[C@@H]3CC=C4C[C@@H](O)CC[C@@]4(C)[C@@H]3CC[C@]12C)C(C)C
REMARK SMILES IDX 5 1 4 2 3 3 2 4 1 5 28 6 29 7 30 8 6 9 7 10 8 11 9 12 26 13
REMARK SMILES IDX 10 14 11 15 25 16 27 17 12 18 24 19 23 20 13 21 21 22 14 23
REMARK SMILES IDX 15 24 20 25 22 26 16 27 19 28 17 29 18 30
REMARK H PARENT 18 31
REMARK Flexibility Score: inf
ROOT
ATOM      1  C   UNL     1       9.756  16.648  14.556  1.00  0.00     0.004 C 
ENDROOT
BRANCH   1   2
ATOM      2  C   UNL     1      10.099  15.240  14.011  1.00  0.00     0.004 C 
BRANCH   2   3
ATOM      3  C   UNL     1      11.216  14.505  14.817  1.00  0.00    -0.009 C 
BRANCH   3   4
ATOM      4  C   UNL     1      12.302  13.907  13.878  1.00  0.00     0.000 C 
ATOM      5  C   UNL     1      13.675  13.795  14.541  1.00  0.00     0.004 C 
ENDBRANCH   3   4
BRANCH   3   6
ATOM      6  C   UNL     1      10.596  13.429  15.768  1.00  0.00    -0.014 C 
ATOM      7  C   UNL     1      11.304  13.373  17.131  1.00  0.00     0.007 C 
ATOM      8  C   UNL     1      10.532  12.027  15.141  1.00  0.00     0.007 C 
ENDBRANCH   3   6
ENDBRANCH   2   3
ENDBRANCH   1   2
BRANCH   1   9
ATOM      9  C   UNL     1      10.493  17.828  13.866  1.00  0.00    -0.011 C 
ATOM     10  C   UNL     1       9.599  19.077  13.784  1.00  0.00     0.008 C 
BRANCH   9  11
ATOM     11  C   UNL     1      11.190  17.407  12.518  1.00  0.00    -0.002 C 
ATOM     12  C   UNL     1      10.534  17.859  11.185  1.00  0.00     0.005 C 
ATOM     13  C   UNL     1      12.678  17.824  12.363  1.00  0.00    -0.026 C 
ATOM     14  C   UNL     1      11.670  17.938  10.149  1.00  0.00     0.005 C 
ATOM     15  C   UNL     1      12.909  17.441  10.890  1.00  0.00    -0.001 C 
ATOM     16  C   UNL     1      13.669  17.031  13.268  1.00  0.00     0.007 C 
ATOM     17  C   UNL     1      12.855  19.358  12.610  1.00  0.00     0.012 C 
ATOM     18  C   UNL     1      14.294  17.887  10.371  1.00  0.00     0.000 C 
ATOM     19  C   UNL     1      14.932  16.530  12.520  1.00  0.00     0.005 C 
ATOM     20  C   UNL     1      15.433  17.493  11.394  1.00  0.00     0.003 C 
ATOM     21  C   UNL     1      14.549  17.342   8.962  1.00  0.00     0.031 C 
ATOM     22  C   UNL     1      16.810  17.027  10.737  1.00  0.00    -0.008 C 
ATOM     23  C   UNL     1      15.921  17.731   8.510  1.00  0.00    -0.027 C 
ATOM     24  C   UNL     1      16.981  17.635   9.334  1.00  0.00    -0.065 C 
ATOM     25  C   UNL     1      17.978  17.491  11.669  1.00  0.00     0.014 C 
ATOM     26  C   UNL     1      16.888  15.483  10.579  1.00  0.00     0.016 C 
ATOM     27  C   UNL     1      18.362  17.823   8.732  1.00  0.00     0.063 C 
ATOM     28  C   UNL     1      19.360  17.433  11.009  1.00  0.00     0.033 C 
ATOM     29  C   UNL     1      19.396  18.308   9.750  1.00  0.00     0.118 C 
BRANCH  29  30
ATOM     30  O   UNL     1      19.146  19.653  10.070  1.00  0.00    -0.393 OA
ATOM     31  H   UNL     1      18.478  19.985   9.416  1.00  0.00     0.210 HD
ENDBRANCH  29  30
ENDBRANCH   9  11
ENDBRANCH   1   9
TORSDOF 7
ENDMDL
MODEL 6
REMARK VINA RESULT:    -5.456      2.853      8.281
REMARK INTER + INTRA:          -9.372
REMARK INTER:                  -8.066
REMARK INTRA:                  -1.306
REMARK UNBOUND:                -1.843
REMARK SMILES CC[C@@H](CC[C@H](C)[C@H]1CC[C@H]2[C@@H]3CC=C4C[C@@H](O)CC[C@@]4(C)[C@@H]3CC[C@]12C)C(C)C
REMARK SMILES IDX 5 1 4 2 3 3 2 4 1 5 28 6 29 7 30 8 6 9 7 10 8 11 9 12 26 13
REMARK SMILES IDX 10 14 11 15 25 16 27 17 12 18 24 19 23 20 13 21 21 22 14 23
REMARK SMILES IDX 15 24 20 25 22 26 16 27 19 28 17 29 18 30
REMARK H PARENT 18 31
REMARK Flexibility Score: inf
ROOT
ATOM      1  C   UNL     1      18.152  17.846  10.100  1.00  0.00     0.004 C 
ENDROOT
BRANCH   1   2
ATOM      2  C   UNL     1      19.201  17.118  10.974  1.00  0.00     0.004 C 
BRANCH   2   3
ATOM      3  C   UNL     1      20.628  17.071  10.342  1.00  0.00    -0.009 C 
BRANCH   3   4
ATOM      4  C   UNL     1      20.719  17.951   9.063  1.00  0.00     0.000 C 
ATOM      5  C   UNL     1      21.125  19.395   9.352  1.00  0.00     0.004 C 
ENDBRANCH   3   4
BRANCH   3   6
ATOM      6  C   UNL     1      21.071  15.595  10.080  1.00  0.00    -0.014 C 
ATOM      7  C   UNL     1      20.316  14.955   8.904  1.00  0.00     0.007 C 
ATOM      8  C   UNL     1      20.972  14.700  11.327  1.00  0.00     0.007 C 
ENDBRANCH   3   6
ENDBRANCH   2   3
ENDBRANCH   1   2
BRANCH   1   9
ATOM      9  C   UNL     1      17.078  16.934   9.448  1.00  0.00    -0.011 C 
ATOM     10  C   UNL     1      17.237  16.884   7.918  1.00  0.00     0.008 C 
BRANCH   9  11
ATOM     11  C   UNL     1      15.622  17.238   9.965  1.00  0.00    -0.002 C 
ATOM     12  C   UNL     1      14.498  17.428   8.911  1.00  0.00     0.005 C 
ATOM     13  C   UNL     1      15.027  16.211  10.966  1.00  0.00    -0.026 C 
ATOM     14  C   UNL     1      13.182  17.034   9.607  1.00  0.00     0.005 C 
ATOM     15  C   UNL     1      13.580  16.728  11.048  1.00  0.00    -0.001 C 
ATOM     16  C   UNL     1      15.673  16.243  12.385  1.00  0.00     0.007 C 
ATOM     17  C   UNL     1      15.105  14.761  10.387  1.00  0.00     0.012 C 
ATOM     18  C   UNL     1      12.663  15.798  11.874  1.00  0.00     0.000 C 
ATOM     19  C   UNL     1      14.638  16.229  13.541  1.00  0.00     0.005 C 
ATOM     20  C   UNL     1      13.351  15.393  13.238  1.00  0.00     0.003 C 
ATOM     21  C   UNL     1      11.282  16.430  12.072  1.00  0.00     0.031 C 
ATOM     22  C   UNL     1      12.369  15.277  14.490  1.00  0.00    -0.008 C 
ATOM     23  C   UNL     1      10.437  15.540  12.929  1.00  0.00    -0.027 C 
ATOM     24  C   UNL     1      10.936  14.957  14.035  1.00  0.00    -0.065 C 
ATOM     25  C   UNL     1      12.902  14.141  15.425  1.00  0.00     0.014 C 
ATOM     26  C   UNL     1      12.307  16.598  15.306  1.00  0.00     0.016 C 
ATOM     27  C   UNL     1       9.959  14.266  14.969  1.00  0.00     0.063 C 
ATOM     28  C   UNL     1      11.887  13.672  16.473  1.00  0.00     0.033 C 
ATOM     29  C   UNL     1      10.610  13.158  15.799  1.00  0.00     0.118 C 
BRANCH  29  30
ATOM     30  O   UNL     1      10.891  12.056  14.975  1.00  0.00    -0.393 OA
ATOM     31  H   UNL     1      11.513  12.376  14.271  1.00  0.00     0.210 HD
ENDBRANCH  29  30
ENDBRANCH   9  11
ENDBRANCH   1   9
TORSDOF 7
ENDMDL
MODEL 7
REMARK VINA RESULT:    -5.427      2.350      4.245
REMARK INTER + INTRA:          -9.332
REMARK INTER:                  -7.807
REMARK INTRA:                  -1.525
REMARK UNBOUND:                -1.843
REMARK SMILES CC[C@@H](CC[C@H](C)[C@H]1CC[C@H]2[C@@H]3CC=C4C[C@@H](O)CC[C@@]4(C)[C@@H]3CC[C@]12C)C(C)C
REMARK SMILES IDX 5 1 4 2 3 3 2 4 1 5 28 6 29 7 30 8 6 9 7 10 8 11 9 12 26 13
REMARK SMILES IDX 10 14 11 15 25 16 27 17 12 18 24 19 23 20 13 21 21 22 14 23
REMARK SMILES IDX 15 24 20 25 22 26 16 27 19 28 17 29 18 30
REMARK H PARENT 18 31
REMARK Flexibility Score: inf
ROOT
ATOM      1  C   UNL     1      11.010  18.053  13.315  1.00  0.00     0.004 C 
ENDROOT
BRANCH   1   2
ATOM      2  C   UNL     1      10.298  16.712  13.617  1.00  0.00     0.004 C 
BRANCH   2   3
ATOM      3  C   UNL     1      11.228  15.463  13.506  1.00  0.00    -0.009 C 
BRANCH   3   4
ATOM      4  C   UNL     1      10.814  14.541  12.324  1.00  0.00     0.000 C 
ATOM      5  C   UNL     1       9.877  15.224  11.328  1.00  0.00     0.004 C 
ENDBRANCH   3   4
BRANCH   3   6
ATOM      6  C   UNL     1      11.288  14.694  14.866  1.00  0.00    -0.014 C 
ATOM      7  C   UNL     1      12.445  13.683  14.919  1.00  0.00     0.007 C 
ATOM      8  C   UNL     1       9.963  14.007  15.236  1.00  0.00     0.007 C 
ENDBRANCH   3   6
ENDBRANCH   2   3
ENDBRANCH   1   2
BRANCH   1   9
ATOM      9  C   UNL     1      12.116  18.463  14.327  1.00  0.00    -0.011 C 
ATOM     10  C   UNL     1      11.587  19.477  15.355  1.00  0.00     0.008 C 
BRANCH   9  11
ATOM     11  C   UNL     1      13.469  18.856  13.624  1.00  0.00    -0.002 C 
ATOM     12  C   UNL     1      14.470  19.743  14.414  1.00  0.00     0.005 C 
ATOM     13  C   UNL     1      14.338  17.675  13.114  1.00  0.00    -0.026 C 
ATOM     14  C   UNL     1      15.868  19.417  13.858  1.00  0.00     0.005 C 
ATOM     15  C   UNL     1      15.615  18.437  12.715  1.00  0.00    -0.001 C 
ATOM     16  C   UNL     1      13.760  16.940  11.866  1.00  0.00     0.007 C 
ATOM     17  C   UNL     1      14.600  16.641  14.257  1.00  0.00     0.012 C 
ATOM     18  C   UNL     1      16.765  17.494  12.298  1.00  0.00     0.000 C 
ATOM     19  C   UNL     1      14.810  16.681  10.753  1.00  0.00     0.005 C 
ATOM     20  C   UNL     1      16.251  16.392  11.287  1.00  0.00     0.003 C 
ATOM     21  C   UNL     1      17.952  18.291  11.751  1.00  0.00     0.031 C 
ATOM     22  C   UNL     1      17.279  15.989  10.135  1.00  0.00    -0.008 C 
ATOM     23  C   UNL     1      19.024  17.352  11.293  1.00  0.00    -0.027 C 
ATOM     24  C   UNL     1      18.728  16.250  10.578  1.00  0.00    -0.065 C 
ATOM     25  C   UNL     1      17.081  14.472   9.811  1.00  0.00     0.014 C 
ATOM     26  C   UNL     1      17.043  16.806   8.834  1.00  0.00     0.016 C 
ATOM     27  C   UNL     1      19.881  15.482   9.956  1.00  0.00     0.063 C 
ATOM     28  C   UNL     1      18.219  13.858   8.990  1.00  0.00     0.033 C 
ATOM     29  C   UNL     1      19.557  14.005   9.724  1.00  0.00     0.118 C 
BRANCH  29  30
ATOM     30  O   UNL     1      19.526  13.331  10.956  1.00  0.00    -0.393 OA
ATOM     31  H   UNL     1      19.152  13.966  11.621  1.00  0.00     0.210 HD
ENDBRANCH  29  30
ENDBRANCH   9  11
ENDBRANCH   1   9
TORSDOF 7
ENDMDL
MODEL 8
REMARK VINA RESULT:    -4.809      2.165      3.685
REMARK INTER + INTRA:          -8.479
REMARK INTER:                  -7.767
REMARK INTRA:                  -0.712
REMARK UNBOUND:                -1.843
REMARK SMILES CC[C@@H](CC[C@H](C)[C@H]1CC[C@H]2[C@@H]3CC=C4C[C@@H](O)CC[C@@]4(C)[C@@H]3CC[C@]12C)C(C)C
REMARK SMILES IDX 5 1 4 2 3 3 2 4 1 5 28 6 29 7 30 8 6 9 7 10 8 11 9 12 26 13
REMARK SMILES IDX 10 14 11 15 25 16 27 17 12 18 24 19 23 20 13 21 21 22 14 23
REMARK SMILES IDX 15 24 20 25 22 26 16 27 19 28 17 29 18 30
REMARK H PARENT 18 31
REMARK Flexibility Score: inf
ROOT
ATOM      1  C   UNL     1      11.274  14.465  11.514  1.00  0.00     0.004 C 
ENDROOT
BRANCH   1   2
ATOM      2  C   UNL     1      10.539  15.217  12.649  1.00  0.00     0.004 C 
BRANCH   2   3
ATOM      3  C   UNL     1      11.193  15.039  14.055  1.00  0.00    -0.009 C 
BRANCH   3   4
ATOM      4  C   UNL     1      10.280  14.225  15.015  1.00  0.00     0.000 C 
ATOM      5  C   UNL     1      10.825  12.832  15.328  1.00  0.00     0.004 C 
ENDBRANCH   3   4
BRANCH   3   6
ATOM      6  C   UNL     1      11.602  16.423  14.656  1.00  0.00    -0.014 C 
ATOM      7  C   UNL     1      10.845  17.593  14.006  1.00  0.00     0.007 C 
ATOM      8  C   UNL     1      13.118  16.681  14.615  1.00  0.00     0.007 C 
ENDBRANCH   3   6
ENDBRANCH   2   3
ENDBRANCH   1   2
BRANCH   1   9
ATOM      9  C   UNL     1      11.377  15.228  10.165  1.00  0.00    -0.011 C 
ATOM     10  C   UNL     1      11.148  14.287   8.970  1.00  0.00     0.008 C 
BRANCH   9  11
ATOM     11  C   UNL     1      12.659  16.136  10.074  1.00  0.00    -0.002 C 
ATOM     12  C   UNL     1      12.711  17.415  10.953  1.00  0.00     0.005 C 
ATOM     13  C   UNL     1      14.013  15.432  10.358  1.00  0.00    -0.026 C 
ATOM     14  C   UNL     1      14.202  17.708  11.204  1.00  0.00     0.005 C 
ATOM     15  C   UNL     1      14.948  16.655  10.388  1.00  0.00    -0.001 C 
ATOM     16  C   UNL     1      14.478  14.450   9.239  1.00  0.00     0.007 C 
ATOM     17  C   UNL     1      13.975  14.684  11.730  1.00  0.00     0.012 C 
ATOM     18  C   UNL     1      16.388  16.292  10.813  1.00  0.00     0.000 C 
ATOM     19  C   UNL     1      15.968  14.618   8.841  1.00  0.00     0.005 C 
ATOM     20  C   UNL     1      16.905  15.022  10.025  1.00  0.00     0.003 C 
ATOM     21  C   UNL     1      17.320  17.498  10.668  1.00  0.00     0.031 C 
ATOM     22  C   UNL     1      18.449  15.050   9.623  1.00  0.00    -0.008 C 
ATOM     23  C   UNL     1      18.719  17.103  11.022  1.00  0.00    -0.027 C 
ATOM     24  C   UNL     1      19.249  15.945  10.583  1.00  0.00    -0.065 C 
ATOM     25  C   UNL     1      18.994  13.584   9.675  1.00  0.00     0.014 C 
ATOM     26  C   UNL     1      18.667  15.606   8.188  1.00  0.00     0.016 C 
ATOM     27  C   UNL     1      20.738  15.730  10.788  1.00  0.00     0.063 C 
ATOM     28  C   UNL     1      20.523  13.490   9.662  1.00  0.00     0.033 C 
ATOM     29  C   UNL     1      21.124  14.251  10.849  1.00  0.00     0.118 C 
BRANCH  29  30
ATOM     30  O   UNL     1      20.686  13.701  12.066  1.00  0.00    -0.393 OA
ATOM     31  H   UNL     1      19.949  13.073  11.848  1.00  0.00     0.210 HD
ENDBRANCH  29  30
ENDBRANCH   9  11
ENDBRANCH   1   9
TORSDOF 7
ENDMDL
MODEL 9
REMARK VINA RESULT:    -4.633      3.007      8.106
REMARK INTER + INTRA:          -8.237
REMARK INTER:                  -6.339
REMARK INTRA:                  -1.898
REMARK UNBOUND:                -1.843
REMARK SMILES CC[C@@H](CC[C@H](C)[C@H]1CC[C@H]2[C@@H]3CC=C4C[C@@H](O)CC[C@@]4(C)[C@@H]3CC[C@]12C)C(C)C
REMARK SMILES IDX 5 1 4 2 3 3 2 4 1 5 28 6 29 7 30 8 6 9 7 10 8 11 9 12 26 13
REMARK SMILES IDX 10 14 11 15 25 16 27 17 12 18 24 19 23 20 13 21 21 22 14 23
REMARK SMILES IDX 15 24 20 25 22 26 16 27 19 28 17 29 18 30
REMARK H PARENT 18 31
REMARK Flexibility Score: inf
ROOT
ATOM      1  C   UNL     1      17.954  17.514  12.060  1.00  0.00     0.004 C 
ENDROOT
BRANCH   1   2
ATOM      2  C   UNL     1      18.549  17.878  10.678  1.00  0.00     0.004 C 
BRANCH   2   3
ATOM      3  C   UNL     1      18.196  16.860   9.550  1.00  0.00    -0.009 C 
BRANCH   3   4
ATOM      4  C   UNL     1      17.086  17.407   8.608  1.00  0.00     0.000 C 
ATOM      5  C   UNL     1      16.676  18.843   8.931  1.00  0.00     0.004 C 
ENDBRANCH   3   4
BRANCH   3   6
ATOM      6  C   UNL     1      17.827  15.466  10.156  1.00  0.00    -0.014 C 
ATOM      7  C   UNL     1      18.987  14.461  10.067  1.00  0.00     0.007 C 
ATOM      8  C   UNL     1      16.549  14.860   9.554  1.00  0.00     0.007 C 
ENDBRANCH   3   6
ENDBRANCH   2   3
ENDBRANCH   1   2
BRANCH   1   9
ATOM      9  C   UNL     1      16.813  18.442  12.561  1.00  0.00    -0.011 C 
ATOM     10  C   UNL     1      17.359  19.572  13.452  1.00  0.00     0.008 C 
BRANCH   9  11
ATOM     11  C   UNL     1      15.593  17.644  13.153  1.00  0.00    -0.002 C 
ATOM     12  C   UNL     1      15.237  17.860  14.649  1.00  0.00     0.005 C 
ATOM     13  C   UNL     1      14.239  17.826  12.416  1.00  0.00    -0.026 C 
ATOM     14  C   UNL     1      13.732  17.560  14.784  1.00  0.00     0.005 C 
ATOM     15  C   UNL     1      13.303  17.093  13.395  1.00  0.00    -0.001 C 
ATOM     16  C   UNL     1      14.167  17.140  11.018  1.00  0.00     0.007 C 
ATOM     17  C   UNL     1      13.879  19.341  12.277  1.00  0.00     0.012 C 
ATOM     18  C   UNL     1      11.813  17.233  13.010  1.00  0.00     0.000 C 
ATOM     19  C   UNL     1      12.865  16.329  10.787  1.00  0.00     0.005 C 
ATOM     20  C   UNL     1      11.599  16.941  11.471  1.00  0.00     0.003 C 
ATOM     21  C   UNL     1      10.934  16.356  13.906  1.00  0.00     0.031 C 
ATOM     22  C   UNL     1      10.252  16.170  11.102  1.00  0.00    -0.008 C 
ATOM     23  C   UNL     1       9.506  16.457  13.470  1.00  0.00    -0.027 C 
ATOM     24  C   UNL     1       9.170  16.419  12.167  1.00  0.00    -0.065 C 
ATOM     25  C   UNL     1       9.761  16.683   9.708  1.00  0.00     0.014 C 
ATOM     26  C   UNL     1      10.465  14.634  11.016  1.00  0.00     0.016 C 
ATOM     27  C   UNL     1       7.697  16.292  11.823  1.00  0.00     0.063 C 
ATOM     28  C   UNL     1       8.312  16.306   9.382  1.00  0.00     0.033 C 
ATOM     29  C   UNL     1       7.356  16.861  10.444  1.00  0.00     0.118 C 
BRANCH  29  30
ATOM     30  O   UNL     1       7.418  18.264  10.486  1.00  0.00    -0.393 OA
ATOM     31  H   UNL     1       8.375  18.511  10.397  1.00  0.00     0.210 HD
ENDBRANCH  29  30
ENDBRANCH   9  11
ENDBRANCH   1   9
TORSDOF 7
ENDMDL
