MODEL 1
REMARK VINA RESULT:    -8.671      0.000      0.000
REMARK INTER + INTRA:          -9.432
REMARK INTER:                  -9.432
REMARK INTRA:                   0.000
REMARK UNBOUND:                 0.000
REMARK SMILES C[C@@H]1CC[C@@H]2[N@H+](C1)C[C@H]1[C@H]3C[C@@H]4[C@@H](C[C@@H](O)[C@@H]5C[C@@H](O)CC[C@]45C)[C@@H]3CC[C@H]1[C@@]2(C)O
REMARK SMILES IDX 5 1 6 2 8 3 7 4 4 5 29 6 3 7 28 8 30 9 2 10 27 11 9 12 1 13
REMARK SMILES IDX 26 14 10 15 25 16 11 17 13 18 12 19 14 20 23 21 15 22 17 23
REMARK SMILES IDX 22 24 24 25 18 26 21 27 19 28 31 30 16 32 20 34
REMARK H PARENT 6 29 31 31 16 33 20 35
REMARK Flexibility Score: inf
ROOT
ATOM      1  C   UNL     1     183.578 -24.573  34.645  1.00  0.00     0.216 C 
ATOM      2  N   UNL     1     182.210 -24.558  35.206  1.00  0.00    -0.330 N 
ATOM      3  C   UNL     1     181.210 -23.981  34.274  1.00  0.00     0.266 C 
ATOM      4  C   UNL     1     181.799 -25.852  35.789  1.00  0.00     0.265 C 
ATOM      5  C   UNL     1     184.592 -24.858  35.773  1.00  0.00     0.069 C 
ATOM      6  C   UNL     1     183.762 -25.410  33.304  1.00  0.00     0.117 C 
ATOM      7  C   UNL     1     184.246 -26.098  36.621  1.00  0.00     0.015 C 
ATOM      8  C   UNL     1     182.417 -25.452  32.476  1.00  0.00     0.036 C 
ATOM      9  C   UNL     1     184.242 -26.884  33.518  1.00  0.00     0.049 C 
ATOM     10  C   UNL     1     182.742 -26.287  36.946  1.00  0.00     0.041 C 
ATOM     11  C   UNL     1     182.624 -25.708  30.931  1.00  0.00     0.007 C 
ATOM     12  C   UNL     1     181.432 -24.277  32.766  1.00  0.00     0.054 C 
ATOM     13  C   UNL     1     182.335 -25.625  38.285  1.00  0.00     0.013 C 
ATOM     14  C   UNL     1     182.436 -24.479  30.000  1.00  0.00     0.004 C 
ATOM     15  C   UNL     1     181.581 -23.027  31.827  1.00  0.00     0.002 C 
ATOM     16  C   UNL     1     182.665 -23.191  30.776  1.00  0.00    -0.004 C 
ATOM     17  C   UNL     1     181.886 -21.634  32.366  1.00  0.00     0.009 C 
ATOM     18  C   UNL     1     182.592 -21.878  29.996  1.00  0.00    -0.001 C 
ATOM     19  C   UNL     1     182.206 -20.824  31.079  1.00  0.00    -0.001 C 
ATOM     20  C   UNL     1     183.875 -21.564  29.210  1.00  0.00     0.036 C 
ATOM     21  C   UNL     1     183.208 -19.622  31.249  1.00  0.00    -0.024 C 
ATOM     22  C   UNL     1     183.859 -20.123  28.689  1.00  0.00     0.118 C 
ATOM     23  C   UNL     1     183.571 -19.058  29.814  1.00  0.00     0.026 C 
ATOM     24  C   UNL     1     184.488 -20.009  32.060  1.00  0.00     0.010 C 
ATOM     25  C   UNL     1     182.462 -18.520  32.053  1.00  0.00     0.012 C 
ATOM     26  C   UNL     1     184.673 -17.983  29.879  1.00  0.00     0.038 C 
ATOM     27  C   UNL     1     185.625 -18.965  31.995  1.00  0.00     0.032 C 
ATOM     28  C   UNL     1     185.934 -18.528  30.566  1.00  0.00     0.114 C 
ATOM     29  H   UNL     1     182.239 -23.878  36.009  1.00  0.00     0.348 HD
ENDROOT
BRANCH   6  30
ATOM     30  O   UNL     1     184.747 -24.762  32.535  1.00  0.00    -0.384 OA
ATOM     31  H   UNL     1     185.376 -25.438  32.178  1.00  0.00     0.211 HD
ENDBRANCH   6  30
BRANCH  22  32
ATOM     32  O   UNL     1     182.891 -20.034  27.671  1.00  0.00    -0.393 OA
ATOM     33  H   UNL     1     183.058 -19.183  27.187  1.00  0.00     0.210 HD
ENDBRANCH  22  32
BRANCH  28  34
ATOM     34  O   UNL     1     186.930 -17.535  30.594  1.00  0.00    -0.393 OA
ATOM     35  H   UNL     1     187.493 -17.709  31.392  1.00  0.00     0.210 HD
ENDBRANCH  28  34
TORSDOF 3
ENDMDL
MODEL 2
REMARK VINA RESULT:    -8.500      6.617      8.758
REMARK INTER + INTRA:          -9.246
REMARK INTER:                  -9.246
REMARK INTRA:                   0.000
REMARK UNBOUND:                 0.000
REMARK SMILES C[C@@H]1CC[C@@H]2[N@H+](C1)C[C@H]1[C@H]3C[C@@H]4[C@@H](C[C@@H](O)[C@@H]5C[C@@H](O)CC[C@]45C)[C@@H]3CC[C@H]1[C@@]2(C)O
REMARK SMILES IDX 5 1 6 2 8 3 7 4 4 5 29 6 3 7 28 8 30 9 2 10 27 11 9 12 1 13
REMARK SMILES IDX 26 14 10 15 25 16 11 17 13 18 12 19 14 20 23 21 15 22 17 23
REMARK SMILES IDX 22 24 24 25 18 26 21 27 19 28 31 30 16 32 20 34
REMARK H PARENT 6 29 31 31 16 33 20 35
REMARK Flexibility Score: inf
ROOT
ATOM      1  C   UNL     1     181.963 -19.436  26.467  1.00  0.00     0.216 C 
ATOM      2  N   UNL     1     180.516 -19.725  26.556  1.00  0.00    -0.330 N 
ATOM      3  C   UNL     1     179.740 -18.612  27.157  1.00  0.00     0.266 C 
ATOM      4  C   UNL     1     179.939 -20.235  25.294  1.00  0.00     0.265 C 
ATOM      5  C   UNL     1     182.730 -20.740  26.162  1.00  0.00     0.069 C 
ATOM      6  C   UNL     1     182.358 -18.165  25.595  1.00  0.00     0.117 C 
ATOM      7  C   UNL     1     182.170 -21.522  24.957  1.00  0.00     0.015 C 
ATOM      8  C   UNL     1     181.194 -17.097  25.596  1.00  0.00     0.036 C 
ATOM      9  C   UNL     1     182.717 -18.485  24.106  1.00  0.00     0.049 C 
ATOM     10  C   UNL     1     180.623 -21.556  24.842  1.00  0.00     0.041 C 
ATOM     11  C   UNL     1     181.679 -15.623  25.298  1.00  0.00     0.007 C 
ATOM     12  C   UNL     1     180.230 -17.179  26.819  1.00  0.00     0.054 C 
ATOM     13  C   UNL     1     180.002 -22.784  25.550  1.00  0.00     0.013 C 
ATOM     14  C   UNL     1     181.730 -14.657  26.513  1.00  0.00     0.004 C 
ATOM     15  C   UNL     1     180.614 -16.270  28.041  1.00  0.00     0.002 C 
ATOM     16  C   UNL     1     181.869 -15.447  27.806  1.00  0.00    -0.004 C 
ATOM     17  C   UNL     1     180.879 -16.840  29.430  1.00  0.00     0.009 C 
ATOM     18  C   UNL     1     182.009 -14.651  29.104  1.00  0.00    -0.001 C 
ATOM     19  C   UNL     1     181.476 -15.628  30.198  1.00  0.00    -0.001 C 
ATOM     20  C   UNL     1     183.432 -14.121  29.344  1.00  0.00     0.036 C 
ATOM     21  C   UNL     1     182.483 -15.971  31.356  1.00  0.00    -0.024 C 
ATOM     22  C   UNL     1     183.584 -13.588  30.772  1.00  0.00     0.118 C 
ATOM     23  C   UNL     1     183.139 -14.624  31.873  1.00  0.00     0.026 C 
ATOM     24  C   UNL     1     183.566 -17.016  30.930  1.00  0.00     0.010 C 
ATOM     25  C   UNL     1     181.652 -16.604  32.508  1.00  0.00     0.012 C 
ATOM     26  C   UNL     1     184.260 -14.885  32.899  1.00  0.00     0.038 C 
ATOM     27  C   UNL     1     184.744 -17.156  31.920  1.00  0.00     0.032 C 
ATOM     28  C   UNL     1     185.339 -15.807  32.312  1.00  0.00     0.114 C 
ATOM     29  H   UNL     1     180.424 -20.510  27.251  1.00  0.00     0.348 HD
ENDROOT
BRANCH   6  30
ATOM     30  O   UNL     1     183.501 -17.590  26.182  1.00  0.00    -0.384 OA
ATOM     31  H   UNL     1     184.157 -17.377  25.471  1.00  0.00     0.211 HD
ENDBRANCH   6  30
BRANCH  22  32
ATOM     32  O   UNL     1     182.833 -12.404  30.883  1.00  0.00    -0.393 OA
ATOM     33  H   UNL     1     183.473 -11.647  30.811  1.00  0.00     0.210 HD
ENDBRANCH  22  32
BRANCH  28  34
ATOM     34  O   UNL     1     186.358 -16.012  33.260  1.00  0.00    -0.393 OA
ATOM     35  H   UNL     1     186.671 -16.947  33.154  1.00  0.00     0.210 HD
ENDBRANCH  28  34
TORSDOF 3
ENDMDL
MODEL 3
REMARK VINA RESULT:    -8.485      3.021      8.446
REMARK INTER + INTRA:          -9.229
REMARK INTER:                  -9.229
REMARK INTRA:                   0.000
REMARK UNBOUND:                 0.000
REMARK SMILES C[C@@H]1CC[C@@H]2[N@H+](C1)C[C@H]1[C@H]3C[C@@H]4[C@@H](C[C@@H](O)[C@@H]5C[C@@H](O)CC[C@]45C)[C@@H]3CC[C@H]1[C@@]2(C)O
REMARK SMILES IDX 5 1 6 2 8 3 7 4 4 5 29 6 3 7 28 8 30 9 2 10 27 11 9 12 1 13
REMARK SMILES IDX 26 14 10 15 25 16 11 17 13 18 12 19 14 20 23 21 15 22 17 23
REMARK SMILES IDX 22 24 24 25 18 26 21 27 19 28 31 30 16 32 20 34
REMARK H PARENT 6 29 31 31 16 33 20 35
REMARK Flexibility Score: inf
ROOT
ATOM      1  C   UNL     1     182.554 -22.223  33.417  1.00  0.00     0.216 C 
ATOM      2  N   UNL     1     183.745 -21.386  33.673  1.00  0.00    -0.330 N 
ATOM      3  C   UNL     1     184.632 -21.948  34.721  1.00  0.00     0.266 C 
ATOM      4  C   UNL     1     184.461 -20.990  32.441  1.00  0.00     0.265 C 
ATOM      5  C   UNL     1     181.531 -21.420  32.586  1.00  0.00     0.069 C 
ATOM      6  C   UNL     1     182.849 -23.708  32.928  1.00  0.00     0.117 C 
ATOM      7  C   UNL     1     182.129 -20.774  31.320  1.00  0.00     0.015 C 
ATOM      8  C   UNL     1     184.242 -24.215  33.474  1.00  0.00     0.036 C 
ATOM      9  C   UNL     1     182.844 -23.895  31.374  1.00  0.00     0.049 C 
ATOM     10  C   UNL     1     183.549 -20.173  31.484  1.00  0.00     0.041 C 
ATOM     11  C   UNL     1     184.358 -25.788  33.567  1.00  0.00     0.007 C 
ATOM     12  C   UNL     1     184.742 -23.496  34.764  1.00  0.00     0.054 C 
ATOM     13  C   UNL     1     183.519 -18.675  31.874  1.00  0.00     0.013 C 
ATOM     14  C   UNL     1     184.276 -26.400  34.993  1.00  0.00     0.004 C 
ATOM     15  C   UNL     1     184.338 -24.184  36.117  1.00  0.00     0.002 C 
ATOM     16  C   UNL     1     183.532 -25.457  35.927  1.00  0.00    -0.004 C 
ATOM     17  C   UNL     1     183.524 -23.464  37.187  1.00  0.00     0.009 C 
ATOM     18  C   UNL     1     183.292 -25.932  37.360  1.00  0.00    -0.001 C 
ATOM     19  C   UNL     1     183.153 -24.607  38.172  1.00  0.00    -0.001 C 
ATOM     20  C   UNL     1     182.106 -26.902  37.490  1.00  0.00     0.036 C 
ATOM     21  C   UNL     1     181.804 -24.429  38.962  1.00  0.00    -0.024 C 
ATOM     22  C   UNL     1     181.734 -27.117  38.961  1.00  0.00     0.118 C 
ATOM     23  C   UNL     1     181.494 -25.771  39.745  1.00  0.00     0.026 C 
ATOM     24  C   UNL     1     180.612 -24.007  38.041  1.00  0.00     0.010 C 
ATOM     25  C   UNL     1     182.028 -23.284  39.990  1.00  0.00     0.012 C 
ATOM     26  C   UNL     1     180.107 -25.740  40.416  1.00  0.00     0.038 C 
ATOM     27  C   UNL     1     179.222 -24.114  38.708  1.00  0.00     0.032 C 
ATOM     28  C   UNL     1     179.003 -25.463  39.386  1.00  0.00     0.114 C 
ATOM     29  H   UNL     1     183.381 -20.492  34.092  1.00  0.00     0.348 HD
ENDROOT
BRANCH   6  30
ATOM     30  O   UNL     1     181.832 -24.532  33.447  1.00  0.00    -0.384 OA
ATOM     31  H   UNL     1     182.238 -25.211  34.043  1.00  0.00     0.211 HD
ENDBRANCH   6  30
BRANCH  22  32
ATOM     32  O   UNL     1     182.760 -27.862  39.570  1.00  0.00    -0.393 OA
ATOM     33  H   UNL     1     182.321 -28.572  40.109  1.00  0.00     0.210 HD
ENDBRANCH  22  32
BRANCH  28  34
ATOM     34  O   UNL     1     177.748 -25.460  40.020  1.00  0.00    -0.393 OA
ATOM     35  H   UNL     1     177.658 -24.588  40.485  1.00  0.00     0.210 HD
ENDBRANCH  28  34
TORSDOF 3
ENDMDL
MODEL 4
REMARK VINA RESULT:    -8.277      6.716      8.795
REMARK INTER + INTRA:          -9.003
REMARK INTER:                  -9.003
REMARK INTRA:                   0.000
REMARK UNBOUND:                 0.000
REMARK SMILES C[C@@H]1CC[C@@H]2[N@H+](C1)C[C@H]1[C@H]3C[C@@H]4[C@@H](C[C@@H](O)[C@@H]5C[C@@H](O)CC[C@]45C)[C@@H]3CC[C@H]1[C@@]2(C)O
REMARK SMILES IDX 5 1 6 2 8 3 7 4 4 5 29 6 3 7 28 8 30 9 2 10 27 11 9 12 1 13
REMARK SMILES IDX 26 14 10 15 25 16 11 17 13 18 12 19 14 20 23 21 15 22 17 23
REMARK SMILES IDX 22 24 24 25 18 26 21 27 19 28 31 30 16 32 20 34
REMARK H PARENT 6 29 31 31 16 33 20 35
REMARK Flexibility Score: inf
ROOT
ATOM      1  C   UNL     1     181.633 -20.244  26.192  1.00  0.00     0.216 C 
ATOM      2  N   UNL     1     180.396 -19.950  25.436  1.00  0.00    -0.330 N 
ATOM      3  C   UNL     1     180.222 -18.504  25.154  1.00  0.00     0.266 C 
ATOM      4  C   UNL     1     180.215 -20.811  24.248  1.00  0.00     0.265 C 
ATOM      5  C   UNL     1     181.571 -21.687  26.735  1.00  0.00     0.069 C 
ATOM      6  C   UNL     1     182.991 -19.815  25.483  1.00  0.00     0.117 C 
ATOM      7  C   UNL     1     181.224 -22.740  25.664  1.00  0.00     0.015 C 
ATOM      8  C   UNL     1     182.760 -18.583  24.521  1.00  0.00     0.036 C 
ATOM      9  C   UNL     1     183.680 -20.950  24.655  1.00  0.00     0.049 C 
ATOM     10  C   UNL     1     180.145 -22.315  24.634  1.00  0.00     0.041 C 
ATOM     11  C   UNL     1     184.061 -17.728  24.253  1.00  0.00     0.007 C 
ATOM     12  C   UNL     1     181.521 -17.703  24.869  1.00  0.00     0.054 C 
ATOM     13  C   UNL     1     178.716 -22.721  25.070  1.00  0.00     0.013 C 
ATOM     14  C   UNL     1     184.143 -16.356  24.977  1.00  0.00     0.004 C 
ATOM     15  C   UNL     1     181.806 -16.483  25.816  1.00  0.00     0.002 C 
ATOM     16  C   UNL     1     183.266 -16.365  26.220  1.00  0.00    -0.004 C 
ATOM     17  C   UNL     1     181.103 -16.309  27.158  1.00  0.00     0.009 C 
ATOM     18  C   UNL     1     183.281 -15.115  27.101  1.00  0.00    -0.001 C 
ATOM     19  C   UNL     1     181.899 -15.153  27.823  1.00  0.00    -0.001 C 
ATOM     20  C   UNL     1     184.501 -15.042  28.033  1.00  0.00     0.036 C 
ATOM     21  C   UNL     1     181.951 -15.163  29.396  1.00  0.00    -0.024 C 
ATOM     22  C   UNL     1     184.324 -13.938  29.080  1.00  0.00     0.118 C 
ATOM     23  C   UNL     1     182.968 -14.048  29.877  1.00  0.00     0.026 C 
ATOM     24  C   UNL     1     182.312 -16.568  29.982  1.00  0.00     0.010 C 
ATOM     25  C   UNL     1     180.525 -14.800  29.899  1.00  0.00     0.012 C 
ATOM     26  C   UNL     1     183.202 -14.098  31.399  1.00  0.00     0.038 C 
ATOM     27  C   UNL     1     182.670 -16.559  31.485  1.00  0.00     0.032 C 
ATOM     28  C   UNL     1     183.696 -15.486  31.835  1.00  0.00     0.114 C 
ATOM     29  H   UNL     1     179.602 -20.186  26.085  1.00  0.00     0.348 HD
ENDROOT
BRANCH   6  30
ATOM     30  O   UNL     1     183.893 -19.435  26.495  1.00  0.00    -0.384 OA
ATOM     31  H   UNL     1     183.428 -19.461  27.369  1.00  0.00     0.211 HD
ENDBRANCH   6  30
BRANCH  22  32
ATOM     32  O   UNL     1     184.408 -12.694  28.428  1.00  0.00    -0.393 OA
ATOM     33  H   UNL     1     183.763 -12.087  28.877  1.00  0.00     0.210 HD
ENDBRANCH  22  32
BRANCH  28  34
ATOM     34  O   UNL     1     183.920 -15.499  33.222  1.00  0.00    -0.393 OA
ATOM     35  H   UNL     1     184.806 -15.919  33.371  1.00  0.00     0.210 HD
ENDBRANCH  28  34
TORSDOF 3
ENDMDL
MODEL 5
REMARK VINA RESULT:    -8.213      2.109      4.415
REMARK INTER + INTRA:          -8.934
REMARK INTER:                  -8.934
REMARK INTRA:                   0.000
REMARK UNBOUND:                 0.000
REMARK SMILES C[C@@H]1CC[C@@H]2[N@H+](C1)C[C@H]1[C@H]3C[C@@H]4[C@@H](C[C@@H](O)[C@@H]5C[C@@H](O)CC[C@]45C)[C@@H]3CC[C@H]1[C@@]2(C)O
REMARK SMILES IDX 5 1 6 2 8 3 7 4 4 5 29 6 3 7 28 8 30 9 2 10 27 11 9 12 1 13
REMARK SMILES IDX 26 14 10 15 25 16 11 17 13 18 12 19 14 20 23 21 15 22 17 23
REMARK SMILES IDX 22 24 24 25 18 26 21 27 19 28 31 30 16 32 20 34
REMARK H PARENT 6 29 31 31 16 33 20 35
REMARK Flexibility Score: inf
ROOT
ATOM      1  C   UNL     1     182.042 -24.453  36.525  1.00  0.00     0.216 C 
ATOM      2  N   UNL     1     182.664 -25.794  36.525  1.00  0.00    -0.330 N 
ATOM      3  C   UNL     1     183.691 -25.955  35.466  1.00  0.00     0.266 C 
ATOM      4  C   UNL     1     183.120 -26.232  37.862  1.00  0.00     0.265 C 
ATOM      5  C   UNL     1     180.775 -24.475  37.406  1.00  0.00     0.069 C 
ATOM      6  C   UNL     1     183.038 -23.233  36.754  1.00  0.00     0.117 C 
ATOM      7  C   UNL     1     181.006 -25.062  38.813  1.00  0.00     0.015 C 
ATOM      8  C   UNL     1     184.489 -23.585  36.238  1.00  0.00     0.036 C 
ATOM      9  C   UNL     1     183.158 -22.761  38.241  1.00  0.00     0.049 C 
ATOM     10  C   UNL     1     181.945 -26.295  38.877  1.00  0.00     0.041 C 
ATOM     11  C   UNL     1     185.359 -22.320  35.865  1.00  0.00     0.007 C 
ATOM     12  C   UNL     1     184.544 -24.698  35.146  1.00  0.00     0.054 C 
ATOM     13  C   UNL     1     181.176 -27.633  38.769  1.00  0.00     0.013 C 
ATOM     14  C   UNL     1     185.557 -22.045  34.349  1.00  0.00     0.004 C 
ATOM     15  C   UNL     1     184.501 -24.188  33.662  1.00  0.00     0.002 C 
ATOM     16  C   UNL     1     184.427 -22.675  33.548  1.00  0.00    -0.004 C 
ATOM     17  C   UNL     1     183.417 -24.620  32.681  1.00  0.00     0.009 C 
ATOM     18  C   UNL     1     184.421 -22.441  32.038  1.00  0.00    -0.001 C 
ATOM     19  C   UNL     1     183.633 -23.664  31.476  1.00  0.00    -0.001 C 
ATOM     20  C   UNL     1     183.861 -21.067  31.637  1.00  0.00     0.036 C 
ATOM     21  C   UNL     1     182.354 -23.321  30.626  1.00  0.00    -0.024 C 
ATOM     22  C   UNL     1     183.611 -20.997  30.126  1.00  0.00     0.118 C 
ATOM     23  C   UNL     1     182.726 -22.184  29.587  1.00  0.00     0.026 C 
ATOM     24  C   UNL     1     181.128 -22.919  31.511  1.00  0.00     0.010 C 
ATOM     25  C   UNL     1     181.966 -24.611  29.849  1.00  0.00     0.012 C 
ATOM     26  C   UNL     1     181.488 -21.673  28.824  1.00  0.00     0.038 C 
ATOM     27  C   UNL     1     179.955 -22.288  30.727  1.00  0.00     0.032 C 
ATOM     28  C   UNL     1     180.411 -21.168  29.796  1.00  0.00     0.114 C 
ATOM     29  H   UNL     1     181.900 -26.463  36.250  1.00  0.00     0.348 HD
ENDROOT
BRANCH   6  30
ATOM     30  O   UNL     1     182.545 -22.143  36.012  1.00  0.00    -0.384 OA
ATOM     31  H   UNL     1     181.796 -21.726  36.508  1.00  0.00     0.211 HD
ENDBRANCH   6  30
BRANCH  22  32
ATOM     32  O   UNL     1     184.858 -20.981  29.474  1.00  0.00    -0.393 OA
ATOM     33  H   UNL     1     184.678 -21.096  28.504  1.00  0.00     0.210 HD
ENDBRANCH  22  32
BRANCH  28  34
ATOM     34  O   UNL     1     179.303 -20.690  29.075  1.00  0.00    -0.393 OA
ATOM     35  H   UNL     1     179.608 -20.530  28.145  1.00  0.00     0.210 HD
ENDBRANCH  28  34
TORSDOF 3
ENDMDL
MODEL 6
REMARK VINA RESULT:    -8.190      2.857      7.455
REMARK INTER + INTRA:          -8.908
REMARK INTER:                  -8.908
REMARK INTRA:                   0.000
REMARK UNBOUND:                 0.000
REMARK SMILES C[C@@H]1CC[C@@H]2[N@H+](C1)C[C@H]1[C@H]3C[C@@H]4[C@@H](C[C@@H](O)[C@@H]5C[C@@H](O)CC[C@]45C)[C@@H]3CC[C@H]1[C@@]2(C)O
REMARK SMILES IDX 5 1 6 2 8 3 7 4 4 5 29 6 3 7 28 8 30 9 2 10 27 11 9 12 1 13
REMARK SMILES IDX 26 14 10 15 25 16 11 17 13 18 12 19 14 20 23 21 15 22 17 23
REMARK SMILES IDX 22 24 24 25 18 26 21 27 19 28 31 30 16 32 20 34
REMARK H PARENT 6 29 31 31 16 33 20 35
REMARK Flexibility Score: inf
ROOT
ATOM      1  C   UNL     1     181.812 -21.945  30.890  1.00  0.00     0.216 C 
ATOM      2  N   UNL     1     182.963 -21.094  30.519  1.00  0.00    -0.330 N 
ATOM      3  C   UNL     1     184.234 -21.537  31.144  1.00  0.00     0.266 C 
ATOM      4  C   UNL     1     183.072 -20.854  29.064  1.00  0.00     0.265 C 
ATOM      5  C   UNL     1     180.500 -21.236  30.491  1.00  0.00     0.069 C 
ATOM      6  C   UNL     1     181.933 -23.480  30.490  1.00  0.00     0.117 C 
ATOM      7  C   UNL     1     180.477 -20.750  29.028  1.00  0.00     0.015 C 
ATOM      8  C   UNL     1     183.446 -23.932  30.443  1.00  0.00     0.036 C 
ATOM      9  C   UNL     1     181.277 -23.849  29.119  1.00  0.00     0.049 C 
ATOM     10  C   UNL     1     181.806 -20.147  28.502  1.00  0.00     0.041 C 
ATOM     11  C   UNL     1     183.657 -25.484  30.652  1.00  0.00     0.007 C 
ATOM     12  C   UNL     1     184.416 -23.070  31.308  1.00  0.00     0.054 C 
ATOM     13  C   UNL     1     181.882 -18.614  28.698  1.00  0.00     0.013 C 
ATOM     14  C   UNL     1     184.213 -25.921  32.035  1.00  0.00     0.004 C 
ATOM     15  C   UNL     1     184.654 -23.588  32.771  1.00  0.00     0.002 C 
ATOM     16  C   UNL     1     183.898 -24.867  33.086  1.00  0.00    -0.004 C 
ATOM     17  C   UNL     1     184.341 -22.739  33.999  1.00  0.00     0.009 C 
ATOM     18  C   UNL     1     184.308 -25.167  34.527  1.00  0.00    -0.001 C 
ATOM     19  C   UNL     1     184.472 -23.754  35.168  1.00  0.00    -0.001 C 
ATOM     20  C   UNL     1     183.332 -26.103  35.257  1.00  0.00     0.036 C 
ATOM     21  C   UNL     1     183.580 -23.470  36.433  1.00  0.00    -0.024 C 
ATOM     22  C   UNL     1     183.628 -26.139  36.760  1.00  0.00     0.118 C 
ATOM     23  C   UNL     1     183.688 -24.708  37.417  1.00  0.00     0.026 C 
ATOM     24  C   UNL     1     182.093 -23.150  36.068  1.00  0.00     0.010 C 
ATOM     25  C   UNL     1     184.170 -22.214  37.132  1.00  0.00     0.012 C 
ATOM     26  C   UNL     1     182.717 -24.584  38.607  1.00  0.00     0.038 C 
ATOM     27  C   UNL     1     181.123 -23.164  37.270  1.00  0.00     0.032 C 
ATOM     28  C   UNL     1     181.268 -24.420  38.122  1.00  0.00     0.114 C 
ATOM     29  H   UNL     1     182.774 -20.154  30.951  1.00  0.00     0.348 HD
ENDROOT
BRANCH   6  30
ATOM     30  O   UNL     1     181.268 -24.227  31.481  1.00  0.00    -0.384 OA
ATOM     31  H   UNL     1     181.002 -25.103  31.102  1.00  0.00     0.211 HD
ENDBRANCH   6  30
BRANCH  22  32
ATOM     32  O   UNL     1     184.846 -26.817  36.953  1.00  0.00    -0.393 OA
ATOM     33  H   UNL     1     184.832 -27.180  37.877  1.00  0.00     0.210 HD
ENDBRANCH  22  32
BRANCH  28  34
ATOM     34  O   UNL     1     180.403 -24.330  39.226  1.00  0.00    -0.393 OA
ATOM     35  H   UNL     1     180.299 -23.367  39.438  1.00  0.00     0.210 HD
ENDBRANCH  28  34
TORSDOF 3
ENDMDL
MODEL 7
REMARK VINA RESULT:    -8.188      2.893      8.013
REMARK INTER + INTRA:          -8.906
REMARK INTER:                  -8.906
REMARK INTRA:                   0.000
REMARK UNBOUND:                 0.000
REMARK SMILES C[C@@H]1CC[C@@H]2[N@H+](C1)C[C@H]1[C@H]3C[C@@H]4[C@@H](C[C@@H](O)[C@@H]5C[C@@H](O)CC[C@]45C)[C@@H]3CC[C@H]1[C@@]2(C)O
REMARK SMILES IDX 5 1 6 2 8 3 7 4 4 5 29 6 3 7 28 8 30 9 2 10 27 11 9 12 1 13
REMARK SMILES IDX 26 14 10 15 25 16 11 17 13 18 12 19 14 20 23 21 15 22 17 23
REMARK SMILES IDX 22 24 24 25 18 26 21 27 19 28 31 30 16 32 20 34
REMARK H PARENT 6 29 31 31 16 33 20 35
REMARK Flexibility Score: inf
ROOT
ATOM      1  C   UNL     1     182.945 -19.710  33.185  1.00  0.00     0.216 C 
ATOM      2  N   UNL     1     184.225 -18.991  33.365  1.00  0.00    -0.330 N 
ATOM      3  C   UNL     1     185.289 -19.844  33.951  1.00  0.00     0.266 C 
ATOM      4  C   UNL     1     184.657 -18.249  32.161  1.00  0.00     0.265 C 
ATOM      5  C   UNL     1     181.820 -18.692  32.903  1.00  0.00     0.069 C 
ATOM      6  C   UNL     1     182.999 -20.983  32.232  1.00  0.00     0.117 C 
ATOM      7  C   UNL     1     182.149 -17.700  31.770  1.00  0.00     0.015 C 
ATOM      8  C   UNL     1     184.439 -21.635  32.242  1.00  0.00     0.036 C 
ATOM      9  C   UNL     1     182.611 -20.698  30.743  1.00  0.00     0.049 C 
ATOM     10  C   UNL     1     183.610 -17.180  31.739  1.00  0.00     0.041 C 
ATOM     11  C   UNL     1     184.451 -23.165  31.848  1.00  0.00     0.007 C 
ATOM     12  C   UNL     1     185.285 -21.335  33.518  1.00  0.00     0.054 C 
ATOM     13  C   UNL     1     183.790 -15.867  32.538  1.00  0.00     0.013 C 
ATOM     14  C   UNL     1     184.662 -24.173  33.010  1.00  0.00     0.004 C 
ATOM     15  C   UNL     1     185.162 -22.393  34.672  1.00  0.00     0.002 C 
ATOM     16  C   UNL     1     184.237 -23.548  34.331  1.00  0.00    -0.004 C 
ATOM     17  C   UNL     1     184.683 -22.022  36.072  1.00  0.00     0.009 C 
ATOM     18  C   UNL     1     184.308 -24.428  35.579  1.00  0.00    -0.001 C 
ATOM     19  C   UNL     1     184.469 -23.405  36.746  1.00  0.00    -0.001 C 
ATOM     20  C   UNL     1     183.115 -25.388  35.717  1.00  0.00     0.036 C 
ATOM     21  C   UNL     1     183.365 -23.465  37.865  1.00  0.00    -0.024 C 
ATOM     22  C   UNL     1     183.087 -26.031  37.108  1.00  0.00     0.118 C 
ATOM     23  C   UNL     1     183.146 -24.979  38.280  1.00  0.00     0.026 C 
ATOM     24  C   UNL     1     182.024 -22.784  37.433  1.00  0.00     0.010 C 
ATOM     25  C   UNL     1     183.915 -22.679  39.088  1.00  0.00     0.012 C 
ATOM     26  C   UNL     1     181.965 -25.144  39.256  1.00  0.00     0.038 C 
ATOM     27  C   UNL     1     180.829 -23.080  38.365  1.00  0.00     0.032 C 
ATOM     28  C   UNL     1     180.672 -24.568  38.659  1.00  0.00     0.114 C 
ATOM     29  H   UNL     1     184.042 -18.262  34.101  1.00  0.00     0.348 HD
ENDROOT
BRANCH   6  30
ATOM     30  O   UNL     1     182.074 -21.920  32.729  1.00  0.00    -0.384 OA
ATOM     31  H   UNL     1     182.566 -22.692  33.106  1.00  0.00     0.211 HD
ENDBRANCH   6  30
BRANCH  22  32
ATOM     32  O   UNL     1     184.167 -26.927  37.200  1.00  0.00    -0.393 OA
ATOM     33  H   UNL     1     184.439 -27.150  36.271  1.00  0.00     0.210 HD
ENDBRANCH  22  32
BRANCH  28  34
ATOM     34  O   UNL     1     179.608 -24.750  39.560  1.00  0.00    -0.393 OA
ATOM     35  H   UNL     1     178.848 -24.205  39.228  1.00  0.00     0.210 HD
ENDBRANCH  28  34
TORSDOF 3
ENDMDL
MODEL 8
REMARK VINA RESULT:    -8.178      6.446     10.240
REMARK INTER + INTRA:          -8.895
REMARK INTER:                  -8.895
REMARK INTRA:                   0.000
REMARK UNBOUND:                 0.000
REMARK SMILES C[C@@H]1CC[C@@H]2[N@H+](C1)C[C@H]1[C@H]3C[C@@H]4[C@@H](C[C@@H](O)[C@@H]5C[C@@H](O)CC[C@]45C)[C@@H]3CC[C@H]1[C@@]2(C)O
REMARK SMILES IDX 5 1 6 2 8 3 7 4 4 5 29 6 3 7 28 8 30 9 2 10 27 11 9 12 1 13
REMARK SMILES IDX 26 14 10 15 25 16 11 17 13 18 12 19 14 20 23 21 15 22 17 23
REMARK SMILES IDX 22 24 24 25 18 26 21 27 19 28 31 30 16 32 20 34
REMARK H PARENT 6 29 31 31 16 33 20 35
REMARK Flexibility Score: inf
ROOT
ATOM      1  C   UNL     1     178.938 -15.478  28.175  1.00  0.00     0.216 C 
ATOM      2  N   UNL     1     179.607 -15.226  29.470  1.00  0.00    -0.330 N 
ATOM      3  C   UNL     1     180.999 -15.737  29.510  1.00  0.00     0.266 C 
ATOM      4  C   UNL     1     179.476 -13.829  29.937  1.00  0.00     0.265 C 
ATOM      5  C   UNL     1     177.421 -15.235  28.325  1.00  0.00     0.069 C 
ATOM      6  C   UNL     1     179.635 -14.826  26.902  1.00  0.00     0.117 C 
ATOM      7  C   UNL     1     177.070 -13.874  28.959  1.00  0.00     0.015 C 
ATOM      8  C   UNL     1     181.190 -14.666  27.130  1.00  0.00     0.036 C 
ATOM      9  C   UNL     1     179.063 -13.428  26.493  1.00  0.00     0.049 C 
ATOM     10  C   UNL     1     177.987 -13.424  30.127  1.00  0.00     0.041 C 
ATOM     11  C   UNL     1     182.030 -14.609  25.793  1.00  0.00     0.007 C 
ATOM     12  C   UNL     1     181.801 -15.640  28.185  1.00  0.00     0.054 C 
ATOM     13  C   UNL     1     177.452 -13.871  31.508  1.00  0.00     0.013 C 
ATOM     14  C   UNL     1     182.838 -15.886  25.434  1.00  0.00     0.004 C 
ATOM     15  C   UNL     1     182.361 -16.990  27.610  1.00  0.00     0.002 C 
ATOM     16  C   UNL     1     182.220 -17.105  26.102  1.00  0.00    -0.004 C 
ATOM     17  C   UNL     1     181.844 -18.349  28.070  1.00  0.00     0.009 C 
ATOM     18  C   UNL     1     182.846 -18.466  25.799  1.00  0.00    -0.001 C 
ATOM     19  C   UNL     1     182.481 -19.329  27.046  1.00  0.00    -0.001 C 
ATOM     20  C   UNL     1     182.404 -19.054  24.449  1.00  0.00     0.036 C 
ATOM     21  C   UNL     1     181.669 -20.645  26.752  1.00  0.00    -0.024 C 
ATOM     22  C   UNL     1     182.825 -20.522  24.327  1.00  0.00     0.118 C 
ATOM     23  C   UNL     1     182.359 -21.406  25.545  1.00  0.00     0.026 C 
ATOM     24  C   UNL     1     180.153 -20.374  26.476  1.00  0.00     0.010 C 
ATOM     25  C   UNL     1     181.761 -21.529  28.027  1.00  0.00     0.012 C 
ATOM     26  C   UNL     1     181.534 -22.624  25.085  1.00  0.00     0.038 C 
ATOM     27  C   UNL     1     179.386 -21.581  25.891  1.00  0.00     0.032 C 
ATOM     28  C   UNL     1     180.106 -22.208  24.701  1.00  0.00     0.114 C 
ATOM     29  H   UNL     1     179.093 -15.813  30.176  1.00  0.00     0.348 HD
ENDROOT
BRANCH   6  30
ATOM     30  O   UNL     1     179.423 -15.694  25.815  1.00  0.00    -0.384 OA
ATOM     31  H   UNL     1     180.083 -16.431  25.856  1.00  0.00     0.211 HD
ENDBRANCH   6  30
BRANCH  22  32
ATOM     32  O   UNL     1     184.225 -20.569  24.195  1.00  0.00    -0.393 OA
ATOM     33  H   UNL     1     184.582 -20.957  25.038  1.00  0.00     0.210 HD
ENDBRANCH  22  32
BRANCH  28  34
ATOM     34  O   UNL     1     179.382 -23.333  24.266  1.00  0.00    -0.393 OA
ATOM     35  H   UNL     1     180.044 -24.038  24.045  1.00  0.00     0.210 HD
ENDBRANCH  28  34
TORSDOF 3
ENDMDL
MODEL 9
REMARK VINA RESULT:    -8.125      4.613      7.666
REMARK INTER + INTRA:          -8.837
REMARK INTER:                  -8.837
REMARK INTRA:                   0.000
REMARK UNBOUND:                 0.000
REMARK SMILES C[C@@H]1CC[C@@H]2[N@H+](C1)C[C@H]1[C@H]3C[C@@H]4[C@@H](C[C@@H](O)[C@@H]5C[C@@H](O)CC[C@]45C)[C@@H]3CC[C@H]1[C@@]2(C)O
REMARK SMILES IDX 5 1 6 2 8 3 7 4 4 5 29 6 3 7 28 8 30 9 2 10 27 11 9 12 1 13
REMARK SMILES IDX 26 14 10 15 25 16 11 17 13 18 12 19 14 20 23 21 15 22 17 23
REMARK SMILES IDX 22 24 24 25 18 26 21 27 19 28 31 30 16 32 20 34
REMARK H PARENT 6 29 31 31 16 33 20 35
REMARK Flexibility Score: inf
ROOT
ATOM      1  C   UNL     1     181.206 -20.467  27.074  1.00  0.00     0.216 C 
ATOM      2  N   UNL     1     182.365 -20.953  26.296  1.00  0.00    -0.330 N 
ATOM      3  C   UNL     1     183.666 -20.613  26.924  1.00  0.00     0.266 C 
ATOM      4  C   UNL     1     182.253 -22.373  25.898  1.00  0.00     0.265 C 
ATOM      5  C   UNL     1     179.933 -20.553  26.205  1.00  0.00     0.069 C 
ATOM      6  C   UNL     1     181.086 -21.033  28.557  1.00  0.00     0.117 C 
ATOM      7  C   UNL     1     179.718 -21.932  25.552  1.00  0.00     0.015 C 
ATOM      8  C   UNL     1     182.510 -21.396  29.138  1.00  0.00     0.036 C 
ATOM      9  C   UNL     1     180.172 -22.294  28.700  1.00  0.00     0.049 C 
ATOM     10  C   UNL     1     180.998 -22.625  25.017  1.00  0.00     0.041 C 
ATOM     11  C   UNL     1     182.579 -21.382  30.716  1.00  0.00     0.007 C 
ATOM     12  C   UNL     1     183.701 -20.637  28.476  1.00  0.00     0.054 C 
ATOM     13  C   UNL     1     181.276 -22.295  23.531  1.00  0.00     0.013 C 
ATOM     14  C   UNL     1     183.307 -20.172  31.362  1.00  0.00     0.004 C 
ATOM     15  C   UNL     1     184.123 -19.299  29.182  1.00  0.00     0.002 C 
ATOM     16  C   UNL     1     183.293 -18.982  30.414  1.00  0.00    -0.004 C 
ATOM     17  C   UNL     1     184.118 -17.957  28.458  1.00  0.00     0.009 C 
ATOM     18  C   UNL     1     183.904 -17.675  30.917  1.00  0.00    -0.001 C 
ATOM     19  C   UNL     1     184.330 -16.937  29.610  1.00  0.00    -0.001 C 
ATOM     20  C   UNL     1     182.966 -16.878  31.838  1.00  0.00     0.036 C 
ATOM     21  C   UNL     1     183.701 -15.511  29.395  1.00  0.00    -0.024 C 
ATOM     22  C   UNL     1     183.506 -15.464  32.077  1.00  0.00     0.118 C 
ATOM     23  C   UNL     1     183.834 -14.690  30.743  1.00  0.00     0.026 C 
ATOM     24  C   UNL     1     182.219 -15.570  28.898  1.00  0.00     0.010 C 
ATOM     25  C   UNL     1     184.537 -14.808  28.289  1.00  0.00     0.012 C 
ATOM     26  C   UNL     1     183.098 -13.338  30.671  1.00  0.00     0.038 C 
ATOM     27  C   UNL     1     181.470 -14.220  28.963  1.00  0.00     0.032 C 
ATOM     28  C   UNL     1     181.616 -13.537  30.319  1.00  0.00     0.114 C 
ATOM     29  H   UNL     1     182.358 -20.403  25.399  1.00  0.00     0.348 HD
ENDROOT
BRANCH   6  30
ATOM     30  O   UNL     1     180.519 -20.018  29.350  1.00  0.00    -0.384 OA
ATOM     31  H   UNL     1     181.057 -19.192  29.253  1.00  0.00     0.211 HD
ENDBRANCH   6  30
BRANCH  22  32
ATOM     32  O   UNL     1     184.656 -15.561  32.882  1.00  0.00    -0.393 OA
ATOM     33  H   UNL     1     184.365 -15.928  33.758  1.00  0.00     0.210 HD
ENDBRANCH  22  32
BRANCH  28  34
ATOM     34  O   UNL     1     180.964 -12.292  30.279  1.00  0.00    -0.393 OA
ATOM     35  H   UNL     1     181.661 -11.594  30.378  1.00  0.00     0.210 HD
ENDBRANCH  28  34
TORSDOF 3
ENDMDL
