MODEL 1
REMARK VINA RESULT:    -6.077      0.000      0.000
REMARK INTER + INTRA:         -10.392
REMARK INTER:                  -8.386
REMARK INTRA:                  -2.006
REMARK UNBOUND:                -2.006
REMARK SMILES CC[C@H](CC[C@H](C)[C@H]1CC[C@@H]2[C@@H]3CC=C4C[C@H](O)CC[C@@]4(C)[C@@H]3CC[C@@]21C)C(C)C
REMARK SMILES IDX 5 1 4 2 3 3 2 4 1 5 28 6 29 7 30 8 6 9 7 10 8 11 9 12 26 13
REMARK SMILES IDX 10 14 11 15 25 16 27 17 12 18 24 19 23 20 13 21 21 22 14 23
REMARK SMILES IDX 15 24 20 25 22 26 16 27 19 28 17 29 18 30
REMARK H PARENT 18 31
REMARK Flexibility Score: inf
ROOT
ATOM      1  C   UNL     1     149.963 138.130 140.199  1.00  0.00     0.004 C 
ENDROOT
BRANCH   1   2
ATOM      2  C   UNL     1     149.704 139.334 141.133  1.00  0.00     0.004 C 
BRANCH   2   3
ATOM      3  C   UNL     1     149.656 140.688 140.362  1.00  0.00    -0.009 C 
BRANCH   3   4
ATOM      4  C   UNL     1     149.411 140.396 138.847  1.00  0.00     0.000 C 
ATOM      5  C   UNL     1     148.163 141.087 138.297  1.00  0.00     0.004 C 
ENDBRANCH   3   4
BRANCH   3   6
ATOM      6  C   UNL     1     148.586 141.659 140.977  1.00  0.00    -0.014 C 
ATOM      7  C   UNL     1     147.863 141.025 142.190  1.00  0.00     0.007 C 
ATOM      8  C   UNL     1     149.192 142.998 141.431  1.00  0.00     0.007 C 
ENDBRANCH   3   6
ENDBRANCH   2   3
ENDBRANCH   1   2
BRANCH   1   9
ATOM      9  C   UNL     1     148.823 137.069 140.251  1.00  0.00    -0.011 C 
ATOM     10  C   UNL     1     148.816 136.247 138.947  1.00  0.00     0.008 C 
BRANCH   9  11
ATOM     11  C   UNL     1     147.436 137.737 140.592  1.00  0.00    -0.002 C 
ATOM     12  C   UNL     1     146.609 138.054 139.338  1.00  0.00     0.005 C 
ATOM     13  C   UNL     1     146.459 136.964 141.553  1.00  0.00    -0.026 C 
ATOM     14  C   UNL     1     145.495 137.020 139.254  1.00  0.00     0.005 C 
ATOM     15  C   UNL     1     145.445 136.262 140.596  1.00  0.00    -0.001 C 
ATOM     16  C   UNL     1     145.747 137.975 142.530  1.00  0.00     0.007 C 
ATOM     17  C   UNL     1     147.171 135.910 142.438  1.00  0.00     0.012 C 
ATOM     18  C   UNL     1     144.012 136.064 141.197  1.00  0.00     0.000 C 
ATOM     19  C   UNL     1     144.397 138.485 142.016  1.00  0.00     0.005 C 
ATOM     20  C   UNL     1     143.401 137.312 141.928  1.00  0.00     0.003 C 
ATOM     21  C   UNL     1     143.036 135.398 140.207  1.00  0.00     0.031 C 
ATOM     22  C   UNL     1     141.920 137.698 141.515  1.00  0.00    -0.008 C 
ATOM     23  C   UNL     1     141.651 135.331 140.783  1.00  0.00    -0.027 C 
ATOM     24  C   UNL     1     141.108 136.395 141.406  1.00  0.00    -0.065 C 
ATOM     25  C   UNL     1     141.322 138.622 142.632  1.00  0.00     0.014 C 
ATOM     26  C   UNL     1     141.845 138.451 140.148  1.00  0.00     0.016 C 
ATOM     27  C   UNL     1     139.630 136.328 141.751  1.00  0.00     0.063 C 
ATOM     28  C   UNL     1     139.793 138.675 142.628  1.00  0.00     0.033 C 
ATOM     29  C   UNL     1     139.231 137.277 142.884  1.00  0.00     0.118 C 
BRANCH  29  30
ATOM     30  O   UNL     1     137.831 137.337 142.958  1.00  0.00    -0.393 OA
ATOM     31  H   UNL     1     137.513 137.641 142.069  1.00  0.00     0.210 HD
ENDBRANCH  29  30
ENDBRANCH   9  11
ENDBRANCH   1   9
TORSDOF 7
ENDMDL
MODEL 2
REMARK VINA RESULT:    -5.821      3.155      9.180
REMARK INTER + INTRA:         -10.040
REMARK INTER:                  -8.643
REMARK INTRA:                  -1.397
REMARK UNBOUND:                -2.006
REMARK SMILES CC[C@H](CC[C@H](C)[C@H]1CC[C@@H]2[C@@H]3CC=C4C[C@H](O)CC[C@@]4(C)[C@@H]3CC[C@@]21C)C(C)C
REMARK SMILES IDX 5 1 4 2 3 3 2 4 1 5 28 6 29 7 30 8 6 9 7 10 8 11 9 12 26 13
REMARK SMILES IDX 10 14 11 15 25 16 27 17 12 18 24 19 23 20 13 21 21 22 14 23
REMARK SMILES IDX 15 24 20 25 22 26 16 27 19 28 17 29 18 30
REMARK H PARENT 18 31
REMARK Flexibility Score: inf
ROOT
ATOM      1  C   UNL     1     137.476 135.566 142.868  1.00  0.00     0.004 C 
ENDROOT
BRANCH   1   2
ATOM      2  C   UNL     1     136.351 136.307 143.626  1.00  0.00     0.004 C 
BRANCH   2   3
ATOM      3  C   UNL     1     135.932 137.634 142.922  1.00  0.00    -0.009 C 
BRANCH   3   4
ATOM      4  C   UNL     1     134.443 137.512 142.463  1.00  0.00     0.000 C 
ATOM      5  C   UNL     1     134.292 137.398 140.946  1.00  0.00     0.004 C 
ENDBRANCH   3   4
BRANCH   3   6
ATOM      6  C   UNL     1     136.185 138.877 143.848  1.00  0.00    -0.014 C 
ATOM      7  C   UNL     1     134.863 139.574 144.251  1.00  0.00     0.007 C 
ATOM      8  C   UNL     1     136.942 138.513 145.137  1.00  0.00     0.007 C 
ENDBRANCH   3   6
ENDBRANCH   2   3
ENDBRANCH   1   2
BRANCH   1   9
ATOM      9  C   UNL     1     138.263 136.495 141.895  1.00  0.00    -0.011 C 
ATOM     10  C   UNL     1     137.816 136.229 140.445  1.00  0.00     0.008 C 
BRANCH   9  11
ATOM     11  C   UNL     1     139.819 136.368 142.119  1.00  0.00    -0.002 C 
ATOM     12  C   UNL     1     140.466 135.333 141.189  1.00  0.00     0.005 C 
ATOM     13  C   UNL     1     140.695 137.667 141.972  1.00  0.00    -0.026 C 
ATOM     14  C   UNL     1     141.214 136.098 140.106  1.00  0.00     0.005 C 
ATOM     15  C   UNL     1     141.287 137.578 140.532  1.00  0.00    -0.001 C 
ATOM     16  C   UNL     1     141.821 137.687 143.075  1.00  0.00     0.007 C 
ATOM     17  C   UNL     1     139.885 138.978 142.134  1.00  0.00     0.012 C 
ATOM     18  C   UNL     1     142.690 138.253 140.361  1.00  0.00     0.000 C 
ATOM     19  C   UNL     1     143.148 137.073 142.614  1.00  0.00     0.005 C 
ATOM     20  C   UNL     1     143.744 137.925 141.478  1.00  0.00     0.003 C 
ATOM     21  C   UNL     1     143.251 138.113 138.932  1.00  0.00     0.031 C 
ATOM     22  C   UNL     1     145.177 137.479 140.965  1.00  0.00    -0.008 C 
ATOM     23  C   UNL     1     144.642 138.673 138.844  1.00  0.00    -0.027 C 
ATOM     24  C   UNL     1     145.561 138.394 139.788  1.00  0.00    -0.065 C 
ATOM     25  C   UNL     1     146.197 137.650 142.145  1.00  0.00     0.014 C 
ATOM     26  C   UNL     1     145.216 135.995 140.479  1.00  0.00     0.016 C 
ATOM     27  C   UNL     1     146.998 138.800 139.511  1.00  0.00     0.063 C 
ATOM     28  C   UNL     1     147.654 137.731 141.686  1.00  0.00     0.033 C 
ATOM     29  C   UNL     1     147.840 138.949 140.781  1.00  0.00     0.118 C 
BRANCH  29  30
ATOM     30  O   UNL     1     149.190 139.069 140.422  1.00  0.00    -0.393 OA
ATOM     31  H   UNL     1     149.434 138.231 139.949  1.00  0.00     0.210 HD
ENDBRANCH  29  30
ENDBRANCH   9  11
ENDBRANCH   1   9
TORSDOF 7
ENDMDL
MODEL 3
REMARK VINA RESULT:    -5.814      2.072      3.097
REMARK INTER + INTRA:         -10.030
REMARK INTER:                  -7.797
REMARK INTRA:                  -2.233
REMARK UNBOUND:                -2.006
REMARK SMILES CC[C@H](CC[C@H](C)[C@H]1CC[C@@H]2[C@@H]3CC=C4C[C@H](O)CC[C@@]4(C)[C@@H]3CC[C@@]21C)C(C)C
REMARK SMILES IDX 5 1 4 2 3 3 2 4 1 5 28 6 29 7 30 8 6 9 7 10 8 11 9 12 26 13
REMARK SMILES IDX 10 14 11 15 25 16 27 17 12 18 24 19 23 20 13 21 21 22 14 23
REMARK SMILES IDX 15 24 20 25 22 26 16 27 19 28 17 29 18 30
REMARK H PARENT 18 31
REMARK Flexibility Score: inf
ROOT
ATOM      1  C   UNL     1     150.103 139.663 138.970  1.00  0.00     0.004 C 
ENDROOT
BRANCH   1   2
ATOM      2  C   UNL     1     149.076 140.352 138.043  1.00  0.00     0.004 C 
BRANCH   2   3
ATOM      3  C   UNL     1     148.324 141.521 138.750  1.00  0.00    -0.009 C 
BRANCH   3   4
ATOM      4  C   UNL     1     146.792 141.219 138.729  1.00  0.00     0.000 C 
ATOM      5  C   UNL     1     146.362 140.385 137.522  1.00  0.00     0.004 C 
ENDBRANCH   3   4
BRANCH   3   6
ATOM      6  C   UNL     1     148.879 141.765 140.199  1.00  0.00    -0.014 C 
ATOM      7  C   UNL     1     149.850 142.970 140.248  1.00  0.00     0.007 C 
ATOM      8  C   UNL     1     147.762 142.012 141.228  1.00  0.00     0.007 C 
ENDBRANCH   3   6
ENDBRANCH   2   3
ENDBRANCH   1   2
BRANCH   1   9
ATOM      9  C   UNL     1     149.746 138.175 139.266  1.00  0.00    -0.011 C 
ATOM     10  C   UNL     1     150.125 137.297 138.057  1.00  0.00     0.008 C 
BRANCH   9  11
ATOM     11  C   UNL     1     148.242 138.027 139.717  1.00  0.00    -0.002 C 
ATOM     12  C   UNL     1     147.573 136.773 139.139  1.00  0.00     0.005 C 
ATOM     13  C   UNL     1     147.934 137.992 141.260  1.00  0.00    -0.026 C 
ATOM     14  C   UNL     1     147.462 135.755 140.266  1.00  0.00     0.005 C 
ATOM     15  C   UNL     1     147.776 136.476 141.592  1.00  0.00    -0.001 C 
ATOM     16  C   UNL     1     146.618 138.805 141.567  1.00  0.00     0.007 C 
ATOM     17  C   UNL     1     149.058 138.613 142.128  1.00  0.00     0.012 C 
ATOM     18  C   UNL     1     146.790 136.166 142.769  1.00  0.00     0.000 C 
ATOM     19  C   UNL     1     145.349 137.947 141.573  1.00  0.00     0.005 C 
ATOM     20  C   UNL     1     145.419 136.929 142.728  1.00  0.00     0.003 C 
ATOM     21  C   UNL     1     146.640 134.655 143.041  1.00  0.00     0.031 C 
ATOM     22  C   UNL     1     144.125 136.037 142.936  1.00  0.00    -0.008 C 
ATOM     23  C   UNL     1     145.604 134.401 144.097  1.00  0.00    -0.027 C 
ATOM     24  C   UNL     1     144.419 135.041 144.073  1.00  0.00    -0.065 C 
ATOM     25  C   UNL     1     142.935 136.980 143.330  1.00  0.00     0.014 C 
ATOM     26  C   UNL     1     143.726 135.233 141.657  1.00  0.00     0.016 C 
ATOM     27  C   UNL     1     143.341 134.562 145.031  1.00  0.00     0.063 C 
ATOM     28  C   UNL     1     141.781 136.251 144.022  1.00  0.00     0.033 C 
ATOM     29  C   UNL     1     142.279 135.623 145.324  1.00  0.00     0.118 C 
BRANCH  29  30
ATOM     30  O   UNL     1     141.206 135.021 145.998  1.00  0.00    -0.393 OA
ATOM     31  H   UNL     1     141.593 134.539 146.775  1.00  0.00     0.210 HD
ENDBRANCH  29  30
ENDBRANCH   9  11
ENDBRANCH   1   9
TORSDOF 7
ENDMDL
MODEL 4
REMARK VINA RESULT:    -5.704      4.115      7.727
REMARK INTER + INTRA:          -9.877
REMARK INTER:                  -7.482
REMARK INTRA:                  -2.395
REMARK UNBOUND:                -2.006
REMARK SMILES CC[C@H](CC[C@H](C)[C@H]1CC[C@@H]2[C@@H]3CC=C4C[C@H](O)CC[C@@]4(C)[C@@H]3CC[C@@]21C)C(C)C
REMARK SMILES IDX 5 1 4 2 3 3 2 4 1 5 28 6 29 7 30 8 6 9 7 10 8 11 9 12 26 13
REMARK SMILES IDX 10 14 11 15 25 16 27 17 12 18 24 19 23 20 13 21 21 22 14 23
REMARK SMILES IDX 15 24 20 25 22 26 16 27 19 28 17 29 18 30
REMARK H PARENT 18 31
REMARK Flexibility Score: inf
ROOT
ATOM      1  C   UNL     1     147.457 131.807 138.184  1.00  0.00     0.004 C 
ENDROOT
BRANCH   1   2
ATOM      2  C   UNL     1     147.360 131.586 139.710  1.00  0.00     0.004 C 
BRANCH   2   3
ATOM      3  C   UNL     1     145.899 131.718 140.240  1.00  0.00    -0.009 C 
BRANCH   3   4
ATOM      4  C   UNL     1     145.862 132.818 141.348  1.00  0.00     0.000 C 
ATOM      5  C   UNL     1     147.193 132.970 142.086  1.00  0.00     0.004 C 
ENDBRANCH   3   4
BRANCH   3   6
ATOM      6  C   UNL     1     144.889 131.996 139.070  1.00  0.00    -0.014 C 
ATOM      7  C   UNL     1     143.797 130.902 138.979  1.00  0.00     0.007 C 
ATOM      8  C   UNL     1     144.186 133.358 139.203  1.00  0.00     0.007 C 
ENDBRANCH   3   6
ENDBRANCH   2   3
ENDBRANCH   1   2
BRANCH   1   9
ATOM      9  C   UNL     1     148.382 133.004 137.805  1.00  0.00    -0.011 C 
ATOM     10  C   UNL     1     149.816 132.496 137.555  1.00  0.00     0.008 C 
BRANCH   9  11
ATOM     11  C   UNL     1     148.290 134.158 138.876  1.00  0.00    -0.002 C 
ATOM     12  C   UNL     1     149.666 134.578 139.410  1.00  0.00     0.005 C 
ATOM     13  C   UNL     1     147.576 135.497 138.459  1.00  0.00    -0.026 C 
ATOM     14  C   UNL     1     150.014 135.915 138.770  1.00  0.00     0.005 C 
ATOM     15  C   UNL     1     148.744 136.463 138.089  1.00  0.00    -0.001 C 
ATOM     16  C   UNL     1     146.713 136.045 139.659  1.00  0.00     0.007 C 
ATOM     17  C   UNL     1     146.617 135.335 137.253  1.00  0.00     0.012 C 
ATOM     18  C   UNL     1     148.446 137.977 138.354  1.00  0.00     0.000 C 
ATOM     19  C   UNL     1     147.458 137.042 140.552  1.00  0.00     0.005 C 
ATOM     20  C   UNL     1     147.793 138.310 139.743  1.00  0.00     0.003 C 
ATOM     21  C   UNL     1     149.638 138.891 138.005  1.00  0.00     0.031 C 
ATOM     22  C   UNL     1     148.471 139.487 140.560  1.00  0.00    -0.008 C 
ATOM     23  C   UNL     1     149.349 140.316 138.380  1.00  0.00    -0.027 C 
ATOM     24  C   UNL     1     148.797 140.621 139.571  1.00  0.00    -0.065 C 
ATOM     25  C   UNL     1     147.452 139.985 141.644  1.00  0.00     0.014 C 
ATOM     26  C   UNL     1     149.791 139.052 141.275  1.00  0.00     0.016 C 
ATOM     27  C   UNL     1     148.752 142.085 139.971  1.00  0.00     0.063 C 
ATOM     28  C   UNL     1     147.754 141.391 142.167  1.00  0.00     0.033 C 
ATOM     29  C   UNL     1     147.678 142.393 141.016  1.00  0.00     0.118 C 
BRANCH  29  30
ATOM     30  O   UNL     1     147.877 143.692 141.507  1.00  0.00    -0.393 OA
ATOM     31  H   UNL     1     148.058 143.603 142.479  1.00  0.00     0.210 HD
ENDBRANCH  29  30
ENDBRANCH   9  11
ENDBRANCH   1   9
TORSDOF 7
ENDMDL
MODEL 5
REMARK VINA RESULT:    -5.699      3.857      8.010
REMARK INTER + INTRA:          -9.871
REMARK INTER:                  -7.770
REMARK INTRA:                  -2.100
REMARK UNBOUND:                -2.006
REMARK SMILES CC[C@H](CC[C@H](C)[C@H]1CC[C@@H]2[C@@H]3CC=C4C[C@H](O)CC[C@@]4(C)[C@@H]3CC[C@@]21C)C(C)C
REMARK SMILES IDX 5 1 4 2 3 3 2 4 1 5 28 6 29 7 30 8 6 9 7 10 8 11 9 12 26 13
REMARK SMILES IDX 10 14 11 15 25 16 27 17 12 18 24 19 23 20 13 21 21 22 14 23
REMARK SMILES IDX 15 24 20 25 22 26 16 27 19 28 17 29 18 30
REMARK H PARENT 18 31
REMARK Flexibility Score: inf
ROOT
ATOM      1  C   UNL     1     142.514 134.740 144.253  1.00  0.00     0.004 C 
ENDROOT
BRANCH   1   2
ATOM      2  C   UNL     1     142.628 135.903 145.265  1.00  0.00     0.004 C 
BRANCH   2   3
ATOM      3  C   UNL     1     142.724 135.403 146.740  1.00  0.00    -0.009 C 
BRANCH   3   4
ATOM      4  C   UNL     1     142.233 133.921 146.802  1.00  0.00     0.000 C 
ATOM      5  C   UNL     1     140.961 133.746 147.631  1.00  0.00     0.004 C 
ENDBRANCH   3   4
BRANCH   3   6
ATOM      6  C   UNL     1     144.173 135.592 147.315  1.00  0.00    -0.014 C 
ATOM      7  C   UNL     1     145.110 134.429 146.906  1.00  0.00     0.007 C 
ATOM      8  C   UNL     1     144.824 136.909 146.863  1.00  0.00     0.007 C 
ENDBRANCH   3   6
ENDBRANCH   2   3
ENDBRANCH   1   2
BRANCH   1   9
ATOM      9  C   UNL     1     143.568 134.830 143.108  1.00  0.00    -0.011 C 
ATOM     10  C   UNL     1     144.301 133.481 142.968  1.00  0.00     0.008 C 
BRANCH   9  11
ATOM     11  C   UNL     1     144.531 136.062 143.314  1.00  0.00    -0.002 C 
ATOM     12  C   UNL     1     146.011 135.660 143.322  1.00  0.00     0.005 C 
ATOM     13  C   UNL     1     144.428 137.258 142.296  1.00  0.00    -0.026 C 
ATOM     14  C   UNL     1     146.606 136.087 141.987  1.00  0.00     0.005 C 
ATOM     15  C   UNL     1     145.592 137.012 141.287  1.00  0.00    -0.001 C 
ATOM     16  C   UNL     1     144.583 138.630 143.056  1.00  0.00     0.007 C 
ATOM     17  C   UNL     1     143.074 137.312 141.544  1.00  0.00     0.012 C 
ATOM     18  C   UNL     1     146.197 138.314 140.662  1.00  0.00     0.000 C 
ATOM     19  C   UNL     1     146.023 139.152 143.101  1.00  0.00     0.005 C 
ATOM     20  C   UNL     1     146.498 139.479 141.671  1.00  0.00     0.003 C 
ATOM     21  C   UNL     1     147.365 138.027 139.697  1.00  0.00     0.031 C 
ATOM     22  C   UNL     1     147.936 140.136 141.560  1.00  0.00    -0.008 C 
ATOM     23  C   UNL     1     147.987 139.305 139.211  1.00  0.00    -0.027 C 
ATOM     24  C   UNL     1     148.259 140.310 140.064  1.00  0.00    -0.065 C 
ATOM     25  C   UNL     1     147.897 141.531 142.276  1.00  0.00     0.014 C 
ATOM     26  C   UNL     1     149.057 139.266 142.215  1.00  0.00     0.016 C 
ATOM     27  C   UNL     1     149.095 141.467 139.544  1.00  0.00     0.063 C 
ATOM     28  C   UNL     1     149.024 142.472 141.844  1.00  0.00     0.033 C 
ATOM     29  C   UNL     1     148.908 142.757 140.347  1.00  0.00     0.118 C 
BRANCH  29  30
ATOM     30  O   UNL     1     149.892 143.680 139.964  1.00  0.00    -0.393 OA
ATOM     31  H   UNL     1     150.374 143.278 139.195  1.00  0.00     0.210 HD
ENDBRANCH  29  30
ENDBRANCH   9  11
ENDBRANCH   1   9
TORSDOF 7
ENDMDL
MODEL 6
REMARK VINA RESULT:    -5.692      3.283      5.470
REMARK INTER + INTRA:          -9.861
REMARK INTER:                  -8.180
REMARK INTRA:                  -1.681
REMARK UNBOUND:                -2.006
REMARK SMILES CC[C@H](CC[C@H](C)[C@H]1CC[C@@H]2[C@@H]3CC=C4C[C@H](O)CC[C@@]4(C)[C@@H]3CC[C@@]21C)C(C)C
REMARK SMILES IDX 5 1 4 2 3 3 2 4 1 5 28 6 29 7 30 8 6 9 7 10 8 11 9 12 26 13
REMARK SMILES IDX 10 14 11 15 25 16 27 17 12 18 24 19 23 20 13 21 21 22 14 23
REMARK SMILES IDX 15 24 20 25 22 26 16 27 19 28 17 29 18 30
REMARK H PARENT 18 31
REMARK Flexibility Score: inf
ROOT
ATOM      1  C   UNL     1     144.618 138.200 140.246  1.00  0.00     0.004 C 
ENDROOT
BRANCH   1   2
ATOM      2  C   UNL     1     145.340 137.897 138.913  1.00  0.00     0.004 C 
BRANCH   2   3
ATOM      3  C   UNL     1     145.050 138.972 137.820  1.00  0.00    -0.009 C 
BRANCH   3   4
ATOM      4  C   UNL     1     145.534 138.428 136.438  1.00  0.00     0.000 C 
ATOM      5  C   UNL     1     146.084 137.003 136.514  1.00  0.00     0.004 C 
ENDBRANCH   3   4
BRANCH   3   6
ATOM      6  C   UNL     1     143.536 139.389 137.816  1.00  0.00    -0.014 C 
ATOM      7  C   UNL     1     143.336 140.822 137.265  1.00  0.00     0.007 C 
ATOM      8  C   UNL     1     142.660 138.434 136.987  1.00  0.00     0.007 C 
ENDBRANCH   3   6
ENDBRANCH   2   3
ENDBRANCH   1   2
BRANCH   1   9
ATOM      9  C   UNL     1     143.641 137.064 140.674  1.00  0.00    -0.011 C 
ATOM     10  C   UNL     1     143.738 135.889 139.681  1.00  0.00     0.008 C 
BRANCH   9  11
ATOM     11  C   UNL     1     142.176 137.615 140.870  1.00  0.00    -0.002 C 
ATOM     12  C   UNL     1     141.159 136.930 139.948  1.00  0.00     0.005 C 
ATOM     13  C   UNL     1     141.547 137.546 142.311  1.00  0.00    -0.026 C 
ATOM     14  C   UNL     1     140.347 135.966 140.802  1.00  0.00     0.005 C 
ATOM     15  C   UNL     1     140.647 136.272 142.283  1.00  0.00    -0.001 C 
ATOM     16  C   UNL     1     140.715 138.853 142.602  1.00  0.00     0.007 C 
ATOM     17  C   UNL     1     142.603 137.426 143.439  1.00  0.00     0.012 C 
ATOM     18  C   UNL     1     139.392 136.341 143.217  1.00  0.00     0.000 C 
ATOM     19  C   UNL     1     139.229 138.730 142.246  1.00  0.00     0.005 C 
ATOM     20  C   UNL     1     138.567 137.675 143.153  1.00  0.00     0.003 C 
ATOM     21  C   UNL     1     138.514 135.076 143.133  1.00  0.00     0.031 C 
ATOM     22  C   UNL     1     136.999 137.510 142.982  1.00  0.00    -0.008 C 
ATOM     23  C   UNL     1     137.267 135.232 143.956  1.00  0.00    -0.027 C 
ATOM     24  C   UNL     1     136.543 136.366 143.906  1.00  0.00    -0.065 C 
ATOM     25  C   UNL     1     136.314 138.857 143.402  1.00  0.00     0.014 C 
ATOM     26  C   UNL     1     136.578 137.168 141.517  1.00  0.00     0.016 C 
ATOM     27  C   UNL     1     135.181 136.361 144.580  1.00  0.00     0.063 C 
ATOM     28  C   UNL     1     134.832 138.706 143.754  1.00  0.00     0.033 C 
ATOM     29  C   UNL     1     134.683 137.760 144.945  1.00  0.00     0.118 C 
BRANCH  29  30
ATOM     30  O   UNL     1     133.333 137.681 145.319  1.00  0.00    -0.393 OA
ATOM     31  H   UNL     1     133.262 138.100 146.216  1.00  0.00     0.210 HD
ENDBRANCH  29  30
ENDBRANCH   9  11
ENDBRANCH   1   9
TORSDOF 7
ENDMDL
MODEL 7
REMARK VINA RESULT:    -5.691      1.694      2.786
REMARK INTER + INTRA:          -9.860
REMARK INTER:                  -7.737
REMARK INTRA:                  -2.123
REMARK UNBOUND:                -2.006
REMARK SMILES CC[C@H](CC[C@H](C)[C@H]1CC[C@@H]2[C@@H]3CC=C4C[C@H](O)CC[C@@]4(C)[C@@H]3CC[C@@]21C)C(C)C
REMARK SMILES IDX 5 1 4 2 3 3 2 4 1 5 28 6 29 7 30 8 6 9 7 10 8 11 9 12 26 13
REMARK SMILES IDX 10 14 11 15 25 16 27 17 12 18 24 19 23 20 13 21 21 22 14 23
REMARK SMILES IDX 15 24 20 25 22 26 16 27 19 28 17 29 18 30
REMARK H PARENT 18 31
REMARK Flexibility Score: inf
ROOT
ATOM      1  C   UNL     1     149.758 140.176 138.159  1.00  0.00     0.004 C 
ENDROOT
BRANCH   1   2
ATOM      2  C   UNL     1     149.974 139.720 139.620  1.00  0.00     0.004 C 
BRANCH   2   3
ATOM      3  C   UNL     1     149.786 140.884 140.642  1.00  0.00    -0.009 C 
BRANCH   3   4
ATOM      4  C   UNL     1     149.010 142.046 139.944  1.00  0.00     0.000 C 
ATOM      5  C   UNL     1     149.483 143.432 140.386  1.00  0.00     0.004 C 
ENDBRANCH   3   4
BRANCH   3   6
ATOM      6  C   UNL     1     149.084 140.384 141.955  1.00  0.00    -0.014 C 
ATOM      7  C   UNL     1     147.576 140.732 141.970  1.00  0.00     0.007 C 
ATOM      8  C   UNL     1     149.223 138.866 142.161  1.00  0.00     0.007 C 
ENDBRANCH   3   6
ENDBRANCH   2   3
ENDBRANCH   1   2
BRANCH   1   9
ATOM      9  C   UNL     1     148.499 139.531 137.505  1.00  0.00    -0.011 C 
ATOM     10  C   UNL     1     148.029 140.393 136.318  1.00  0.00     0.008 C 
BRANCH   9  11
ATOM     11  C   UNL     1     147.376 139.255 138.578  1.00  0.00    -0.002 C 
ATOM     12  C   UNL     1     146.168 140.188 138.422  1.00  0.00     0.005 C 
ATOM     13  C   UNL     1     146.776 137.803 138.662  1.00  0.00    -0.026 C 
ATOM     14  C   UNL     1     145.041 139.373 137.803  1.00  0.00     0.005 C 
ATOM     15  C   UNL     1     145.442 137.885 137.857  1.00  0.00    -0.001 C 
ATOM     16  C   UNL     1     146.535 137.403 140.168  1.00  0.00     0.007 C 
ATOM     17  C   UNL     1     147.699 136.718 138.052  1.00  0.00     0.012 C 
ATOM     18  C   UNL     1     144.321 136.910 138.353  1.00  0.00     0.000 C 
ATOM     19  C   UNL     1     145.123 137.719 140.673  1.00  0.00     0.005 C 
ATOM     20  C   UNL     1     144.097 136.863 139.907  1.00  0.00     0.003 C 
ATOM     21  C   UNL     1     143.011 137.048 137.551  1.00  0.00     0.031 C 
ATOM     22  C   UNL     1     142.593 136.995 140.392  1.00  0.00    -0.008 C 
ATOM     23  C   UNL     1     141.933 136.179 138.132  1.00  0.00    -0.027 C 
ATOM     24  C   UNL     1     141.721 136.133 139.461  1.00  0.00    -0.065 C 
ATOM     25  C   UNL     1     142.504 136.468 141.867  1.00  0.00     0.014 C 
ATOM     26  C   UNL     1     142.067 138.465 140.351  1.00  0.00     0.016 C 
ATOM     27  C   UNL     1     140.472 135.419 139.950  1.00  0.00     0.063 C 
ATOM     28  C   UNL     1     141.086 136.081 142.292  1.00  0.00     0.033 C 
ATOM     29  C   UNL     1     140.575 134.949 141.402  1.00  0.00     0.118 C 
BRANCH  29  30
ATOM     30  O   UNL     1     139.306 134.540 141.840  1.00  0.00    -0.393 OA
ATOM     31  H   UNL     1     139.370 133.567 142.025  1.00  0.00     0.210 HD
ENDBRANCH  29  30
ENDBRANCH   9  11
ENDBRANCH   1   9
TORSDOF 7
ENDMDL
MODEL 8
REMARK VINA RESULT:    -5.583      3.311      9.179
REMARK INTER + INTRA:          -9.711
REMARK INTER:                  -8.794
REMARK INTRA:                  -0.917
REMARK UNBOUND:                -2.006
REMARK SMILES CC[C@H](CC[C@H](C)[C@H]1CC[C@@H]2[C@@H]3CC=C4C[C@H](O)CC[C@@]4(C)[C@@H]3CC[C@@]21C)C(C)C
REMARK SMILES IDX 5 1 4 2 3 3 2 4 1 5 28 6 29 7 30 8 6 9 7 10 8 11 9 12 26 13
REMARK SMILES IDX 10 14 11 15 25 16 27 17 12 18 24 19 23 20 13 21 21 22 14 23
REMARK SMILES IDX 15 24 20 25 22 26 16 27 19 28 17 29 18 30
REMARK H PARENT 18 31
REMARK Flexibility Score: inf
ROOT
ATOM      1  C   UNL     1     138.663 138.297 142.659  1.00  0.00     0.004 C 
ENDROOT
BRANCH   1   2
ATOM      2  C   UNL     1     137.221 137.864 142.309  1.00  0.00     0.004 C 
BRANCH   2   3
ATOM      3  C   UNL     1     136.241 138.025 143.512  1.00  0.00    -0.009 C 
BRANCH   3   4
ATOM      4  C   UNL     1     137.050 138.500 144.761  1.00  0.00     0.000 C 
ATOM      5  C   UNL     1     137.033 137.488 145.907  1.00  0.00     0.004 C 
ENDBRANCH   3   4
BRANCH   3   6
ATOM      6  C   UNL     1     135.050 138.984 143.155  1.00  0.00    -0.014 C 
ATOM      7  C   UNL     1     133.926 138.245 142.389  1.00  0.00     0.007 C 
ATOM      8  C   UNL     1     134.425 139.642 144.397  1.00  0.00     0.007 C 
ENDBRANCH   3   6
ENDBRANCH   2   3
ENDBRANCH   1   2
BRANCH   1   9
ATOM      9  C   UNL     1     139.727 137.227 142.268  1.00  0.00    -0.011 C 
ATOM     10  C   UNL     1     140.097 136.383 143.503  1.00  0.00     0.008 C 
BRANCH   9  11
ATOM     11  C   UNL     1     140.966 137.890 141.552  1.00  0.00    -0.002 C 
ATOM     12  C   UNL     1     141.968 138.493 142.545  1.00  0.00     0.005 C 
ATOM     13  C   UNL     1     141.824 136.996 140.582  1.00  0.00    -0.026 C 
ATOM     14  C   UNL     1     143.168 137.558 142.604  1.00  0.00     0.005 C 
ATOM     15  C   UNL     1     143.049 136.554 141.440  1.00  0.00    -0.001 C 
ATOM     16  C   UNL     1     142.258 137.833 139.318  1.00  0.00     0.007 C 
ATOM     17  C   UNL     1     141.065 135.751 140.057  1.00  0.00     0.012 C 
ATOM     18  C   UNL     1     144.366 136.320 140.624  1.00  0.00     0.000 C 
ATOM     19  C   UNL     1     143.626 138.507 139.463  1.00  0.00     0.005 C 
ATOM     20  C   UNL     1     144.723 137.430 139.574  1.00  0.00     0.003 C 
ATOM     21  C   UNL     1     145.558 135.916 141.516  1.00  0.00     0.031 C 
ATOM     22  C   UNL     1     146.213 137.971 139.620  1.00  0.00    -0.008 C 
ATOM     23  C   UNL     1     146.820 135.813 140.709  1.00  0.00    -0.027 C 
ATOM     24  C   UNL     1     147.146 136.761 139.810  1.00  0.00    -0.065 C 
ATOM     25  C   UNL     1     146.519 138.688 138.259  1.00  0.00     0.014 C 
ATOM     26  C   UNL     1     146.460 138.981 140.786  1.00  0.00     0.016 C 
ATOM     27  C   UNL     1     148.540 136.709 139.208  1.00  0.00     0.063 C 
ATOM     28  C   UNL     1     148.014 138.824 137.962  1.00  0.00     0.033 C 
ATOM     29  C   UNL     1     148.646 137.436 137.866  1.00  0.00     0.118 C 
BRANCH  29  30
ATOM     30  O   UNL     1     149.999 137.556 137.517  1.00  0.00    -0.393 OA
ATOM     31  H   UNL     1     150.057 138.292 136.853  1.00  0.00     0.210 HD
ENDBRANCH  29  30
ENDBRANCH   9  11
ENDBRANCH   1   9
TORSDOF 7
ENDMDL
MODEL 9
REMARK VINA RESULT:    -5.512      2.913      4.481
REMARK INTER + INTRA:          -9.612
REMARK INTER:                  -7.980
REMARK INTRA:                  -1.632
REMARK UNBOUND:                -2.006
REMARK SMILES CC[C@H](CC[C@H](C)[C@H]1CC[C@@H]2[C@@H]3CC=C4C[C@H](O)CC[C@@]4(C)[C@@H]3CC[C@@]21C)C(C)C
REMARK SMILES IDX 5 1 4 2 3 3 2 4 1 5 28 6 29 7 30 8 6 9 7 10 8 11 9 12 26 13
REMARK SMILES IDX 10 14 11 15 25 16 27 17 12 18 24 19 23 20 13 21 21 22 14 23
REMARK SMILES IDX 15 24 20 25 22 26 16 27 19 28 17 29 18 30
REMARK H PARENT 18 31
REMARK Flexibility Score: inf
ROOT
ATOM      1  C   UNL     1     148.203 141.591 138.955  1.00  0.00     0.004 C 
ENDROOT
BRANCH   1   2
ATOM      2  C   UNL     1     149.332 140.835 139.691  1.00  0.00     0.004 C 
BRANCH   2   3
ATOM      3  C   UNL     1     149.366 141.153 141.218  1.00  0.00    -0.009 C 
BRANCH   3   4
ATOM      4  C   UNL     1     148.687 142.539 141.459  1.00  0.00     0.000 C 
ATOM      5  C   UNL     1     149.681 143.701 141.463  1.00  0.00     0.004 C 
ENDBRANCH   3   4
BRANCH   3   6
ATOM      6  C   UNL     1     148.712 139.999 142.058  1.00  0.00    -0.014 C 
ATOM      7  C   UNL     1     147.171 140.134 142.121  1.00  0.00     0.007 C 
ATOM      8  C   UNL     1     149.044 138.602 141.506  1.00  0.00     0.007 C 
ENDBRANCH   3   6
ENDBRANCH   2   3
ENDBRANCH   1   2
BRANCH   1   9
ATOM      9  C   UNL     1     147.619 140.785 137.755  1.00  0.00    -0.011 C 
ATOM     10  C   UNL     1     147.476 141.706 136.529  1.00  0.00     0.008 C 
BRANCH   9  11
ATOM     11  C   UNL     1     146.285 140.046 138.160  1.00  0.00    -0.002 C 
ATOM     12  C   UNL     1     145.076 140.524 137.345  1.00  0.00     0.005 C 
ATOM     13  C   UNL     1     146.254 138.475 138.072  1.00  0.00    -0.026 C 
ATOM     14  C   UNL     1     144.752 139.436 136.330  1.00  0.00     0.005 C 
ATOM     15  C   UNL     1     145.551 138.174 136.712  1.00  0.00    -0.001 C 
ATOM     16  C   UNL     1     145.457 137.881 139.295  1.00  0.00     0.007 C 
ATOM     17  C   UNL     1     147.663 137.829 138.097  1.00  0.00     0.012 C 
ATOM     18  C   UNL     1     144.739 136.835 136.681  1.00  0.00     0.000 C 
ATOM     19  C   UNL     1     143.969 137.651 139.009  1.00  0.00     0.005 C 
ATOM     20  C   UNL     1     143.812 136.572 137.921  1.00  0.00     0.003 C 
ATOM     21  C   UNL     1     144.034 136.595 135.331  1.00  0.00     0.031 C 
ATOM     22  C   UNL     1     142.323 136.141 137.591  1.00  0.00    -0.008 C 
ATOM     23  C   UNL     1     143.179 135.361 135.384  1.00  0.00    -0.027 C 
ATOM     24  C   UNL     1     142.372 135.124 136.436  1.00  0.00    -0.065 C 
ATOM     25  C   UNL     1     141.705 135.481 138.873  1.00  0.00     0.014 C 
ATOM     26  C   UNL     1     141.421 137.343 137.161  1.00  0.00     0.016 C 
ATOM     27  C   UNL     1     141.372 133.987 136.312  1.00  0.00     0.063 C 
ATOM     28  C   UNL     1     140.490 134.599 138.581  1.00  0.00     0.033 C 
ATOM     29  C   UNL     1     140.900 133.448 137.664  1.00  0.00     0.118 C 
BRANCH  29  30
ATOM     30  O   UNL     1     139.806 132.594 137.458  1.00  0.00    -0.393 OA
ATOM     31  H   UNL     1     139.375 132.884 136.613  1.00  0.00     0.210 HD
ENDBRANCH  29  30
ENDBRANCH   9  11
ENDBRANCH   1   9
TORSDOF 7
ENDMDL
