MODEL 1
REMARK VINA RESULT:    -4.164      0.000      0.000
REMARK INTER + INTRA:         -12.038
REMARK INTER:                  -8.790
REMARK INTRA:                  -3.248
REMARK UNBOUND:                -3.248
REMARK SMILES CCC(=O)CCCCC[C@@H]1NC(=O)[C@@H]2CCCCN2C(=O)[C@H]([C@H](C)CC)NC(=O)[C@@H](Cc2cn(OC)c3ccccc23)NC1=O
REMARK SMILES IDX 9 1 10 2 44 3 43 4 45 6 30 7 28 8 27 9 29 11 22 12 23 14
REMARK SMILES IDX 24 15 25 16 26 17 31 18 32 19 33 20 42 21 34 22 37 23 41 24
REMARK SMILES IDX 38 25 40 26 39 27 35 28 36 29 11 30 12 31 13 33 14 34 19 35
REMARK SMILES IDX 15 36 18 37 16 38 17 39 20 40 21 41 8 43 7 44 6 45 5 46 3 47
REMARK SMILES IDX 4 48 2 49 1 50
REMARK H PARENT 43 5 27 10 11 32
REMARK Flexibility Score: 80.00
ROOT
ATOM      1  C   UNL     1      60.483  21.882  53.265  1.00  0.00     0.035 C 
ENDROOT
BRANCH   1   2
ATOM      2  C   UNL     1      59.131  22.574  52.944  1.00  0.00     0.171 C 
BRANCH   2   3
ATOM      3  C   UNL     1      58.129  22.369  54.031  1.00  0.00     0.243 C 
ATOM      4  N   UNL     1      56.717  22.308  53.718  1.00  0.00    -0.342 N 
ATOM      5  H   UNL     1      56.482  21.928  52.768  1.00  0.00     0.164 HD
ATOM      6  O   UNL     1      58.502  22.400  55.235  1.00  0.00    -0.273 OA
BRANCH   4   7
ATOM      7  C   UNL     1      55.745  23.164  54.434  1.00  0.00     0.175 C 
BRANCH   7   8
ATOM      8  C   UNL     1      55.177  24.135  53.435  1.00  0.00     0.243 C 
ATOM      9  N   UNL     1      55.596  25.532  53.461  1.00  0.00    -0.342 N 
ATOM     10  H   UNL     1      55.928  25.898  54.367  1.00  0.00     0.164 HD
ATOM     11  O   UNL     1      54.173  23.792  52.755  1.00  0.00    -0.273 OA
BRANCH   9  12
ATOM     12  C   UNL     1      56.127  26.295  52.361  1.00  0.00     0.174 CG0
ATOM     13  G   UNL     1      57.370  27.064  52.743  1.00  0.00     0.000 G0
BRANCH  12  14
ATOM     14  C   UNL     1      55.055  27.079  51.556  1.00  0.00     0.018 C 
ATOM     15  C   UNL     1      53.696  27.193  52.298  1.00  0.00     0.010 C 
BRANCH  14  16
ATOM     16  C   UNL     1      54.835  26.685  50.071  1.00  0.00     0.002 C 
ATOM     17  C   UNL     1      55.316  25.252  49.711  1.00  0.00     0.004 C 
ENDBRANCH  14  16
ENDBRANCH  12  14
ENDBRANCH   9  12
ENDBRANCH   7   8
BRANCH   7  18
ATOM     18  C   UNL     1      54.603  22.343  55.085  1.00  0.00     0.073 C 
BRANCH  18  19
ATOM     19  C   UNL     1      55.078  21.015  55.657  1.00  0.00    -0.016 A 
ATOM     20  C   UNL     1      55.963  20.812  56.717  1.00  0.00     0.134 A 
ATOM     21  C   UNL     1      54.586  19.769  55.391  1.00  0.00     0.006 A 
ATOM     22  N   UNL     1      56.032  19.510  57.051  1.00  0.00    -0.191 N 
ATOM     23  C   UNL     1      55.167  18.871  56.242  1.00  0.00     0.087 A 
ATOM     24  C   UNL     1      53.596  19.357  54.488  1.00  0.00     0.011 A 
ATOM     25  C   UNL     1      54.852  17.524  56.234  1.00  0.00     0.030 A 
ATOM     26  C   UNL     1      53.256  17.990  54.457  1.00  0.00     0.001 A 
ATOM     27  C   UNL     1      53.886  17.082  55.308  1.00  0.00     0.002 A 
BRANCH  22  28
ATOM     28  O   UNL     1      56.717  18.987  58.135  1.00  0.00    -0.417 OA
ATOM     29  C   UNL     1      56.105  18.887  59.412  1.00  0.00     0.313 C 
ENDBRANCH  22  28
ENDBRANCH  18  19
ENDBRANCH   7  18
ENDBRANCH   4   7
ENDBRANCH   2   3
BRANCH   2  30
ATOM     30  N   UNL     1      59.282  24.033  52.720  1.00  0.00    -0.343 N 
ATOM     31  C   UNL     1      59.532  24.556  51.409  1.00  0.00     0.243 C 
ATOM     32  H   UNL     1      58.726  24.679  53.338  1.00  0.00     0.164 HD
ATOM     33  O   UNL     1      60.147  23.812  50.577  1.00  0.00    -0.273 OA
BRANCH  31  34
ATOM     34  C   UNL     1      59.010  25.926  50.927  1.00  0.00     0.174 C 
ATOM     35  N   UNL     1      58.614  26.999  51.924  1.00  0.00    -0.329 N 
ATOM     36  C   UNL     1      60.131  26.458  49.995  1.00  0.00     0.035 C 
ATOM     37  C   UNL     1      59.088  28.370  51.624  1.00  0.00     0.120 C 
ATOM     38  C   UNL     1      59.697  27.750  49.260  1.00  0.00     0.004 C 
ATOM     39  C   UNL     1      58.803  28.617  50.146  1.00  0.00     0.022 C 
BRANCH  35  40
ATOM     40  C   UNL     1      57.375  27.087  52.720  1.00  0.00     0.246 CG0
ATOM     41  O   UNL     1      57.393  27.594  53.907  1.00  0.00    -0.272 OA
ATOM     42  G   UNL     1      56.152  26.275  52.361  1.00  0.00     0.000 G0
ENDBRANCH  35  40
ENDBRANCH  31  34
ENDBRANCH   2  30
ENDBRANCH   1   2
BRANCH   1  43
ATOM     43  C   UNL     1      60.453  20.351  52.919  1.00  0.00     0.003 C 
BRANCH  43  44
ATOM     44  C   UNL     1      59.704  19.944  51.643  1.00  0.00     0.001 C 
BRANCH  44  45
ATOM     45  C   UNL     1      59.560  18.434  51.420  1.00  0.00     0.008 C 
BRANCH  45  46
ATOM     46  C   UNL     1      58.765  17.694  52.495  1.00  0.00     0.075 C 
BRANCH  46  47
ATOM     47  C   UNL     1      57.512  18.458  52.938  1.00  0.00     0.132 C 
ATOM     48  O   UNL     1      57.597  19.125  53.972  1.00  0.00    -0.300 OA
BRANCH  47  49
ATOM     49  C   UNL     1      56.260  18.496  52.130  1.00  0.00     0.072 C 
ATOM     50  C   UNL     1      56.458  17.910  50.750  1.00  0.00     0.012 C 
ENDBRANCH  47  49
ENDBRANCH  46  47
ENDBRANCH  45  46
ENDBRANCH  44  45
ENDBRANCH  43  44
ENDBRANCH   1  43
TORSDOF 12
ENDMDL
MODEL 2
REMARK VINA RESULT:    -3.927      7.173     10.597
REMARK INTER + INTRA:         -11.536
REMARK INTER:                  -8.477
REMARK INTRA:                  -3.060
REMARK UNBOUND:                -3.248
REMARK SMILES CCC(=O)CCCCC[C@@H]1NC(=O)[C@@H]2CCCCN2C(=O)[C@H]([C@H](C)CC)NC(=O)[C@@H](Cc2cn(OC)c3ccccc23)NC1=O
REMARK SMILES IDX 9 1 10 2 44 3 43 4 45 6 30 7 28 8 27 9 29 11 22 12 23 14
REMARK SMILES IDX 24 15 25 16 26 17 31 18 32 19 33 20 42 21 34 22 37 23 41 24
REMARK SMILES IDX 38 25 40 26 39 27 35 28 36 29 11 30 12 31 13 33 14 34 19 35
REMARK SMILES IDX 15 36 18 37 16 38 17 39 20 40 21 41 8 43 7 44 6 45 5 46 3 47
REMARK SMILES IDX 4 48 2 49 1 50
REMARK H PARENT 43 5 27 10 11 32
REMARK Flexibility Score: 80.00
ROOT
ATOM      1  C   UNL     1      61.713  28.452  55.362  1.00  0.00     0.035 C 
ENDROOT
BRANCH   1   2
ATOM      2  C   UNL     1      60.646  28.200  56.461  1.00  0.00     0.171 C 
BRANCH   2   3
ATOM      3  C   UNL     1      60.990  28.889  57.739  1.00  0.00     0.243 C 
ATOM      4  N   UNL     1      61.066  28.137  58.975  1.00  0.00    -0.342 N 
ATOM      5  H   UNL     1      61.357  27.133  58.873  1.00  0.00     0.164 HD
ATOM      6  O   UNL     1      61.066  30.148  57.768  1.00  0.00    -0.273 OA
BRANCH   4   7
ATOM      7  C   UNL     1      60.317  28.573  60.174  1.00  0.00     0.175 C 
BRANCH   7   8
ATOM      8  C   UNL     1      59.272  27.529  60.458  1.00  0.00     0.243 C 
ATOM      9  N   UNL     1      57.895  27.934  60.721  1.00  0.00    -0.342 N 
ATOM     10  H   UNL     1      57.757  28.883  61.101  1.00  0.00     0.164 HD
ATOM     11  O   UNL     1      59.640  26.351  60.708  1.00  0.00    -0.273 OA
BRANCH   9  12
ATOM     12  C   UNL     1      56.712  27.462  60.048  1.00  0.00     0.174 CG0
ATOM     13  G   UNL     1      55.952  28.579  59.371  1.00  0.00     0.000 G0
BRANCH  12  14
ATOM     14  C   UNL     1      55.866  26.459  60.878  1.00  0.00     0.018 C 
ATOM     15  C   UNL     1      56.263  26.422  62.379  1.00  0.00     0.010 C 
BRANCH  14  16
ATOM     16  C   UNL     1      55.697  25.021  60.322  1.00  0.00     0.002 C 
ATOM     17  C   UNL     1      56.917  24.501  59.511  1.00  0.00     0.004 C 
ENDBRANCH  14  16
ENDBRANCH  12  14
ENDBRANCH   9  12
ENDBRANCH   7   8
BRANCH   7  18
ATOM     18  C   UNL     1      61.236  28.754  61.409  1.00  0.00     0.073 C 
BRANCH  18  19
ATOM     19  C   UNL     1      62.479  29.580  61.109  1.00  0.00    -0.016 A 
ATOM     20  C   UNL     1      63.767  29.115  60.845  1.00  0.00     0.134 A 
ATOM     21  C   UNL     1      62.545  30.917  60.836  1.00  0.00     0.006 A 
ATOM     22  N   UNL     1      64.580  30.119  60.468  1.00  0.00    -0.191 N 
ATOM     23  C   UNL     1      63.818  31.228  60.447  1.00  0.00     0.087 A 
ATOM     24  C   UNL     1      61.540  31.894  60.834  1.00  0.00     0.011 A 
ATOM     25  C   UNL     1      64.194  32.508  60.078  1.00  0.00     0.030 A 
ATOM     26  C   UNL     1      61.895  33.208  60.465  1.00  0.00     0.001 A 
ATOM     27  C   UNL     1      63.207  33.513  60.106  1.00  0.00     0.002 A 
BRANCH  22  28
ATOM     28  O   UNL     1      65.882  29.982  60.017  1.00  0.00    -0.417 OA
ATOM     29  C   UNL     1      66.288  28.837  59.283  1.00  0.00     0.313 C 
ENDBRANCH  22  28
ENDBRANCH  18  19
ENDBRANCH   7  18
ENDBRANCH   4   7
ENDBRANCH   2   3
BRANCH   2  30
ATOM     30  N   UNL     1      59.292  28.643  56.045  1.00  0.00    -0.343 N 
ATOM     31  C   UNL     1      58.116  28.031  56.591  1.00  0.00     0.243 C 
ATOM     32  H   UNL     1      59.168  29.658  55.797  1.00  0.00     0.164 HD
ATOM     33  O   UNL     1      58.197  26.819  56.974  1.00  0.00    -0.273 OA
BRANCH  31  34
ATOM     34  C   UNL     1      56.794  28.791  56.827  1.00  0.00     0.174 C 
ATOM     35  N   UNL     1      56.441  29.322  58.204  1.00  0.00    -0.329 N 
ATOM     36  C   UNL     1      56.833  29.957  55.805  1.00  0.00     0.035 C 
ATOM     37  C   UNL     1      55.898  30.700  58.248  1.00  0.00     0.120 C 
ATOM     38  C   UNL     1      55.489  30.725  55.763  1.00  0.00     0.004 C 
ATOM     39  C   UNL     1      54.845  30.789  57.148  1.00  0.00     0.022 C 
BRANCH  35  40
ATOM     40  C   UNL     1      55.926  28.570  59.364  1.00  0.00     0.246 CG0
ATOM     41  O   UNL     1      54.925  29.018  60.044  1.00  0.00    -0.272 OA
ATOM     42  G   UNL     1      56.747  27.485  60.023  1.00  0.00     0.000 G0
ENDBRANCH  35  40
ENDBRANCH  31  34
ENDBRANCH   2  30
ENDBRANCH   1   2
BRANCH   1  43
ATOM     43  C   UNL     1      61.890  27.207  54.422  1.00  0.00     0.003 C 
BRANCH  43  44
ATOM     44  C   UNL     1      61.508  27.393  52.947  1.00  0.00     0.001 C 
BRANCH  44  45
ATOM     45  C   UNL     1      62.687  27.496  51.973  1.00  0.00     0.008 C 
BRANCH  45  46
ATOM     46  C   UNL     1      62.301  27.578  50.496  1.00  0.00     0.075 C 
BRANCH  46  47
ATOM     47  C   UNL     1      61.272  26.516  50.092  1.00  0.00     0.132 C 
ATOM     48  O   UNL     1      61.651  25.342  50.088  1.00  0.00    -0.300 OA
BRANCH  47  49
ATOM     49  C   UNL     1      59.846  26.838  49.805  1.00  0.00     0.072 C 
ATOM     50  C   UNL     1      59.620  28.327  49.660  1.00  0.00     0.012 C 
ENDBRANCH  47  49
ENDBRANCH  46  47
ENDBRANCH  45  46
ENDBRANCH  44  45
ENDBRANCH  43  44
ENDBRANCH   1  43
TORSDOF 12
ENDMDL
MODEL 3
REMARK VINA RESULT:    -3.895      7.100     11.115
REMARK INTER + INTRA:         -11.470
REMARK INTER:                  -7.851
REMARK INTRA:                  -3.619
REMARK UNBOUND:                -3.248
REMARK SMILES CCC(=O)CCCCC[C@@H]1NC(=O)[C@@H]2CCCCN2C(=O)[C@H]([C@H](C)CC)NC(=O)[C@@H](Cc2cn(OC)c3ccccc23)NC1=O
REMARK SMILES IDX 9 1 10 2 44 3 43 4 45 6 30 7 28 8 27 9 29 11 22 12 23 14
REMARK SMILES IDX 24 15 25 16 26 17 31 18 32 19 33 20 42 21 34 22 37 23 41 24
REMARK SMILES IDX 38 25 40 26 39 27 35 28 36 29 11 30 12 31 13 33 14 34 19 35
REMARK SMILES IDX 15 36 18 37 16 38 17 39 20 40 21 41 8 43 7 44 6 45 5 46 3 47
REMARK SMILES IDX 4 48 2 49 1 50
REMARK H PARENT 43 5 27 10 11 32
REMARK Flexibility Score: 80.00
ROOT
ATOM      1  C   UNL     1      63.375  31.396  58.612  1.00  0.00     0.035 C 
ENDROOT
BRANCH   1   2
ATOM      2  C   UNL     1      63.319  31.702  57.091  1.00  0.00     0.171 C 
BRANCH   2   3
ATOM      3  C   UNL     1      62.730  30.570  56.317  1.00  0.00     0.243 C 
ATOM      4  N   UNL     1      63.303  30.180  55.046  1.00  0.00    -0.342 N 
ATOM      5  H   UNL     1      64.334  30.347  54.947  1.00  0.00     0.164 HD
ATOM      6  O   UNL     1      61.644  30.053  56.699  1.00  0.00    -0.273 OA
BRANCH   4   7
ATOM      7  C   UNL     1      62.455  30.053  53.840  1.00  0.00     0.175 C 
BRANCH   7   8
ATOM      8  C   UNL     1      63.130  30.814  52.731  1.00  0.00     0.243 C 
ATOM      9  N   UNL     1      62.356  31.735  51.907  1.00  0.00    -0.342 N 
ATOM     10  H   UNL     1      61.344  31.547  51.827  1.00  0.00     0.164 HD
ATOM     11  O   UNL     1      64.285  30.465  52.370  1.00  0.00    -0.273 OA
BRANCH   9  12
ATOM     12  C   UNL     1      62.653  33.121  51.650  1.00  0.00     0.174 CG0
ATOM     13  G   UNL     1      61.568  34.044  52.157  1.00  0.00     0.000 G0
BRANCH  12  14
ATOM     14  C   UNL     1      63.180  33.403  50.217  1.00  0.00     0.018 C 
ATOM     15  C   UNL     1      62.842  32.271  49.209  1.00  0.00     0.010 C 
BRANCH  14  16
ATOM     16  C   UNL     1      64.659  33.846  50.065  1.00  0.00     0.002 C 
ATOM     17  C   UNL     1      65.515  32.920  49.156  1.00  0.00     0.004 C 
ENDBRANCH  14  16
ENDBRANCH  12  14
ENDBRANCH   9  12
ENDBRANCH   7   8
BRANCH   7  18
ATOM     18  C   UNL     1      62.243  28.577  53.420  1.00  0.00     0.073 C 
BRANCH  18  19
ATOM     19  C   UNL     1      60.775  28.183  53.350  1.00  0.00    -0.016 A 
ATOM     20  C   UNL     1      59.919  27.893  54.413  1.00  0.00     0.134 A 
ATOM     21  C   UNL     1      59.949  28.234  52.263  1.00  0.00     0.006 A 
ATOM     22  N   UNL     1      58.651  27.739  53.990  1.00  0.00    -0.191 N 
ATOM     23  C   UNL     1      58.670  27.968  52.664  1.00  0.00     0.087 A 
ATOM     24  C   UNL     1      60.222  28.570  50.930  1.00  0.00     0.011 A 
ATOM     25  C   UNL     1      57.597  27.970  51.790  1.00  0.00     0.030 A 
ATOM     26  C   UNL     1      59.149  28.578  50.016  1.00  0.00     0.001 A 
ATOM     27  C   UNL     1      57.856  28.269  50.437  1.00  0.00     0.002 A 
BRANCH  22  28
ATOM     28  O   UNL     1      57.541  27.569  54.801  1.00  0.00    -0.417 OA
ATOM     29  C   UNL     1      57.180  28.545  55.767  1.00  0.00     0.313 C 
ENDBRANCH  22  28
ENDBRANCH  18  19
ENDBRANCH   7  18
ENDBRANCH   4   7
ENDBRANCH   2   3
BRANCH   2  30
ATOM     30  N   UNL     1      62.537  32.927  56.790  1.00  0.00    -0.343 N 
ATOM     31  C   UNL     1      62.674  33.597  55.530  1.00  0.00     0.243 C 
ATOM     32  H   UNL     1      61.578  33.007  57.214  1.00  0.00     0.164 HD
ATOM     33  O   UNL     1      63.787  33.499  54.919  1.00  0.00    -0.273 OA
BRANCH  31  34
ATOM     34  C   UNL     1      61.515  34.343  54.834  1.00  0.00     0.174 C 
ATOM     35  N   UNL     1      60.979  33.866  53.496  1.00  0.00    -0.329 N 
ATOM     36  C   UNL     1      60.376  34.351  55.887  1.00  0.00     0.035 C 
ATOM     37  C   UNL     1      59.504  33.832  53.364  1.00  0.00     0.120 C 
ATOM     38  C   UNL     1      59.185  35.231  55.434  1.00  0.00     0.004 C 
ATOM     39  C   UNL     1      58.985  35.154  53.921  1.00  0.00     0.022 C 
BRANCH  35  40
ATOM     40  C   UNL     1      61.573  34.056  52.159  1.00  0.00     0.246 CG0
ATOM     41  O   UNL     1      60.986  34.798  51.281  1.00  0.00    -0.272 OA
ATOM     42  G   UNL     1      62.647  33.129  51.639  1.00  0.00     0.000 G0
ENDBRANCH  35  40
ENDBRANCH  31  34
ENDBRANCH   2  30
ENDBRANCH   1   2
BRANCH   1  43
ATOM     43  C   UNL     1      62.887  32.616  59.472  1.00  0.00     0.003 C 
BRANCH  43  44
ATOM     44  C   UNL     1      61.944  32.305  60.643  1.00  0.00     0.001 C 
BRANCH  44  45
ATOM     45  C   UNL     1      61.306  30.912  60.620  1.00  0.00     0.008 C 
BRANCH  45  46
ATOM     46  C   UNL     1      61.599  30.046  61.844  1.00  0.00     0.075 C 
BRANCH  46  47
ATOM     47  C   UNL     1      62.755  29.065  61.615  1.00  0.00     0.132 C 
ATOM     48  O   UNL     1      63.897  29.531  61.634  1.00  0.00    -0.300 OA
BRANCH  47  49
ATOM     49  C   UNL     1      62.554  27.596  61.468  1.00  0.00     0.072 C 
ATOM     50  C   UNL     1      63.774  26.912  60.893  1.00  0.00     0.012 C 
ENDBRANCH  47  49
ENDBRANCH  46  47
ENDBRANCH  45  46
ENDBRANCH  44  45
ENDBRANCH  43  44
ENDBRANCH   1  43
TORSDOF 12
ENDMDL
MODEL 4
REMARK VINA RESULT:    -3.875      5.721      9.497
REMARK INTER + INTRA:         -11.427
REMARK INTER:                  -8.421
REMARK INTRA:                  -3.007
REMARK UNBOUND:                -3.248
REMARK SMILES CCC(=O)CCCCC[C@@H]1NC(=O)[C@@H]2CCCCN2C(=O)[C@H]([C@H](C)CC)NC(=O)[C@@H](Cc2cn(OC)c3ccccc23)NC1=O
REMARK SMILES IDX 9 1 10 2 44 3 43 4 45 6 30 7 28 8 27 9 29 11 22 12 23 14
REMARK SMILES IDX 24 15 25 16 26 17 31 18 32 19 33 20 42 21 34 22 37 23 41 24
REMARK SMILES IDX 38 25 40 26 39 27 35 28 36 29 11 30 12 31 13 33 14 34 19 35
REMARK SMILES IDX 15 36 18 37 16 38 17 39 20 40 21 41 8 43 7 44 6 45 5 46 3 47
REMARK SMILES IDX 4 48 2 49 1 50
REMARK H PARENT 43 5 27 10 11 32
REMARK Flexibility Score: 80.00
ROOT
ATOM      1  C   UNL     1      65.777  27.178  51.011  1.00  0.00     0.035 C 
ENDROOT
BRANCH   1   2
ATOM      2  C   UNL     1      65.087  27.979  49.874  1.00  0.00     0.171 C 
BRANCH   2   3
ATOM      3  C   UNL     1      63.631  27.668  49.778  1.00  0.00     0.243 C 
ATOM      4  N   UNL     1      62.660  28.740  49.695  1.00  0.00    -0.342 N 
ATOM      5  H   UNL     1      62.998  29.618  49.229  1.00  0.00     0.164 HD
ATOM      6  O   UNL     1      63.237  26.478  49.920  1.00  0.00    -0.273 OA
BRANCH   4   7
ATOM      7  C   UNL     1      61.506  28.791  50.620  1.00  0.00     0.175 C 
BRANCH   7   8
ATOM      8  C   UNL     1      61.589  30.089  51.375  1.00  0.00     0.243 C 
ATOM      9  N   UNL     1      62.765  30.941  51.228  1.00  0.00    -0.342 N 
ATOM     10  H   UNL     1      63.644  30.473  50.958  1.00  0.00     0.164 HD
ATOM     11  O   UNL     1      60.768  30.307  52.304  1.00  0.00    -0.273 OA
BRANCH   9  12
ATOM     12  C   UNL     1      62.781  32.335  50.865  1.00  0.00     0.174 CG0
ATOM     13  G   UNL     1      63.580  32.592  49.608  1.00  0.00     0.000 G0
BRANCH  12  14
ATOM     14  C   UNL     1      63.044  33.297  52.055  1.00  0.00     0.018 C 
ATOM     15  C   UNL     1      63.702  32.595  53.274  1.00  0.00     0.010 C 
BRANCH  14  16
ATOM     16  C   UNL     1      61.880  34.214  52.515  1.00  0.00     0.002 C 
ATOM     17  C   UNL     1      62.135  35.731  52.298  1.00  0.00     0.004 C 
ENDBRANCH  14  16
ENDBRANCH  12  14
ENDBRANCH   9  12
ENDBRANCH   7   8
BRANCH   7  18
ATOM     18  C   UNL     1      60.150  28.693  49.877  1.00  0.00     0.073 C 
BRANCH  18  19
ATOM     19  C   UNL     1      59.463  27.349  50.070  1.00  0.00    -0.016 A 
ATOM     20  C   UNL     1      60.062  26.094  50.184  1.00  0.00     0.134 A 
ATOM     21  C   UNL     1      58.150  27.120  50.374  1.00  0.00     0.006 A 
ATOM     22  N   UNL     1      59.158  25.149  50.503  1.00  0.00    -0.191 N 
ATOM     23  C   UNL     1      57.982  25.789  50.638  1.00  0.00     0.087 A 
ATOM     24  C   UNL     1      57.080  28.014  50.510  1.00  0.00     0.011 A 
ATOM     25  C   UNL     1      56.761  25.249  51.002  1.00  0.00     0.030 A 
ATOM     26  C   UNL     1      55.824  27.492  50.879  1.00  0.00     0.001 A 
ATOM     27  C   UNL     1      55.663  26.126  51.108  1.00  0.00     0.002 A 
BRANCH  22  28
ATOM     28  O   UNL     1      59.440  23.829  50.812  1.00  0.00    -0.417 OA
ATOM     29  C   UNL     1      60.780  23.368  50.908  1.00  0.00     0.313 C 
ENDBRANCH  22  28
ENDBRANCH  18  19
ENDBRANCH   7  18
ENDBRANCH   4   7
ENDBRANCH   2   3
BRANCH   2  30
ATOM     30  N   UNL     1      65.239  29.445  50.044  1.00  0.00    -0.343 N 
ATOM     31  C   UNL     1      66.198  30.182  49.274  1.00  0.00     0.243 C 
ATOM     32  H   UNL     1      64.378  29.997  50.293  1.00  0.00     0.164 HD
ATOM     33  O   UNL     1      67.243  29.570  48.879  1.00  0.00    -0.273 OA
BRANCH  31  34
ATOM     34  C   UNL     1      65.982  31.640  48.818  1.00  0.00     0.174 C 
ATOM     35  N   UNL     1      65.072  32.570  49.600  1.00  0.00    -0.329 N 
ATOM     36  C   UNL     1      67.412  32.236  48.746  1.00  0.00     0.035 C 
ATOM     37  C   UNL     1      65.592  33.938  49.834  1.00  0.00     0.120 C 
ATOM     38  C   UNL     1      67.410  33.651  48.116  1.00  0.00     0.004 C 
ATOM     39  C   UNL     1      66.151  34.427  48.503  1.00  0.00     0.022 C 
BRANCH  35  40
ATOM     40  C   UNL     1      63.598  32.614  49.598  1.00  0.00     0.246 CG0
ATOM     41  O   UNL     1      62.961  33.195  48.638  1.00  0.00    -0.272 OA
ATOM     42  G   UNL     1      62.803  32.335  50.853  1.00  0.00     0.000 G0
ENDBRANCH  35  40
ENDBRANCH  31  34
ENDBRANCH   2  30
ENDBRANCH   1   2
BRANCH   1  43
ATOM     43  C   UNL     1      65.874  28.012  52.337  1.00  0.00     0.003 C 
BRANCH  43  44
ATOM     44  C   UNL     1      65.180  27.428  53.576  1.00  0.00     0.001 C 
BRANCH  44  45
ATOM     45  C   UNL     1      63.739  27.898  53.803  1.00  0.00     0.008 C 
BRANCH  45  46
ATOM     46  C   UNL     1      62.924  27.042  54.772  1.00  0.00     0.075 C 
BRANCH  46  47
ATOM     47  C   UNL     1      61.659  26.461  54.130  1.00  0.00     0.132 C 
ATOM     48  O   UNL     1      60.903  27.254  53.563  1.00  0.00    -0.300 OA
BRANCH  47  49
ATOM     49  C   UNL     1      61.371  25.000  54.087  1.00  0.00     0.072 C 
ATOM     50  C   UNL     1      60.637  24.530  55.325  1.00  0.00     0.012 C 
ENDBRANCH  47  49
ENDBRANCH  46  47
ENDBRANCH  45  46
ENDBRANCH  44  45
ENDBRANCH  43  44
ENDBRANCH   1  43
TORSDOF 12
ENDMDL
MODEL 5
REMARK VINA RESULT:    -3.861      5.058      8.805
REMARK INTER + INTRA:         -11.397
REMARK INTER:                  -7.721
REMARK INTRA:                  -3.677
REMARK UNBOUND:                -3.248
REMARK SMILES CCC(=O)CCCCC[C@@H]1NC(=O)[C@@H]2CCCCN2C(=O)[C@H]([C@H](C)CC)NC(=O)[C@@H](Cc2cn(OC)c3ccccc23)NC1=O
REMARK SMILES IDX 9 1 10 2 44 3 43 4 45 6 30 7 28 8 27 9 29 11 22 12 23 14
REMARK SMILES IDX 24 15 25 16 26 17 31 18 32 19 33 20 42 21 34 22 37 23 41 24
REMARK SMILES IDX 38 25 40 26 39 27 35 28 36 29 11 30 12 31 13 33 14 34 19 35
REMARK SMILES IDX 15 36 18 37 16 38 17 39 20 40 21 41 8 43 7 44 6 45 5 46 3 47
REMARK SMILES IDX 4 48 2 49 1 50
REMARK H PARENT 43 5 27 10 11 32
REMARK Flexibility Score: 80.00
ROOT
ATOM      1  C   UNL     1      60.208  26.857  57.295  1.00  0.00     0.035 C 
ENDROOT
BRANCH   1   2
ATOM      2  C   UNL     1      59.306  28.003  56.761  1.00  0.00     0.171 C 
BRANCH   2   3
ATOM      3  C   UNL     1      59.067  27.884  55.293  1.00  0.00     0.243 C 
ATOM      4  N   UNL     1      59.241  29.035  54.431  1.00  0.00    -0.342 N 
ATOM      5  H   UNL     1      59.961  29.731  54.748  1.00  0.00     0.164 HD
ATOM      6  O   UNL     1      58.570  26.823  54.826  1.00  0.00    -0.273 OA
BRANCH   4   7
ATOM      7  C   UNL     1      58.171  29.451  53.498  1.00  0.00     0.175 C 
BRANCH   7   8
ATOM      8  C   UNL     1      57.811  30.874  53.829  1.00  0.00     0.243 C 
ATOM      9  N   UNL     1      56.411  31.252  53.984  1.00  0.00    -0.342 N 
ATOM     10  H   UNL     1      55.718  30.674  53.483  1.00  0.00     0.164 HD
ATOM     11  O   UNL     1      58.695  31.765  53.724  1.00  0.00    -0.273 OA
BRANCH   9  12
ATOM     12  C   UNL     1      55.817  31.920  55.114  1.00  0.00     0.174 CG0
ATOM     13  G   UNL     1      54.703  31.112  55.739  1.00  0.00     0.000 G0
BRANCH  12  14
ATOM     14  C   UNL     1      55.524  33.427  54.878  1.00  0.00     0.018 C 
ATOM     15  C   UNL     1      55.488  33.813  53.374  1.00  0.00     0.010 C 
BRANCH  14  16
ATOM     16  C   UNL     1      56.351  34.460  55.688  1.00  0.00     0.002 C 
ATOM     17  C   UNL     1      56.831  33.949  57.075  1.00  0.00     0.004 C 
ENDBRANCH  14  16
ENDBRANCH  12  14
ENDBRANCH   9  12
ENDBRANCH   7   8
BRANCH   7  18
ATOM     18  C   UNL     1      58.606  29.344  52.015  1.00  0.00     0.073 C 
BRANCH  18  19
ATOM     19  C   UNL     1      58.254  28.003  51.388  1.00  0.00    -0.016 A 
ATOM     20  C   UNL     1      59.049  26.860  51.318  1.00  0.00     0.134 A 
ATOM     21  C   UNL     1      57.028  27.583  50.953  1.00  0.00     0.006 A 
ATOM     22  N   UNL     1      58.357  25.812  50.833  1.00  0.00    -0.191 N 
ATOM     23  C   UNL     1      57.104  26.258  50.626  1.00  0.00     0.087 A 
ATOM     24  C   UNL     1      55.806  28.265  50.885  1.00  0.00     0.011 A 
ATOM     25  C   UNL     1      56.013  25.537  50.175  1.00  0.00     0.030 A 
ATOM     26  C   UNL     1      54.677  27.556  50.426  1.00  0.00     0.001 A 
ATOM     27  C   UNL     1      54.782  26.213  50.063  1.00  0.00     0.002 A 
BRANCH  22  28
ATOM     28  O   UNL     1      58.812  24.507  50.754  1.00  0.00    -0.417 OA
ATOM     29  C   UNL     1      59.455  23.885  51.857  1.00  0.00     0.313 C 
ENDBRANCH  22  28
ENDBRANCH  18  19
ENDBRANCH   7  18
ENDBRANCH   4   7
ENDBRANCH   2   3
BRANCH   2  30
ATOM     30  N   UNL     1      57.990  28.049  57.443  1.00  0.00    -0.343 N 
ATOM     31  C   UNL     1      57.223  29.261  57.485  1.00  0.00     0.243 C 
ATOM     32  H   UNL     1      57.404  27.175  57.431  1.00  0.00     0.164 HD
ATOM     33  O   UNL     1      57.853  30.367  57.442  1.00  0.00    -0.273 OA
BRANCH  31  34
ATOM     34  C   UNL     1      55.680  29.290  57.477  1.00  0.00     0.174 C 
ATOM     35  N   UNL     1      54.920  29.736  56.242  1.00  0.00    -0.329 N 
ATOM     36  C   UNL     1      55.266  27.845  57.860  1.00  0.00     0.035 C 
ATOM     37  C   UNL     1      53.754  28.903  55.863  1.00  0.00     0.120 C 
ATOM     38  C   UNL     1      53.739  27.731  58.092  1.00  0.00     0.004 C 
ATOM     39  C   UNL     1      52.966  28.646  57.143  1.00  0.00     0.022 C 
BRANCH  35  40
ATOM     40  C   UNL     1      54.700  31.112  55.757  1.00  0.00     0.246 CG0
ATOM     41  O   UNL     1      53.504  31.552  55.554  1.00  0.00    -0.272 OA
ATOM     42  G   UNL     1      55.820  31.911  55.131  1.00  0.00     0.000 G0
ENDBRANCH  35  40
ENDBRANCH  31  34
ENDBRANCH   2  30
ENDBRANCH   1   2
BRANCH   1  43
ATOM     43  C   UNL     1      60.214  26.801  58.864  1.00  0.00     0.003 C 
BRANCH  43  44
ATOM     44  C   UNL     1      59.826  25.464  59.511  1.00  0.00     0.001 C 
BRANCH  44  45
ATOM     45  C   UNL     1      58.628  25.519  60.465  1.00  0.00     0.008 C 
BRANCH  45  46
ATOM     46  C   UNL     1      57.272  25.233  59.820  1.00  0.00     0.075 C 
BRANCH  46  47
ATOM     47  C   UNL     1      56.109  25.894  60.569  1.00  0.00     0.132 C 
ATOM     48  O   UNL     1      55.059  25.251  60.652  1.00  0.00    -0.300 OA
BRANCH  47  49
ATOM     49  C   UNL     1      56.233  27.207  61.261  1.00  0.00     0.072 C 
ATOM     50  C   UNL     1      55.871  27.112  62.728  1.00  0.00     0.012 C 
ENDBRANCH  47  49
ENDBRANCH  46  47
ENDBRANCH  45  46
ENDBRANCH  44  45
ENDBRANCH  43  44
ENDBRANCH   1  43
TORSDOF 12
ENDMDL
MODEL 6
REMARK VINA RESULT:    -3.768      6.212     10.663
REMARK INTER + INTRA:         -11.200
REMARK INTER:                  -8.099
REMARK INTRA:                  -3.101
REMARK UNBOUND:                -3.248
REMARK SMILES CCC(=O)CCCCC[C@@H]1NC(=O)[C@@H]2CCCCN2C(=O)[C@H]([C@H](C)CC)NC(=O)[C@@H](Cc2cn(OC)c3ccccc23)NC1=O
REMARK SMILES IDX 9 1 10 2 44 3 43 4 45 6 30 7 28 8 27 9 29 11 22 12 23 14
REMARK SMILES IDX 24 15 25 16 26 17 31 18 32 19 33 20 42 21 34 22 37 23 41 24
REMARK SMILES IDX 38 25 40 26 39 27 35 28 36 29 11 30 12 31 13 33 14 34 19 35
REMARK SMILES IDX 15 36 18 37 16 38 17 39 20 40 21 41 8 43 7 44 6 45 5 46 3 47
REMARK SMILES IDX 4 48 2 49 1 50
REMARK H PARENT 43 5 27 10 11 32
REMARK Flexibility Score: 80.00
ROOT
ATOM      1  C   UNL     1      58.447  27.217  50.579  1.00  0.00     0.035 C 
ENDROOT
BRANCH   1   2
ATOM      2  C   UNL     1      59.970  27.515  50.611  1.00  0.00     0.171 C 
BRANCH   2   3
ATOM      3  C   UNL     1      60.404  28.050  51.935  1.00  0.00     0.243 C 
ATOM      4  N   UNL     1      61.300  29.185  52.005  1.00  0.00    -0.342 N 
ATOM      5  H   UNL     1      61.226  29.867  51.209  1.00  0.00     0.164 HD
ATOM      6  O   UNL     1      60.109  27.421  52.988  1.00  0.00    -0.273 OA
BRANCH   4   7
ATOM      7  C   UNL     1      62.538  29.125  52.814  1.00  0.00     0.175 C 
BRANCH   7   8
ATOM      8  C   UNL     1      63.691  29.436  51.900  1.00  0.00     0.243 C 
ATOM      9  N   UNL     1      64.916  28.647  51.983  1.00  0.00    -0.342 N 
ATOM     10  H   UNL     1      65.116  28.198  52.890  1.00  0.00     0.164 HD
ATOM     11  O   UNL     1      63.681  30.516  51.253  1.00  0.00    -0.273 OA
BRANCH   9  12
ATOM     12  C   UNL     1      65.577  27.962  50.902  1.00  0.00     0.174 CG0
ATOM     13  G   UNL     1      65.585  26.463  51.092  1.00  0.00     0.000 G0
BRANCH  12  14
ATOM     14  C   UNL     1      66.921  28.608  50.469  1.00  0.00     0.018 C 
ATOM     15  C   UNL     1      67.498  29.586  51.528  1.00  0.00     0.010 C 
BRANCH  14  16
ATOM     16  C   UNL     1      67.001  29.229  49.050  1.00  0.00     0.002 C 
ATOM     17  C   UNL     1      68.338  28.956  48.306  1.00  0.00     0.004 C 
ENDBRANCH  14  16
ENDBRANCH  12  14
ENDBRANCH   9  12
ENDBRANCH   7   8
BRANCH   7  18
ATOM     18  C   UNL     1      62.516  30.123  54.000  1.00  0.00     0.073 C 
BRANCH  18  19
ATOM     19  C   UNL     1      61.645  31.343  53.733  1.00  0.00    -0.016 A 
ATOM     20  C   UNL     1      62.004  32.518  53.072  1.00  0.00     0.134 A 
ATOM     21  C   UNL     1      60.293  31.455  53.901  1.00  0.00     0.006 A 
ATOM     22  N   UNL     1      60.937  33.316  52.882  1.00  0.00    -0.191 N 
ATOM     23  C   UNL     1      59.879  32.649  53.379  1.00  0.00     0.087 A 
ATOM     24  C   UNL     1      59.365  30.545  54.423  1.00  0.00     0.011 A 
ATOM     25  C   UNL     1      58.553  33.041  53.376  1.00  0.00     0.030 A 
ATOM     26  C   UNL     1      58.006  30.919  54.435  1.00  0.00     0.001 A 
ATOM     27  C   UNL     1      57.607  32.157  53.931  1.00  0.00     0.002 A 
BRANCH  22  28
ATOM     28  O   UNL     1      60.925  34.493  52.152  1.00  0.00    -0.417 OA
ATOM     29  C   UNL     1      61.498  34.558  50.854  1.00  0.00     0.313 C 
ENDBRANCH  22  28
ENDBRANCH  18  19
ENDBRANCH   7  18
ENDBRANCH   4   7
ENDBRANCH   2   3
BRANCH   2  30
ATOM     30  N   UNL     1      60.787  26.315  50.306  1.00  0.00    -0.343 N 
ATOM     31  C   UNL     1      62.180  26.433  49.989  1.00  0.00     0.243 C 
ATOM     32  H   UNL     1      60.536  25.418  50.796  1.00  0.00     0.164 HD
ATOM     33  O   UNL     1      62.580  27.514  49.449  1.00  0.00    -0.273 OA
BRANCH  31  34
ATOM     34  C   UNL     1      63.229  25.363  50.359  1.00  0.00     0.174 C 
ATOM     35  N   UNL     1      64.351  25.680  51.331  1.00  0.00    -0.329 N 
ATOM     36  C   UNL     1      62.391  24.171  50.891  1.00  0.00     0.035 C 
ATOM     37  C   UNL     1      64.630  24.649  52.358  1.00  0.00     0.120 C 
ATOM     38  C   UNL     1      63.269  22.918  51.135  1.00  0.00     0.004 C 
ATOM     39  C   UNL     1      64.661  23.308  51.633  1.00  0.00     0.022 C 
BRANCH  35  40
ATOM     40  C   UNL     1      65.587  26.444  51.074  1.00  0.00     0.246 CG0
ATOM     41  O   UNL     1      66.743  25.912  51.289  1.00  0.00    -0.272 OA
ATOM     42  G   UNL     1      65.562  27.948  50.924  1.00  0.00     0.000 G0
ENDBRANCH  35  40
ENDBRANCH  31  34
ENDBRANCH   2  30
ENDBRANCH   1   2
BRANCH   1  43
ATOM     43  C   UNL     1      57.593  28.518  50.784  1.00  0.00     0.003 C 
BRANCH  43  44
ATOM     44  C   UNL     1      56.718  28.581  52.044  1.00  0.00     0.001 C 
BRANCH  44  45
ATOM     45  C   UNL     1      55.244  28.925  51.804  1.00  0.00     0.008 C 
BRANCH  45  46
ATOM     46  C   UNL     1      54.744  28.673  50.382  1.00  0.00     0.075 C 
BRANCH  46  47
ATOM     47  C   UNL     1      54.113  27.286  50.214  1.00  0.00     0.132 C 
ATOM     48  O   UNL     1      52.957  27.245  49.783  1.00  0.00    -0.300 OA
BRANCH  47  49
ATOM     49  C   UNL     1      54.861  26.021  50.456  1.00  0.00     0.072 C 
ATOM     50  C   UNL     1      54.356  24.889  49.589  1.00  0.00     0.012 C 
ENDBRANCH  47  49
ENDBRANCH  46  47
ENDBRANCH  45  46
ENDBRANCH  44  45
ENDBRANCH  43  44
ENDBRANCH   1  43
TORSDOF 12
ENDMDL
MODEL 7
REMARK VINA RESULT:    -3.764      4.951      8.493
REMARK INTER + INTRA:         -11.192
REMARK INTER:                  -8.496
REMARK INTRA:                  -2.696
REMARK UNBOUND:                -3.248
REMARK SMILES CCC(=O)CCCCC[C@@H]1NC(=O)[C@@H]2CCCCN2C(=O)[C@H]([C@H](C)CC)NC(=O)[C@@H](Cc2cn(OC)c3ccccc23)NC1=O
REMARK SMILES IDX 9 1 10 2 44 3 43 4 45 6 30 7 28 8 27 9 29 11 22 12 23 14
REMARK SMILES IDX 24 15 25 16 26 17 31 18 32 19 33 20 42 21 34 22 37 23 41 24
REMARK SMILES IDX 38 25 40 26 39 27 35 28 36 29 11 30 12 31 13 33 14 34 19 35
REMARK SMILES IDX 15 36 18 37 16 38 17 39 20 40 21 41 8 43 7 44 6 45 5 46 3 47
REMARK SMILES IDX 4 48 2 49 1 50
REMARK H PARENT 43 5 27 10 11 32
REMARK Flexibility Score: 80.00
ROOT
ATOM      1  C   UNL     1      64.215  26.298  50.034  1.00  0.00     0.035 C 
ENDROOT
BRANCH   1   2
ATOM      2  C   UNL     1      63.395  27.447  49.386  1.00  0.00     0.171 C 
BRANCH   2   3
ATOM      3  C   UNL     1      61.949  27.372  49.748  1.00  0.00     0.243 C 
ATOM      4  N   UNL     1      61.223  28.574  50.099  1.00  0.00    -0.342 N 
ATOM      5  H   UNL     1      61.560  29.455  49.637  1.00  0.00     0.164 HD
ATOM      6  O   UNL     1      61.401  26.245  49.893  1.00  0.00    -0.273 OA
BRANCH   4   7
ATOM      7  C   UNL     1      60.443  28.649  51.354  1.00  0.00     0.175 C 
BRANCH   7   8
ATOM      8  C   UNL     1      60.936  29.845  52.121  1.00  0.00     0.243 C 
ATOM      9  N   UNL     1      62.131  30.552  51.674  1.00  0.00    -0.342 N 
ATOM     10  H   UNL     1      62.813  30.006  51.125  1.00  0.00     0.164 HD
ATOM     11  O   UNL     1      60.463  30.070  53.267  1.00  0.00    -0.273 OA
BRANCH   9  12
ATOM     12  C   UNL     1      62.250  31.962  51.405  1.00  0.00     0.174 CG0
ATOM     13  G   UNL     1      62.965  32.239  50.103  1.00  0.00     0.000 G0
BRANCH  12  14
ATOM     14  C   UNL     1      62.698  32.806  52.629  1.00  0.00     0.018 C 
ATOM     15  C   UNL     1      63.411  31.966  53.723  1.00  0.00     0.010 C 
BRANCH  14  16
ATOM     16  C   UNL     1      61.656  33.763  53.267  1.00  0.00     0.002 C 
ATOM     17  C   UNL     1      60.656  34.388  52.255  1.00  0.00     0.004 C 
ENDBRANCH  14  16
ENDBRANCH  12  14
ENDBRANCH   9  12
ENDBRANCH   7   8
BRANCH   7  18
ATOM     18  C   UNL     1      58.920  28.773  51.096  1.00  0.00     0.073 C 
BRANCH  18  19
ATOM     19  C   UNL     1      58.183  27.449  51.236  1.00  0.00    -0.016 A 
ATOM     20  C   UNL     1      58.645  26.277  51.835  1.00  0.00     0.134 A 
ATOM     21  C   UNL     1      56.861  27.200  50.994  1.00  0.00     0.006 A 
ATOM     22  N   UNL     1      57.669  25.354  51.917  1.00  0.00    -0.191 N 
ATOM     23  C   UNL     1      56.564  25.934  51.413  1.00  0.00     0.087 A 
ATOM     24  C   UNL     1      55.858  28.037  50.487  1.00  0.00     0.011 A 
ATOM     25  C   UNL     1      55.292  25.397  51.324  1.00  0.00     0.030 A 
ATOM     26  C   UNL     1      54.552  27.516  50.382  1.00  0.00     0.001 A 
ATOM     27  C   UNL     1      54.276  26.209  50.782  1.00  0.00     0.002 A 
BRANCH  22  28
ATOM     28  O   UNL     1      57.760  24.133  52.566  1.00  0.00    -0.417 OA
ATOM     29  C   UNL     1      58.809  23.867  53.484  1.00  0.00     0.313 C 
ENDBRANCH  22  28
ENDBRANCH  18  19
ENDBRANCH   7  18
ENDBRANCH   4   7
ENDBRANCH   2   3
BRANCH   2  30
ATOM     30  N   UNL     1      63.901  28.788  49.769  1.00  0.00    -0.343 N 
ATOM     31  C   UNL     1      64.906  29.448  48.989  1.00  0.00     0.243 C 
ATOM     32  H   UNL     1      63.227  29.445  50.240  1.00  0.00     0.164 HD
ATOM     33  O   UNL     1      65.727  28.724  48.337  1.00  0.00    -0.273 OA
BRANCH  31  34
ATOM     34  C   UNL     1      64.981  30.980  48.820  1.00  0.00     0.174 C 
ATOM     35  N   UNL     1      64.389  31.905  49.868  1.00  0.00    -0.329 N 
ATOM     36  C   UNL     1      66.494  31.275  48.649  1.00  0.00     0.035 C 
ATOM     37  C   UNL     1      65.225  33.066  50.255  1.00  0.00     0.120 C 
ATOM     38  C   UNL     1      66.749  32.756  48.273  1.00  0.00     0.004 C 
ATOM     39  C   UNL     1      65.743  33.681  48.959  1.00  0.00     0.022 C 
BRANCH  35  40
ATOM     40  C   UNL     1      62.970  32.248  50.082  1.00  0.00     0.246 CG0
ATOM     41  O   UNL     1      62.371  33.076  49.294  1.00  0.00    -0.272 OA
ATOM     42  G   UNL     1      62.283  31.961  51.397  1.00  0.00     0.000 G0
ENDBRANCH  35  40
ENDBRANCH  31  34
ENDBRANCH   2  30
ENDBRANCH   1   2
BRANCH   1  43
ATOM     43  C   UNL     1      64.926  26.762  51.355  1.00  0.00     0.003 C 
BRANCH  43  44
ATOM     44  C   UNL     1      64.728  25.879  52.595  1.00  0.00     0.001 C 
BRANCH  44  45
ATOM     45  C   UNL     1      63.285  25.775  53.103  1.00  0.00     0.008 C 
BRANCH  45  46
ATOM     46  C   UNL     1      62.820  24.360  53.446  1.00  0.00     0.075 C 
BRANCH  46  47
ATOM     47  C   UNL     1      62.811  23.428  52.229  1.00  0.00     0.132 C 
ATOM     48  O   UNL     1      61.709  23.059  51.814  1.00  0.00    -0.300 OA
BRANCH  47  49
ATOM     49  C   UNL     1      64.049  23.041  51.496  1.00  0.00     0.072 C 
ATOM     50  C   UNL     1      64.947  22.153  52.329  1.00  0.00     0.012 C 
ENDBRANCH  47  49
ENDBRANCH  46  47
ENDBRANCH  45  46
ENDBRANCH  44  45
ENDBRANCH  43  44
ENDBRANCH   1  43
TORSDOF 12
ENDMDL
MODEL 8
REMARK VINA RESULT:    -3.727      5.745      9.641
REMARK INTER + INTRA:         -11.115
REMARK INTER:                  -7.284
REMARK INTRA:                  -3.831
REMARK UNBOUND:                -3.248
REMARK SMILES CCC(=O)CCCCC[C@@H]1NC(=O)[C@@H]2CCCCN2C(=O)[C@H]([C@H](C)CC)NC(=O)[C@@H](Cc2cn(OC)c3ccccc23)NC1=O
REMARK SMILES IDX 9 1 10 2 44 3 43 4 45 6 30 7 28 8 27 9 29 11 22 12 23 14
REMARK SMILES IDX 24 15 25 16 26 17 31 18 32 19 33 20 42 21 34 22 37 23 41 24
REMARK SMILES IDX 38 25 40 26 39 27 35 28 36 29 11 30 12 31 13 33 14 34 19 35
REMARK SMILES IDX 15 36 18 37 16 38 17 39 20 40 21 41 8 43 7 44 6 45 5 46 3 47
REMARK SMILES IDX 4 48 2 49 1 50
REMARK H PARENT 43 5 27 10 11 32
REMARK Flexibility Score: 80.00
ROOT
ATOM      1  C   UNL     1      62.959  31.275  56.451  1.00  0.00     0.035 C 
ENDROOT
BRANCH   1   2
ATOM      2  C   UNL     1      61.452  30.917  56.347  1.00  0.00     0.171 C 
BRANCH   2   3
ATOM      3  C   UNL     1      61.107  30.343  55.013  1.00  0.00     0.243 C 
ATOM      4  N   UNL     1      59.941  30.814  54.295  1.00  0.00    -0.342 N 
ATOM      5  H   UNL     1      59.677  31.815  54.472  1.00  0.00     0.164 HD
ATOM      6  O   UNL     1      61.746  29.345  54.581  1.00  0.00    -0.273 OA
BRANCH   4   7
ATOM      7  C   UNL     1      58.930  29.862  53.784  1.00  0.00     0.175 C 
BRANCH   7   8
ATOM      8  C   UNL     1      57.583  30.342  54.248  1.00  0.00     0.243 C 
ATOM      9  N   UNL     1      56.752  29.481  55.082  1.00  0.00    -0.342 N 
ATOM     10  H   UNL     1      56.908  28.464  54.997  1.00  0.00     0.164 HD
ATOM     11  O   UNL     1      57.085  31.368  53.713  1.00  0.00    -0.273 OA
BRANCH   9  12
ATOM     12  C   UNL     1      56.168  29.815  56.356  1.00  0.00     0.174 CG0
ATOM     13  G   UNL     1      56.444  28.766  57.408  1.00  0.00     0.000 G0
BRANCH  12  14
ATOM     14  C   UNL     1      54.706  30.333  56.268  1.00  0.00     0.018 C 
ATOM     15  C   UNL     1      54.019  29.993  54.917  1.00  0.00     0.010 C 
BRANCH  14  16
ATOM     16  C   UNL     1      54.437  31.809  56.663  1.00  0.00     0.002 C 
ATOM     17  C   UNL     1      54.961  32.200  58.072  1.00  0.00     0.004 C 
ENDBRANCH  14  16
ENDBRANCH  12  14
ENDBRANCH   9  12
ENDBRANCH   7   8
BRANCH   7  18
ATOM     18  C   UNL     1      58.953  29.751  52.238  1.00  0.00     0.073 C 
BRANCH  18  19
ATOM     19  C   UNL     1      58.583  28.362  51.737  1.00  0.00    -0.016 A 
ATOM     20  C   UNL     1      59.353  27.201  51.802  1.00  0.00     0.134 A 
ATOM     21  C   UNL     1      57.359  27.927  51.314  1.00  0.00     0.006 A 
ATOM     22  N   UNL     1      58.647  26.125  51.405  1.00  0.00    -0.191 N 
ATOM     23  C   UNL     1      57.411  26.575  51.121  1.00  0.00     0.087 A 
ATOM     24  C   UNL     1      56.155  28.625  51.147  1.00  0.00     0.011 A 
ATOM     25  C   UNL     1      56.314  25.837  50.714  1.00  0.00     0.030 A 
ATOM     26  C   UNL     1      55.021  27.899  50.731  1.00  0.00     0.001 A 
ATOM     27  C   UNL     1      55.103  26.525  50.504  1.00  0.00     0.002 A 
BRANCH  22  28
ATOM     28  O   UNL     1      59.073  24.809  51.466  1.00  0.00    -0.417 OA
ATOM     29  C   UNL     1      58.905  24.037  52.646  1.00  0.00     0.313 C 
ENDBRANCH  22  28
ENDBRANCH  18  19
ENDBRANCH   7  18
ENDBRANCH   4   7
ENDBRANCH   2   3
BRANCH   2  30
ATOM     30  N   UNL     1      61.026  29.953  57.391  1.00  0.00    -0.343 N 
ATOM     31  C   UNL     1      59.737  30.058  58.009  1.00  0.00     0.243 C 
ATOM     32  H   UNL     1      61.384  28.966  57.316  1.00  0.00     0.164 HD
ATOM     33  O   UNL     1      59.204  31.212  58.086  1.00  0.00    -0.273 OA
BRANCH  31  34
ATOM     34  C   UNL     1      58.925  28.838  58.494  1.00  0.00     0.174 C 
ATOM     35  N   UNL     1      57.822  28.249  57.634  1.00  0.00    -0.329 N 
ATOM     36  C   UNL     1      59.998  27.757  58.792  1.00  0.00     0.035 C 
ATOM     37  C   UNL     1      57.797  26.771  57.535  1.00  0.00     0.120 C 
ATOM     38  C   UNL     1      59.380  26.513  59.477  1.00  0.00     0.004 C 
ATOM     39  C   UNL     1      57.971  26.236  58.952  1.00  0.00     0.022 C 
BRANCH  35  40
ATOM     40  C   UNL     1      56.455  28.764  57.431  1.00  0.00     0.246 CG0
ATOM     41  O   UNL     1      55.438  28.130  57.911  1.00  0.00    -0.272 OA
ATOM     42  G   UNL     1      56.156  29.801  56.373  1.00  0.00     0.000 G0
ENDBRANCH  35  40
ENDBRANCH  31  34
ENDBRANCH   2  30
ENDBRANCH   1   2
BRANCH   1  43
ATOM     43  C   UNL     1      63.737  30.264  57.366  1.00  0.00     0.003 C 
BRANCH  43  44
ATOM     44  C   UNL     1      64.721  30.863  58.380  1.00  0.00     0.001 C 
BRANCH  44  45
ATOM     45  C   UNL     1      64.766  30.165  59.744  1.00  0.00     0.008 C 
BRANCH  45  46
ATOM     46  C   UNL     1      64.073  28.803  59.797  1.00  0.00     0.075 C 
BRANCH  46  47
ATOM     47  C   UNL     1      62.991  28.731  60.880  1.00  0.00     0.132 C 
ATOM     48  O   UNL     1      62.518  27.618  61.127  1.00  0.00    -0.300 OA
BRANCH  47  49
ATOM     49  C   UNL     1      62.574  29.911  61.688  1.00  0.00     0.072 C 
ATOM     50  C   UNL     1      61.092  30.192  61.556  1.00  0.00     0.012 C 
ENDBRANCH  47  49
ENDBRANCH  46  47
ENDBRANCH  45  46
ENDBRANCH  44  45
ENDBRANCH  43  44
ENDBRANCH   1  43
TORSDOF 12
ENDMDL
MODEL 9
REMARK VINA RESULT:    -3.549      8.894     12.683
REMARK INTER + INTRA:         -10.739
REMARK INTER:                  -7.426
REMARK INTRA:                  -3.313
REMARK UNBOUND:                -3.248
REMARK SMILES CCC(=O)CCCCC[C@@H]1NC(=O)[C@@H]2CCCCN2C(=O)[C@H]([C@H](C)CC)NC(=O)[C@@H](Cc2cn(OC)c3ccccc23)NC1=O
REMARK SMILES IDX 9 1 10 2 44 3 43 4 45 6 30 7 28 8 27 9 29 11 22 12 23 14
REMARK SMILES IDX 24 15 25 16 26 17 31 18 32 19 33 20 42 21 34 22 37 23 41 24
REMARK SMILES IDX 38 25 40 26 39 27 35 28 36 29 11 30 12 31 13 33 14 34 19 35
REMARK SMILES IDX 15 36 18 37 16 38 17 39 20 40 21 41 8 43 7 44 6 45 5 46 3 47
REMARK SMILES IDX 4 48 2 49 1 50
REMARK H PARENT 43 5 27 10 11 32
REMARK Flexibility Score: 80.00
ROOT
ATOM      1  C   UNL     1      62.358  33.195  60.434  1.00  0.00     0.035 C 
ENDROOT
BRANCH   1   2
ATOM      2  C   UNL     1      62.282  31.653  60.599  1.00  0.00     0.171 C 
BRANCH   2   3
ATOM      3  C   UNL     1      61.596  31.003  59.444  1.00  0.00     0.243 C 
ATOM      4  N   UNL     1      60.667  29.915  59.666  1.00  0.00    -0.342 N 
ATOM      5  H   UNL     1      60.151  29.943  60.579  1.00  0.00     0.164 HD
ATOM      6  O   UNL     1      61.940  31.302  58.267  1.00  0.00    -0.273 OA
BRANCH   4   7
ATOM      7  C   UNL     1      60.811  28.636  58.935  1.00  0.00     0.175 C 
BRANCH   7   8
ATOM      8  C   UNL     1      60.747  27.527  59.950  1.00  0.00     0.243 C 
ATOM      9  N   UNL     1      61.721  26.442  59.903  1.00  0.00    -0.342 N 
ATOM     10  H   UNL     1      62.147  26.242  58.985  1.00  0.00     0.164 HD
ATOM     11  O   UNL     1      59.716  27.417  60.667  1.00  0.00    -0.273 OA
BRANCH   9  12
ATOM     12  C   UNL     1      62.564  25.991  60.981  1.00  0.00     0.174 CG0
ATOM     13  G   UNL     1      64.032  26.179  60.677  1.00  0.00     0.000 G0
BRANCH  12  14
ATOM     14  C   UNL     1      62.155  24.616  61.574  1.00  0.00     0.018 C 
ATOM     15  C   UNL     1      61.214  23.805  60.643  1.00  0.00     0.010 C 
BRANCH  14  16
ATOM     16  C   UNL     1      61.637  24.585  63.036  1.00  0.00     0.002 C 
ATOM     17  C   UNL     1      60.134  24.216  63.176  1.00  0.00     0.004 C 
ENDBRANCH  14  16
ENDBRANCH  12  14
ENDBRANCH   9  12
ENDBRANCH   7   8
BRANCH   7  18
ATOM     18  C   UNL     1      59.708  28.441  57.864  1.00  0.00     0.073 C 
BRANCH  18  19
ATOM     19  C   UNL     1      58.557  29.426  58.011  1.00  0.00    -0.016 A 
ATOM     20  C   UNL     1      58.464  30.712  57.481  1.00  0.00     0.134 A 
ATOM     21  C   UNL     1      57.309  29.181  58.511  1.00  0.00     0.006 A 
ATOM     22  N   UNL     1      57.240  31.235  57.680  1.00  0.00    -0.191 N 
ATOM     23  C   UNL     1      56.524  30.279  58.301  1.00  0.00     0.087 A 
ATOM     24  C   UNL     1      56.773  28.021  59.087  1.00  0.00     0.011 A 
ATOM     25  C   UNL     1      55.193  30.328  58.676  1.00  0.00     0.030 A 
ATOM     26  C   UNL     1      55.420  28.042  59.481  1.00  0.00     0.001 A 
ATOM     27  C   UNL     1      54.644  29.185  59.291  1.00  0.00     0.002 A 
BRANCH  22  28
ATOM     28  O   UNL     1      56.779  32.438  57.172  1.00  0.00    -0.417 OA
ATOM     29  C   UNL     1      56.145  32.505  55.903  1.00  0.00     0.313 C 
ENDBRANCH  22  28
ENDBRANCH  18  19
ENDBRANCH   7  18
ENDBRANCH   4   7
ENDBRANCH   2   3
BRANCH   2  30
ATOM     30  N   UNL     1      63.621  31.034  60.752  1.00  0.00    -0.343 N 
ATOM     31  C   UNL     1      63.764  29.701  61.261  1.00  0.00     0.243 C 
ATOM     32  H   UNL     1      64.365  31.308  60.060  1.00  0.00     0.164 HD
ATOM     33  O   UNL     1      62.871  29.268  62.059  1.00  0.00    -0.273 OA
BRANCH  31  34
ATOM     34  C   UNL     1      64.883  28.737  60.814  1.00  0.00     0.174 C 
ATOM     35  N   UNL     1      64.550  27.443  60.094  1.00  0.00    -0.329 N 
ATOM     36  C   UNL     1      65.813  29.610  59.931  1.00  0.00     0.035 C 
ATOM     37  C   UNL     1      65.391  27.122  58.916  1.00  0.00     0.120 C 
ATOM     38  C   UNL     1      67.108  28.854  59.544  1.00  0.00     0.004 C 
ATOM     39  C   UNL     1      66.837  27.364  59.334  1.00  0.00     0.022 C 
BRANCH  35  40
ATOM     40  C   UNL     1      64.039  26.186  60.672  1.00  0.00     0.246 CG0
ATOM     41  O   UNL     1      64.753  25.111  60.635  1.00  0.00    -0.272 OA
ATOM     42  G   UNL     1      62.571  26.002  60.976  1.00  0.00     0.000 G0
ENDBRANCH  35  40
ENDBRANCH  31  34
ENDBRANCH   2  30
ENDBRANCH   1   2
BRANCH   1  43
ATOM     43  C   UNL     1      63.832  33.686  60.209  1.00  0.00     0.003 C 
BRANCH  43  44
ATOM     44  C   UNL     1      64.013  35.113  59.674  1.00  0.00     0.001 C 
BRANCH  44  45
ATOM     45  C   UNL     1      64.845  35.233  58.392  1.00  0.00     0.008 C 
BRANCH  45  46
ATOM     46  C   UNL     1      66.056  34.305  58.316  1.00  0.00     0.075 C 
BRANCH  46  47
ATOM     47  C   UNL     1      65.823  33.101  57.396  1.00  0.00     0.132 C 
ATOM     48  O   UNL     1      66.595  32.146  57.516  1.00  0.00    -0.300 OA
BRANCH  47  49
ATOM     49  C   UNL     1      64.672  33.012  56.455  1.00  0.00     0.072 C 
ATOM     50  C   UNL     1      65.110  32.625  55.059  1.00  0.00     0.012 C 
ENDBRANCH  47  49
ENDBRANCH  46  47
ENDBRANCH  45  46
ENDBRANCH  44  45
ENDBRANCH  43  44
ENDBRANCH   1  43
TORSDOF 12
ENDMDL
