MODEL 1
REMARK VINA RESULT:    -3.563      0.000      0.000
REMARK INTER + INTRA:          -4.703
REMARK INTER:                  -4.917
REMARK INTRA:                   0.214
REMARK UNBOUND:                 0.214
REMARK SMILES CC[C@H](CC[C@H](C)[C@@H]1CC[C@@H]2[C@H]3CC=C4C[C@H](O)CC[C@@]4(C)[C@H]3CC[C@@]21C)C(C)C
REMARK SMILES IDX 5 1 4 2 3 3 2 4 1 5 28 6 29 7 30 8 6 9 7 10 8 11 9 12 26 13
REMARK SMILES IDX 10 14 11 15 25 16 27 17 12 18 24 19 23 20 13 21 21 22 14 23
REMARK SMILES IDX 15 24 20 25 22 26 16 27 19 28 17 29 18 30
REMARK H PARENT 18 31
REMARK Flexibility Score: inf
ROOT
ATOM      1  C   UNL     1      28.218  32.350  23.955  1.00  0.00     0.004 C 
ENDROOT
BRANCH   1   2
ATOM      2  C   UNL     1      29.115  31.106  23.815  1.00  0.00     0.004 C 
BRANCH   2   3
ATOM      3  C   UNL     1      28.831  30.029  24.896  1.00  0.00    -0.009 C 
BRANCH   3   4
ATOM      4  C   UNL     1      28.600  30.671  26.301  1.00  0.00     0.000 C 
ATOM      5  C   UNL     1      28.895  29.691  27.438  1.00  0.00     0.004 C 
ENDBRANCH   3   4
BRANCH   3   6
ATOM      6  C   UNL     1      27.667  29.089  24.447  1.00  0.00    -0.014 C 
ATOM      7  C   UNL     1      27.938  27.621  24.819  1.00  0.00     0.007 C 
ATOM      8  C   UNL     1      26.282  29.529  24.955  1.00  0.00     0.007 C 
ENDBRANCH   3   6
ENDBRANCH   2   3
ENDBRANCH   1   2
BRANCH   1   9
ATOM      9  C   UNL     1      28.783  33.581  23.170  1.00  0.00    -0.011 C 
ATOM     10  C   UNL     1      29.019  34.735  24.162  1.00  0.00     0.008 C 
BRANCH   9  11
ATOM     11  C   UNL     1      27.834  33.978  21.979  1.00  0.00    -0.002 C 
ATOM     12  C   UNL     1      28.426  33.542  20.622  1.00  0.00     0.005 C 
ATOM     13  C   UNL     1      27.449  35.484  21.778  1.00  0.00    -0.026 C 
ATOM     14  C   UNL     1      27.983  34.555  19.576  1.00  0.00     0.005 C 
ATOM     15  C   UNL     1      27.030  35.516  20.286  1.00  0.00    -0.001 C 
ATOM     16  C   UNL     1      28.665  36.421  22.009  1.00  0.00     0.007 C 
ATOM     17  C   UNL     1      26.251  35.890  22.675  1.00  0.00     0.012 C 
ATOM     18  C   UNL     1      26.978  36.916  19.596  1.00  0.00     0.000 C 
ATOM     19  C   UNL     1      28.454  37.838  21.473  1.00  0.00     0.005 C 
ATOM     20  C   UNL     1      28.181  37.850  19.949  1.00  0.00     0.003 C 
ATOM     21  C   UNL     1      25.577  37.595  19.736  1.00  0.00     0.031 C 
ATOM     22  C   UNL     1      27.949  39.296  19.358  1.00  0.00    -0.008 C 
ATOM     23  C   UNL     1      25.598  39.048  20.141  1.00  0.00    -0.027 C 
ATOM     24  C   UNL     1      26.653  39.856  19.926  1.00  0.00    -0.065 C 
ATOM     25  C   UNL     1      29.124  40.260  19.715  1.00  0.00     0.014 C 
ATOM     26  C   UNL     1      27.840  39.213  17.809  1.00  0.00     0.016 C 
ATOM     27  C   UNL     1      26.610  41.286  20.425  1.00  0.00     0.063 C 
ATOM     28  C   UNL     1      28.880  41.723  19.285  1.00  0.00     0.033 C 
ATOM     29  C   UNL     1      27.428  42.220  19.516  1.00  0.00     0.118 C 
BRANCH  29  30
ATOM     30  O   UNL     1      26.782  42.368  18.277  1.00  0.00    -0.393 OA
ATOM     31  H   UNL     1      26.456  43.306  18.228  1.00  0.00     0.210 HD
ENDBRANCH  29  30
ENDBRANCH   9  11
ENDBRANCH   1   9
TORSDOF 7
ENDMDL
