MODEL 1
REMARK VINA RESULT:    -5.420      0.000      0.000
REMARK INTER + INTRA:          -9.529
REMARK INTER:                  -7.480
REMARK INTRA:                  -2.049
REMARK UNBOUND:                -2.049
REMARK SMILES CC[C@@H](CC[C@@H](C)[C@@H]1CC[C@H]2[C@H]3CC=C4C[C@@H](O)CC[C@]4(C)[C@H]3CC[C@]21C)C(C)C
REMARK SMILES IDX 5 1 4 2 3 3 2 4 1 5 28 6 29 7 30 8 6 9 7 10 8 11 9 12 26 13
REMARK SMILES IDX 10 14 11 15 25 16 27 17 12 18 24 19 23 20 13 21 21 22 14 23
REMARK SMILES IDX 15 24 20 25 22 26 16 27 19 28 17 29 18 30
REMARK H PARENT 18 31
REMARK Flexibility Score: inf
ROOT
ATOM      1  C   UNL     1      22.894 -14.868  41.170  1.00  0.00     0.004 C 
ENDROOT
BRANCH   1   2
ATOM      2  C   UNL     1      23.312 -14.168  42.480  1.00  0.00     0.004 C 
BRANCH   2   3
ATOM      3  C   UNL     1      22.196 -14.137  43.562  1.00  0.00    -0.009 C 
BRANCH   3   4
ATOM      4  C   UNL     1      21.998 -12.687  44.088  1.00  0.00     0.000 C 
ATOM      5  C   UNL     1      20.894 -11.926  43.352  1.00  0.00     0.004 C 
ENDBRANCH   3   4
BRANCH   3   6
ATOM      6  C   UNL     1      22.442 -15.160  44.724  1.00  0.00    -0.014 C 
ATOM      7  C   UNL     1      21.224 -15.297  45.654  1.00  0.00     0.007 C 
ATOM      8  C   UNL     1      23.706 -14.864  45.547  1.00  0.00     0.007 C 
ENDBRANCH   3   6
ENDBRANCH   2   3
ENDBRANCH   1   2
BRANCH   1   9
ATOM      9  C   UNL     1      21.677 -14.199  40.476  1.00  0.00    -0.011 C 
ATOM     10  C   UNL     1      22.150 -13.361  39.267  1.00  0.00     0.008 C 
BRANCH   9  11
ATOM     11  C   UNL     1      20.584 -15.279  40.139  1.00  0.00    -0.002 C 
ATOM     12  C   UNL     1      20.287 -15.522  38.651  1.00  0.00     0.005 C 
ATOM     13  C   UNL     1      19.202 -15.144  40.842  1.00  0.00    -0.026 C 
ATOM     14  C   UNL     1      18.844 -16.029  38.567  1.00  0.00     0.005 C 
ATOM     15  C   UNL     1      18.288 -16.079  40.001  1.00  0.00    -0.001 C 
ATOM     16  C   UNL     1      19.255 -15.571  42.339  1.00  0.00     0.007 C 
ATOM     17  C   UNL     1      18.640 -13.699  40.754  1.00  0.00     0.012 C 
ATOM     18  C   UNL     1      18.104 -17.525  40.577  1.00  0.00     0.000 C 
ATOM     19  C   UNL     1      17.922 -16.179  42.800  1.00  0.00     0.005 C 
ATOM     20  C   UNL     1      17.596 -17.514  42.068  1.00  0.00     0.003 C 
ATOM     21  C   UNL     1      19.289 -18.496  40.392  1.00  0.00     0.031 C 
ATOM     22  C   UNL     1      17.937 -18.825  42.913  1.00  0.00    -0.008 C 
ATOM     23  C   UNL     1      18.846 -19.862  40.832  1.00  0.00    -0.027 C 
ATOM     24  C   UNL     1      18.110 -20.023  41.953  1.00  0.00    -0.065 C 
ATOM     25  C   UNL     1      16.799 -19.051  43.971  1.00  0.00     0.014 C 
ATOM     26  C   UNL     1      19.269 -18.717  43.715  1.00  0.00     0.016 C 
ATOM     27  C   UNL     1      17.429 -21.369  42.136  1.00  0.00     0.063 C 
ATOM     28  C   UNL     1      15.751 -20.074  43.538  1.00  0.00     0.033 C 
ATOM     29  C   UNL     1      16.403 -21.435  43.282  1.00  0.00     0.118 C 
BRANCH  29  30
ATOM     30  O   UNL     1      16.961 -21.970  44.459  1.00  0.00    -0.393 OA
ATOM     31  H   UNL     1      16.238 -22.406  44.979  1.00  0.00     0.210 HD
ENDBRANCH  29  30
ENDBRANCH   9  11
ENDBRANCH   1   9
TORSDOF 7
ENDMDL
MODEL 2
REMARK VINA RESULT:    -5.142      3.117      8.169
REMARK INTER + INTRA:          -9.145
REMARK INTER:                  -6.574
REMARK INTRA:                  -2.572
REMARK UNBOUND:                -2.049
REMARK SMILES CC[C@@H](CC[C@@H](C)[C@@H]1CC[C@H]2[C@H]3CC=C4C[C@@H](O)CC[C@]4(C)[C@H]3CC[C@]21C)C(C)C
REMARK SMILES IDX 5 1 4 2 3 3 2 4 1 5 28 6 29 7 30 8 6 9 7 10 8 11 9 12 26 13
REMARK SMILES IDX 10 14 11 15 25 16 27 17 12 18 24 19 23 20 13 21 21 22 14 23
REMARK SMILES IDX 15 24 20 25 22 26 16 27 19 28 17 29 18 30
REMARK H PARENT 18 31
REMARK Flexibility Score: inf
ROOT
ATOM      1  C   UNL     1      12.289 -20.731  41.150  1.00  0.00     0.004 C 
ENDROOT
BRANCH   1   2
ATOM      2  C   UNL     1      13.358 -20.259  40.143  1.00  0.00     0.004 C 
BRANCH   2   3
ATOM      3  C   UNL     1      13.847 -18.802  40.381  1.00  0.00    -0.009 C 
BRANCH   3   4
ATOM      4  C   UNL     1      12.822 -18.028  41.259  1.00  0.00     0.000 C 
ATOM      5  C   UNL     1      13.179 -16.552  41.441  1.00  0.00     0.004 C 
ENDBRANCH   3   4
BRANCH   3   6
ATOM      6  C   UNL     1      14.179 -18.042  39.051  1.00  0.00    -0.014 C 
ATOM      7  C   UNL     1      13.516 -18.690  37.823  1.00  0.00     0.007 C 
ATOM      8  C   UNL     1      15.685 -17.859  38.806  1.00  0.00     0.007 C 
ENDBRANCH   3   6
ENDBRANCH   2   3
ENDBRANCH   1   2
BRANCH   1   9
ATOM      9  C   UNL     1      12.839 -21.720  42.212  1.00  0.00    -0.011 C 
ATOM     10  C   UNL     1      12.234 -23.125  41.993  1.00  0.00     0.008 C 
BRANCH   9  11
ATOM     11  C   UNL     1      14.412 -21.679  42.230  1.00  0.00    -0.002 C 
ATOM     12  C   UNL     1      15.143 -22.957  41.789  1.00  0.00     0.005 C 
ATOM     13  C   UNL     1      15.102 -21.215  43.546  1.00  0.00    -0.026 C 
ATOM     14  C   UNL     1      16.504 -22.950  42.491  1.00  0.00     0.005 C 
ATOM     15  C   UNL     1      16.574 -21.675  43.350  1.00  0.00    -0.001 C 
ATOM     16  C   UNL     1      14.994 -19.677  43.760  1.00  0.00     0.007 C 
ATOM     17  C   UNL     1      14.523 -21.937  44.794  1.00  0.00     0.012 C 
ATOM     18  C   UNL     1      17.548 -20.576  42.805  1.00  0.00     0.000 C 
ATOM     19  C   UNL     1      16.216 -19.124  44.509  1.00  0.00     0.005 C 
ATOM     20  C   UNL     1      17.529 -19.270  43.686  1.00  0.00     0.003 C 
ATOM     21  C   UNL     1      17.440 -20.243  41.302  1.00  0.00     0.031 C 
ATOM     22  C   UNL     1      17.984 -17.936  42.937  1.00  0.00    -0.008 C 
ATOM     23  C   UNL     1      18.570 -19.322  40.944  1.00  0.00    -0.027 C 
ATOM     24  C   UNL     1      18.916 -18.303  41.759  1.00  0.00    -0.065 C 
ATOM     25  C   UNL     1      18.668 -16.982  43.980  1.00  0.00     0.014 C 
ATOM     26  C   UNL     1      16.799 -17.137  42.317  1.00  0.00     0.016 C 
ATOM     27  C   UNL     1      20.260 -17.644  41.498  1.00  0.00     0.063 C 
ATOM     28  C   UNL     1      20.193 -17.046  43.967  1.00  0.00     0.033 C 
ATOM     29  C   UNL     1      20.735 -16.665  42.588  1.00  0.00     0.118 C 
BRANCH  29  30
ATOM     30  O   UNL     1      20.430 -15.328  42.264  1.00  0.00    -0.393 OA
ATOM     31  H   UNL     1      20.621 -15.187  41.302  1.00  0.00     0.210 HD
ENDBRANCH  29  30
ENDBRANCH   9  11
ENDBRANCH   1   9
TORSDOF 7
ENDMDL
MODEL 3
REMARK VINA RESULT:    -5.122      6.642     11.464
REMARK INTER + INTRA:          -9.118
REMARK INTER:                  -7.166
REMARK INTRA:                  -1.952
REMARK UNBOUND:                -2.049
REMARK SMILES CC[C@@H](CC[C@@H](C)[C@@H]1CC[C@H]2[C@H]3CC=C4C[C@@H](O)CC[C@]4(C)[C@H]3CC[C@]21C)C(C)C
REMARK SMILES IDX 5 1 4 2 3 3 2 4 1 5 28 6 29 7 30 8 6 9 7 10 8 11 9 12 26 13
REMARK SMILES IDX 10 14 11 15 25 16 27 17 12 18 24 19 23 20 13 21 21 22 14 23
REMARK SMILES IDX 15 24 20 25 22 26 16 27 19 28 17 29 18 30
REMARK H PARENT 18 31
REMARK Flexibility Score: inf
ROOT
ATOM      1  C   UNL     1       8.162 -19.010  41.141  1.00  0.00     0.004 C 
ENDROOT
BRANCH   1   2
ATOM      2  C   UNL     1       7.541 -19.756  42.339  1.00  0.00     0.004 C 
BRANCH   2   3
ATOM      3  C   UNL     1       6.365 -20.699  41.953  1.00  0.00    -0.009 C 
BRANCH   3   4
ATOM      4  C   UNL     1       5.045 -20.208  42.614  1.00  0.00     0.000 C 
ATOM      5  C   UNL     1       5.275 -19.187  43.730  1.00  0.00     0.004 C 
ENDBRANCH   3   4
BRANCH   3   6
ATOM      6  C   UNL     1       6.660 -22.206  42.268  1.00  0.00    -0.014 C 
ATOM      7  C   UNL     1       7.987 -22.400  43.021  1.00  0.00     0.007 C 
ATOM      8  C   UNL     1       6.616 -23.113  41.028  1.00  0.00     0.007 C 
ENDBRANCH   3   6
ENDBRANCH   2   3
ENDBRANCH   1   2
BRANCH   1   9
ATOM      9  C   UNL     1       8.343 -19.905  39.885  1.00  0.00    -0.011 C 
ATOM     10  C   UNL     1       7.460 -19.382  38.729  1.00  0.00     0.008 C 
BRANCH   9  11
ATOM     11  C   UNL     1       9.870 -20.043  39.533  1.00  0.00    -0.002 C 
ATOM     12  C   UNL     1      10.322 -19.479  38.176  1.00  0.00     0.005 C 
ATOM     13  C   UNL     1      10.507 -21.459  39.649  1.00  0.00    -0.026 C 
ATOM     14  C   UNL     1      11.564 -20.273  37.761  1.00  0.00     0.005 C 
ATOM     15  C   UNL     1      11.841 -21.307  38.866  1.00  0.00    -0.001 C 
ATOM     16  C   UNL     1      10.743 -21.881  41.129  1.00  0.00     0.007 C 
ATOM     17  C   UNL     1       9.647 -22.545  38.949  1.00  0.00     0.012 C 
ATOM     18  C   UNL     1      13.099 -20.997  39.746  1.00  0.00     0.000 C 
ATOM     19  C   UNL     1      11.975 -22.789  41.267  1.00  0.00     0.005 C 
ATOM     20  C   UNL     1      13.296 -22.052  40.900  1.00  0.00     0.003 C 
ATOM     21  C   UNL     1      13.232 -19.553  40.274  1.00  0.00     0.031 C 
ATOM     22  C   UNL     1      14.130 -21.536  42.160  1.00  0.00    -0.008 C 
ATOM     23  C   UNL     1      14.579 -19.414  40.922  1.00  0.00    -0.027 C 
ATOM     24  C   UNL     1      15.068 -20.389  41.719  1.00  0.00    -0.065 C 
ATOM     25  C   UNL     1      14.904 -22.751  42.783  1.00  0.00     0.014 C 
ATOM     26  C   UNL     1      13.238 -20.951  43.297  1.00  0.00     0.016 C 
ATOM     27  C   UNL     1      16.549 -20.323  42.050  1.00  0.00     0.063 C 
ATOM     28  C   UNL     1      16.364 -22.840  42.345  1.00  0.00     0.033 C 
ATOM     29  C   UNL     1      17.123 -21.573  42.743  1.00  0.00     0.118 C 
BRANCH  29  30
ATOM     30  O   UNL     1      17.178 -21.422  44.142  1.00  0.00    -0.393 OA
ATOM     31  H   UNL     1      16.303 -21.077  44.455  1.00  0.00     0.210 HD
ENDBRANCH  29  30
ENDBRANCH   9  11
ENDBRANCH   1   9
TORSDOF 7
ENDMDL
MODEL 4
REMARK VINA RESULT:    -5.118     11.816     14.575
REMARK INTER + INTRA:          -9.113
REMARK INTER:                  -6.966
REMARK INTRA:                  -2.146
REMARK UNBOUND:                -2.049
REMARK SMILES CC[C@@H](CC[C@@H](C)[C@@H]1CC[C@H]2[C@H]3CC=C4C[C@@H](O)CC[C@]4(C)[C@H]3CC[C@]21C)C(C)C
REMARK SMILES IDX 5 1 4 2 3 3 2 4 1 5 28 6 29 7 30 8 6 9 7 10 8 11 9 12 26 13
REMARK SMILES IDX 10 14 11 15 25 16 27 17 12 18 24 19 23 20 13 21 21 22 14 23
REMARK SMILES IDX 15 24 20 25 22 26 16 27 19 28 17 29 18 30
REMARK H PARENT 18 31
REMARK Flexibility Score: inf
ROOT
ATOM      1  C   UNL     1       8.891 -10.511  43.860  1.00  0.00     0.004 C 
ENDROOT
BRANCH   1   2
ATOM      2  C   UNL     1       8.110 -11.835  43.745  1.00  0.00     0.004 C 
BRANCH   2   3
ATOM      3  C   UNL     1       6.566 -11.654  43.699  1.00  0.00    -0.009 C 
BRANCH   3   4
ATOM      4  C   UNL     1       5.951 -11.932  45.101  1.00  0.00     0.000 C 
ATOM      5  C   UNL     1       4.889 -13.033  45.084  1.00  0.00     0.004 C 
ENDBRANCH   3   4
BRANCH   3   6
ATOM      6  C   UNL     1       5.882 -12.505  42.574  1.00  0.00    -0.014 C 
ATOM      7  C   UNL     1       6.903 -13.265  41.710  1.00  0.00     0.007 C 
ATOM      8  C   UNL     1       4.931 -11.693  41.681  1.00  0.00     0.007 C 
ENDBRANCH   3   6
ENDBRANCH   2   3
ENDBRANCH   1   2
BRANCH   1   9
ATOM      9  C   UNL     1       8.016  -9.255  43.601  1.00  0.00    -0.011 C 
ATOM     10  C   UNL     1       7.895  -8.417  44.894  1.00  0.00     0.008 C 
BRANCH   9  11
ATOM     11  C   UNL     1       8.559  -8.464  42.354  1.00  0.00    -0.002 C 
ATOM     12  C   UNL     1       8.825  -6.963  42.550  1.00  0.00     0.005 C 
ATOM     13  C   UNL     1       7.765  -8.595  41.021  1.00  0.00    -0.026 C 
ATOM     14  C   UNL     1       8.675  -6.307  41.174  1.00  0.00     0.005 C 
ATOM     15  C   UNL     1       8.313  -7.415  40.170  1.00  0.00    -0.001 C 
ATOM     16  C   UNL     1       7.994  -9.971  40.329  1.00  0.00     0.007 C 
ATOM     17  C   UNL     1       6.240  -8.385  41.227  1.00  0.00     0.012 C 
ATOM     18  C   UNL     1       9.463  -7.791  39.174  1.00  0.00     0.000 C 
ATOM     19  C   UNL     1       7.916  -9.853  38.800  1.00  0.00     0.005 C 
ATOM     20  C   UNL     1       9.060  -8.974  38.216  1.00  0.00     0.003 C 
ATOM     21  C   UNL     1      10.861  -8.013  39.788  1.00  0.00     0.031 C 
ATOM     22  C   UNL     1      10.281  -9.806  37.610  1.00  0.00    -0.008 C 
ATOM     23  C   UNL     1      11.845  -8.170  38.665  1.00  0.00    -0.027 C 
ATOM     24  C   UNL     1      11.543  -8.914  37.579  1.00  0.00    -0.065 C 
ATOM     25  C   UNL     1       9.874 -10.335  36.190  1.00  0.00     0.014 C 
ATOM     26  C   UNL     1      10.658 -11.059  38.457  1.00  0.00     0.016 C 
ATOM     27  C   UNL     1      12.438  -8.744  36.363  1.00  0.00     0.063 C 
ATOM     28  C   UNL     1      10.396  -9.477  35.040  1.00  0.00     0.033 C 
ATOM     29  C   UNL     1      11.924  -9.407  35.072  1.00  0.00     0.118 C 
BRANCH  29  30
ATOM     30  O   UNL     1      12.503 -10.674  34.863  1.00  0.00    -0.393 OA
ATOM     31  H   UNL     1      13.486 -10.563  34.800  1.00  0.00     0.210 HD
ENDBRANCH  29  30
ENDBRANCH   9  11
ENDBRANCH   1   9
TORSDOF 7
ENDMDL
MODEL 5
REMARK VINA RESULT:    -5.099      4.485      8.385
REMARK INTER + INTRA:          -9.086
REMARK INTER:                  -7.056
REMARK INTRA:                  -2.029
REMARK UNBOUND:                -2.049
REMARK SMILES CC[C@@H](CC[C@@H](C)[C@@H]1CC[C@H]2[C@H]3CC=C4C[C@@H](O)CC[C@]4(C)[C@H]3CC[C@]21C)C(C)C
REMARK SMILES IDX 5 1 4 2 3 3 2 4 1 5 28 6 29 7 30 8 6 9 7 10 8 11 9 12 26 13
REMARK SMILES IDX 10 14 11 15 25 16 27 17 12 18 24 19 23 20 13 21 21 22 14 23
REMARK SMILES IDX 15 24 20 25 22 26 16 27 19 28 17 29 18 30
REMARK H PARENT 18 31
REMARK Flexibility Score: inf
ROOT
ATOM      1  C   UNL     1      15.879 -18.528  44.072  1.00  0.00     0.004 C 
ENDROOT
BRANCH   1   2
ATOM      2  C   UNL     1      16.491 -17.909  42.799  1.00  0.00     0.004 C 
BRANCH   2   3
ATOM      3  C   UNL     1      17.867 -18.515  42.402  1.00  0.00    -0.009 C 
BRANCH   3   4
ATOM      4  C   UNL     1      19.006 -17.494  42.689  1.00  0.00     0.000 C 
ATOM      5  C   UNL     1      20.178 -18.103  43.461  1.00  0.00     0.004 C 
ENDBRANCH   3   4
BRANCH   3   6
ATOM      6  C   UNL     1      17.903 -19.042  40.926  1.00  0.00    -0.014 C 
ATOM      7  C   UNL     1      18.771 -20.302  40.773  1.00  0.00     0.007 C 
ATOM      8  C   UNL     1      18.328 -17.977  39.904  1.00  0.00     0.007 C 
ENDBRANCH   3   6
ENDBRANCH   2   3
ENDBRANCH   1   2
BRANCH   1   9
ATOM      9  C   UNL     1      16.310 -20.000  44.309  1.00  0.00    -0.011 C 
ATOM     10  C   UNL     1      17.046 -20.126  45.662  1.00  0.00     0.008 C 
BRANCH   9  11
ATOM     11  C   UNL     1      15.075 -20.961  44.142  1.00  0.00    -0.002 C 
ATOM     12  C   UNL     1      14.771 -21.908  45.313  1.00  0.00     0.005 C 
ATOM     13  C   UNL     1      15.014 -21.831  42.852  1.00  0.00    -0.026 C 
ATOM     14  C   UNL     1      14.055 -23.125  44.721  1.00  0.00     0.005 C 
ATOM     15  C   UNL     1      13.943 -22.901  43.203  1.00  0.00    -0.001 C 
ATOM     16  C   UNL     1      14.620 -21.000  41.596  1.00  0.00     0.007 C 
ATOM     17  C   UNL     1      16.359 -22.556  42.572  1.00  0.00     0.012 C 
ATOM     18  C   UNL     1      12.494 -22.584  42.698  1.00  0.00     0.000 C 
ATOM     19  C   UNL     1      13.828 -21.844  40.586  1.00  0.00     0.005 C 
ATOM     20  C   UNL     1      12.450 -22.299  41.149  1.00  0.00     0.003 C 
ATOM     21  C   UNL     1      11.706 -21.519  43.489  1.00  0.00     0.031 C 
ATOM     22  C   UNL     1      11.216 -21.417  40.653  1.00  0.00    -0.008 C 
ATOM     23  C   UNL     1      10.296 -21.502  42.973  1.00  0.00    -0.027 C 
ATOM     24  C   UNL     1      10.043 -21.571  41.648  1.00  0.00    -0.065 C 
ATOM     25  C   UNL     1      10.838 -21.855  39.194  1.00  0.00     0.014 C 
ATOM     26  C   UNL     1      11.530 -19.892  40.589  1.00  0.00     0.016 C 
ATOM     27  C   UNL     1       8.614 -21.887  41.241  1.00  0.00     0.063 C 
ATOM     28  C   UNL     1       9.665 -22.830  39.128  1.00  0.00     0.033 C 
ATOM     29  C   UNL     1       8.412 -22.207  39.748  1.00  0.00     0.118 C 
BRANCH  29  30
ATOM     30  O   UNL     1       7.982 -21.081  39.020  1.00  0.00    -0.393 OA
ATOM     31  H   UNL     1       7.003 -21.152  38.882  1.00  0.00     0.210 HD
ENDBRANCH  29  30
ENDBRANCH   9  11
ENDBRANCH   1   9
TORSDOF 7
ENDMDL
MODEL 6
REMARK VINA RESULT:    -5.073      8.344     11.931
REMARK INTER + INTRA:          -9.051
REMARK INTER:                  -6.900
REMARK INTRA:                  -2.151
REMARK UNBOUND:                -2.049
REMARK SMILES CC[C@@H](CC[C@@H](C)[C@@H]1CC[C@H]2[C@H]3CC=C4C[C@@H](O)CC[C@]4(C)[C@H]3CC[C@]21C)C(C)C
REMARK SMILES IDX 5 1 4 2 3 3 2 4 1 5 28 6 29 7 30 8 6 9 7 10 8 11 9 12 26 13
REMARK SMILES IDX 10 14 11 15 25 16 27 17 12 18 24 19 23 20 13 21 21 22 14 23
REMARK SMILES IDX 15 24 20 25 22 26 16 27 19 28 17 29 18 30
REMARK H PARENT 18 31
REMARK Flexibility Score: inf
ROOT
ATOM      1  C   UNL     1      22.264 -13.189  29.404  1.00  0.00     0.004 C 
ENDROOT
BRANCH   1   2
ATOM      2  C   UNL     1      21.636 -13.133  27.997  1.00  0.00     0.004 C 
BRANCH   2   3
ATOM      3  C   UNL     1      21.803 -14.447  27.180  1.00  0.00    -0.009 C 
BRANCH   3   4
ATOM      4  C   UNL     1      22.602 -14.169  25.875  1.00  0.00     0.000 C 
ATOM      5  C   UNL     1      23.567 -12.989  26.001  1.00  0.00     0.004 C 
ENDBRANCH   3   4
BRANCH   3   6
ATOM      6  C   UNL     1      20.440 -15.169  26.897  1.00  0.00    -0.014 C 
ATOM      7  C   UNL     1      19.282 -14.584  27.724  1.00  0.00     0.007 C 
ATOM      8  C   UNL     1      20.504 -16.694  27.078  1.00  0.00     0.007 C 
ENDBRANCH   3   6
ENDBRANCH   2   3
ENDBRANCH   1   2
BRANCH   1   9
ATOM      9  C   UNL     1      23.154 -14.440  29.632  1.00  0.00    -0.011 C 
ATOM     10  C   UNL     1      24.641 -14.081  29.413  1.00  0.00     0.008 C 
BRANCH   9  11
ATOM     11  C   UNL     1      22.834 -15.086  31.031  1.00  0.00    -0.002 C 
ATOM     12  C   UNL     1      24.034 -15.401  31.939  1.00  0.00     0.005 C 
ATOM     13  C   UNL     1      21.934 -16.356  31.044  1.00  0.00    -0.026 C 
ATOM     14  C   UNL     1      23.607 -16.559  32.846  1.00  0.00     0.005 C 
ATOM     15  C   UNL     1      22.162 -16.932  32.470  1.00  0.00    -0.001 C 
ATOM     16  C   UNL     1      20.435 -16.021  30.783  1.00  0.00     0.007 C 
ATOM     17  C   UNL     1      22.399 -17.413  30.007  1.00  0.00     0.012 C 
ATOM     18  C   UNL     1      21.088 -16.524  33.534  1.00  0.00     0.000 C 
ATOM     19  C   UNL     1      19.503 -16.994  31.521  1.00  0.00     0.005 C 
ATOM     20  C   UNL     1      19.623 -16.870  33.067  1.00  0.00     0.003 C 
ATOM     21  C   UNL     1      21.178 -15.086  34.088  1.00  0.00     0.031 C 
ATOM     22  C   UNL     1      18.468 -16.002  33.747  1.00  0.00    -0.008 C 
ATOM     23  C   UNL     1      20.196 -14.958  35.217  1.00  0.00    -0.027 C 
ATOM     24  C   UNL     1      18.956 -15.485  35.119  1.00  0.00    -0.065 C 
ATOM     25  C   UNL     1      17.173 -16.882  33.853  1.00  0.00     0.014 C 
ATOM     26  C   UNL     1      18.077 -14.738  32.923  1.00  0.00     0.016 C 
ATOM     27  C   UNL     1      18.162 -15.607  36.408  1.00  0.00     0.063 C 
ATOM     28  C   UNL     1      16.970 -17.515  35.227  1.00  0.00     0.033 C 
ATOM     29  C   UNL     1      16.867 -16.435  36.306  1.00  0.00     0.118 C 
BRANCH  29  30
ATOM     30  O   UNL     1      15.734 -15.621  36.116  1.00  0.00    -0.393 OA
ATOM     31  H   UNL     1      15.894 -15.039  35.329  1.00  0.00     0.210 HD
ENDBRANCH  29  30
ENDBRANCH   9  11
ENDBRANCH   1   9
TORSDOF 7
ENDMDL
MODEL 7
REMARK VINA RESULT:    -5.024      3.836      7.779
REMARK INTER + INTRA:          -8.982
REMARK INTER:                  -7.031
REMARK INTRA:                  -1.952
REMARK UNBOUND:                -2.049
REMARK SMILES CC[C@@H](CC[C@@H](C)[C@@H]1CC[C@H]2[C@H]3CC=C4C[C@@H](O)CC[C@]4(C)[C@H]3CC[C@]21C)C(C)C
REMARK SMILES IDX 5 1 4 2 3 3 2 4 1 5 28 6 29 7 30 8 6 9 7 10 8 11 9 12 26 13
REMARK SMILES IDX 10 14 11 15 25 16 27 17 12 18 24 19 23 20 13 21 21 22 14 23
REMARK SMILES IDX 15 24 20 25 22 26 16 27 19 28 17 29 18 30
REMARK H PARENT 18 31
REMARK Flexibility Score: inf
ROOT
ATOM      1  C   UNL     1      17.973 -20.246  41.236  1.00  0.00     0.004 C 
ENDROOT
BRANCH   1   2
ATOM      2  C   UNL     1      18.487 -18.984  40.514  1.00  0.00     0.004 C 
BRANCH   2   3
ATOM      3  C   UNL     1      17.396 -18.240  39.692  1.00  0.00    -0.009 C 
BRANCH   3   4
ATOM      4  C   UNL     1      17.875 -16.800  39.345  1.00  0.00     0.000 C 
ATOM      5  C   UNL     1      19.373 -16.594  39.575  1.00  0.00     0.004 C 
ENDBRANCH   3   4
BRANCH   3   6
ATOM      6  C   UNL     1      15.993 -18.245  40.390  1.00  0.00    -0.014 C 
ATOM      7  C   UNL     1      14.835 -18.153  39.381  1.00  0.00     0.007 C 
ATOM      8  C   UNL     1      15.840 -17.164  41.472  1.00  0.00     0.007 C 
ENDBRANCH   3   6
ENDBRANCH   2   3
ENDBRANCH   1   2
BRANCH   1   9
ATOM      9  C   UNL     1      17.993 -20.121  42.783  1.00  0.00    -0.011 C 
ATOM     10  C   UNL     1      18.735 -18.832  43.201  1.00  0.00     0.008 C 
BRANCH   9  11
ATOM     11  C   UNL     1      16.534 -20.255  43.357  1.00  0.00    -0.002 C 
ATOM     12  C   UNL     1      16.298 -19.719  44.778  1.00  0.00     0.005 C 
ATOM     13  C   UNL     1      15.871 -21.662  43.308  1.00  0.00    -0.026 C 
ATOM     14  C   UNL     1      15.123 -20.511  45.358  1.00  0.00     0.005 C 
ATOM     15  C   UNL     1      14.671 -21.518  44.285  1.00  0.00    -0.001 C 
ATOM     16  C   UNL     1      15.411 -22.048  41.871  1.00  0.00     0.007 C 
ATOM     17  C   UNL     1      16.814 -22.772  43.847  1.00  0.00     0.012 C 
ATOM     18  C   UNL     1      13.299 -21.177  43.611  1.00  0.00     0.000 C 
ATOM     19  C   UNL     1      14.161 -22.942  41.900  1.00  0.00     0.005 C 
ATOM     20  C   UNL     1      12.919 -22.203  42.477  1.00  0.00     0.003 C 
ATOM     21  C   UNL     1      13.105 -19.720  43.140  1.00  0.00     0.031 C 
ATOM     22  C   UNL     1      11.912 -21.651  41.368  1.00  0.00    -0.008 C 
ATOM     23  C   UNL     1      11.678 -19.555  42.705  1.00  0.00    -0.027 C 
ATOM     24  C   UNL     1      11.064 -20.507  41.970  1.00  0.00    -0.065 C 
ATOM     25  C   UNL     1      11.039 -22.845  40.843  1.00  0.00     0.014 C 
ATOM     26  C   UNL     1      12.630 -21.048  40.124  1.00  0.00     0.016 C 
ATOM     27  C   UNL     1       9.551 -20.421  41.866  1.00  0.00     0.063 C 
ATOM     28  C   UNL     1       9.660 -22.933  41.493  1.00  0.00     0.033 C 
ATOM     29  C   UNL     1       8.864 -21.650  41.241  1.00  0.00     0.118 C 
BRANCH  29  30
ATOM     30  O   UNL     1       8.602 -21.467  39.869  1.00  0.00    -0.393 OA
ATOM     31  H   UNL     1       7.620 -21.488  39.733  1.00  0.00     0.210 HD
ENDBRANCH  29  30
ENDBRANCH   9  11
ENDBRANCH   1   9
TORSDOF 7
ENDMDL
MODEL 8
REMARK VINA RESULT:    -4.151      1.694      4.621
REMARK INTER + INTRA:          -7.778
REMARK INTER:                  -5.675
REMARK INTRA:                  -2.103
REMARK UNBOUND:                -2.049
REMARK SMILES CC[C@@H](CC[C@@H](C)[C@@H]1CC[C@H]2[C@H]3CC=C4C[C@@H](O)CC[C@]4(C)[C@H]3CC[C@]21C)C(C)C
REMARK SMILES IDX 5 1 4 2 3 3 2 4 1 5 28 6 29 7 30 8 6 9 7 10 8 11 9 12 26 13
REMARK SMILES IDX 10 14 11 15 25 16 27 17 12 18 24 19 23 20 13 21 21 22 14 23
REMARK SMILES IDX 15 24 20 25 22 26 16 27 19 28 17 29 18 30
REMARK H PARENT 18 31
REMARK Flexibility Score: inf
ROOT
ATOM      1  C   UNL     1      22.971 -12.157  41.633  1.00  0.00     0.004 C 
ENDROOT
BRANCH   1   2
ATOM      2  C   UNL     1      23.223 -12.584  40.173  1.00  0.00     0.004 C 
BRANCH   2   3
ATOM      3  C   UNL     1      22.725 -14.019  39.841  1.00  0.00    -0.009 C 
BRANCH   3   4
ATOM      4  C   UNL     1      23.789 -14.774  38.994  1.00  0.00     0.000 C 
ATOM      5  C   UNL     1      25.125 -14.034  38.909  1.00  0.00     0.004 C 
ENDBRANCH   3   4
BRANCH   3   6
ATOM      6  C   UNL     1      21.310 -14.036  39.165  1.00  0.00    -0.014 C 
ATOM      7  C   UNL     1      20.169 -13.899  40.188  1.00  0.00     0.007 C 
ATOM      8  C   UNL     1      21.073 -15.259  38.266  1.00  0.00     0.007 C 
ENDBRANCH   3   6
ENDBRANCH   2   3
ENDBRANCH   1   2
BRANCH   1   9
ATOM      9  C   UNL     1      23.465 -13.198  42.673  1.00  0.00    -0.011 C 
ATOM     10  C   UNL     1      24.510 -12.555  43.612  1.00  0.00     0.008 C 
BRANCH   9  11
ATOM     11  C   UNL     1      22.239 -13.855  43.408  1.00  0.00    -0.002 C 
ATOM     12  C   UNL     1      21.715 -13.134  44.661  1.00  0.00     0.005 C 
ATOM     13  C   UNL     1      22.353 -15.360  43.789  1.00  0.00    -0.026 C 
ATOM     14  C   UNL     1      21.059 -14.201  45.541  1.00  0.00     0.005 C 
ATOM     15  C   UNL     1      21.201 -15.550  44.814  1.00  0.00    -0.001 C 
ATOM     16  C   UNL     1      22.198 -16.296  42.554  1.00  0.00     0.007 C 
ATOM     17  C   UNL     1      23.698 -15.683  44.496  1.00  0.00     0.012 C 
ATOM     18  C   UNL     1      19.865 -16.111  44.218  1.00  0.00     0.000 C 
ATOM     19  C   UNL     1      21.547 -17.634  42.939  1.00  0.00     0.005 C 
ATOM     20  C   UNL     1      20.081 -17.458  43.430  1.00  0.00     0.003 C 
ATOM     21  C   UNL     1      19.000 -15.119  43.412  1.00  0.00     0.031 C 
ATOM     22  C   UNL     1      18.976 -17.786  42.326  1.00  0.00    -0.008 C 
ATOM     23  C   UNL     1      17.693 -15.788  43.097  1.00  0.00    -0.027 C 
ATOM     24  C   UNL     1      17.654 -17.078  42.698  1.00  0.00    -0.065 C 
ATOM     25  C   UNL     1      18.822 -19.345  42.216  1.00  0.00     0.014 C 
ATOM     26  C   UNL     1      19.353 -17.278  40.902  1.00  0.00     0.016 C 
ATOM     27  C   UNL     1      16.298 -17.763  42.730  1.00  0.00     0.063 C 
ATOM     28  C   UNL     1      17.640 -19.903  43.004  1.00  0.00     0.033 C 
ATOM     29  C   UNL     1      16.328 -19.287  42.515  1.00  0.00     0.118 C 
BRANCH  29  30
ATOM     30  O   UNL     1      16.062 -19.636  41.176  1.00  0.00    -0.393 OA
ATOM     31  H   UNL     1      15.859 -20.605  41.139  1.00  0.00     0.210 HD
ENDBRANCH  29  30
ENDBRANCH   9  11
ENDBRANCH   1   9
TORSDOF 7
ENDMDL
