MODEL 1
REMARK VINA RESULT:    -5.970      0.000      0.000
REMARK INTER + INTRA:          -9.930
REMARK INTER:                  -8.239
REMARK INTRA:                  -1.691
REMARK UNBOUND:                -1.691
REMARK SMILES CC[C@H](CC[C@@H](C)[C@H]1CC[C@H]2[C@H]3CC=C4C[C@@H](O)CC[C@@]4(C)[C@@H]3CC[C@]12C)C(C)C
REMARK SMILES IDX 5 1 4 2 3 3 2 4 1 5 28 6 29 7 30 8 6 9 7 10 8 11 9 12 26 13
REMARK SMILES IDX 10 14 11 15 25 16 27 17 12 18 24 19 23 20 13 21 21 22 14 23
REMARK SMILES IDX 15 24 20 25 22 26 16 27 19 28 17 29 18 30
REMARK H PARENT 18 31
REMARK Flexibility Score: inf
ROOT
ATOM      1  C   UNL     1     145.221 130.547 117.373  1.00  0.00     0.004 C 
ENDROOT
BRANCH   1   2
ATOM      2  C   UNL     1     145.621 129.100 117.003  1.00  0.00     0.004 C 
BRANCH   2   3
ATOM      3  C   UNL     1     144.409 128.223 116.576  1.00  0.00    -0.009 C 
BRANCH   3   4
ATOM      4  C   UNL     1     143.100 128.729 117.265  1.00  0.00     0.000 C 
ATOM      5  C   UNL     1     141.989 127.680 117.226  1.00  0.00     0.004 C 
ENDBRANCH   3   4
BRANCH   3   6
ATOM      6  C   UNL     1     144.221 128.162 115.019  1.00  0.00    -0.014 C 
ATOM      7  C   UNL     1     145.546 127.786 114.323  1.00  0.00     0.007 C 
ATOM      8  C   UNL     1     143.709 129.478 114.403  1.00  0.00     0.007 C 
ENDBRANCH   3   6
ENDBRANCH   2   3
ENDBRANCH   1   2
BRANCH   1   9
ATOM      9  C   UNL     1     145.981 131.649 116.581  1.00  0.00    -0.011 C 
ATOM     10  C   UNL     1     146.965 131.010 115.584  1.00  0.00     0.008 C 
BRANCH   9  11
ATOM     11  C   UNL     1     145.017 132.673 115.892  1.00  0.00    -0.002 C 
ATOM     12  C   UNL     1     143.551 132.554 116.398  1.00  0.00     0.005 C 
ATOM     13  C   UNL     1     145.337 134.197 116.031  1.00  0.00    -0.026 C 
ATOM     14  C   UNL     1     142.924 133.956 116.311  1.00  0.00     0.005 C 
ATOM     15  C   UNL     1     143.982 134.781 115.597  1.00  0.00    -0.001 C 
ATOM     16  C   UNL     1     146.448 134.724 115.057  1.00  0.00     0.007 C 
ATOM     17  C   UNL     1     145.689 134.532 117.516  1.00  0.00     0.012 C 
ATOM     18  C   UNL     1     143.874 136.332 115.560  1.00  0.00     0.000 C 
ATOM     19  C   UNL     1     146.125 136.090 114.381  1.00  0.00     0.005 C 
ATOM     20  C   UNL     1     145.251 136.996 115.283  1.00  0.00     0.003 C 
ATOM     21  C   UNL     1     143.229 137.015 116.768  1.00  0.00     0.031 C 
ATOM     22  C   UNL     1     145.065 138.486 114.818  1.00  0.00    -0.008 C 
ATOM     23  C   UNL     1     143.215 138.517 116.581  1.00  0.00    -0.027 C 
ATOM     24  C   UNL     1     144.054 139.191 115.750  1.00  0.00    -0.065 C 
ATOM     25  C   UNL     1     146.435 139.230 114.923  1.00  0.00     0.014 C 
ATOM     26  C   UNL     1     144.558 138.561 113.353  1.00  0.00     0.016 C 
ATOM     27  C   UNL     1     143.955 140.701 115.680  1.00  0.00     0.063 C 
ATOM     28  C   UNL     1     146.325 140.760 114.804  1.00  0.00     0.033 C 
ATOM     29  C   UNL     1     145.342 141.345 115.827  1.00  0.00     0.118 C 
BRANCH  29  30
ATOM     30  O   UNL     1     145.838 141.142 117.128  1.00  0.00    -0.393 OA
ATOM     31  H   UNL     1     145.574 140.224 117.395  1.00  0.00     0.210 HD
ENDBRANCH  29  30
ENDBRANCH   9  11
ENDBRANCH   1   9
TORSDOF 7
ENDMDL
MODEL 2
REMARK VINA RESULT:    -5.878     10.369     13.335
REMARK INTER + INTRA:          -9.802
REMARK INTER:                  -8.800
REMARK INTRA:                  -1.002
REMARK UNBOUND:                -1.691
REMARK SMILES CC[C@H](CC[C@@H](C)[C@H]1CC[C@H]2[C@H]3CC=C4C[C@@H](O)CC[C@@]4(C)[C@@H]3CC[C@]12C)C(C)C
REMARK SMILES IDX 5 1 4 2 3 3 2 4 1 5 28 6 29 7 30 8 6 9 7 10 8 11 9 12 26 13
REMARK SMILES IDX 10 14 11 15 25 16 27 17 12 18 24 19 23 20 13 21 21 22 14 23
REMARK SMILES IDX 15 24 20 25 22 26 16 27 19 28 17 29 18 30
REMARK H PARENT 18 31
REMARK Flexibility Score: inf
ROOT
ATOM      1  C   UNL     1     136.459 126.875 116.750  1.00  0.00     0.004 C 
ENDROOT
BRANCH   1   2
ATOM      2  C   UNL     1     137.911 127.360 116.969  1.00  0.00     0.004 C 
BRANCH   2   3
ATOM      3  C   UNL     1     138.830 127.103 115.741  1.00  0.00    -0.009 C 
BRANCH   3   4
ATOM      4  C   UNL     1     138.173 127.666 114.439  1.00  0.00     0.000 C 
ATOM      5  C   UNL     1     138.149 129.194 114.423  1.00  0.00     0.004 C 
ENDBRANCH   3   4
BRANCH   3   6
ATOM      6  C   UNL     1     140.273 127.691 115.926  1.00  0.00    -0.014 C 
ATOM      7  C   UNL     1     141.287 126.943 115.036  1.00  0.00     0.007 C 
ATOM      8  C   UNL     1     140.780 127.646 117.380  1.00  0.00     0.007 C 
ENDBRANCH   3   6
ENDBRANCH   2   3
ENDBRANCH   1   2
BRANCH   1   9
ATOM      9  C   UNL     1     135.367 127.925 117.107  1.00  0.00    -0.011 C 
ATOM     10  C   UNL     1     136.012 129.181 117.723  1.00  0.00     0.008 C 
BRANCH   9  11
ATOM     11  C   UNL     1     134.438 128.268 115.893  1.00  0.00    -0.002 C 
ATOM     12  C   UNL     1     133.689 127.023 115.337  1.00  0.00     0.005 C 
ATOM     13  C   UNL     1     133.303 129.321 116.107  1.00  0.00    -0.026 C 
ATOM     14  C   UNL     1     132.344 127.514 114.775  1.00  0.00     0.005 C 
ATOM     15  C   UNL     1     132.447 129.028 114.863  1.00  0.00    -0.001 C 
ATOM     16  C   UNL     1     133.777 130.816 116.052  1.00  0.00     0.007 C 
ATOM     17  C   UNL     1     132.547 129.022 117.442  1.00  0.00     0.012 C 
ATOM     18  C   UNL     1     131.183 129.913 114.665  1.00  0.00     0.000 C 
ATOM     19  C   UNL     1     132.844 131.764 115.241  1.00  0.00     0.005 C 
ATOM     20  C   UNL     1     131.362 131.318 115.303  1.00  0.00     0.003 C 
ATOM     21  C   UNL     1     129.845 129.329 115.122  1.00  0.00     0.031 C 
ATOM     22  C   UNL     1     130.298 132.324 114.733  1.00  0.00    -0.008 C 
ATOM     23  C   UNL     1     128.725 130.315 114.874  1.00  0.00    -0.027 C 
ATOM     24  C   UNL     1     128.904 131.657 114.742  1.00  0.00    -0.065 C 
ATOM     25  C   UNL     1     130.245 133.588 115.651  1.00  0.00     0.014 C 
ATOM     26  C   UNL     1     130.653 132.763 113.287  1.00  0.00     0.016 C 
ATOM     27  C   UNL     1     127.691 132.539 114.527  1.00  0.00     0.063 C 
ATOM     28  C   UNL     1     129.032 134.499 115.390  1.00  0.00     0.033 C 
ATOM     29  C   UNL     1     127.708 133.731 115.495  1.00  0.00     0.118 C 
BRANCH  29  30
ATOM     30  O   UNL     1     127.520 133.290 116.817  1.00  0.00    -0.393 OA
ATOM     31  H   UNL     1     128.048 133.897 117.398  1.00  0.00     0.210 HD
ENDBRANCH  29  30
ENDBRANCH   9  11
ENDBRANCH   1   9
TORSDOF 7
ENDMDL
MODEL 3
REMARK VINA RESULT:    -5.867      1.542      3.451
REMARK INTER + INTRA:          -9.788
REMARK INTER:                  -8.292
REMARK INTRA:                  -1.496
REMARK UNBOUND:                -1.691
REMARK SMILES CC[C@H](CC[C@@H](C)[C@H]1CC[C@H]2[C@H]3CC=C4C[C@@H](O)CC[C@@]4(C)[C@@H]3CC[C@]12C)C(C)C
REMARK SMILES IDX 5 1 4 2 3 3 2 4 1 5 28 6 29 7 30 8 6 9 7 10 8 11 9 12 26 13
REMARK SMILES IDX 10 14 11 15 25 16 27 17 12 18 24 19 23 20 13 21 21 22 14 23
REMARK SMILES IDX 15 24 20 25 22 26 16 27 19 28 17 29 18 30
REMARK H PARENT 18 31
REMARK Flexibility Score: inf
ROOT
ATOM      1  C   UNL     1     144.150 128.701 118.169  1.00  0.00     0.004 C 
ENDROOT
BRANCH   1   2
ATOM      2  C   UNL     1     143.643 127.599 117.210  1.00  0.00     0.004 C 
BRANCH   2   3
ATOM      3  C   UNL     1     143.422 128.110 115.758  1.00  0.00    -0.009 C 
BRANCH   3   4
ATOM      4  C   UNL     1     144.245 127.250 114.745  1.00  0.00     0.000 C 
ATOM      5  C   UNL     1     145.748 127.495 114.872  1.00  0.00     0.004 C 
ENDBRANCH   3   4
BRANCH   3   6
ATOM      6  C   UNL     1     141.908 128.142 115.348  1.00  0.00    -0.014 C 
ATOM      7  C   UNL     1     141.515 129.536 114.815  1.00  0.00     0.007 C 
ATOM      8  C   UNL     1     140.946 127.775 116.493  1.00  0.00     0.007 C 
ENDBRANCH   3   6
ENDBRANCH   2   3
ENDBRANCH   1   2
BRANCH   1   9
ATOM      9  C   UNL     1     143.734 130.146 117.769  1.00  0.00    -0.011 C 
ATOM     10  C   UNL     1     142.706 130.704 118.770  1.00  0.00     0.008 C 
BRANCH   9  11
ATOM     11  C   UNL     1     144.963 131.099 117.583  1.00  0.00    -0.002 C 
ATOM     12  C   UNL     1     145.973 130.581 116.521  1.00  0.00     0.005 C 
ATOM     13  C   UNL     1     144.692 132.577 117.152  1.00  0.00    -0.026 C 
ATOM     14  C   UNL     1     146.628 131.814 115.875  1.00  0.00     0.005 C 
ATOM     15  C   UNL     1     146.110 132.975 116.707  1.00  0.00    -0.001 C 
ATOM     16  C   UNL     1     144.242 133.528 118.315  1.00  0.00     0.007 C 
ATOM     17  C   UNL     1     143.663 132.605 115.975  1.00  0.00     0.012 C 
ATOM     18  C   UNL     1     146.298 134.438 116.215  1.00  0.00     0.000 C 
ATOM     19  C   UNL     1     144.927 134.928 118.312  1.00  0.00     0.005 C 
ATOM     20  C   UNL     1     145.277 135.403 116.880  1.00  0.00     0.003 C 
ATOM     21  C   UNL     1     146.287 134.672 114.703  1.00  0.00     0.031 C 
ATOM     22  C   UNL     1     145.744 136.895 116.726  1.00  0.00    -0.008 C 
ATOM     23  C   UNL     1     146.466 136.143 114.393  1.00  0.00    -0.027 C 
ATOM     24  C   UNL     1     146.188 137.147 115.268  1.00  0.00    -0.065 C 
ATOM     25  C   UNL     1     144.542 137.843 117.045  1.00  0.00     0.014 C 
ATOM     26  C   UNL     1     146.917 137.223 117.688  1.00  0.00     0.016 C 
ATOM     27  C   UNL     1     146.383 138.581 114.820  1.00  0.00     0.063 C 
ATOM     28  C   UNL     1     144.773 139.306 116.626  1.00  0.00     0.033 C 
ATOM     29  C   UNL     1     145.141 139.425 115.142  1.00  0.00     0.118 C 
BRANCH  29  30
ATOM     30  O   UNL     1     144.053 139.015 114.351  1.00  0.00    -0.393 OA
ATOM     31  H   UNL     1     144.297 138.134 113.964  1.00  0.00     0.210 HD
ENDBRANCH  29  30
ENDBRANCH   9  11
ENDBRANCH   1   9
TORSDOF 7
ENDMDL
MODEL 4
REMARK VINA RESULT:    -5.758     12.886     16.823
REMARK INTER + INTRA:          -9.637
REMARK INTER:                  -7.577
REMARK INTRA:                  -2.060
REMARK UNBOUND:                -1.691
REMARK SMILES CC[C@H](CC[C@@H](C)[C@H]1CC[C@H]2[C@H]3CC=C4C[C@@H](O)CC[C@@]4(C)[C@@H]3CC[C@]12C)C(C)C
REMARK SMILES IDX 5 1 4 2 3 3 2 4 1 5 28 6 29 7 30 8 6 9 7 10 8 11 9 12 26 13
REMARK SMILES IDX 10 14 11 15 25 16 27 17 12 18 24 19 23 20 13 21 21 22 14 23
REMARK SMILES IDX 15 24 20 25 22 26 16 27 19 28 17 29 18 30
REMARK H PARENT 18 31
REMARK Flexibility Score: inf
ROOT
ATOM      1  C   UNL     1     130.847 129.169 114.867  1.00  0.00     0.004 C 
ENDROOT
BRANCH   1   2
ATOM      2  C   UNL     1     132.125 129.978 114.543  1.00  0.00     0.004 C 
BRANCH   2   3
ATOM      3  C   UNL     1     133.377 129.471 115.314  1.00  0.00    -0.009 C 
BRANCH   3   4
ATOM      4  C   UNL     1     133.961 130.609 116.215  1.00  0.00     0.000 C 
ATOM      5  C   UNL     1     133.168 131.908 116.085  1.00  0.00     0.004 C 
ENDBRANCH   3   4
BRANCH   3   6
ATOM      6  C   UNL     1     133.088 128.188 116.170  1.00  0.00    -0.014 C 
ATOM      7  C   UNL     1     133.809 128.265 117.532  1.00  0.00     0.007 C 
ATOM      8  C   UNL     1     133.500 126.875 115.478  1.00  0.00     0.007 C 
ENDBRANCH   3   6
ENDBRANCH   2   3
ENDBRANCH   1   2
BRANCH   1   9
ATOM      9  C   UNL     1     129.803 129.933 115.732  1.00  0.00    -0.011 C 
ATOM     10  C   UNL     1     128.631 130.413 114.856  1.00  0.00     0.008 C 
BRANCH   9  11
ATOM     11  C   UNL     1     129.320 129.102 116.969  1.00  0.00    -0.002 C 
ATOM     12  C   UNL     1     129.987 127.700 117.052  1.00  0.00     0.005 C 
ATOM     13  C   UNL     1     129.541 129.706 118.395  1.00  0.00    -0.026 C 
ATOM     14  C   UNL     1     130.089 127.331 118.541  1.00  0.00     0.005 C 
ATOM     15  C   UNL     1     129.322 128.441 119.242  1.00  0.00    -0.001 C 
ATOM     16  C   UNL     1     128.487 130.786 118.820  1.00  0.00     0.007 C 
ATOM     17  C   UNL     1     130.996 130.265 118.513  1.00  0.00     0.012 C 
ATOM     18  C   UNL     1     129.424 128.612 120.784  1.00  0.00     0.000 C 
ATOM     19  C   UNL     1     127.967 130.647 120.282  1.00  0.00     0.005 C 
ATOM     20  C   UNL     1     129.038 130.050 121.228  1.00  0.00     0.003 C 
ATOM     21  C   UNL     1     130.752 128.230 121.442  1.00  0.00     0.031 C 
ATOM     22  C   UNL     1     128.721 130.088 122.767  1.00  0.00    -0.008 C 
ATOM     23  C   UNL     1     130.690 128.468 122.935  1.00  0.00    -0.027 C 
ATOM     24  C   UNL     1     129.821 129.324 123.537  1.00  0.00    -0.065 C 
ATOM     25  C   UNL     1     128.720 131.574 123.252  1.00  0.00     0.014 C 
ATOM     26  C   UNL     1     127.338 129.454 123.075  1.00  0.00     0.016 C 
ATOM     27  C   UNL     1     129.886 129.494 125.041  1.00  0.00     0.063 C 
ATOM     28  C   UNL     1     128.739 131.730 124.783  1.00  0.00     0.033 C 
ATOM     29  C   UNL     1     129.917 130.981 125.420  1.00  0.00     0.118 C 
BRANCH  29  30
ATOM     30  O   UNL     1     131.127 131.565 125.007  1.00  0.00    -0.393 OA
ATOM     31  H   UNL     1     131.519 132.007 125.804  1.00  0.00     0.210 HD
ENDBRANCH  29  30
ENDBRANCH   9  11
ENDBRANCH   1   9
TORSDOF 7
ENDMDL
MODEL 5
REMARK VINA RESULT:    -5.715      8.658     12.796
REMARK INTER + INTRA:          -9.577
REMARK INTER:                  -7.868
REMARK INTRA:                  -1.709
REMARK UNBOUND:                -1.691
REMARK SMILES CC[C@H](CC[C@@H](C)[C@H]1CC[C@H]2[C@H]3CC=C4C[C@@H](O)CC[C@@]4(C)[C@@H]3CC[C@]12C)C(C)C
REMARK SMILES IDX 5 1 4 2 3 3 2 4 1 5 28 6 29 7 30 8 6 9 7 10 8 11 9 12 26 13
REMARK SMILES IDX 10 14 11 15 25 16 27 17 12 18 24 19 23 20 13 21 21 22 14 23
REMARK SMILES IDX 15 24 20 25 22 26 16 27 19 28 17 29 18 30
REMARK H PARENT 18 31
REMARK Flexibility Score: inf
ROOT
ATOM      1  C   UNL     1     131.408 129.390 118.377  1.00  0.00     0.004 C 
ENDROOT
BRANCH   1   2
ATOM      2  C   UNL     1     130.029 128.953 117.830  1.00  0.00     0.004 C 
BRANCH   2   3
ATOM      3  C   UNL     1     129.321 130.065 117.006  1.00  0.00    -0.009 C 
BRANCH   3   4
ATOM      4  C   UNL     1     129.853 131.476 117.422  1.00  0.00     0.000 C 
ATOM      5  C   UNL     1     130.261 132.315 116.212  1.00  0.00     0.004 C 
ENDBRANCH   3   4
BRANCH   3   6
ATOM      6  C   UNL     1     129.465 129.860 115.457  1.00  0.00    -0.014 C 
ATOM      7  C   UNL     1     128.094 129.981 114.760  1.00  0.00     0.007 C 
ATOM      8  C   UNL     1     130.088 128.507 115.065  1.00  0.00     0.007 C 
ENDBRANCH   3   6
ENDBRANCH   2   3
ENDBRANCH   1   2
BRANCH   1   9
ATOM      9  C   UNL     1     132.579 128.431 118.016  1.00  0.00    -0.011 C 
ATOM     10  C   UNL     1     132.046 127.010 117.753  1.00  0.00     0.008 C 
BRANCH   9  11
ATOM     11  C   UNL     1     133.457 128.966 116.835  1.00  0.00    -0.002 C 
ATOM     12  C   UNL     1     133.401 130.513 116.695  1.00  0.00     0.005 C 
ATOM     13  C   UNL     1     134.987 128.647 116.849  1.00  0.00    -0.026 C 
ATOM     14  C   UNL     1     134.758 130.969 116.133  1.00  0.00     0.005 C 
ATOM     15  C   UNL     1     135.468 129.667 115.803  1.00  0.00    -0.001 C 
ATOM     16  C   UNL     1     135.361 127.205 116.357  1.00  0.00     0.007 C 
ATOM     17  C   UNL     1     135.573 128.923 118.272  1.00  0.00     0.012 C 
ATOM     18  C   UNL     1     136.989 129.663 115.478  1.00  0.00     0.000 C 
ATOM     19  C   UNL     1     136.588 127.143 115.399  1.00  0.00     0.005 C 
ATOM     20  C   UNL     1     137.619 128.260 115.698  1.00  0.00     0.003 C 
ATOM     21  C   UNL     1     137.855 130.710 116.181  1.00  0.00     0.031 C 
ATOM     22  C   UNL     1     139.006 128.154 114.967  1.00  0.00    -0.008 C 
ATOM     23  C   UNL     1     139.304 130.562 115.769  1.00  0.00    -0.027 C 
ATOM     24  C   UNL     1     139.842 129.419 115.267  1.00  0.00    -0.065 C 
ATOM     25  C   UNL     1     139.779 126.911 115.514  1.00  0.00     0.014 C 
ATOM     26  C   UNL     1     138.826 128.005 113.432  1.00  0.00     0.016 C 
ATOM     27  C   UNL     1     141.317 129.395 114.923  1.00  0.00     0.063 C 
ATOM     28  C   UNL     1     141.266 126.876 115.117  1.00  0.00     0.033 C 
ATOM     29  C   UNL     1     141.998 128.160 115.530  1.00  0.00     0.118 C 
BRANCH  29  30
ATOM     30  O   UNL     1     142.025 128.258 116.933  1.00  0.00    -0.393 OA
ATOM     31  H   UNL     1     141.291 128.873 117.191  1.00  0.00     0.210 HD
ENDBRANCH  29  30
ENDBRANCH   9  11
ENDBRANCH   1   9
TORSDOF 7
ENDMDL
MODEL 6
REMARK VINA RESULT:    -5.708     15.177     18.622
REMARK INTER + INTRA:          -9.568
REMARK INTER:                  -8.268
REMARK INTRA:                  -1.300
REMARK UNBOUND:                -1.691
REMARK SMILES CC[C@H](CC[C@@H](C)[C@H]1CC[C@H]2[C@H]3CC=C4C[C@@H](O)CC[C@@]4(C)[C@@H]3CC[C@]12C)C(C)C
REMARK SMILES IDX 5 1 4 2 3 3 2 4 1 5 28 6 29 7 30 8 6 9 7 10 8 11 9 12 26 13
REMARK SMILES IDX 10 14 11 15 25 16 27 17 12 18 24 19 23 20 13 21 21 22 14 23
REMARK SMILES IDX 15 24 20 25 22 26 16 27 19 28 17 29 18 30
REMARK H PARENT 18 31
REMARK Flexibility Score: inf
ROOT
ATOM      1  C   UNL     1     127.448 129.003 124.757  1.00  0.00     0.004 C 
ENDROOT
BRANCH   1   2
ATOM      2  C   UNL     1     127.125 128.925 126.267  1.00  0.00     0.004 C 
BRANCH   2   3
ATOM      3  C   UNL     1     127.573 127.583 126.916  1.00  0.00    -0.009 C 
BRANCH   3   4
ATOM      4  C   UNL     1     128.676 126.897 126.045  1.00  0.00     0.000 C 
ATOM      5  C   UNL     1     130.048 126.942 126.717  1.00  0.00     0.004 C 
ENDBRANCH   3   4
BRANCH   3   6
ATOM      6  C   UNL     1     128.070 127.758 128.394  1.00  0.00    -0.014 C 
ATOM      7  C   UNL     1     127.246 126.875 129.355  1.00  0.00     0.007 C 
ATOM      8  C   UNL     1     128.010 129.211 128.901  1.00  0.00     0.007 C 
ENDBRANCH   3   6
ENDBRANCH   2   3
ENDBRANCH   1   2
BRANCH   1   9
ATOM      9  C   UNL     1     128.086 130.348 124.302  1.00  0.00    -0.011 C 
ATOM     10  C   UNL     1     128.615 131.128 125.521  1.00  0.00     0.008 C 
BRANCH   9  11
ATOM     11  C   UNL     1     129.180 130.156 123.198  1.00  0.00    -0.002 C 
ATOM     12  C   UNL     1     129.867 128.762 123.267  1.00  0.00     0.005 C 
ATOM     13  C   UNL     1     128.749 130.286 121.701  1.00  0.00    -0.026 C 
ATOM     14  C   UNL     1     130.272 128.383 121.832  1.00  0.00     0.005 C 
ATOM     15  C   UNL     1     129.970 129.637 121.028  1.00  0.00    -0.001 C 
ATOM     16  C   UNL     1     128.613 131.761 121.185  1.00  0.00     0.007 C 
ATOM     17  C   UNL     1     127.430 129.484 121.458  1.00  0.00     0.012 C 
ATOM     18  C   UNL     1     129.962 129.589 119.474  1.00  0.00     0.000 C 
ATOM     19  C   UNL     1     129.221 132.014 119.773  1.00  0.00     0.005 C 
ATOM     20  C   UNL     1     129.138 130.759 118.868  1.00  0.00     0.003 C 
ATOM     21  C   UNL     1     129.518 128.280 118.818  1.00  0.00     0.031 C 
ATOM     22  C   UNL     1     129.492 130.958 117.350  1.00  0.00    -0.008 C 
ATOM     23  C   UNL     1     129.553 128.404 117.311  1.00  0.00    -0.027 C 
ATOM     24  C   UNL     1     129.499 129.586 116.640  1.00  0.00    -0.065 C 
ATOM     25  C   UNL     1     128.397 131.853 116.683  1.00  0.00     0.014 C 
ATOM     26  C   UNL     1     130.877 131.638 117.177  1.00  0.00     0.016 C 
ATOM     27  C   UNL     1     129.511 129.569 115.125  1.00  0.00     0.063 C 
ATOM     28  C   UNL     1     128.451 131.862 115.145  1.00  0.00     0.033 C 
ATOM     29  C   UNL     1     128.382 130.444 114.562  1.00  0.00     0.118 C 
BRANCH  29  30
ATOM     30  O   UNL     1     127.130 129.874 114.853  1.00  0.00    -0.393 OA
ATOM     31  H   UNL     1     127.054 129.053 114.300  1.00  0.00     0.210 HD
ENDBRANCH  29  30
ENDBRANCH   9  11
ENDBRANCH   1   9
TORSDOF 7
ENDMDL
MODEL 7
REMARK VINA RESULT:    -5.699      6.502     10.940
REMARK INTER + INTRA:          -9.556
REMARK INTER:                  -8.441
REMARK INTRA:                  -1.115
REMARK UNBOUND:                -1.691
REMARK SMILES CC[C@H](CC[C@@H](C)[C@H]1CC[C@H]2[C@H]3CC=C4C[C@@H](O)CC[C@@]4(C)[C@@H]3CC[C@]12C)C(C)C
REMARK SMILES IDX 5 1 4 2 3 3 2 4 1 5 28 6 29 7 30 8 6 9 7 10 8 11 9 12 26 13
REMARK SMILES IDX 10 14 11 15 25 16 27 17 12 18 24 19 23 20 13 21 21 22 14 23
REMARK SMILES IDX 15 24 20 25 22 26 16 27 19 28 17 29 18 30
REMARK H PARENT 18 31
REMARK Flexibility Score: inf
ROOT
ATOM      1  C   UNL     1     142.632 128.778 115.327  1.00  0.00     0.004 C 
ENDROOT
BRANCH   1   2
ATOM      2  C   UNL     1     143.694 129.815 114.891  1.00  0.00     0.004 C 
BRANCH   2   3
ATOM      3  C   UNL     1     145.139 129.239 114.885  1.00  0.00    -0.009 C 
BRANCH   3   4
ATOM      4  C   UNL     1     146.026 129.978 115.940  1.00  0.00     0.000 C 
ATOM      5  C   UNL     1     145.824 131.493 115.898  1.00  0.00     0.004 C 
ENDBRANCH   3   4
BRANCH   3   6
ATOM      6  C   UNL     1     145.178 127.689 115.125  1.00  0.00    -0.014 C 
ATOM      7  C   UNL     1     145.884 127.360 116.457  1.00  0.00     0.007 C 
ATOM      8  C   UNL     1     145.879 126.904 114.000  1.00  0.00     0.007 C 
ENDBRANCH   3   6
ENDBRANCH   2   3
ENDBRANCH   1   2
BRANCH   1   9
ATOM      9  C   UNL     1     141.445 129.371 116.139  1.00  0.00    -0.011 C 
ATOM     10  C   UNL     1     141.760 130.816 116.569  1.00  0.00     0.008 C 
BRANCH   9  11
ATOM     11  C   UNL     1     140.078 129.260 115.382  1.00  0.00    -0.002 C 
ATOM     12  C   UNL     1     140.028 128.052 114.404  1.00  0.00     0.005 C 
ATOM     13  C   UNL     1     138.775 129.109 116.230  1.00  0.00    -0.026 C 
ATOM     14  C   UNL     1     138.566 127.580 114.339  1.00  0.00     0.005 C 
ATOM     15  C   UNL     1     137.810 128.634 115.130  1.00  0.00    -0.001 C 
ATOM     16  C   UNL     1     138.228 130.448 116.838  1.00  0.00     0.007 C 
ATOM     17  C   UNL     1     138.990 128.035 117.346  1.00  0.00     0.012 C 
ATOM     18  C   UNL     1     136.336 128.387 115.559  1.00  0.00     0.000 C 
ATOM     19  C   UNL     1     136.685 130.632 116.721  1.00  0.00     0.005 C 
ATOM     20  C   UNL     1     135.931 129.281 116.764  1.00  0.00     0.003 C 
ATOM     21  C   UNL     1     135.930 126.942 115.858  1.00  0.00     0.031 C 
ATOM     22  C   UNL     1     134.367 129.350 116.901  1.00  0.00    -0.008 C 
ATOM     23  C   UNL     1     134.476 126.875 116.273  1.00  0.00    -0.027 C 
ATOM     24  C   UNL     1     133.777 127.927 116.780  1.00  0.00    -0.065 C 
ATOM     25  C   UNL     1     134.002 129.915 118.312  1.00  0.00     0.014 C 
ATOM     26  C   UNL     1     133.743 130.263 115.812  1.00  0.00     0.016 C 
ATOM     27  C   UNL     1     132.333 127.717 117.186  1.00  0.00     0.063 C 
ATOM     28  C   UNL     1     132.521 129.737 118.692  1.00  0.00     0.033 C 
ATOM     29  C   UNL     1     132.079 128.271 118.595  1.00  0.00     0.118 C 
BRANCH  29  30
ATOM     30  O   UNL     1     132.767 127.505 119.553  1.00  0.00    -0.393 OA
ATOM     31  H   UNL     1     132.268 126.654 119.651  1.00  0.00     0.210 HD
ENDBRANCH  29  30
ENDBRANCH   9  11
ENDBRANCH   1   9
TORSDOF 7
ENDMDL
MODEL 8
REMARK VINA RESULT:    -5.680     13.297     17.123
REMARK INTER + INTRA:          -9.529
REMARK INTER:                  -7.630
REMARK INTRA:                  -1.899
REMARK UNBOUND:                -1.691
REMARK SMILES CC[C@H](CC[C@@H](C)[C@H]1CC[C@H]2[C@H]3CC=C4C[C@@H](O)CC[C@@]4(C)[C@@H]3CC[C@]12C)C(C)C
REMARK SMILES IDX 5 1 4 2 3 3 2 4 1 5 28 6 29 7 30 8 6 9 7 10 8 11 9 12 26 13
REMARK SMILES IDX 10 14 11 15 25 16 27 17 12 18 24 19 23 20 13 21 21 22 14 23
REMARK SMILES IDX 15 24 20 25 22 26 16 27 19 28 17 29 18 30
REMARK H PARENT 18 31
REMARK Flexibility Score: inf
ROOT
ATOM      1  C   UNL     1     130.840 129.632 114.823  1.00  0.00     0.004 C 
ENDROOT
BRANCH   1   2
ATOM      2  C   UNL     1     131.753 130.725 114.222  1.00  0.00     0.004 C 
BRANCH   2   3
ATOM      3  C   UNL     1     131.752 132.042 115.050  1.00  0.00    -0.009 C 
BRANCH   3   4
ATOM      4  C   UNL     1     133.205 132.406 115.499  1.00  0.00     0.000 C 
ATOM      5  C   UNL     1     133.227 133.098 116.862  1.00  0.00     0.004 C 
ENDBRANCH   3   4
BRANCH   3   6
ATOM      6  C   UNL     1     131.099 133.244 114.281  1.00  0.00    -0.014 C 
ATOM      7  C   UNL     1     129.922 133.833 115.086  1.00  0.00     0.007 C 
ATOM      8  C   UNL     1     130.587 132.877 112.875  1.00  0.00     0.007 C 
ENDBRANCH   3   6
ENDBRANCH   2   3
ENDBRANCH   1   2
BRANCH   1   9
ATOM      9  C   UNL     1     129.607 130.177 115.601  1.00  0.00    -0.011 C 
ATOM     10  C   UNL     1     128.414 130.369 114.646  1.00  0.00     0.008 C 
BRANCH   9  11
ATOM     11  C   UNL     1     129.240 129.298 116.844  1.00  0.00    -0.002 C 
ATOM     12  C   UNL     1     130.021 127.954 116.885  1.00  0.00     0.005 C 
ATOM     13  C   UNL     1     129.463 129.903 118.268  1.00  0.00    -0.026 C 
ATOM     14  C   UNL     1     130.208 127.580 118.365  1.00  0.00     0.005 C 
ATOM     15  C   UNL     1     129.380 128.616 119.107  1.00  0.00    -0.001 C 
ATOM     16  C   UNL     1     128.341 130.890 118.745  1.00  0.00     0.007 C 
ATOM     17  C   UNL     1     130.871 130.579 118.341  1.00  0.00     0.012 C 
ATOM     18  C   UNL     1     129.524 128.780 120.646  1.00  0.00     0.000 C 
ATOM     19  C   UNL     1     127.889 130.694 120.223  1.00  0.00     0.005 C 
ATOM     20  C   UNL     1     129.040 130.178 121.123  1.00  0.00     0.003 C 
ATOM     21  C   UNL     1     130.902 128.503 121.251  1.00  0.00     0.031 C 
ATOM     22  C   UNL     1     128.777 130.175 122.672  1.00  0.00    -0.008 C 
ATOM     23  C   UNL     1     130.877 128.720 122.748  1.00  0.00    -0.027 C 
ATOM     24  C   UNL     1     129.964 129.496 123.392  1.00  0.00    -0.065 C 
ATOM     25  C   UNL     1     128.674 131.651 123.176  1.00  0.00     0.014 C 
ATOM     26  C   UNL     1     127.463 129.427 123.022  1.00  0.00     0.016 C 
ATOM     27  C   UNL     1     130.070 129.656 124.895  1.00  0.00     0.063 C 
ATOM     28  C   UNL     1     128.736 131.793 124.707  1.00  0.00     0.033 C 
ATOM     29  C   UNL     1     129.994 131.137 125.291  1.00  0.00     0.118 C 
BRANCH  29  30
ATOM     30  O   UNL     1     131.137 131.822 124.842  1.00  0.00    -0.393 OA
ATOM     31  H   UNL     1     131.922 131.349 125.221  1.00  0.00     0.210 HD
ENDBRANCH  29  30
ENDBRANCH   9  11
ENDBRANCH   1   9
TORSDOF 7
ENDMDL
MODEL 9
REMARK VINA RESULT:    -5.674      6.581     11.010
REMARK INTER + INTRA:          -9.522
REMARK INTER:                  -8.379
REMARK INTRA:                  -1.143
REMARK UNBOUND:                -1.691
REMARK SMILES CC[C@H](CC[C@@H](C)[C@H]1CC[C@H]2[C@H]3CC=C4C[C@@H](O)CC[C@@]4(C)[C@@H]3CC[C@]12C)C(C)C
REMARK SMILES IDX 5 1 4 2 3 3 2 4 1 5 28 6 29 7 30 8 6 9 7 10 8 11 9 12 26 13
REMARK SMILES IDX 10 14 11 15 25 16 27 17 12 18 24 19 23 20 13 21 21 22 14 23
REMARK SMILES IDX 15 24 20 25 22 26 16 27 19 28 17 29 18 30
REMARK H PARENT 18 31
REMARK Flexibility Score: inf
ROOT
ATOM      1  C   UNL     1     142.390 129.450 115.546  1.00  0.00     0.004 C 
ENDROOT
BRANCH   1   2
ATOM      2  C   UNL     1     143.400 129.512 114.376  1.00  0.00     0.004 C 
BRANCH   2   3
ATOM      3  C   UNL     1     144.856 129.183 114.812  1.00  0.00    -0.009 C 
BRANCH   3   4
ATOM      4  C   UNL     1     145.247 130.010 116.081  1.00  0.00     0.000 C 
ATOM      5  C   UNL     1     146.416 130.957 115.810  1.00  0.00     0.004 C 
ENDBRANCH   3   4
BRANCH   3   6
ATOM      6  C   UNL     1     145.084 127.651 115.065  1.00  0.00    -0.014 C 
ATOM      7  C   UNL     1     145.663 127.410 116.475  1.00  0.00     0.007 C 
ATOM      8  C   UNL     1     146.020 126.985 114.039  1.00  0.00     0.007 C 
ENDBRANCH   3   6
ENDBRANCH   2   3
ENDBRANCH   1   2
BRANCH   1   9
ATOM      9  C   UNL     1     141.156 128.538 115.285  1.00  0.00    -0.011 C 
ATOM     10  C   UNL     1     141.599 127.073 115.111  1.00  0.00     0.008 C 
BRANCH   9  11
ATOM     11  C   UNL     1     140.044 128.699 116.376  1.00  0.00    -0.002 C 
ATOM     12  C   UNL     1     140.174 130.024 117.178  1.00  0.00     0.005 C 
ATOM     13  C   UNL     1     138.550 128.686 115.914  1.00  0.00    -0.026 C 
ATOM     14  C   UNL     1     138.754 130.446 117.594  1.00  0.00     0.005 C 
ATOM     15  C   UNL     1     137.890 129.267 117.176  1.00  0.00    -0.001 C 
ATOM     16  C   UNL     1     137.958 127.258 115.647  1.00  0.00     0.007 C 
ATOM     17  C   UNL     1     138.374 129.608 114.664  1.00  0.00     0.012 C 
ATOM     18  C   UNL     1     136.341 129.400 117.152  1.00  0.00     0.000 C 
ATOM     19  C   UNL     1     136.524 127.034 116.213  1.00  0.00     0.005 C 
ATOM     20  C   UNL     1     135.689 128.339 116.223  1.00  0.00     0.003 C 
ATOM     21  C   UNL     1     135.765 130.776 116.810  1.00  0.00     0.031 C 
ATOM     22  C   UNL     1     134.157 128.193 116.538  1.00  0.00    -0.008 C 
ATOM     23  C   UNL     1     134.252 130.732 116.814  1.00  0.00    -0.027 C 
ATOM     24  C   UNL     1     133.520 129.597 116.651  1.00  0.00    -0.065 C 
ATOM     25  C   UNL     1     133.463 127.431 115.363  1.00  0.00     0.014 C 
ATOM     26  C   UNL     1     133.922 127.411 117.858  1.00  0.00     0.016 C 
ATOM     27  C   UNL     1     132.009 129.696 116.644  1.00  0.00     0.063 C 
ATOM     28  C   UNL     1     131.925 127.502 115.395  1.00  0.00     0.033 C 
ATOM     29  C   UNL     1     131.420 128.950 115.438  1.00  0.00     0.118 C 
BRANCH  29  30
ATOM     30  O   UNL     1     131.764 129.606 114.242  1.00  0.00    -0.393 OA
ATOM     31  H   UNL     1     131.212 129.199 113.525  1.00  0.00     0.210 HD
ENDBRANCH  29  30
ENDBRANCH   9  11
ENDBRANCH   1   9
TORSDOF 7
ENDMDL
