MODEL 1
REMARK VINA RESULT:    -6.281      0.000      0.000
REMARK INTER + INTRA:         -15.370
REMARK INTER:                 -13.257
REMARK INTRA:                  -2.112
REMARK UNBOUND:                -2.112
REMARK SMILES CCC(=O)CCCCC[C@@H]1NC(=O)[C@H]2CCCCN2C(=O)[C@@H]([C@@H](C)CC)NC(=O)[C@@H](Cc2cn(OC)c3ccccc23)NC1=O
REMARK SMILES IDX 9 1 10 2 44 3 43 4 45 6 30 7 28 8 27 9 29 11 22 12 23 14
REMARK SMILES IDX 24 15 25 16 26 17 31 18 32 19 33 20 42 21 34 22 37 23 41 24
REMARK SMILES IDX 38 25 40 26 39 27 35 28 36 29 11 30 12 31 13 33 14 34 19 35
REMARK SMILES IDX 15 36 18 37 16 38 17 39 20 40 21 41 8 43 7 44 6 45 5 46 3 47
REMARK SMILES IDX 4 48 2 49 1 50
REMARK H PARENT 43 5 27 10 11 32
REMARK Flexibility Score: 80.00
ROOT
ATOM      1  C   UNL     1      20.265 -29.508  21.245  1.00  0.00     0.035 C 
ENDROOT
BRANCH   1   2
ATOM      2  C   UNL     1      20.692 -30.945  21.675  1.00  0.00     0.171 C 
BRANCH   2   3
ATOM      3  C   UNL     1      21.140 -31.086  23.123  1.00  0.00     0.243 C 
ATOM      4  N   UNL     1      21.437 -32.377  23.671  1.00  0.00    -0.342 N 
ATOM      5  H   UNL     1      21.751 -33.131  23.024  1.00  0.00     0.164 HD
ATOM      6  O   UNL     1      21.402 -30.057  23.808  1.00  0.00    -0.273 OA
BRANCH   4   7
ATOM      7  C   UNL     1      21.127 -32.731  25.059  1.00  0.00     0.175 C 
BRANCH   7   8
ATOM      8  C   UNL     1      19.637 -32.939  25.205  1.00  0.00     0.243 C 
ATOM      9  N   UNL     1      18.920 -33.617  24.163  1.00  0.00    -0.342 N 
ATOM     10  H   UNL     1      19.279 -33.463  23.199  1.00  0.00     0.164 HD
ATOM     11  O   UNL     1      19.015 -32.444  26.181  1.00  0.00    -0.273 OA
BRANCH   9  12
ATOM     12  C   UNL     1      17.641 -34.310  24.348  1.00  0.00     0.174 CG0
ATOM     13  G   UNL     1      16.624 -33.819  23.315  1.00  0.00     0.000 G0
BRANCH  12  14
ATOM     14  C   UNL     1      17.830 -35.857  24.469  1.00  0.00     0.018 C 
ATOM     15  C   UNL     1      19.183 -36.318  23.901  1.00  0.00     0.010 C 
BRANCH  14  16
ATOM     16  C   UNL     1      17.572 -36.412  25.888  1.00  0.00     0.002 C 
ATOM     17  C   UNL     1      18.398 -37.663  26.195  1.00  0.00     0.004 C 
ENDBRANCH  14  16
ENDBRANCH  12  14
ENDBRANCH   9  12
ENDBRANCH   7   8
BRANCH   7  18
ATOM     18  C   UNL     1      21.959 -33.951  25.501  1.00  0.00     0.073 C 
BRANCH  18  19
ATOM     19  C   UNL     1      23.436 -33.777  25.300  1.00  0.00    -0.016 A 
ATOM     20  C   UNL     1      24.285 -33.032  26.105  1.00  0.00     0.134 A 
ATOM     21  C   UNL     1      24.227 -34.289  24.289  1.00  0.00     0.006 A 
ATOM     22  N   UNL     1      25.548 -33.076  25.627  1.00  0.00    -0.191 N 
ATOM     23  C   UNL     1      25.515 -33.850  24.513  1.00  0.00     0.087 A 
ATOM     24  C   UNL     1      23.896 -35.096  23.199  1.00  0.00     0.011 A 
ATOM     25  C   UNL     1      26.559 -34.241  23.659  1.00  0.00     0.030 A 
ATOM     26  C   UNL     1      24.929 -35.493  22.333  1.00  0.00     0.001 A 
ATOM     27  C   UNL     1      26.253 -35.069  22.565  1.00  0.00     0.002 A 
BRANCH  22  28
ATOM     28  O   UNL     1      26.589 -32.389  26.234  1.00  0.00    -0.417 OA
ATOM     29  C   UNL     1      27.598 -32.976  27.036  1.00  0.00     0.313 C 
ENDBRANCH  22  28
ENDBRANCH  18  19
ENDBRANCH   7  18
ENDBRANCH   4   7
ENDBRANCH   2   3
BRANCH   2  30
ATOM     30  N   UNL     1      19.701 -31.984  21.310  1.00  0.00    -0.343 N 
ATOM     31  C   UNL     1      18.295 -32.008  21.648  1.00  0.00     0.243 C 
ATOM     32  H   UNL     1      20.082 -32.799  20.775  1.00  0.00     0.164 HD
ATOM     33  O   UNL     1      17.837 -31.212  22.514  1.00  0.00    -0.273 OA
BRANCH  31  34
ATOM     34  C   UNL     1      17.310 -32.947  20.978  1.00  0.00     0.174 C 
ATOM     35  N   UNL     1      16.732 -33.985  21.867  1.00  0.00    -0.329 N 
ATOM     36  C   UNL     1      17.874 -33.614  19.708  1.00  0.00     0.035 C 
ATOM     37  C   UNL     1      15.654 -34.765  21.237  1.00  0.00     0.120 C 
ATOM     38  C   UNL     1      16.788 -34.432  19.000  1.00  0.00     0.004 C 
ATOM     39  C   UNL     1      16.151 -35.447  19.956  1.00  0.00     0.022 C 
BRANCH  35  40
ATOM     40  C   UNL     1      16.624 -33.800  23.296  1.00  0.00     0.246 CG0
ATOM     41  O   UNL     1      15.651 -33.137  23.743  1.00  0.00    -0.272 OA
ATOM     42  G   UNL     1      17.659 -34.312  24.301  1.00  0.00     0.000 G0
ENDBRANCH  35  40
ENDBRANCH  31  34
ENDBRANCH   2  30
ENDBRANCH   1   2
BRANCH   1  43
ATOM     43  C   UNL     1      21.372 -28.660  20.573  1.00  0.00     0.003 C 
BRANCH  43  44
ATOM     44  C   UNL     1      22.185 -27.839  21.585  1.00  0.00     0.001 C 
BRANCH  44  45
ATOM     45  C   UNL     1      23.374 -27.107  20.934  1.00  0.00     0.008 C 
BRANCH  45  46
ATOM     46  C   UNL     1      22.926 -26.032  19.931  1.00  0.00     0.075 C 
BRANCH  46  47
ATOM     47  C   UNL     1      23.262 -24.647  20.424  1.00  0.00     0.132 C 
ATOM     48  O   UNL     1      23.875 -23.879  19.692  1.00  0.00    -0.300 OA
BRANCH  47  49
ATOM     49  C   UNL     1      22.879 -24.212  21.816  1.00  0.00     0.072 C 
ATOM     50  C   UNL     1      23.437 -22.822  22.138  1.00  0.00     0.012 C 
ENDBRANCH  47  49
ENDBRANCH  46  47
ENDBRANCH  45  46
ENDBRANCH  44  45
ENDBRANCH  43  44
ENDBRANCH   1  43
TORSDOF 12
ENDMDL
MODEL 2
REMARK VINA RESULT:    -6.189      2.272      7.208
REMARK INTER + INTRA:         -15.176
REMARK INTER:                 -12.981
REMARK INTRA:                  -2.195
REMARK UNBOUND:                -2.112
REMARK SMILES CCC(=O)CCCCC[C@@H]1NC(=O)[C@H]2CCCCN2C(=O)[C@@H]([C@@H](C)CC)NC(=O)[C@@H](Cc2cn(OC)c3ccccc23)NC1=O
REMARK SMILES IDX 9 1 10 2 44 3 43 4 45 6 30 7 28 8 27 9 29 11 22 12 23 14
REMARK SMILES IDX 24 15 25 16 26 17 31 18 32 19 33 20 42 21 34 22 37 23 41 24
REMARK SMILES IDX 38 25 40 26 39 27 35 28 36 29 11 30 12 31 13 33 14 34 19 35
REMARK SMILES IDX 15 36 18 37 16 38 17 39 20 40 21 41 8 43 7 44 6 45 5 46 3 47
REMARK SMILES IDX 4 48 2 49 1 50
REMARK H PARENT 43 5 27 10 11 32
REMARK Flexibility Score: 80.00
ROOT
ATOM      1  C   UNL     1      17.547 -32.679  20.072  1.00  0.00     0.035 C 
ENDROOT
BRANCH   1   2
ATOM      2  C   UNL     1      18.986 -32.583  20.666  1.00  0.00     0.171 C 
BRANCH   2   3
ATOM      3  C   UNL     1      19.363 -31.226  21.244  1.00  0.00     0.243 C 
ATOM      4  N   UNL     1      20.740 -30.875  21.438  1.00  0.00    -0.342 N 
ATOM      5  H   UNL     1      21.457 -31.325  20.831  1.00  0.00     0.164 HD
ATOM      6  O   UNL     1      18.478 -30.341  21.413  1.00  0.00    -0.273 OA
BRANCH   4   7
ATOM      7  C   UNL     1      21.192 -30.071  22.577  1.00  0.00     0.175 C 
BRANCH   7   8
ATOM      8  C   UNL     1      21.227 -30.930  23.819  1.00  0.00     0.243 C 
ATOM      9  N   UNL     1      20.976 -32.339  23.702  1.00  0.00    -0.342 N 
ATOM     10  H   UNL     1      20.301 -32.614  22.961  1.00  0.00     0.164 HD
ATOM     11  O   UNL     1      21.379 -30.408  24.954  1.00  0.00    -0.273 OA
BRANCH   9  12
ATOM     12  C   UNL     1      21.434 -33.347  24.663  1.00  0.00     0.174 CG0
ATOM     13  G   UNL     1      20.262 -34.232  25.093  1.00  0.00     0.000 G0
BRANCH  12  14
ATOM     14  C   UNL     1      22.724 -34.079  24.167  1.00  0.00     0.018 C 
ATOM     15  C   UNL     1      23.052 -33.740  22.704  1.00  0.00     0.010 C 
BRANCH  14  16
ATOM     16  C   UNL     1      23.945 -33.898  25.098  1.00  0.00     0.002 C 
ATOM     17  C   UNL     1      24.259 -32.428  25.383  1.00  0.00     0.004 C 
ENDBRANCH  14  16
ENDBRANCH  12  14
ENDBRANCH   9  12
ENDBRANCH   7   8
BRANCH   7  18
ATOM     18  C   UNL     1      22.545 -29.403  22.260  1.00  0.00     0.073 C 
BRANCH  18  19
ATOM     19  C   UNL     1      22.534 -27.912  22.427  1.00  0.00    -0.016 A 
ATOM     20  C   UNL     1      22.262 -27.226  23.602  1.00  0.00     0.134 A 
ATOM     21  C   UNL     1      22.764 -26.943  21.469  1.00  0.00     0.006 A 
ATOM     22  N   UNL     1      22.322 -25.892  23.395  1.00  0.00    -0.191 N 
ATOM     23  C   UNL     1      22.633 -25.716  22.085  1.00  0.00     0.087 A 
ATOM     24  C   UNL     1      23.068 -27.063  20.112  1.00  0.00     0.011 A 
ATOM     25  C   UNL     1      22.844 -24.530  21.364  1.00  0.00     0.030 A 
ATOM     26  C   UNL     1      23.279 -25.885  19.375  1.00  0.00     0.001 A 
ATOM     27  C   UNL     1      23.170 -24.627  20.000  1.00  0.00     0.002 A 
BRANCH  22  28
ATOM     28  O   UNL     1      22.062 -24.979  24.405  1.00  0.00    -0.417 OA
ATOM     29  C   UNL     1      21.375 -25.267  25.610  1.00  0.00     0.313 C 
ENDBRANCH  22  28
ENDBRANCH  18  19
ENDBRANCH   7  18
ENDBRANCH   4   7
ENDBRANCH   2   3
BRANCH   2  30
ATOM     30  N   UNL     1      19.305 -33.682  21.606  1.00  0.00    -0.343 N 
ATOM     31  C   UNL     1      18.474 -34.183  22.678  1.00  0.00     0.243 C 
ATOM     32  H   UNL     1      20.252 -34.112  21.488  1.00  0.00     0.164 HD
ATOM     33  O   UNL     1      17.456 -33.536  23.047  1.00  0.00    -0.273 OA
BRANCH  31  34
ATOM     34  C   UNL     1      18.755 -35.497  23.383  1.00  0.00     0.174 C 
ATOM     35  N   UNL     1      19.853 -35.450  24.379  1.00  0.00    -0.329 N 
ATOM     36  C   UNL     1      18.993 -36.670  22.410  1.00  0.00     0.035 C 
ATOM     37  C   UNL     1      19.985 -36.686  25.169  1.00  0.00     0.120 C 
ATOM     38  C   UNL     1      19.125 -37.990  23.179  1.00  0.00     0.004 C 
ATOM     39  C   UNL     1      20.214 -37.896  24.254  1.00  0.00     0.022 C 
BRANCH  35  40
ATOM     40  C   UNL     1      20.228 -34.228  25.054  1.00  0.00     0.246 CG0
ATOM     41  O   UNL     1      19.480 -33.797  25.971  1.00  0.00    -0.272 OA
ATOM     42  G   UNL     1      21.451 -33.388  24.678  1.00  0.00     0.000 G0
ENDBRANCH  35  40
ENDBRANCH  31  34
ENDBRANCH   2  30
ENDBRANCH   1   2
BRANCH   1  43
ATOM     43  C   UNL     1      17.157 -34.062  19.498  1.00  0.00     0.003 C 
BRANCH  43  44
ATOM     44  C   UNL     1      15.636 -34.249  19.385  1.00  0.00     0.001 C 
BRANCH  44  45
ATOM     45  C   UNL     1      14.912 -34.046  20.729  1.00  0.00     0.008 C 
BRANCH  45  46
ATOM     46  C   UNL     1      13.958 -32.841  20.707  1.00  0.00     0.075 C 
BRANCH  46  47
ATOM     47  C   UNL     1      13.988 -32.093  22.017  1.00  0.00     0.132 C 
ATOM     48  O   UNL     1      14.359 -32.671  23.032  1.00  0.00    -0.300 OA
BRANCH  47  49
ATOM     49  C   UNL     1      13.538 -30.656  22.093  1.00  0.00     0.072 C 
ATOM     50  C   UNL     1      13.184 -30.259  23.529  1.00  0.00     0.012 C 
ENDBRANCH  47  49
ENDBRANCH  46  47
ENDBRANCH  45  46
ENDBRANCH  44  45
ENDBRANCH  43  44
ENDBRANCH   1  43
TORSDOF 12
ENDMDL
MODEL 3
REMARK VINA RESULT:    -6.017      1.349      2.074
REMARK INTER + INTRA:         -14.813
REMARK INTER:                 -12.620
REMARK INTRA:                  -2.193
REMARK UNBOUND:                -2.112
REMARK SMILES CCC(=O)CCCCC[C@@H]1NC(=O)[C@H]2CCCCN2C(=O)[C@@H]([C@@H](C)CC)NC(=O)[C@@H](Cc2cn(OC)c3ccccc23)NC1=O
REMARK SMILES IDX 9 1 10 2 44 3 43 4 45 6 30 7 28 8 27 9 29 11 22 12 23 14
REMARK SMILES IDX 24 15 25 16 26 17 31 18 32 19 33 20 42 21 34 22 37 23 41 24
REMARK SMILES IDX 38 25 40 26 39 27 35 28 36 29 11 30 12 31 13 33 14 34 19 35
REMARK SMILES IDX 15 36 18 37 16 38 17 39 20 40 21 41 8 43 7 44 6 45 5 46 3 47
REMARK SMILES IDX 4 48 2 49 1 50
REMARK H PARENT 43 5 27 10 11 32
REMARK Flexibility Score: 80.00
ROOT
ATOM      1  C   UNL     1      20.384 -29.702  21.024  1.00  0.00     0.035 C 
ENDROOT
BRANCH   1   2
ATOM      2  C   UNL     1      20.715 -31.160  21.469  1.00  0.00     0.171 C 
BRANCH   2   3
ATOM      3  C   UNL     1      21.220 -31.307  22.898  1.00  0.00     0.243 C 
ATOM      4  N   UNL     1      21.371 -32.605  23.487  1.00  0.00    -0.342 N 
ATOM      5  H   UNL     1      21.544 -33.418  22.858  1.00  0.00     0.164 HD
ATOM      6  O   UNL     1      21.656 -30.299  23.522  1.00  0.00    -0.273 OA
BRANCH   4   7
ATOM      7  C   UNL     1      21.094 -32.863  24.902  1.00  0.00     0.175 C 
BRANCH   7   8
ATOM      8  C   UNL     1      19.602 -32.976  25.112  1.00  0.00     0.243 C 
ATOM      9  N   UNL     1      18.792 -33.547  24.073  1.00  0.00    -0.342 N 
ATOM     10  H   UNL     1      19.116 -33.367  23.102  1.00  0.00     0.164 HD
ATOM     11  O   UNL     1      19.062 -32.492  26.141  1.00  0.00    -0.273 OA
BRANCH   9  12
ATOM     12  C   UNL     1      17.477 -34.159  24.287  1.00  0.00     0.174 CG0
ATOM     13  G   UNL     1      16.463 -33.585  23.296  1.00  0.00     0.000 G0
BRANCH  12  14
ATOM     14  C   UNL     1      17.569 -35.718  24.375  1.00  0.00     0.018 C 
ATOM     15  C   UNL     1      18.892 -36.250  23.799  1.00  0.00     0.010 C 
BRANCH  14  16
ATOM     16  C   UNL     1      17.273 -36.286  25.782  1.00  0.00     0.002 C 
ATOM     17  C   UNL     1      18.339 -37.273  26.258  1.00  0.00     0.004 C 
ENDBRANCH  14  16
ENDBRANCH  12  14
ENDBRANCH   9  12
ENDBRANCH   7   8
BRANCH   7  18
ATOM     18  C   UNL     1      21.873 -34.101  25.386  1.00  0.00     0.073 C 
BRANCH  18  19
ATOM     19  C   UNL     1      23.340 -34.051  25.072  1.00  0.00    -0.016 A 
ATOM     20  C   UNL     1      24.018 -34.899  24.210  1.00  0.00     0.134 A 
ATOM     21  C   UNL     1      24.293 -33.188  25.579  1.00  0.00     0.006 A 
ATOM     22  N   UNL     1      25.331 -34.584  24.173  1.00  0.00    -0.191 N 
ATOM     23  C   UNL     1      25.502 -33.531  25.011  1.00  0.00     0.087 A 
ATOM     24  C   UNL     1      24.174 -32.142  26.497  1.00  0.00     0.011 A 
ATOM     25  C   UNL     1      26.663 -32.801  25.312  1.00  0.00     0.030 A 
ATOM     26  C   UNL     1      25.328 -31.404  26.811  1.00  0.00     0.001 A 
ATOM     27  C   UNL     1      26.564 -31.732  26.219  1.00  0.00     0.002 A 
BRANCH  22  28
ATOM     28  O   UNL     1      26.238 -35.301  23.406  1.00  0.00    -0.417 OA
ATOM     29  C   UNL     1      26.666 -36.624  23.671  1.00  0.00     0.313 C 
ENDBRANCH  22  28
ENDBRANCH  18  19
ENDBRANCH   7  18
ENDBRANCH   4   7
ENDBRANCH   2   3
BRANCH   2  30
ATOM     30  N   UNL     1      19.628 -32.122  21.176  1.00  0.00    -0.343 N 
ATOM     31  C   UNL     1      18.225 -31.981  21.499  1.00  0.00     0.243 C 
ATOM     32  H   UNL     1      19.929 -33.011  20.711  1.00  0.00     0.164 HD
ATOM     33  O   UNL     1      17.846 -31.078  22.294  1.00  0.00    -0.273 OA
BRANCH  31  34
ATOM     34  C   UNL     1      17.155 -32.870  20.895  1.00  0.00     0.174 C 
ATOM     35  N   UNL     1      16.525 -33.823  21.841  1.00  0.00    -0.329 N 
ATOM     36  C   UNL     1      17.633 -33.629  19.641  1.00  0.00     0.035 C 
ATOM     37  C   UNL     1      15.375 -34.544  21.271  1.00  0.00     0.120 C 
ATOM     38  C   UNL     1      16.469 -34.391  18.995  1.00  0.00     0.004 C 
ATOM     39  C   UNL     1      15.784 -35.315  20.010  1.00  0.00     0.022 C 
BRANCH  35  40
ATOM     40  C   UNL     1      16.470 -33.572  23.263  1.00  0.00     0.246 CG0
ATOM     41  O   UNL     1      15.581 -32.794  23.700  1.00  0.00    -0.272 OA
ATOM     42  G   UNL     1      17.471 -34.147  24.268  1.00  0.00     0.000 G0
ENDBRANCH  35  40
ENDBRANCH  31  34
ENDBRANCH   2  30
ENDBRANCH   1   2
BRANCH   1  43
ATOM     43  C   UNL     1      21.578 -28.891  20.468  1.00  0.00     0.003 C 
BRANCH  43  44
ATOM     44  C   UNL     1      21.705 -27.503  21.114  1.00  0.00     0.001 C 
BRANCH  44  45
ATOM     45  C   UNL     1      20.413 -26.674  20.994  1.00  0.00     0.008 C 
BRANCH  45  46
ATOM     46  C   UNL     1      20.687 -25.161  20.943  1.00  0.00     0.075 C 
BRANCH  46  47
ATOM     47  C   UNL     1      20.878 -24.591  22.326  1.00  0.00     0.132 C 
ATOM     48  O   UNL     1      19.951 -24.629  23.127  1.00  0.00    -0.300 OA
BRANCH  47  49
ATOM     49  C   UNL     1      22.184 -23.949  22.720  1.00  0.00     0.072 C 
ATOM     50  C   UNL     1      23.227 -24.077  21.606  1.00  0.00     0.012 C 
ENDBRANCH  47  49
ENDBRANCH  46  47
ENDBRANCH  45  46
ENDBRANCH  44  45
ENDBRANCH  43  44
ENDBRANCH   1  43
TORSDOF 12
ENDMDL
MODEL 4
REMARK VINA RESULT:    -5.857      3.486      8.142
REMARK INTER + INTRA:         -14.474
REMARK INTER:                 -11.584
REMARK INTRA:                  -2.891
REMARK UNBOUND:                -2.112
REMARK SMILES CCC(=O)CCCCC[C@@H]1NC(=O)[C@H]2CCCCN2C(=O)[C@@H]([C@@H](C)CC)NC(=O)[C@@H](Cc2cn(OC)c3ccccc23)NC1=O
REMARK SMILES IDX 9 1 10 2 44 3 43 4 45 6 30 7 28 8 27 9 29 11 22 12 23 14
REMARK SMILES IDX 24 15 25 16 26 17 31 18 32 19 33 20 42 21 34 22 37 23 41 24
REMARK SMILES IDX 38 25 40 26 39 27 35 28 36 29 11 30 12 31 13 33 14 34 19 35
REMARK SMILES IDX 15 36 18 37 16 38 17 39 20 40 21 41 8 43 7 44 6 45 5 46 3 47
REMARK SMILES IDX 4 48 2 49 1 50
REMARK H PARENT 43 5 27 10 11 32
REMARK Flexibility Score: 80.00
ROOT
ATOM      1  C   UNL     1      21.602 -30.237  27.728  1.00  0.00     0.035 C 
ENDROOT
BRANCH   1   2
ATOM      2  C   UNL     1      20.848 -31.475  27.153  1.00  0.00     0.171 C 
BRANCH   2   3
ATOM      3  C   UNL     1      19.426 -31.211  26.679  1.00  0.00     0.243 C 
ATOM      4  N   UNL     1      18.617 -32.281  26.173  1.00  0.00    -0.342 N 
ATOM      5  H   UNL     1      18.813 -33.250  26.501  1.00  0.00     0.164 HD
ATOM      6  O   UNL     1      18.894 -30.082  26.871  1.00  0.00    -0.273 OA
BRANCH   4   7
ATOM      7  C   UNL     1      17.668 -32.094  25.071  1.00  0.00     0.175 C 
BRANCH   7   8
ATOM      8  C   UNL     1      18.427 -31.872  23.784  1.00  0.00     0.243 C 
ATOM      9  N   UNL     1      19.621 -32.629  23.537  1.00  0.00    -0.342 N 
ATOM     10  H   UNL     1      20.185 -32.865  24.378  1.00  0.00     0.164 HD
ATOM     11  O   UNL     1      18.073 -30.970  22.981  1.00  0.00    -0.273 OA
BRANCH   9  12
ATOM     12  C   UNL     1      20.177 -32.894  22.206  1.00  0.00     0.174 CG0
ATOM     13  G   UNL     1      21.632 -32.426  22.142  1.00  0.00     0.000 G0
BRANCH  12  14
ATOM     14  C   UNL     1      19.886 -34.356  21.735  1.00  0.00     0.018 C 
ATOM     15  C   UNL     1      19.745 -35.326  22.921  1.00  0.00     0.010 C 
BRANCH  14  16
ATOM     16  C   UNL     1      18.709 -34.474  20.740  1.00  0.00     0.002 C 
ATOM     17  C   UNL     1      18.306 -33.127  20.139  1.00  0.00     0.004 C 
ENDBRANCH  14  16
ENDBRANCH  12  14
ENDBRANCH   9  12
ENDBRANCH   7   8
BRANCH   7  18
ATOM     18  C   UNL     1      16.685 -33.280  25.002  1.00  0.00     0.073 C 
BRANCH  18  19
ATOM     19  C   UNL     1      15.869 -33.313  23.743  1.00  0.00    -0.016 A 
ATOM     20  C   UNL     1      15.909 -34.303  22.773  1.00  0.00     0.134 A 
ATOM     21  C   UNL     1      14.955 -32.380  23.292  1.00  0.00     0.006 A 
ATOM     22  N   UNL     1      15.059 -34.011  21.764  1.00  0.00    -0.191 N 
ATOM     23  C   UNL     1      14.469 -32.831  22.083  1.00  0.00     0.087 A 
ATOM     24  C   UNL     1      14.532 -31.176  23.860  1.00  0.00     0.011 A 
ATOM     25  C   UNL     1      13.489 -32.101  21.392  1.00  0.00     0.030 A 
ATOM     26  C   UNL     1      13.553 -30.432  23.179  1.00  0.00     0.001 A 
ATOM     27  C   UNL     1      13.033 -30.895  21.954  1.00  0.00     0.002 A 
BRANCH  22  28
ATOM     28  O   UNL     1      14.928 -34.829  20.652  1.00  0.00    -0.417 OA
ATOM     29  C   UNL     1      15.356 -34.502  19.342  1.00  0.00     0.313 C 
ENDBRANCH  22  28
ENDBRANCH  18  19
ENDBRANCH   7  18
ENDBRANCH   4   7
ENDBRANCH   2   3
BRANCH   2  30
ATOM     30  N   UNL     1      21.631 -32.215  26.135  1.00  0.00    -0.343 N 
ATOM     31  C   UNL     1      22.212 -31.683  24.923  1.00  0.00     0.243 C 
ATOM     32  H   UNL     1      21.740 -33.241  26.313  1.00  0.00     0.164 HD
ATOM     33  O   UNL     1      21.887 -30.535  24.515  1.00  0.00    -0.273 OA
BRANCH  31  34
ATOM     34  C   UNL     1      23.242 -32.444  24.109  1.00  0.00     0.174 C 
ATOM     35  N   UNL     1      22.743 -32.991  22.823  1.00  0.00    -0.329 N 
ATOM     36  C   UNL     1      23.941 -33.562  24.907  1.00  0.00     0.035 C 
ATOM     37  C   UNL     1      23.802 -33.569  21.979  1.00  0.00     0.120 C 
ATOM     38  C   UNL     1      25.067 -34.193  24.079  1.00  0.00     0.004 C 
ATOM     39  C   UNL     1      24.546 -34.684  22.723  1.00  0.00     0.022 C 
BRANCH  35  40
ATOM     40  C   UNL     1      21.625 -32.404  22.120  1.00  0.00     0.246 CG0
ATOM     41  O   UNL     1      21.832 -31.383  21.413  1.00  0.00    -0.272 OA
ATOM     42  G   UNL     1      20.186 -32.915  22.232  1.00  0.00     0.000 G0
ENDBRANCH  35  40
ENDBRANCH  31  34
ENDBRANCH   2  30
ENDBRANCH   1   2
BRANCH   1  43
ATOM     43  C   UNL     1      23.025 -30.517  28.267  1.00  0.00     0.003 C 
BRANCH  43  44
ATOM     44  C   UNL     1      24.120 -30.224  27.230  1.00  0.00     0.001 C 
BRANCH  44  45
ATOM     45  C   UNL     1      25.346 -31.143  27.387  1.00  0.00     0.008 C 
BRANCH  45  46
ATOM     46  C   UNL     1      26.336 -31.009  26.219  1.00  0.00     0.075 C 
BRANCH  46  47
ATOM     47  C   UNL     1      27.763 -30.991  26.707  1.00  0.00     0.132 C 
ATOM     48  O   UNL     1      28.535 -30.142  26.279  1.00  0.00    -0.300 OA
BRANCH  47  49
ATOM     49  C   UNL     1      28.253 -32.024  27.691  1.00  0.00     0.072 C 
ATOM     50  C   UNL     1      28.310 -33.415  27.054  1.00  0.00     0.012 C 
ENDBRANCH  47  49
ENDBRANCH  46  47
ENDBRANCH  45  46
ENDBRANCH  44  45
ENDBRANCH  43  44
ENDBRANCH   1  43
TORSDOF 12
ENDMDL
MODEL 5
REMARK VINA RESULT:    -5.793      3.183      8.892
REMARK INTER + INTRA:         -14.340
REMARK INTER:                 -12.093
REMARK INTRA:                  -2.247
REMARK UNBOUND:                -2.112
REMARK SMILES CCC(=O)CCCCC[C@@H]1NC(=O)[C@H]2CCCCN2C(=O)[C@@H]([C@@H](C)CC)NC(=O)[C@@H](Cc2cn(OC)c3ccccc23)NC1=O
REMARK SMILES IDX 9 1 10 2 44 3 43 4 45 6 30 7 28 8 27 9 29 11 22 12 23 14
REMARK SMILES IDX 24 15 25 16 26 17 31 18 32 19 33 20 42 21 34 22 37 23 41 24
REMARK SMILES IDX 38 25 40 26 39 27 35 28 36 29 11 30 12 31 13 33 14 34 19 35
REMARK SMILES IDX 15 36 18 37 16 38 17 39 20 40 21 41 8 43 7 44 6 45 5 46 3 47
REMARK SMILES IDX 4 48 2 49 1 50
REMARK H PARENT 43 5 27 10 11 32
REMARK Flexibility Score: 80.00
ROOT
ATOM      1  C   UNL     1      20.504 -32.819  21.779  1.00  0.00     0.035 C 
ENDROOT
BRANCH   1   2
ATOM      2  C   UNL     1      21.717 -31.852  21.944  1.00  0.00     0.171 C 
BRANCH   2   3
ATOM      3  C   UNL     1      21.568 -30.801  23.035  1.00  0.00     0.243 C 
ATOM      4  N   UNL     1      22.586 -29.811  23.235  1.00  0.00    -0.342 N 
ATOM      5  H   UNL     1      23.184 -29.543  22.425  1.00  0.00     0.164 HD
ATOM      6  O   UNL     1      20.482 -30.695  23.669  1.00  0.00    -0.273 OA
BRANCH   4   7
ATOM      7  C   UNL     1      22.948 -29.315  24.566  1.00  0.00     0.175 C 
BRANCH   7   8
ATOM      8  C   UNL     1      23.686 -30.394  25.323  1.00  0.00     0.243 C 
ATOM      9  N   UNL     1      24.603 -31.241  24.616  1.00  0.00    -0.342 N 
ATOM     10  H   UNL     1      24.350 -31.452  23.630  1.00  0.00     0.164 HD
ATOM     11  O   UNL     1      23.433 -30.610  26.537  1.00  0.00    -0.273 OA
BRANCH   9  12
ATOM     12  C   UNL     1      25.713 -31.968  25.240  1.00  0.00     0.174 CG0
ATOM     13  G   UNL     1      25.542 -33.474  25.026  1.00  0.00     0.000 G0
BRANCH  12  14
ATOM     14  C   UNL     1      27.099 -31.356  24.852  1.00  0.00     0.018 C 
ATOM     15  C   UNL     1      27.049 -30.631  23.496  1.00  0.00     0.010 C 
BRANCH  14  16
ATOM     16  C   UNL     1      27.732 -30.483  25.959  1.00  0.00     0.002 C 
ATOM     17  C   UNL     1      29.234 -30.272  25.760  1.00  0.00     0.004 C 
ENDBRANCH  14  16
ENDBRANCH  12  14
ENDBRANCH   9  12
ENDBRANCH   7   8
BRANCH   7  18
ATOM     18  C   UNL     1      23.742 -27.998  24.451  1.00  0.00     0.073 C 
BRANCH  18  19
ATOM     19  C   UNL     1      22.970 -26.884  23.806  1.00  0.00    -0.016 A 
ATOM     20  C   UNL     1      22.147 -25.978  24.459  1.00  0.00     0.134 A 
ATOM     21  C   UNL     1      22.904 -26.555  22.465  1.00  0.00     0.006 A 
ATOM     22  N   UNL     1      21.594 -25.120  23.575  1.00  0.00    -0.191 N 
ATOM     23  C   UNL     1      22.060 -25.470  22.349  1.00  0.00     0.087 A 
ATOM     24  C   UNL     1      23.520 -27.139  21.356  1.00  0.00     0.011 A 
ATOM     25  C   UNL     1      21.821 -24.884  21.096  1.00  0.00     0.030 A 
ATOM     26  C   UNL     1      23.288 -26.566  20.094  1.00  0.00     0.001 A 
ATOM     27  C   UNL     1      22.446 -25.444  19.967  1.00  0.00     0.002 A 
BRANCH  22  28
ATOM     28  O   UNL     1      20.707 -24.129  23.968  1.00  0.00    -0.417 OA
ATOM     29  C   UNL     1      20.758 -23.428  25.198  1.00  0.00     0.313 C 
ENDBRANCH  22  28
ENDBRANCH  18  19
ENDBRANCH   7  18
ENDBRANCH   4   7
ENDBRANCH   2   3
BRANCH   2  30
ATOM     30  N   UNL     1      23.017 -32.555  22.039  1.00  0.00    -0.343 N 
ATOM     31  C   UNL     1      23.383 -33.590  22.981  1.00  0.00     0.243 C 
ATOM     32  H   UNL     1      23.750 -32.235  21.365  1.00  0.00     0.164 HD
ATOM     33  O   UNL     1      22.653 -33.823  23.983  1.00  0.00    -0.273 OA
BRANCH  31  34
ATOM     34  C   UNL     1      24.619 -34.453  22.806  1.00  0.00     0.174 C 
ATOM     35  N   UNL     1      25.748 -34.118  23.709  1.00  0.00    -0.329 N 
ATOM     36  C   UNL     1      25.122 -34.504  21.350  1.00  0.00     0.035 C 
ATOM     37  C   UNL     1      26.861 -35.078  23.639  1.00  0.00     0.120 C 
ATOM     38  C   UNL     1      26.278 -35.503  21.214  1.00  0.00     0.004 C 
ATOM     39  C   UNL     1      27.402 -35.184  22.207  1.00  0.00     0.022 C 
BRANCH  35  40
ATOM     40  C   UNL     1      25.545 -33.479  24.989  1.00  0.00     0.246 CG0
ATOM     41  O   UNL     1      25.170 -34.188  25.960  1.00  0.00    -0.272 OA
ATOM     42  G   UNL     1      25.700 -31.975  25.224  1.00  0.00     0.000 G0
ENDBRANCH  35  40
ENDBRANCH  31  34
ENDBRANCH   2  30
ENDBRANCH   1   2
BRANCH   1  43
ATOM     43  C   UNL     1      19.380 -32.320  20.839  1.00  0.00     0.003 C 
BRANCH  43  44
ATOM     44  C   UNL     1      18.044 -33.039  21.078  1.00  0.00     0.001 C 
BRANCH  44  45
ATOM     45  C   UNL     1      17.412 -33.564  19.776  1.00  0.00     0.008 C 
BRANCH  45  46
ATOM     46  C   UNL     1      17.932 -34.958  19.389  1.00  0.00     0.075 C 
BRANCH  46  47
ATOM     47  C   UNL     1      17.056 -36.047  19.956  1.00  0.00     0.132 C 
ATOM     48  O   UNL     1      15.867 -36.077  19.663  1.00  0.00    -0.300 OA
BRANCH  47  49
ATOM     49  C   UNL     1      17.622 -37.076  20.901  1.00  0.00     0.072 C 
ATOM     50  C   UNL     1      18.695 -36.468  21.809  1.00  0.00     0.012 C 
ENDBRANCH  47  49
ENDBRANCH  46  47
ENDBRANCH  45  46
ENDBRANCH  44  45
ENDBRANCH  43  44
ENDBRANCH   1  43
TORSDOF 12
ENDMDL
MODEL 6
REMARK VINA RESULT:    -5.706      4.235      7.535
REMARK INTER + INTRA:         -14.155
REMARK INTER:                 -11.566
REMARK INTRA:                  -2.590
REMARK UNBOUND:                -2.112
REMARK SMILES CCC(=O)CCCCC[C@@H]1NC(=O)[C@H]2CCCCN2C(=O)[C@@H]([C@@H](C)CC)NC(=O)[C@@H](Cc2cn(OC)c3ccccc23)NC1=O
REMARK SMILES IDX 9 1 10 2 44 3 43 4 45 6 30 7 28 8 27 9 29 11 22 12 23 14
REMARK SMILES IDX 24 15 25 16 26 17 31 18 32 19 33 20 42 21 34 22 37 23 41 24
REMARK SMILES IDX 38 25 40 26 39 27 35 28 36 29 11 30 12 31 13 33 14 34 19 35
REMARK SMILES IDX 15 36 18 37 16 38 17 39 20 40 21 41 8 43 7 44 6 45 5 46 3 47
REMARK SMILES IDX 4 48 2 49 1 50
REMARK H PARENT 43 5 27 10 11 32
REMARK Flexibility Score: 80.00
ROOT
ATOM      1  C   UNL     1      21.643 -32.383  22.321  1.00  0.00     0.035 C 
ENDROOT
BRANCH   1   2
ATOM      2  C   UNL     1      23.057 -31.901  22.767  1.00  0.00     0.171 C 
BRANCH   2   3
ATOM      3  C   UNL     1      23.183 -31.521  24.235  1.00  0.00     0.243 C 
ATOM      4  N   UNL     1      24.305 -30.756  24.695  1.00  0.00    -0.342 N 
ATOM      5  H   UNL     1      24.786 -30.124  24.020  1.00  0.00     0.164 HD
ATOM      6  O   UNL     1      22.228 -31.741  25.032  1.00  0.00    -0.273 OA
BRANCH   4   7
ATOM      7  C   UNL     1      24.922 -30.976  26.007  1.00  0.00     0.175 C 
BRANCH   7   8
ATOM      8  C   UNL     1      25.624 -32.313  26.016  1.00  0.00     0.243 C 
ATOM      9  N   UNL     1      26.283 -32.765  24.823  1.00  0.00    -0.342 N 
ATOM     10  H   UNL     1      25.838 -32.476  23.929  1.00  0.00     0.164 HD
ATOM     11  O   UNL     1      25.555 -33.065  27.023  1.00  0.00    -0.273 OA
BRANCH   9  12
ATOM     12  C   UNL     1      27.374 -33.744  24.796  1.00  0.00     0.174 CG0
ATOM     13  G   UNL     1      26.883 -35.060  24.189  1.00  0.00     0.000 G0
BRANCH  12  14
ATOM     14  C   UNL     1      28.684 -33.138  24.196  1.00  0.00     0.018 C 
ATOM     15  C   UNL     1      28.482 -31.690  23.718  1.00  0.00     0.010 C 
BRANCH  14  16
ATOM     16  C   UNL     1      29.921 -33.284  25.111  1.00  0.00     0.002 C 
ATOM     17  C   UNL     1      30.766 -32.011  25.174  1.00  0.00     0.004 C 
ENDBRANCH  14  16
ENDBRANCH  12  14
ENDBRANCH   9  12
ENDBRANCH   7   8
BRANCH   7  18
ATOM     18  C   UNL     1      25.847 -29.798  26.370  1.00  0.00     0.073 C 
BRANCH  18  19
ATOM     19  C   UNL     1      26.245 -29.769  27.818  1.00  0.00    -0.016 A 
ATOM     20  C   UNL     1      25.570 -29.111  28.835  1.00  0.00     0.134 A 
ATOM     21  C   UNL     1      27.345 -30.356  28.413  1.00  0.00     0.006 A 
ATOM     22  N   UNL     1      26.210 -29.278  30.012  1.00  0.00    -0.191 N 
ATOM     23  C   UNL     1      27.300 -30.046  29.756  1.00  0.00     0.087 A 
ATOM     24  C   UNL     1      28.371 -31.127  27.863  1.00  0.00     0.011 A 
ATOM     25  C   UNL     1      28.280 -30.536  30.634  1.00  0.00     0.030 A 
ATOM     26  C   UNL     1      29.361 -31.623  28.728  1.00  0.00     0.001 A 
ATOM     27  C   UNL     1      29.312 -31.331  30.106  1.00  0.00     0.002 A 
BRANCH  22  28
ATOM     28  O   UNL     1      25.755 -28.696  31.186  1.00  0.00    -0.417 OA
ATOM     29  C   UNL     1      25.506 -27.314  31.370  1.00  0.00     0.313 C 
ENDBRANCH  22  28
ENDBRANCH  18  19
ENDBRANCH   7  18
ENDBRANCH   4   7
ENDBRANCH   2   3
BRANCH   2  30
ATOM     30  N   UNL     1      24.146 -32.813  22.346  1.00  0.00    -0.343 N 
ATOM     31  C   UNL     1      24.392 -34.157  22.821  1.00  0.00     0.243 C 
ATOM     32  H   UNL     1      24.820 -32.415  21.652  1.00  0.00     0.164 HD
ATOM     33  O   UNL     1      23.794 -34.587  23.845  1.00  0.00    -0.273 OA
BRANCH  31  34
ATOM     34  C   UNL     1      25.338 -35.111  22.116  1.00  0.00     0.174 C 
ATOM     35  N   UNL     1      26.658 -35.281  22.771  1.00  0.00    -0.329 N 
ATOM     36  C   UNL     1      25.543 -34.773  20.626  1.00  0.00     0.035 C 
ATOM     37  C   UNL     1      27.483 -36.339  22.167  1.00  0.00     0.120 C 
ATOM     38  C   UNL     1      26.387 -35.853  19.939  1.00  0.00     0.004 C 
ATOM     39  C   UNL     1      27.715 -36.066  20.675  1.00  0.00     0.022 C 
BRANCH  35  40
ATOM     40  C   UNL     1      26.847 -35.066  24.188  1.00  0.00     0.246 CG0
ATOM     41  O   UNL     1      26.513 -35.983  24.983  1.00  0.00    -0.272 OA
ATOM     42  G   UNL     1      27.373 -33.760  24.788  1.00  0.00     0.000 G0
ENDBRANCH  35  40
ENDBRANCH  31  34
ENDBRANCH   2  30
ENDBRANCH   1   2
BRANCH   1  43
ATOM     43  C   UNL     1      20.672 -31.266  21.869  1.00  0.00     0.003 C 
BRANCH  43  44
ATOM     44  C   UNL     1      21.342 -30.234  20.950  1.00  0.00     0.001 C 
BRANCH  44  45
ATOM     45  C   UNL     1      21.495 -28.855  21.620  1.00  0.00     0.008 C 
BRANCH  45  46
ATOM     46  C   UNL     1      21.253 -27.695  20.641  1.00  0.00     0.075 C 
BRANCH  46  47
ATOM     47  C   UNL     1      22.436 -26.761  20.594  1.00  0.00     0.132 C 
ATOM     48  O   UNL     1      23.564 -27.208  20.770  1.00  0.00    -0.300 OA
BRANCH  47  49
ATOM     49  C   UNL     1      22.242 -25.283  20.365  1.00  0.00     0.072 C 
ATOM     50  C   UNL     1      23.565 -24.595  20.019  1.00  0.00     0.012 C 
ENDBRANCH  47  49
ENDBRANCH  46  47
ENDBRANCH  45  46
ENDBRANCH  44  45
ENDBRANCH  43  44
ENDBRANCH   1  43
TORSDOF 12
ENDMDL
MODEL 7
REMARK VINA RESULT:    -5.689      3.251      8.379
REMARK INTER + INTRA:         -14.120
REMARK INTER:                 -10.815
REMARK INTRA:                  -3.305
REMARK UNBOUND:                -2.112
REMARK SMILES CCC(=O)CCCCC[C@@H]1NC(=O)[C@H]2CCCCN2C(=O)[C@@H]([C@@H](C)CC)NC(=O)[C@@H](Cc2cn(OC)c3ccccc23)NC1=O
REMARK SMILES IDX 9 1 10 2 44 3 43 4 45 6 30 7 28 8 27 9 29 11 22 12 23 14
REMARK SMILES IDX 24 15 25 16 26 17 31 18 32 19 33 20 42 21 34 22 37 23 41 24
REMARK SMILES IDX 38 25 40 26 39 27 35 28 36 29 11 30 12 31 13 33 14 34 19 35
REMARK SMILES IDX 15 36 18 37 16 38 17 39 20 40 21 41 8 43 7 44 6 45 5 46 3 47
REMARK SMILES IDX 4 48 2 49 1 50
REMARK H PARENT 43 5 27 10 11 32
REMARK Flexibility Score: 80.00
ROOT
ATOM      1  C   UNL     1      19.769 -32.608  25.726  1.00  0.00     0.035 C 
ENDROOT
BRANCH   1   2
ATOM      2  C   UNL     1      20.804 -31.813  24.872  1.00  0.00     0.171 C 
BRANCH   2   3
ATOM      3  C   UNL     1      21.252 -30.484  25.462  1.00  0.00     0.243 C 
ATOM      4  N   UNL     1      22.185 -29.653  24.758  1.00  0.00    -0.342 N 
ATOM      5  H   UNL     1      22.231 -29.727  23.719  1.00  0.00     0.164 HD
ATOM      6  O   UNL     1      20.692 -30.029  26.498  1.00  0.00    -0.273 OA
BRANCH   4   7
ATOM      7  C   UNL     1      23.206 -28.859  25.447  1.00  0.00     0.175 C 
BRANCH   7   8
ATOM      8  C   UNL     1      24.281 -29.776  25.983  1.00  0.00     0.243 C 
ATOM      9  N   UNL     1      24.664 -30.927  25.216  1.00  0.00    -0.342 N 
ATOM     10  H   UNL     1      23.904 -31.370  24.662  1.00  0.00     0.164 HD
ATOM     11  O   UNL     1      24.768 -29.589  27.129  1.00  0.00    -0.273 OA
BRANCH   9  12
ATOM     12  C   UNL     1      25.957 -31.609  25.331  1.00  0.00     0.174 CG0
ATOM     13  G   UNL     1      25.743 -33.093  25.637  1.00  0.00     0.000 G0
BRANCH  12  14
ATOM     14  C   UNL     1      26.903 -31.267  24.133  1.00  0.00     0.018 C 
ATOM     15  C   UNL     1      26.243 -30.299  23.137  1.00  0.00     0.010 C 
BRANCH  14  16
ATOM     16  C   UNL     1      28.312 -30.796  24.561  1.00  0.00     0.002 C 
ATOM     17  C   UNL     1      29.307 -30.778  23.399  1.00  0.00     0.004 C 
ENDBRANCH  14  16
ENDBRANCH  12  14
ENDBRANCH   9  12
ENDBRANCH   7   8
BRANCH   7  18
ATOM     18  C   UNL     1      23.752 -27.759  24.516  1.00  0.00     0.073 C 
BRANCH  18  19
ATOM     19  C   UNL     1      22.695 -26.823  24.006  1.00  0.00    -0.016 A 
ATOM     20  C   UNL     1      22.121 -25.779  24.715  1.00  0.00     0.134 A 
ATOM     21  C   UNL     1      22.080 -26.822  22.769  1.00  0.00     0.006 A 
ATOM     22  N   UNL     1      21.193 -25.150  23.962  1.00  0.00    -0.191 N 
ATOM     23  C   UNL     1      21.168 -25.787  22.764  1.00  0.00     0.087 A 
ATOM     24  C   UNL     1      22.258 -27.660  21.666  1.00  0.00     0.011 A 
ATOM     25  C   UNL     1      20.406 -25.514  21.617  1.00  0.00     0.030 A 
ATOM     26  C   UNL     1      21.499 -27.402  20.511  1.00  0.00     0.001 A 
ATOM     27  C   UNL     1      20.582 -26.333  20.488  1.00  0.00     0.002 A 
BRANCH  22  28
ATOM     28  O   UNL     1      20.450 -24.085  24.448  1.00  0.00    -0.417 OA
ATOM     29  C   UNL     1      20.805 -22.718  24.329  1.00  0.00     0.313 C 
ENDBRANCH  22  28
ENDBRANCH  18  19
ENDBRANCH   7  18
ENDBRANCH   4   7
ENDBRANCH   2   3
BRANCH   2  30
ATOM     30  N   UNL     1      21.959 -32.634  24.440  1.00  0.00    -0.343 N 
ATOM     31  C   UNL     1      22.814 -33.446  25.277  1.00  0.00     0.243 C 
ATOM     32  H   UNL     1      22.187 -32.585  23.420  1.00  0.00     0.164 HD
ATOM     33  O   UNL     1      22.769 -33.331  26.532  1.00  0.00    -0.273 OA
BRANCH  31  34
ATOM     34  C   UNL     1      23.771 -34.477  24.708  1.00  0.00     0.174 C 
ATOM     35  N   UNL     1      25.198 -34.073  24.705  1.00  0.00    -0.329 N 
ATOM     36  C   UNL     1      23.372 -34.965  23.301  1.00  0.00     0.035 C 
ATOM     37  C   UNL     1      26.116 -35.155  24.314  1.00  0.00     0.120 C 
ATOM     38  C   UNL     1      24.289 -36.106  22.845  1.00  0.00     0.004 C 
ATOM     39  C   UNL     1      25.764 -35.693  22.922  1.00  0.00     0.022 C 
BRANCH  35  40
ATOM     40  C   UNL     1      25.725 -33.106  25.643  1.00  0.00     0.246 CG0
ATOM     41  O   UNL     1      25.983 -33.488  26.814  1.00  0.00    -0.272 OA
ATOM     42  G   UNL     1      25.932 -31.626  25.313  1.00  0.00     0.000 G0
ENDBRANCH  35  40
ENDBRANCH  31  34
ENDBRANCH   2  30
ENDBRANCH   1   2
BRANCH   1  43
ATOM     43  C   UNL     1      18.283 -32.309  25.416  1.00  0.00     0.003 C 
BRANCH  43  44
ATOM     44  C   UNL     1      17.822 -32.917  24.083  1.00  0.00     0.001 C 
BRANCH  44  45
ATOM     45  C   UNL     1      16.628 -32.161  23.469  1.00  0.00     0.008 C 
BRANCH  45  46
ATOM     46  C   UNL     1      17.027 -30.783  22.914  1.00  0.00     0.075 C 
BRANCH  46  47
ATOM     47  C   UNL     1      17.960 -30.914  21.737  1.00  0.00     0.132 C 
ATOM     48  O   UNL     1      17.612 -31.574  20.764  1.00  0.00    -0.300 OA
BRANCH  47  49
ATOM     49  C   UNL     1      19.322 -30.270  21.758  1.00  0.00     0.072 C 
ATOM     50  C   UNL     1      20.396 -31.218  21.216  1.00  0.00     0.012 C 
ENDBRANCH  47  49
ENDBRANCH  46  47
ENDBRANCH  45  46
ENDBRANCH  44  45
ENDBRANCH  43  44
ENDBRANCH   1  43
TORSDOF 12
ENDMDL
MODEL 8
REMARK VINA RESULT:    -5.562      1.264      1.519
REMARK INTER + INTRA:         -13.853
REMARK INTER:                 -11.702
REMARK INTRA:                  -2.151
REMARK UNBOUND:                -2.112
REMARK SMILES CCC(=O)CCCCC[C@@H]1NC(=O)[C@H]2CCCCN2C(=O)[C@@H]([C@@H](C)CC)NC(=O)[C@@H](Cc2cn(OC)c3ccccc23)NC1=O
REMARK SMILES IDX 9 1 10 2 44 3 43 4 45 6 30 7 28 8 27 9 29 11 22 12 23 14
REMARK SMILES IDX 24 15 25 16 26 17 31 18 32 19 33 20 42 21 34 22 37 23 41 24
REMARK SMILES IDX 38 25 40 26 39 27 35 28 36 29 11 30 12 31 13 33 14 34 19 35
REMARK SMILES IDX 15 36 18 37 16 38 17 39 20 40 21 41 8 43 7 44 6 45 5 46 3 47
REMARK SMILES IDX 4 48 2 49 1 50
REMARK H PARENT 43 5 27 10 11 32
REMARK Flexibility Score: 80.00
ROOT
ATOM      1  C   UNL     1      20.092 -29.400  21.179  1.00  0.00     0.035 C 
ENDROOT
BRANCH   1   2
ATOM      2  C   UNL     1      20.611 -30.849  21.430  1.00  0.00     0.171 C 
BRANCH   2   3
ATOM      3  C   UNL     1      21.226 -31.092  22.801  1.00  0.00     0.243 C 
ATOM      4  N   UNL     1      21.524 -32.425  23.238  1.00  0.00    -0.342 N 
ATOM      5  H   UNL     1      21.718 -33.153  22.518  1.00  0.00     0.164 HD
ATOM      6  O   UNL     1      21.622 -30.118  23.500  1.00  0.00    -0.273 OA
BRANCH   4   7
ATOM      7  C   UNL     1      21.369 -32.846  24.634  1.00  0.00     0.175 C 
BRANCH   7   8
ATOM      8  C   UNL     1      19.911 -33.124  24.918  1.00  0.00     0.243 C 
ATOM      9  N   UNL     1      19.085 -33.660  23.874  1.00  0.00    -0.342 N 
ATOM     10  H   UNL     1      19.323 -33.350  22.910  1.00  0.00     0.164 HD
ATOM     11  O   UNL     1      19.403 -32.803  26.024  1.00  0.00    -0.273 OA
BRANCH   9  12
ATOM     12  C   UNL     1      17.849 -34.415  24.097  1.00  0.00     0.174 CG0
ATOM     13  G   UNL     1      16.736 -33.881  23.192  1.00  0.00     0.000 G0
BRANCH  12  14
ATOM     14  C   UNL     1      18.097 -35.959  24.070  1.00  0.00     0.018 C 
ATOM     15  C   UNL     1      19.226 -36.343  23.099  1.00  0.00     0.010 C 
BRANCH  14  16
ATOM     16  C   UNL     1      18.289 -36.588  25.469  1.00  0.00     0.002 C 
ATOM     17  C   UNL     1      17.131 -36.280  26.420  1.00  0.00     0.004 C 
ENDBRANCH  14  16
ENDBRANCH  12  14
ENDBRANCH   9  12
ENDBRANCH   7   8
BRANCH   7  18
ATOM     18  C   UNL     1      22.289 -34.045  24.938  1.00  0.00     0.073 C 
BRANCH  18  19
ATOM     19  C   UNL     1      23.740 -33.677  25.049  1.00  0.00    -0.016 A 
ATOM     20  C   UNL     1      24.242 -32.414  25.326  1.00  0.00     0.134 A 
ATOM     21  C   UNL     1      24.843 -34.493  24.882  1.00  0.00     0.006 A 
ATOM     22  N   UNL     1      25.592 -32.434  25.335  1.00  0.00    -0.191 N 
ATOM     23  C   UNL     1      25.964 -33.711  25.066  1.00  0.00     0.087 A 
ATOM     24  C   UNL     1      24.928 -35.853  24.576  1.00  0.00     0.011 A 
ATOM     25  C   UNL     1      27.247 -34.276  24.990  1.00  0.00     0.030 A 
ATOM     26  C   UNL     1      26.205 -36.433  24.493  1.00  0.00     0.001 A 
ATOM     27  C   UNL     1      27.357 -35.648  24.702  1.00  0.00     0.002 A 
BRANCH  22  28
ATOM     28  O   UNL     1      26.343 -31.290  25.560  1.00  0.00    -0.417 OA
ATOM     29  C   UNL     1      25.915 -30.165  26.307  1.00  0.00     0.313 C 
ENDBRANCH  22  28
ENDBRANCH  18  19
ENDBRANCH   7  18
ENDBRANCH   4   7
ENDBRANCH   2   3
BRANCH   2  30
ATOM     30  N   UNL     1      19.619 -31.893  21.086  1.00  0.00    -0.343 N 
ATOM     31  C   UNL     1      18.242 -31.967  21.521  1.00  0.00     0.243 C 
ATOM     32  H   UNL     1      19.979 -32.673  20.487  1.00  0.00     0.164 HD
ATOM     33  O   UNL     1      17.830 -31.224  22.453  1.00  0.00    -0.273 OA
BRANCH  31  34
ATOM     34  C   UNL     1      17.232 -32.899  20.878  1.00  0.00     0.174 C 
ATOM     35  N   UNL     1      16.741 -33.991  21.754  1.00  0.00    -0.329 N 
ATOM     36  C   UNL     1      17.718 -33.492  19.540  1.00  0.00     0.035 C 
ATOM     37  C   UNL     1      15.637 -34.767  21.165  1.00  0.00     0.120 C 
ATOM     38  C   UNL     1      16.601 -34.303  18.872  1.00  0.00     0.004 C 
ATOM     39  C   UNL     1      16.056 -35.377  19.821  1.00  0.00     0.022 C 
BRANCH  35  40
ATOM     40  C   UNL     1      16.731 -33.875  23.195  1.00  0.00     0.246 CG0
ATOM     41  O   UNL     1      15.776 -33.262  23.740  1.00  0.00    -0.272 OA
ATOM     42  G   UNL     1      17.849 -34.401  24.098  1.00  0.00     0.000 G0
ENDBRANCH  35  40
ENDBRANCH  31  34
ENDBRANCH   2  30
ENDBRANCH   1   2
BRANCH   1  43
ATOM     43  C   UNL     1      21.129 -28.416  20.587  1.00  0.00     0.003 C 
BRANCH  43  44
ATOM     44  C   UNL     1      20.607 -26.972  20.522  1.00  0.00     0.001 C 
BRANCH  44  45
ATOM     45  C   UNL     1      21.715 -25.931  20.767  1.00  0.00     0.008 C 
BRANCH  45  46
ATOM     46  C   UNL     1      21.238 -24.759  21.641  1.00  0.00     0.075 C 
BRANCH  46  47
ATOM     47  C   UNL     1      21.983 -24.712  22.951  1.00  0.00     0.132 C 
ATOM     48  O   UNL     1      22.897 -23.909  23.096  1.00  0.00    -0.300 OA
BRANCH  47  49
ATOM     49  C   UNL     1      21.636 -25.662  24.069  1.00  0.00     0.072 C 
ATOM     50  C   UNL     1      22.664 -26.792  24.180  1.00  0.00     0.012 C 
ENDBRANCH  47  49
ENDBRANCH  46  47
ENDBRANCH  45  46
ENDBRANCH  44  45
ENDBRANCH  43  44
ENDBRANCH   1  43
TORSDOF 12
ENDMDL
MODEL 9
REMARK VINA RESULT:    -5.499      3.368      8.512
REMARK INTER + INTRA:         -13.719
REMARK INTER:                 -11.841
REMARK INTRA:                  -1.877
REMARK UNBOUND:                -2.112
REMARK SMILES CCC(=O)CCCCC[C@@H]1NC(=O)[C@H]2CCCCN2C(=O)[C@@H]([C@@H](C)CC)NC(=O)[C@@H](Cc2cn(OC)c3ccccc23)NC1=O
REMARK SMILES IDX 9 1 10 2 44 3 43 4 45 6 30 7 28 8 27 9 29 11 22 12 23 14
REMARK SMILES IDX 24 15 25 16 26 17 31 18 32 19 33 20 42 21 34 22 37 23 41 24
REMARK SMILES IDX 38 25 40 26 39 27 35 28 36 29 11 30 12 31 13 33 14 34 19 35
REMARK SMILES IDX 15 36 18 37 16 38 17 39 20 40 21 41 8 43 7 44 6 45 5 46 3 47
REMARK SMILES IDX 4 48 2 49 1 50
REMARK H PARENT 43 5 27 10 11 32
REMARK Flexibility Score: 80.00
ROOT
ATOM      1  C   UNL     1      20.472 -33.007  21.713  1.00  0.00     0.035 C 
ENDROOT
BRANCH   1   2
ATOM      2  C   UNL     1      21.655 -32.001  21.857  1.00  0.00     0.171 C 
BRANCH   2   3
ATOM      3  C   UNL     1      21.463 -30.914  22.905  1.00  0.00     0.243 C 
ATOM      4  N   UNL     1      22.491 -29.944  23.144  1.00  0.00    -0.342 N 
ATOM      5  H   UNL     1      23.148 -29.715  22.368  1.00  0.00     0.164 HD
ATOM      6  O   UNL     1      20.340 -30.763  23.462  1.00  0.00    -0.273 OA
BRANCH   4   7
ATOM      7  C   UNL     1      22.777 -29.415  24.481  1.00  0.00     0.175 C 
BRANCH   7   8
ATOM      8  C   UNL     1      23.515 -30.458  25.288  1.00  0.00     0.243 C 
ATOM      9  N   UNL     1      24.388 -31.376  24.612  1.00  0.00    -0.342 N 
ATOM     10  H   UNL     1      24.097 -31.647  23.652  1.00  0.00     0.164 HD
ATOM     11  O   UNL     1      23.297 -30.584  26.521  1.00  0.00    -0.273 OA
BRANCH   9  12
ATOM     12  C   UNL     1      25.501 -32.086  25.250  1.00  0.00     0.174 CG0
ATOM     13  G   UNL     1      25.391 -33.588  24.976  1.00  0.00     0.000 G0
BRANCH  12  14
ATOM     14  C   UNL     1      26.876 -31.412  24.935  1.00  0.00     0.018 C 
ATOM     15  C   UNL     1      26.787 -30.455  23.735  1.00  0.00     0.010 C 
BRANCH  14  16
ATOM     16  C   UNL     1      27.547 -30.752  26.162  1.00  0.00     0.002 C 
ATOM     17  C   UNL     1      26.778 -29.532  26.672  1.00  0.00     0.004 C 
ENDBRANCH  14  16
ENDBRANCH  12  14
ENDBRANCH   9  12
ENDBRANCH   7   8
BRANCH   7  18
ATOM     18  C   UNL     1      23.533 -28.076  24.379  1.00  0.00     0.073 C 
BRANCH  18  19
ATOM     19  C   UNL     1      22.780 -27.015  23.631  1.00  0.00    -0.016 A 
ATOM     20  C   UNL     1      21.816 -26.171  24.163  1.00  0.00     0.134 A 
ATOM     21  C   UNL     1      22.872 -26.685  22.292  1.00  0.00     0.006 A 
ATOM     22  N   UNL     1      21.329 -25.349  23.208  1.00  0.00    -0.191 N 
ATOM     23  C   UNL     1      21.979 -25.660  22.058  1.00  0.00     0.087 A 
ATOM     24  C   UNL     1      23.671 -27.220  21.279  1.00  0.00     0.011 A 
ATOM     25  C   UNL     1      21.871 -25.087  20.781  1.00  0.00     0.030 A 
ATOM     26  C   UNL     1      23.572 -26.659  19.994  1.00  0.00     0.001 A 
ATOM     27  C   UNL     1      22.679 -25.596  19.750  1.00  0.00     0.002 A 
BRANCH  22  28
ATOM     28  O   UNL     1      20.331 -24.424  23.474  1.00  0.00    -0.417 OA
ATOM     29  C   UNL     1      20.433 -23.027  23.263  1.00  0.00     0.313 C 
ENDBRANCH  22  28
ENDBRANCH  18  19
ENDBRANCH   7  18
ENDBRANCH   4   7
ENDBRANCH   2   3
BRANCH   2  30
ATOM     30  N   UNL     1      22.973 -32.664  21.997  1.00  0.00    -0.343 N 
ATOM     31  C   UNL     1      23.306 -33.769  22.868  1.00  0.00     0.243 C 
ATOM     32  H   UNL     1      23.743 -32.256  21.418  1.00  0.00     0.164 HD
ATOM     33  O   UNL     1      22.509 -34.120  23.781  1.00  0.00    -0.273 OA
BRANCH  31  34
ATOM     34  C   UNL     1      24.588 -34.567  22.720  1.00  0.00     0.174 C 
ATOM     35  N   UNL     1      25.667 -34.200  23.670  1.00  0.00    -0.329 N 
ATOM     36  C   UNL     1      25.144 -34.561  21.282  1.00  0.00     0.035 C 
ATOM     37  C   UNL     1      26.828 -35.104  23.620  1.00  0.00     0.120 C 
ATOM     38  C   UNL     1      26.351 -35.500  21.167  1.00  0.00     0.004 C 
ATOM     39  C   UNL     1      27.423 -35.152  22.207  1.00  0.00     0.022 C 
BRANCH  35  40
ATOM     40  C   UNL     1      25.389 -33.601  24.955  1.00  0.00     0.246 CG0
ATOM     41  O   UNL     1      25.001 -34.348  25.892  1.00  0.00    -0.272 OA
ATOM     42  G   UNL     1      25.477 -32.099  25.232  1.00  0.00     0.000 G0
ENDBRANCH  35  40
ENDBRANCH  31  34
ENDBRANCH   2  30
ENDBRANCH   1   2
BRANCH   1  43
ATOM     43  C   UNL     1      19.271 -32.504  20.877  1.00  0.00     0.003 C 
BRANCH  43  44
ATOM     44  C   UNL     1      17.986 -32.366  21.708  1.00  0.00     0.001 C 
BRANCH  44  45
ATOM     45  C   UNL     1      16.854 -31.662  20.937  1.00  0.00     0.008 C 
BRANCH  45  46
ATOM     46  C   UNL     1      15.462 -32.184  21.328  1.00  0.00     0.075 C 
BRANCH  46  47
ATOM     47  C   UNL     1      15.183 -31.957  22.793  1.00  0.00     0.132 C 
ATOM     48  O   UNL     1      15.554 -32.790  23.612  1.00  0.00    -0.300 OA
BRANCH  47  49
ATOM     49  C   UNL     1      14.427 -30.737  23.253  1.00  0.00     0.072 C 
ATOM     50  C   UNL     1      13.277 -30.401  22.300  1.00  0.00     0.012 C 
ENDBRANCH  47  49
ENDBRANCH  46  47
ENDBRANCH  45  46
ENDBRANCH  44  45
ENDBRANCH  43  44
ENDBRANCH   1  43
TORSDOF 12
ENDMDL
