MODEL 1
REMARK VINA RESULT:    -3.971      0.000      0.000
REMARK INTER + INTRA:          -4.761
REMARK INTER:                  -4.667
REMARK INTRA:                  -0.094
REMARK UNBOUND:                -0.094
REMARK SMILES Oc1ccc(-c2[o+]c3cc(O)cc(O)c3cc2O)cc1
REMARK SMILES IDX 6 1 7 2 8 3 9 4 10 5 12 6 13 7 15 8 16 9 17 10 5 11 4 12
REMARK SMILES IDX 3 13 2 14 19 15 20 16 1 17 18 19 11 21 14 23
REMARK H PARENT 1 18 18 20 11 22 14 24
REMARK Flexibility Score: inf
ROOT
ATOM      1  C   UNL     1      16.281  36.737  11.896  1.00  0.00     0.401 A 
ATOM      2  O   UNL     1      16.501  36.294  13.132  1.00  0.00    -0.202 OA
ATOM      3  C   UNL     1      16.583  35.003  13.439  1.00  0.00     0.368 A 
ATOM      4  C   UNL     1      16.812  34.620  14.765  1.00  0.00     0.162 A 
ATOM      5  C   UNL     1      16.898  33.263  15.101  1.00  0.00     0.128 A 
ATOM      6  C   UNL     1      16.755  32.288  14.108  1.00  0.00     0.093 A 
ATOM      7  C   UNL     1      16.527  32.657  12.775  1.00  0.00     0.136 A 
ATOM      8  C   UNL     1      16.440  34.021  12.436  1.00  0.00     0.125 A 
ATOM      9  C   UNL     1      16.222  34.447  11.121  1.00  0.00     0.078 A 
ATOM     10  C   UNL     1      16.150  35.815  10.838  1.00  0.00     0.223 A 
ENDROOT
BRANCH   1  11
ATOM     11  C   UNL     1      16.199  38.199  11.680  1.00  0.00     0.084 A 
ATOM     12  C   UNL     1      15.249  38.989  12.353  1.00  0.00     0.022 A 
ATOM     13  C   UNL     1      15.208  40.372  12.149  1.00  0.00     0.047 A 
ATOM     14  C   UNL     1      16.119  40.984  11.284  1.00  0.00     0.115 A 
ATOM     15  C   UNL     1      17.125  38.825  10.827  1.00  0.00     0.022 A 
ATOM     16  C   UNL     1      17.080  40.207  10.625  1.00  0.00     0.047 A 
BRANCH  14  17
ATOM     17  O   UNL     1      16.064  42.362  11.090  1.00  0.00    -0.508 OA
ATOM     18  H   UNL     1      16.803  42.859  10.605  1.00  0.00     0.293 HD
ENDBRANCH  14  17
ENDBRANCH   1  11
BRANCH  10  19
ATOM     19  O   UNL     1      15.983  36.247   9.522  1.00  0.00    -0.500 OA
ATOM     20  H   UNL     1      15.200  36.830   9.250  1.00  0.00     0.294 HD
ENDBRANCH  10  19
BRANCH   5  21
ATOM     21  O   UNL     1      17.125  32.872  16.419  1.00  0.00    -0.507 OA
ATOM     22  H   UNL     1      17.960  33.155  16.919  1.00  0.00     0.293 HD
ENDBRANCH   5  21
BRANCH   7  23
ATOM     23  O   UNL     1      16.388  31.674  11.794  1.00  0.00    -0.507 OA
ATOM     24  H   UNL     1      17.181  31.137  11.463  1.00  0.00     0.293 HD
ENDBRANCH   7  23
TORSDOF 5
ENDMDL
MODEL 2
REMARK VINA RESULT:    -3.205     20.857     22.025
REMARK INTER + INTRA:          -3.861
REMARK INTER:                  -4.303
REMARK INTRA:                   0.442
REMARK UNBOUND:                -0.094
REMARK SMILES Oc1ccc(-c2[o+]c3cc(O)cc(O)c3cc2O)cc1
REMARK SMILES IDX 6 1 7 2 8 3 9 4 10 5 12 6 13 7 15 8 16 9 17 10 5 11 4 12
REMARK SMILES IDX 3 13 2 14 19 15 20 16 1 17 18 19 11 21 14 23
REMARK H PARENT 1 18 18 20 11 22 14 24
REMARK Flexibility Score: inf
ROOT
ATOM      1  C   UNL     1      -1.834  41.441  23.971  1.00  0.00     0.401 A 
ATOM      2  O   UNL     1      -1.448  40.721  22.919  1.00  0.00    -0.202 OA
ATOM      3  C   UNL     1      -1.643  39.410  22.824  1.00  0.00     0.368 A 
ATOM      4  C   UNL     1      -1.203  38.725  21.686  1.00  0.00     0.162 A 
ATOM      5  C   UNL     1      -1.401  37.343  21.577  1.00  0.00     0.128 A 
ATOM      6  C   UNL     1      -2.040  36.644  22.607  1.00  0.00     0.093 A 
ATOM      7  C   UNL     1      -2.487  37.317  23.753  1.00  0.00     0.136 A 
ATOM      8  C   UNL     1      -2.289  38.707  23.864  1.00  0.00     0.125 A 
ATOM      9  C   UNL     1      -2.722  39.432  24.980  1.00  0.00     0.078 A 
ATOM     10  C   UNL     1      -2.507  40.812  25.038  1.00  0.00     0.223 A 
ENDROOT
BRANCH   1  11
ATOM     11  C   UNL     1      -1.552  42.895  23.966  1.00  0.00     0.084 A 
ATOM     12  C   UNL     1      -2.019  43.737  24.992  1.00  0.00     0.022 A 
ATOM     13  C   UNL     1      -1.719  45.103  24.977  1.00  0.00     0.047 A 
ATOM     14  C   UNL     1      -0.941  45.642  23.949  1.00  0.00     0.115 A 
ATOM     15  C   UNL     1      -0.753  43.440  22.947  1.00  0.00     0.022 A 
ATOM     16  C   UNL     1      -0.455  44.806  22.934  1.00  0.00     0.047 A 
BRANCH  14  17
ATOM     17  O   UNL     1      -0.652  47.004  23.945  1.00  0.00    -0.508 OA
ATOM     18  H   UNL     1       0.250  47.354  23.643  1.00  0.00     0.293 HD
ENDBRANCH  14  17
ENDBRANCH   1  11
BRANCH  10  19
ATOM     19  O   UNL     1      -2.980  41.548  26.125  1.00  0.00    -0.500 OA
ATOM     20  H   UNL     1      -2.502  42.380  26.452  1.00  0.00     0.294 HD
ENDBRANCH  10  19
BRANCH   5  21
ATOM     21  O   UNL     1      -0.965  36.652  20.448  1.00  0.00    -0.507 OA
ATOM     22  H   UNL     1      -1.012  37.065  19.523  1.00  0.00     0.293 HD
ENDBRANCH   5  21
BRANCH   7  23
ATOM     23  O   UNL     1      -3.125  36.610  24.772  1.00  0.00    -0.507 OA
ATOM     24  H   UNL     1      -3.100  35.598  24.812  1.00  0.00     0.293 HD
ENDBRANCH   7  23
TORSDOF 5
ENDMDL
MODEL 3
REMARK VINA RESULT:    -3.181      3.433      9.562
REMARK INTER + INTRA:          -3.833
REMARK INTER:                  -3.709
REMARK INTRA:                  -0.125
REMARK UNBOUND:                -0.094
REMARK SMILES Oc1ccc(-c2[o+]c3cc(O)cc(O)c3cc2O)cc1
REMARK SMILES IDX 6 1 7 2 8 3 9 4 10 5 12 6 13 7 15 8 16 9 17 10 5 11 4 12
REMARK SMILES IDX 3 13 2 14 19 15 20 16 1 17 18 19 11 21 14 23
REMARK H PARENT 1 18 18 20 11 22 14 24
REMARK Flexibility Score: inf
ROOT
ATOM      1  C   UNL     1      16.368  42.005  10.729  1.00  0.00     0.401 A 
ATOM      2  O   UNL     1      16.046  42.324   9.477  1.00  0.00    -0.202 OA
ATOM      3  C   UNL     1      16.006  43.576   9.032  1.00  0.00     0.368 A 
ATOM      4  C   UNL     1      15.654  43.827   7.702  1.00  0.00     0.162 A 
ATOM      5  C   UNL     1      15.606  45.142   7.223  1.00  0.00     0.128 A 
ATOM      6  C   UNL     1      15.912  46.208   8.076  1.00  0.00     0.093 A 
ATOM      7  C   UNL     1      16.269  45.972   9.411  1.00  0.00     0.136 A 
ATOM      8  C   UNL     1      16.317  44.649   9.894  1.00  0.00     0.125 A 
ATOM      9  C   UNL     1      16.674  44.354  11.214  1.00  0.00     0.078 A 
ATOM     10  C   UNL     1      16.713  43.023  11.641  1.00  0.00     0.223 A 
ENDROOT
BRANCH   1  11
ATOM     11  C   UNL     1      16.368  40.574  11.110  1.00  0.00     0.084 A 
ATOM     12  C   UNL     1      15.580  40.097  12.174  1.00  0.00     0.022 A 
ATOM     13  C   UNL     1      15.579  38.737  12.499  1.00  0.00     0.047 A 
ATOM     14  C   UNL     1      16.351  37.836  11.760  1.00  0.00     0.115 A 
ATOM     15  C   UNL     1      17.125  39.659  10.359  1.00  0.00     0.022 A 
ATOM     16  C   UNL     1      17.122  38.300  10.686  1.00  0.00     0.047 A 
BRANCH  14  17
ATOM     17  O   UNL     1      16.341  36.485  12.096  1.00  0.00    -0.508 OA
ATOM     18  H   UNL     1      16.043  35.776  11.436  1.00  0.00     0.293 HD
ENDBRANCH  14  17
ENDBRANCH   1  11
BRANCH  10  19
ATOM     19  O   UNL     1      17.117  42.718  12.941  1.00  0.00    -0.500 OA
ATOM     20  H   UNL     1      16.743  43.211  13.744  1.00  0.00     0.294 HD
ENDBRANCH  10  19
BRANCH   5  21
ATOM     21  O   UNL     1      15.255  45.402   5.900  1.00  0.00    -0.507 OA
ATOM     22  H   UNL     1      15.940  45.373   5.154  1.00  0.00     0.293 HD
ENDBRANCH   5  21
BRANCH   7  23
ATOM     23  O   UNL     1      16.573  47.043  10.251  1.00  0.00    -0.507 OA
ATOM     24  H   UNL     1      17.493  47.469  10.257  1.00  0.00     0.293 HD
ENDBRANCH   7  23
TORSDOF 5
ENDMDL
MODEL 4
REMARK VINA RESULT:    -3.041      3.372      9.027
REMARK INTER + INTRA:          -3.669
REMARK INTER:                  -3.872
REMARK INTRA:                   0.204
REMARK UNBOUND:                -0.094
REMARK SMILES Oc1ccc(-c2[o+]c3cc(O)cc(O)c3cc2O)cc1
REMARK SMILES IDX 6 1 7 2 8 3 9 4 10 5 12 6 13 7 15 8 16 9 17 10 5 11 4 12
REMARK SMILES IDX 3 13 2 14 19 15 20 16 1 17 18 19 11 21 14 23
REMARK H PARENT 1 18 18 20 11 22 14 24
REMARK Flexibility Score: inf
ROOT
ATOM      1  C   UNL     1      16.359  41.950  11.028  1.00  0.00     0.401 A 
ATOM      2  O   UNL     1      16.177  42.654  12.143  1.00  0.00    -0.202 OA
ATOM      3  C   UNL     1      16.169  43.983  12.171  1.00  0.00     0.368 A 
ATOM      4  C   UNL     1      15.975  44.649  13.386  1.00  0.00     0.162 A 
ATOM      5  C   UNL     1      15.967  46.049  13.427  1.00  0.00     0.128 A 
ATOM      6  C   UNL     1      16.152  46.784  12.251  1.00  0.00     0.093 A 
ATOM      7  C   UNL     1      16.345  46.130  11.026  1.00  0.00     0.136 A 
ATOM      8  C   UNL     1      16.354  44.723  10.983  1.00  0.00     0.125 A 
ATOM      9  C   UNL     1      16.533  44.018   9.788  1.00  0.00     0.078 A 
ATOM     10  C   UNL     1      16.527  42.619   9.799  1.00  0.00     0.223 A 
ENDROOT
BRANCH   1  11
ATOM     11  C   UNL     1      16.358  40.472  11.125  1.00  0.00     0.084 A 
ATOM     12  C   UNL     1      17.124  39.678  10.252  1.00  0.00     0.022 A 
ATOM     13  C   UNL     1      17.125  38.285  10.379  1.00  0.00     0.047 A 
ATOM     14  C   UNL     1      16.375  37.670  11.385  1.00  0.00     0.115 A 
ATOM     15  C   UNL     1      15.623  39.847  12.147  1.00  0.00     0.022 A 
ATOM     16  C   UNL     1      15.625  38.455  12.271  1.00  0.00     0.047 A 
BRANCH  14  17
ATOM     17  O   UNL     1      16.384  36.282  11.499  1.00  0.00    -0.508 OA
ATOM     18  H   UNL     1      17.146  35.725  11.130  1.00  0.00     0.293 HD
ENDBRANCH  14  17
ENDBRANCH   1  11
BRANCH  10  19
ATOM     19  O   UNL     1      16.656  41.910   8.605  1.00  0.00    -0.500 OA
ATOM     20  H   UNL     1      15.910  41.883   7.919  1.00  0.00     0.294 HD
ENDBRANCH  10  19
BRANCH   5  21
ATOM     21  O   UNL     1      15.777  46.721  14.633  1.00  0.00    -0.507 OA
ATOM     22  H   UNL     1      16.391  46.571  15.426  1.00  0.00     0.293 HD
ENDBRANCH   5  21
BRANCH   7  23
ATOM     23  O   UNL     1      16.526  46.875   9.860  1.00  0.00    -0.507 OA
ATOM     24  H   UNL     1      16.994  47.774   9.871  1.00  0.00     0.293 HD
ENDBRANCH   7  23
TORSDOF 5
ENDMDL
MODEL 5
REMARK VINA RESULT:    -2.857      4.958      6.572
REMARK INTER + INTRA:          -3.453
REMARK INTER:                  -3.203
REMARK INTRA:                  -0.250
REMARK UNBOUND:                -0.094
REMARK SMILES Oc1ccc(-c2[o+]c3cc(O)cc(O)c3cc2O)cc1
REMARK SMILES IDX 6 1 7 2 8 3 9 4 10 5 12 6 13 7 15 8 16 9 17 10 5 11 4 12
REMARK SMILES IDX 3 13 2 14 19 15 20 16 1 17 18 19 11 21 14 23
REMARK H PARENT 1 18 18 20 11 22 14 24
REMARK Flexibility Score: inf
ROOT
ATOM      1  C   UNL     1      12.235  35.037  13.568  1.00  0.00     0.401 A 
ATOM      2  O   UNL     1      12.992  36.119  13.390  1.00  0.00    -0.202 OA
ATOM      3  C   UNL     1      14.115  36.112  12.680  1.00  0.00     0.368 A 
ATOM      4  C   UNL     1      14.856  37.291  12.544  1.00  0.00     0.162 A 
ATOM      5  C   UNL     1      16.043  37.294  11.800  1.00  0.00     0.128 A 
ATOM      6  C   UNL     1      16.489  36.117  11.190  1.00  0.00     0.093 A 
ATOM      7  C   UNL     1      15.756  34.928  11.316  1.00  0.00     0.136 A 
ATOM      8  C   UNL     1      14.563  34.923  12.064  1.00  0.00     0.125 A 
ATOM      9  C   UNL     1      13.787  33.769  12.216  1.00  0.00     0.078 A 
ATOM     10  C   UNL     1      12.606  33.819  12.964  1.00  0.00     0.223 A 
ENDROOT
BRANCH   1  11
ATOM     11  C   UNL     1      11.010  35.167  14.389  1.00  0.00     0.084 A 
ATOM     12  C   UNL     1       9.730  35.178  13.803  1.00  0.00     0.022 A 
ATOM     13  C   UNL     1       8.587  35.278  14.603  1.00  0.00     0.047 A 
ATOM     14  C   UNL     1       8.705  35.355  15.993  1.00  0.00     0.115 A 
ATOM     15  C   UNL     1      11.119  35.224  15.789  1.00  0.00     0.022 A 
ATOM     16  C   UNL     1       9.975  35.325  16.585  1.00  0.00     0.047 A 
BRANCH  14  17
ATOM     17  O   UNL     1       7.559  35.457  16.777  1.00  0.00    -0.508 OA
ATOM     18  H   UNL     1       6.662  35.112  16.452  1.00  0.00     0.293 HD
ENDBRANCH  14  17
ENDBRANCH   1  11
BRANCH  10  19
ATOM     19  O   UNL     1      11.802  32.685  13.078  1.00  0.00    -0.500 OA
ATOM     20  H   UNL     1      11.679  32.207  13.964  1.00  0.00     0.294 HD
ENDBRANCH  10  19
BRANCH   5  21
ATOM     21  O   UNL     1      16.788  38.464  11.661  1.00  0.00    -0.507 OA
ATOM     22  H   UNL     1      17.739  38.447  11.313  1.00  0.00     0.293 HD
ENDBRANCH   5  21
BRANCH   7  23
ATOM     23  O   UNL     1      16.211  33.761  10.702  1.00  0.00    -0.507 OA
ATOM     24  H   UNL     1      17.199  33.549  10.629  1.00  0.00     0.293 HD
ENDBRANCH   7  23
TORSDOF 5
ENDMDL
MODEL 6
REMARK VINA RESULT:    -2.325      7.284      9.832
REMARK INTER + INTRA:          -2.827
REMARK INTER:                  -2.600
REMARK INTRA:                  -0.227
REMARK UNBOUND:                -0.094
REMARK SMILES Oc1ccc(-c2[o+]c3cc(O)cc(O)c3cc2O)cc1
REMARK SMILES IDX 6 1 7 2 8 3 9 4 10 5 12 6 13 7 15 8 16 9 17 10 5 11 4 12
REMARK SMILES IDX 3 13 2 14 19 15 20 16 1 17 18 19 11 21 14 23
REMARK H PARENT 1 18 18 20 11 22 14 24
REMARK Flexibility Score: inf
ROOT
ATOM      1  C   UNL     1      15.259  44.480  11.447  1.00  0.00     0.401 A 
ATOM      2  O   UNL     1      15.542  45.194  10.358  1.00  0.00    -0.202 OA
ATOM      3  C   UNL     1      16.042  44.660   9.249  1.00  0.00     0.368 A 
ATOM      4  C   UNL     1      16.317  45.480   8.149  1.00  0.00     0.162 A 
ATOM      5  C   UNL     1      16.847  44.929   6.975  1.00  0.00     0.128 A 
ATOM      6  C   UNL     1      17.101  43.555   6.901  1.00  0.00     0.093 A 
ATOM      7  C   UNL     1      16.829  42.721   7.994  1.00  0.00     0.136 A 
ATOM      8  C   UNL     1      16.297  43.274   9.175  1.00  0.00     0.125 A 
ATOM      9  C   UNL     1      15.998  42.488  10.294  1.00  0.00     0.078 A 
ATOM     10  C   UNL     1      15.465  43.086  11.440  1.00  0.00     0.223 A 
ENDROOT
BRANCH   1  11
ATOM     11  C   UNL     1      14.715  45.189  12.627  1.00  0.00     0.084 A 
ATOM     12  C   UNL     1      13.401  45.692  12.641  1.00  0.00     0.022 A 
ATOM     13  C   UNL     1      12.903  46.338  13.777  1.00  0.00     0.047 A 
ATOM     14  C   UNL     1      13.702  46.478  14.915  1.00  0.00     0.115 A 
ATOM     15  C   UNL     1      15.506  45.316  13.782  1.00  0.00     0.022 A 
ATOM     16  C   UNL     1      15.005  45.963  14.916  1.00  0.00     0.047 A 
BRANCH  14  17
ATOM     17  O   UNL     1      13.194  47.125  16.038  1.00  0.00    -0.508 OA
ATOM     18  H   UNL     1      13.767  47.297  16.856  1.00  0.00     0.293 HD
ENDBRANCH  14  17
ENDBRANCH   1  11
BRANCH  10  19
ATOM     19  O   UNL     1      15.118  42.302  12.540  1.00  0.00    -0.500 OA
ATOM     20  H   UNL     1      14.399  42.590  13.194  1.00  0.00     0.294 HD
ENDBRANCH  10  19
BRANCH   5  21
ATOM     21  O   UNL     1      17.125  45.738   5.876  1.00  0.00    -0.507 OA
ATOM     22  H   UNL     1      17.476  46.683   5.988  1.00  0.00     0.293 HD
ENDBRANCH   5  21
BRANCH   7  23
ATOM     23  O   UNL     1      17.085  41.352   7.907  1.00  0.00    -0.507 OA
ATOM     24  H   UNL     1      16.376  40.663   8.127  1.00  0.00     0.293 HD
ENDBRANCH   7  23
TORSDOF 5
ENDMDL
MODEL 7
REMARK VINA RESULT:    -1.795      2.177      4.134
REMARK INTER + INTRA:          -2.203
REMARK INTER:                  -2.352
REMARK INTRA:                   0.149
REMARK UNBOUND:                -0.094
REMARK SMILES Oc1ccc(-c2[o+]c3cc(O)cc(O)c3cc2O)cc1
REMARK SMILES IDX 6 1 7 2 8 3 9 4 10 5 12 6 13 7 15 8 16 9 17 10 5 11 4 12
REMARK SMILES IDX 3 13 2 14 19 15 20 16 1 17 18 19 11 21 14 23
REMARK H PARENT 1 18 18 20 11 22 14 24
REMARK Flexibility Score: inf
ROOT
ATOM      1  C   UNL     1      16.442  39.597  11.456  1.00  0.00     0.401 A 
ATOM      2  O   UNL     1      16.025  38.651  10.616  1.00  0.00    -0.202 OA
ATOM      3  C   UNL     1      15.901  37.374  10.962  1.00  0.00     0.368 A 
ATOM      4  C   UNL     1      15.461  36.440  10.018  1.00  0.00     0.162 A 
ATOM      5  C   UNL     1      15.328  35.091  10.370  1.00  0.00     0.128 A 
ATOM      6  C   UNL     1      15.636  34.675  11.670  1.00  0.00     0.093 A 
ATOM      7  C   UNL     1      16.077  35.600  12.628  1.00  0.00     0.136 A 
ATOM      8  C   UNL     1      16.211  36.956  12.274  1.00  0.00     0.125 A 
ATOM      9  C   UNL     1      16.638  37.924  13.191  1.00  0.00     0.078 A 
ATOM     10  C   UNL     1      16.748  39.259  12.790  1.00  0.00     0.223 A 
ENDROOT
BRANCH   1  11
ATOM     11  C   UNL     1      16.550  40.984  10.951  1.00  0.00     0.084 A 
ATOM     12  C   UNL     1      17.049  41.261   9.665  1.00  0.00     0.022 A 
ATOM     13  C   UNL     1      17.119  42.579   9.202  1.00  0.00     0.047 A 
ATOM     14  C   UNL     1      16.682  43.633  10.009  1.00  0.00     0.115 A 
ATOM     15  C   UNL     1      16.093  42.048  11.748  1.00  0.00     0.022 A 
ATOM     16  C   UNL     1      16.165  43.363  11.283  1.00  0.00     0.047 A 
BRANCH  14  17
ATOM     17  O   UNL     1      16.759  44.940   9.536  1.00  0.00    -0.508 OA
ATOM     18  H   UNL     1      16.497  45.730  10.114  1.00  0.00     0.293 HD
ENDBRANCH  14  17
ENDBRANCH   1  11
BRANCH  10  19
ATOM     19  O   UNL     1      17.125  40.236  13.712  1.00  0.00    -0.500 OA
ATOM     20  H   UNL     1      18.067  40.609  13.736  1.00  0.00     0.294 HD
ENDBRANCH  10  19
BRANCH   5  21
ATOM     21  O   UNL     1      14.892  34.155   9.435  1.00  0.00    -0.507 OA
ATOM     22  H   UNL     1      13.957  33.764   9.473  1.00  0.00     0.293 HD
ENDBRANCH   5  21
BRANCH   7  23
ATOM     23  O   UNL     1      16.380  35.172  13.921  1.00  0.00    -0.507 OA
ATOM     24  H   UNL     1      16.538  35.830  14.675  1.00  0.00     0.293 HD
ENDBRANCH   7  23
TORSDOF 5
ENDMDL
MODEL 8
REMARK VINA RESULT:    -1.550      2.466      8.198
REMARK INTER + INTRA:          -1.916
REMARK INTER:                  -2.225
REMARK INTRA:                   0.310
REMARK UNBOUND:                -0.094
REMARK SMILES Oc1ccc(-c2[o+]c3cc(O)cc(O)c3cc2O)cc1
REMARK SMILES IDX 6 1 7 2 8 3 9 4 10 5 12 6 13 7 15 8 16 9 17 10 5 11 4 12
REMARK SMILES IDX 3 13 2 14 19 15 20 16 1 17 18 19 11 21 14 23
REMARK H PARENT 1 18 18 20 11 22 14 24
REMARK Flexibility Score: inf
ROOT
ATOM      1  C   UNL     1      16.647  39.648  11.412  1.00  0.00     0.401 A 
ATOM      2  O   UNL     1      16.584  40.291  10.247  1.00  0.00    -0.202 OA
ATOM      3  C   UNL     1      16.677  41.612  10.139  1.00  0.00     0.368 A 
ATOM      4  C   UNL     1      16.597  42.211   8.877  1.00  0.00     0.162 A 
ATOM      5  C   UNL     1      16.691  43.603   8.752  1.00  0.00     0.128 A 
ATOM      6  C   UNL     1      16.866  44.397   9.890  1.00  0.00     0.093 A 
ATOM      7  C   UNL     1      16.949  43.811  11.162  1.00  0.00     0.136 A 
ATOM      8  C   UNL     1      16.854  42.411  11.289  1.00  0.00     0.125 A 
ATOM      9  C   UNL     1      16.939  41.772  12.530  1.00  0.00     0.078 A 
ATOM     10  C   UNL     1      16.846  40.378  12.601  1.00  0.00     0.223 A 
ENDROOT
BRANCH   1  11
ATOM     11  C   UNL     1      16.520  38.173  11.405  1.00  0.00     0.084 A 
ATOM     12  C   UNL     1      16.950  37.403  10.309  1.00  0.00     0.022 A 
ATOM     13  C   UNL     1      16.841  36.009  10.337  1.00  0.00     0.047 A 
ATOM     14  C   UNL     1      16.317  35.367  11.461  1.00  0.00     0.115 A 
ATOM     15  C   UNL     1      16.013  37.518  12.541  1.00  0.00     0.022 A 
ATOM     16  C   UNL     1      15.905  36.125  12.566  1.00  0.00     0.047 A 
BRANCH  14  17
ATOM     17  O   UNL     1      16.213  33.978  11.475  1.00  0.00    -0.508 OA
ATOM     18  H   UNL     1      17.021  33.384  11.325  1.00  0.00     0.293 HD
ENDBRANCH  14  17
ENDBRANCH   1  11
BRANCH  10  19
ATOM     19  O   UNL     1      16.980  39.730  13.829  1.00  0.00    -0.500 OA
ATOM     20  H   UNL     1      16.507  40.065  14.661  1.00  0.00     0.294 HD
ENDBRANCH  10  19
BRANCH   5  21
ATOM     21  O   UNL     1      16.611  44.208   7.499  1.00  0.00    -0.507 OA
ATOM     22  H   UNL     1      16.871  43.713   6.654  1.00  0.00     0.293 HD
ENDBRANCH   5  21
BRANCH   7  23
ATOM     23  O   UNL     1      17.124  44.614  12.289  1.00  0.00    -0.507 OA
ATOM     24  H   UNL     1      16.664  45.512  12.379  1.00  0.00     0.293 HD
ENDBRANCH   7  23
TORSDOF 5
ENDMDL
MODEL 9
REMARK VINA RESULT:    -1.472     18.517     19.390
REMARK INTER + INTRA:          -1.824
REMARK INTER:                  -2.249
REMARK INTRA:                   0.424
REMARK UNBOUND:                -0.094
REMARK SMILES Oc1ccc(-c2[o+]c3cc(O)cc(O)c3cc2O)cc1
REMARK SMILES IDX 6 1 7 2 8 3 9 4 10 5 12 6 13 7 15 8 16 9 17 10 5 11 4 12
REMARK SMILES IDX 3 13 2 14 19 15 20 16 1 17 18 19 11 21 14 23
REMARK H PARENT 1 18 18 20 11 22 14 24
REMARK Flexibility Score: inf
ROOT
ATOM      1  C   UNL     1      -1.794  33.026  15.137  1.00  0.00     0.401 A 
ATOM      2  O   UNL     1      -1.999  33.738  14.031  1.00  0.00    -0.202 OA
ATOM      3  C   UNL     1      -2.361  33.194  12.873  1.00  0.00     0.368 A 
ATOM      4  C   UNL     1      -2.553  34.012  11.754  1.00  0.00     0.162 A 
ATOM      5  C   UNL     1      -2.931  33.450  10.528  1.00  0.00     0.128 A 
ATOM      6  C   UNL     1      -3.119  32.068  10.422  1.00  0.00     0.093 A 
ATOM      7  C   UNL     1      -2.932  31.236  11.535  1.00  0.00     0.136 A 
ATOM      8  C   UNL     1      -2.551  31.800  12.768  1.00  0.00     0.125 A 
ATOM      9  C   UNL     1      -2.358  31.019  13.913  1.00  0.00     0.078 A 
ATOM     10  C   UNL     1      -1.987  31.630  15.115  1.00  0.00     0.223 A 
ENDROOT
BRANCH   1  11
ATOM     11  C   UNL     1      -1.383  33.743  16.365  1.00  0.00     0.084 A 
ATOM     12  C   UNL     1      -1.006  33.050  17.531  1.00  0.00     0.022 A 
ATOM     13  C   UNL     1      -0.599  33.751  18.670  1.00  0.00     0.047 A 
ATOM     14  C   UNL     1      -0.550  35.147  18.658  1.00  0.00     0.115 A 
ATOM     15  C   UNL     1      -1.311  35.147  16.354  1.00  0.00     0.022 A 
ATOM     16  C   UNL     1      -0.905  35.844  17.495  1.00  0.00     0.047 A 
BRANCH  14  17
ATOM     17  O   UNL     1      -0.145  35.832  19.801  1.00  0.00    -0.508 OA
ATOM     18  H   UNL     1       0.091  36.818  19.773  1.00  0.00     0.293 HD
ENDBRANCH  14  17
ENDBRANCH   1  11
BRANCH  10  19
ATOM     19  O   UNL     1      -1.842  30.864  16.272  1.00  0.00    -0.500 OA
ATOM     20  H   UNL     1      -1.002  30.909  16.838  1.00  0.00     0.294 HD
ENDBRANCH  10  19
BRANCH   5  21
ATOM     21  O   UNL     1      -3.123  34.257   9.409  1.00  0.00    -0.507 OA
ATOM     22  H   UNL     1      -2.412  34.909   9.097  1.00  0.00     0.293 HD
ENDBRANCH   5  21
BRANCH   7  23
ATOM     23  O   UNL     1      -3.124  29.859  11.415  1.00  0.00    -0.507 OA
ATOM     24  H   UNL     1      -2.423  29.259  10.996  1.00  0.00     0.293 HD
ENDBRANCH   7  23
TORSDOF 5
ENDMDL
