MODEL 1
REMARK VINA RESULT:     0.764      0.000      0.000
REMARK INTER + INTRA:           0.812
REMARK INTER:                   1.054
REMARK INTRA:                  -0.242
REMARK UNBOUND:                -0.242
REMARK SMILES CC[C@@H](CC[C@H](C)[C@@H]1CC[C@H]2[C@@H]3CC=C4C[C@H](O)CC[C@]4(C)[C@H]3CC[C@]21C)C(C)C
REMARK SMILES IDX 5 1 4 2 3 3 2 4 1 5 28 6 29 7 30 8 6 9 7 10 8 11 9 12 26 13
REMARK SMILES IDX 10 14 11 15 25 16 27 17 12 18 24 19 23 20 13 21 21 22 14 23
REMARK SMILES IDX 15 24 20 25 22 26 16 27 19 28 17 29 18 30
REMARK H PARENT 18 31
REMARK Flexibility Score: inf
ROOT
ATOM      1  C   UNL     1      -0.455  43.356  13.147  1.00  0.00     0.004 C 
ENDROOT
BRANCH   1   2
ATOM      2  C   UNL     1      -1.075  41.990  13.541  1.00  0.00     0.004 C 
BRANCH   2   3
ATOM      3  C   UNL     1      -0.320  41.295  14.706  1.00  0.00    -0.009 C 
BRANCH   3   4
ATOM      4  C   UNL     1       0.238  39.893  14.309  1.00  0.00     0.000 C 
ATOM      5  C   UNL     1      -0.709  38.999  13.496  1.00  0.00     0.004 C 
ENDBRANCH   3   4
BRANCH   3   6
ATOM      6  C   UNL     1      -1.124  41.324  16.053  1.00  0.00    -0.014 C 
ATOM      7  C   UNL     1      -1.057  40.017  16.859  1.00  0.00     0.007 C 
ATOM      8  C   UNL     1      -0.709  42.513  16.938  1.00  0.00     0.007 C 
ENDBRANCH   3   6
ENDBRANCH   2   3
ENDBRANCH   1   2
BRANCH   1   9
ATOM      9  C   UNL     1       0.818  43.215  12.269  1.00  0.00    -0.011 C 
ATOM     10  C   UNL     1       2.052  43.015  13.174  1.00  0.00     0.008 C 
BRANCH   9  11
ATOM     11  C   UNL     1       1.078  44.415  11.288  1.00  0.00    -0.002 C 
ATOM     12  C   UNL     1      -0.076  44.809  10.374  1.00  0.00     0.005 C 
ATOM     13  C   UNL     1       2.320  44.326  10.356  1.00  0.00    -0.026 C 
ATOM     14  C   UNL     1       0.550  45.799   9.403  1.00  0.00     0.005 C 
ATOM     15  C   UNL     1       2.049  45.430   9.282  1.00  0.00    -0.001 C 
ATOM     16  C   UNL     1       3.621  44.589  11.171  1.00  0.00     0.007 C 
ATOM     17  C   UNL     1       2.425  42.948   9.649  1.00  0.00     0.012 C 
ATOM     18  C   UNL     1       2.977  46.672   9.436  1.00  0.00     0.000 C 
ATOM     19  C   UNL     1       4.793  45.020  10.284  1.00  0.00     0.005 C 
ATOM     20  C   UNL     1       4.475  46.254   9.378  1.00  0.00     0.003 C 
ATOM     21  C   UNL     1       2.677  47.726   8.348  1.00  0.00     0.031 C 
ATOM     22  C   UNL     1       5.413  47.500   9.609  1.00  0.00    -0.008 C 
ATOM     23  C   UNL     1       3.772  48.740   8.143  1.00  0.00    -0.027 C 
ATOM     24  C   UNL     1       5.029  48.609   8.619  1.00  0.00    -0.065 C 
ATOM     25  C   UNL     1       6.895  47.105   9.324  1.00  0.00     0.014 C 
ATOM     26  C   UNL     1       5.272  48.041  11.061  1.00  0.00     0.016 C 
ATOM     27  C   UNL     1       6.096  49.513   8.028  1.00  0.00     0.063 C 
ATOM     28  C   UNL     1       7.898  48.277   9.391  1.00  0.00     0.033 C 
ATOM     29  C   UNL     1       7.328  49.641   8.933  1.00  0.00     0.118 C 
BRANCH  29  30
ATOM     30  O   UNL     1       8.324  50.411   8.306  1.00  0.00    -0.393 OA
ATOM     31  H   UNL     1       8.076  50.506   7.350  1.00  0.00     0.210 HD
ENDBRANCH  29  30
ENDBRANCH   9  11
ENDBRANCH   1   9
TORSDOF 7
ENDMDL
MODEL 2
REMARK VINA RESULT:     3.369      1.761      3.660
REMARK INTER + INTRA:           4.407
REMARK INTER:                   3.195
REMARK INTRA:                   1.213
REMARK UNBOUND:                -0.242
REMARK SMILES CC[C@@H](CC[C@H](C)[C@@H]1CC[C@H]2[C@@H]3CC=C4C[C@H](O)CC[C@]4(C)[C@H]3CC[C@]21C)C(C)C
REMARK SMILES IDX 5 1 4 2 3 3 2 4 1 5 28 6 29 7 30 8 6 9 7 10 8 11 9 12 26 13
REMARK SMILES IDX 10 14 11 15 25 16 27 17 12 18 24 19 23 20 13 21 21 22 14 23
REMARK SMILES IDX 15 24 20 25 22 26 16 27 19 28 17 29 18 30
REMARK H PARENT 18 31
REMARK Flexibility Score: inf
ROOT
ATOM      1  C   UNL     1      -0.625  45.486  10.972  1.00  0.00     0.004 C 
ENDROOT
BRANCH   1   2
ATOM      2  C   UNL     1       0.873  45.093  11.050  1.00  0.00     0.004 C 
BRANCH   2   3
ATOM      3  C   UNL     1       1.093  43.623  11.503  1.00  0.00    -0.009 C 
BRANCH   3   4
ATOM      4  C   UNL     1       0.253  43.251  12.764  1.00  0.00     0.000 C 
ATOM      5  C   UNL     1       0.680  41.975  13.503  1.00  0.00     0.004 C 
ENDBRANCH   3   4
BRANCH   3   6
ATOM      6  C   UNL     1       2.610  43.233  11.585  1.00  0.00    -0.014 C 
ATOM      7  C   UNL     1       3.251  42.894  10.231  1.00  0.00     0.007 C 
ATOM      8  C   UNL     1       3.437  44.313  12.305  1.00  0.00     0.007 C 
ENDBRANCH   3   6
ENDBRANCH   2   3
ENDBRANCH   1   2
BRANCH   1   9
ATOM      9  C   UNL     1      -1.002  46.176   9.633  1.00  0.00    -0.011 C 
ATOM     10  C   UNL     1      -1.125  45.115   8.520  1.00  0.00     0.008 C 
BRANCH   9  11
ATOM     11  C   UNL     1      -0.012  47.306   9.173  1.00  0.00    -0.002 C 
ATOM     12  C   UNL     1      -0.610  48.446   8.357  1.00  0.00     0.005 C 
ATOM     13  C   UNL     1       1.259  46.871   8.388  1.00  0.00    -0.026 C 
ATOM     14  C   UNL     1       0.604  49.219   7.864  1.00  0.00     0.005 C 
ATOM     15  C   UNL     1       1.773  48.208   7.758  1.00  0.00    -0.001 C 
ATOM     16  C   UNL     1       2.295  46.230   9.358  1.00  0.00     0.007 C 
ATOM     17  C   UNL     1       0.932  45.869   7.249  1.00  0.00     0.012 C 
ATOM     18  C   UNL     1       3.075  48.738   8.428  1.00  0.00     0.000 C 
ATOM     19  C   UNL     1       3.719  46.249   8.794  1.00  0.00     0.005 C 
ATOM     20  C   UNL     1       4.206  47.671   8.363  1.00  0.00     0.003 C 
ATOM     21  C   UNL     1       3.545  50.051   7.765  1.00  0.00     0.031 C 
ATOM     22  C   UNL     1       5.499  48.179   9.108  1.00  0.00    -0.008 C 
ATOM     23  C   UNL     1       4.983  50.407   8.036  1.00  0.00    -0.027 C 
ATOM     24  C   UNL     1       5.896  49.553   8.547  1.00  0.00    -0.065 C 
ATOM     25  C   UNL     1       6.683  47.200   8.837  1.00  0.00     0.014 C 
ATOM     26  C   UNL     1       5.247  48.306  10.638  1.00  0.00     0.016 C 
ATOM     27  C   UNL     1       7.359  49.935   8.418  1.00  0.00     0.063 C 
ATOM     28  C   UNL     1       8.042  47.658   9.409  1.00  0.00     0.033 C 
ATOM     29  C   UNL     1       8.254  49.191   9.418  1.00  0.00     0.118 C 
BRANCH  29  30
ATOM     30  O   UNL     1       9.607  49.507   9.200  1.00  0.00    -0.393 OA
ATOM     31  H   UNL     1      10.118  48.656   9.188  1.00  0.00     0.210 HD
ENDBRANCH  29  30
ENDBRANCH   9  11
ENDBRANCH   1   9
TORSDOF 7
ENDMDL
