MODEL 1
REMARK VINA RESULT:    -6.996      0.000      0.000
REMARK INTER + INTRA:          -8.043
REMARK INTER:                  -8.223
REMARK INTRA:                   0.180
REMARK UNBOUND:                 0.180
REMARK SMILES Oc1ccc(-c2[o+]c3cc(O)cc(O)c3cc2O)cc1
REMARK SMILES IDX 6 1 7 2 8 3 9 4 10 5 12 6 13 7 15 8 16 9 17 10 5 11 4 12
REMARK SMILES IDX 3 13 2 14 19 15 20 16 1 17 18 19 11 21 14 23
REMARK H PARENT 1 18 18 20 11 22 14 24
REMARK Flexibility Score: inf
ROOT
ATOM      1  C   UNL     1     -22.866  84.904 -23.169  1.00  0.00     0.401 A 
ATOM      2  O   UNL     1     -22.521  86.177 -23.346  1.00  0.00    -0.202 OA
ATOM      3  C   UNL     1     -22.899  86.895 -24.399  1.00  0.00     0.368 A 
ATOM      4  C   UNL     1     -22.489  88.227 -24.495  1.00  0.00     0.162 A 
ATOM      5  C   UNL     1     -22.874  89.007 -25.590  1.00  0.00     0.128 A 
ATOM      6  C   UNL     1     -23.674  88.452 -26.591  1.00  0.00     0.093 A 
ATOM      7  C   UNL     1     -24.099  87.120 -26.517  1.00  0.00     0.136 A 
ATOM      8  C   UNL     1     -23.708  86.323 -25.409  1.00  0.00     0.125 A 
ATOM      9  C   UNL     1     -24.075  84.976 -25.259  1.00  0.00     0.078 A 
ATOM     10  C   UNL     1     -23.648  84.253 -24.141  1.00  0.00     0.223 A 
ENDROOT
BRANCH   1  11
ATOM     11  C   UNL     1     -22.390  84.214 -21.948  1.00  0.00     0.084 A 
ATOM     12  C   UNL     1     -22.000  82.862 -21.974  1.00  0.00     0.022 A 
ATOM     13  C   UNL     1     -21.575  82.226 -20.803  1.00  0.00     0.047 A 
ATOM     14  C   UNL     1     -21.548  82.925 -19.592  1.00  0.00     0.115 A 
ATOM     15  C   UNL     1     -22.378  84.903 -20.724  1.00  0.00     0.022 A 
ATOM     16  C   UNL     1     -21.953  84.265 -19.555  1.00  0.00     0.047 A 
BRANCH  14  17
ATOM     17  O   UNL     1     -21.121  82.278 -18.435  1.00  0.00    -0.508 OA
ATOM     18  H   UNL     1     -20.281  82.568 -17.946  1.00  0.00     0.293 HD
ENDBRANCH  14  17
ENDBRANCH   1  11
BRANCH  10  19
ATOM     19  O   UNL     1     -23.970  82.902 -24.017  1.00  0.00    -0.500 OA
ATOM     20  H   UNL     1     -24.900  82.555 -24.218  1.00  0.00     0.294 HD
ENDBRANCH  10  19
BRANCH   5  21
ATOM     21  O   UNL     1     -22.468  90.336 -25.692  1.00  0.00    -0.507 OA
ATOM     22  H   UNL     1     -21.688  90.694 -25.155  1.00  0.00     0.293 HD
ENDBRANCH   5  21
BRANCH   7  23
ATOM     23  O   UNL     1     -24.901  86.641 -27.558  1.00  0.00    -0.507 OA
ATOM     24  H   UNL     1     -24.806  85.728 -27.977  1.00  0.00     0.293 HD
ENDBRANCH   7  23
TORSDOF 5
ENDMDL
MODEL 2
REMARK VINA RESULT:    -6.932      1.543      2.992
REMARK INTER + INTRA:          -7.968
REMARK INTER:                  -7.689
REMARK INTRA:                  -0.280
REMARK UNBOUND:                 0.180
REMARK SMILES Oc1ccc(-c2[o+]c3cc(O)cc(O)c3cc2O)cc1
REMARK SMILES IDX 6 1 7 2 8 3 9 4 10 5 12 6 13 7 15 8 16 9 17 10 5 11 4 12
REMARK SMILES IDX 3 13 2 14 19 15 20 16 1 17 18 19 11 21 14 23
REMARK H PARENT 1 18 18 20 11 22 14 24
REMARK Flexibility Score: inf
ROOT
ATOM      1  C   UNL     1     -22.535  85.619 -23.630  1.00  0.00     0.401 A 
ATOM      2  O   UNL     1     -23.574  85.752 -24.451  1.00  0.00    -0.202 OA
ATOM      3  C   UNL     1     -23.830  86.865 -25.131  1.00  0.00     0.368 A 
ATOM      4  C   UNL     1     -24.945  86.906 -25.972  1.00  0.00     0.162 A 
ATOM      5  C   UNL     1     -25.235  88.064 -26.701  1.00  0.00     0.128 A 
ATOM      6  C   UNL     1     -24.407  89.182 -26.589  1.00  0.00     0.093 A 
ATOM      7  C   UNL     1     -23.284  89.166 -25.753  1.00  0.00     0.136 A 
ATOM      8  C   UNL     1     -22.985  87.994 -25.009  1.00  0.00     0.125 A 
ATOM      9  C   UNL     1     -21.889  87.892 -24.137  1.00  0.00     0.078 A 
ATOM     10  C   UNL     1     -21.662  86.705 -23.433  1.00  0.00     0.223 A 
ENDROOT
BRANCH   1  11
ATOM     11  C   UNL     1     -22.352  84.324 -22.937  1.00  0.00     0.084 A 
ATOM     12  C   UNL     1     -22.729  84.151 -21.592  1.00  0.00     0.022 A 
ATOM     13  C   UNL     1     -22.525  82.924 -20.953  1.00  0.00     0.047 A 
ATOM     14  C   UNL     1     -21.931  81.862 -21.641  1.00  0.00     0.115 A 
ATOM     15  C   UNL     1     -21.737  83.258 -23.615  1.00  0.00     0.022 A 
ATOM     16  C   UNL     1     -21.534  82.032 -22.974  1.00  0.00     0.047 A 
BRANCH  14  17
ATOM     17  O   UNL     1     -21.736  80.645 -20.991  1.00  0.00    -0.508 OA
ATOM     18  H   UNL     1     -22.468  80.220 -20.434  1.00  0.00     0.293 HD
ENDBRANCH  14  17
ENDBRANCH   1  11
BRANCH  10  19
ATOM     19  O   UNL     1     -20.603  86.620 -22.530  1.00  0.00    -0.500 OA
ATOM     20  H   UNL     1     -20.219  85.728 -22.241  1.00  0.00     0.294 HD
ENDBRANCH  10  19
BRANCH   5  21
ATOM     21  O   UNL     1     -26.346  88.112 -27.541  1.00  0.00    -0.507 OA
ATOM     22  H   UNL     1     -26.364  87.615 -28.424  1.00  0.00     0.293 HD
ENDBRANCH   5  21
BRANCH   7  23
ATOM     23  O   UNL     1     -22.503  90.325 -25.700  1.00  0.00    -0.507 OA
ATOM     24  H   UNL     1     -22.053  90.747 -26.498  1.00  0.00     0.293 HD
ENDBRANCH   7  23
TORSDOF 5
ENDMDL
MODEL 3
REMARK VINA RESULT:    -6.769      6.345      9.641
REMARK INTER + INTRA:          -7.777
REMARK INTER:                  -7.491
REMARK INTRA:                  -0.286
REMARK UNBOUND:                 0.180
REMARK SMILES Oc1ccc(-c2[o+]c3cc(O)cc(O)c3cc2O)cc1
REMARK SMILES IDX 6 1 7 2 8 3 9 4 10 5 12 6 13 7 15 8 16 9 17 10 5 11 4 12
REMARK SMILES IDX 3 13 2 14 19 15 20 16 1 17 18 19 11 21 14 23
REMARK H PARENT 1 18 18 20 11 22 14 24
REMARK Flexibility Score: inf
ROOT
ATOM      1  C   UNL     1     -24.098  91.515 -29.806  1.00  0.00     0.401 A 
ATOM      2  O   UNL     1     -24.575  92.517 -29.073  1.00  0.00    -0.202 OA
ATOM      3  C   UNL     1     -24.462  93.795 -29.421  1.00  0.00     0.368 A 
ATOM      4  C   UNL     1     -24.999  94.777 -28.586  1.00  0.00     0.162 A 
ATOM      5  C   UNL     1     -24.897  96.128 -28.930  1.00  0.00     0.128 A 
ATOM      6  C   UNL     1     -24.258  96.498 -30.115  1.00  0.00     0.093 A 
ATOM      7  C   UNL     1     -23.712  95.532 -30.970  1.00  0.00     0.136 A 
ATOM      8  C   UNL     1     -23.811  94.159 -30.624  1.00  0.00     0.125 A 
ATOM      9  C   UNL     1     -23.281  93.124 -31.413  1.00  0.00     0.078 A 
ATOM     10  C   UNL     1     -23.413  91.794 -31.003  1.00  0.00     0.223 A 
ENDROOT
BRANCH   1  11
ATOM     11  C   UNL     1     -24.296  90.132 -29.315  1.00  0.00     0.084 A 
ATOM     12  C   UNL     1     -25.529  89.470 -29.462  1.00  0.00     0.022 A 
ATOM     13  C   UNL     1     -25.698  88.172 -28.969  1.00  0.00     0.047 A 
ATOM     14  C   UNL     1     -24.647  87.526 -28.313  1.00  0.00     0.115 A 
ATOM     15  C   UNL     1     -23.250  89.483 -28.637  1.00  0.00     0.022 A 
ATOM     16  C   UNL     1     -23.422  88.185 -28.145  1.00  0.00     0.047 A 
BRANCH  14  17
ATOM     17  O   UNL     1     -24.830  86.232 -27.829  1.00  0.00    -0.508 OA
ATOM     18  H   UNL     1     -24.349  85.441 -28.241  1.00  0.00     0.293 HD
ENDBRANCH  14  17
ENDBRANCH   1  11
BRANCH  10  19
ATOM     19  O   UNL     1     -22.844  90.770 -31.761  1.00  0.00    -0.500 OA
ATOM     20  H   UNL     1     -23.334  89.900 -31.935  1.00  0.00     0.294 HD
ENDBRANCH  10  19
BRANCH   5  21
ATOM     21  O   UNL     1     -25.430  97.114 -28.101  1.00  0.00    -0.507 OA
ATOM     22  H   UNL     1     -24.905  97.947 -27.864  1.00  0.00     0.293 HD
ENDBRANCH   5  21
BRANCH   7  23
ATOM     23  O   UNL     1     -23.092  95.984 -32.139  1.00  0.00    -0.507 OA
ATOM     24  H   UNL     1     -23.346  96.828 -32.630  1.00  0.00     0.293 HD
ENDBRANCH   7  23
TORSDOF 5
ENDMDL
MODEL 4
REMARK VINA RESULT:    -6.693      3.602      7.317
REMARK INTER + INTRA:          -7.687
REMARK INTER:                  -7.381
REMARK INTRA:                  -0.307
REMARK UNBOUND:                 0.180
REMARK SMILES Oc1ccc(-c2[o+]c3cc(O)cc(O)c3cc2O)cc1
REMARK SMILES IDX 6 1 7 2 8 3 9 4 10 5 12 6 13 7 15 8 16 9 17 10 5 11 4 12
REMARK SMILES IDX 3 13 2 14 19 15 20 16 1 17 18 19 11 21 14 23
REMARK H PARENT 1 18 18 20 11 22 14 24
REMARK Flexibility Score: inf
ROOT
ATOM      1  C   UNL     1     -22.706  82.214 -23.153  1.00  0.00     0.401 A 
ATOM      2  O   UNL     1     -21.969  81.372 -23.874  1.00  0.00    -0.202 OA
ATOM      3  C   UNL     1     -22.079  80.050 -23.791  1.00  0.00     0.368 A 
ATOM      4  C   UNL     1     -21.262  79.249 -24.592  1.00  0.00     0.162 A 
ATOM      5  C   UNL     1     -21.360  77.855 -24.527  1.00  0.00     0.128 A 
ATOM      6  C   UNL     1     -22.279  77.262 -23.659  1.00  0.00     0.093 A 
ATOM      7  C   UNL     1     -23.109  78.043 -22.846  1.00  0.00     0.136 A 
ATOM      8  C   UNL     1     -23.012  79.458 -22.907  1.00  0.00     0.125 A 
ATOM      9  C   UNL     1     -23.794  80.320 -22.119  1.00  0.00     0.078 A 
ATOM     10  C   UNL     1     -23.639  81.705 -22.231  1.00  0.00     0.223 A 
ENDROOT
BRANCH   1  11
ATOM     11  C   UNL     1     -22.497  83.667 -23.344  1.00  0.00     0.084 A 
ATOM     12  C   UNL     1     -23.366  84.436 -24.139  1.00  0.00     0.022 A 
ATOM     13  C   UNL     1     -23.134  85.803 -24.322  1.00  0.00     0.047 A 
ATOM     14  C   UNL     1     -22.027  86.415 -23.727  1.00  0.00     0.115 A 
ATOM     15  C   UNL     1     -21.376  84.285 -22.765  1.00  0.00     0.022 A 
ATOM     16  C   UNL     1     -21.146  85.652 -22.949  1.00  0.00     0.047 A 
BRANCH  14  17
ATOM     17  O   UNL     1     -21.810  87.778 -23.916  1.00  0.00    -0.508 OA
ATOM     18  H   UNL     1     -21.236  88.316 -23.277  1.00  0.00     0.293 HD
ENDBRANCH  14  17
ENDBRANCH   1  11
BRANCH  10  19
ATOM     19  O   UNL     1     -24.379  82.559 -21.414  1.00  0.00    -0.500 OA
ATOM     20  H   UNL     1     -24.797  82.240 -20.547  1.00  0.00     0.294 HD
ENDBRANCH  10  19
BRANCH   5  21
ATOM     21  O   UNL     1     -20.548  77.049 -25.324  1.00  0.00    -0.507 OA
ATOM     22  H   UNL     1     -20.134  77.397 -26.181  1.00  0.00     0.293 HD
ENDBRANCH   5  21
BRANCH   7  23
ATOM     23  O   UNL     1     -24.004  77.373 -22.007  1.00  0.00    -0.507 OA
ATOM     24  H   UNL     1     -24.203  77.641 -21.055  1.00  0.00     0.293 HD
ENDBRANCH   7  23
TORSDOF 5
ENDMDL
MODEL 5
REMARK VINA RESULT:    -6.641      1.577      6.612
REMARK INTER + INTRA:          -7.626
REMARK INTER:                  -7.320
REMARK INTRA:                  -0.306
REMARK UNBOUND:                 0.180
REMARK SMILES Oc1ccc(-c2[o+]c3cc(O)cc(O)c3cc2O)cc1
REMARK SMILES IDX 6 1 7 2 8 3 9 4 10 5 12 6 13 7 15 8 16 9 17 10 5 11 4 12
REMARK SMILES IDX 3 13 2 14 19 15 20 16 1 17 18 19 11 21 14 23
REMARK H PARENT 1 18 18 20 11 22 14 24
REMARK Flexibility Score: inf
ROOT
ATOM      1  C   UNL     1     -23.496  85.196 -23.822  1.00  0.00     0.401 A 
ATOM      2  O   UNL     1     -23.091  85.100 -22.558  1.00  0.00    -0.202 OA
ATOM      3  C   UNL     1     -22.672  83.965 -22.009  1.00  0.00     0.368 A 
ATOM      4  C   UNL     1     -22.263  83.966 -20.673  1.00  0.00     0.162 A 
ATOM      5  C   UNL     1     -21.814  82.786 -20.072  1.00  0.00     0.128 A 
ATOM      6  C   UNL     1     -21.773  81.601 -20.810  1.00  0.00     0.093 A 
ATOM      7  C   UNL     1     -22.178  81.574 -22.151  1.00  0.00     0.136 A 
ATOM      8  C   UNL     1     -22.636  82.769 -22.765  1.00  0.00     0.125 A 
ATOM      9  C   UNL     1     -23.074  82.833 -24.099  1.00  0.00     0.078 A 
ATOM     10  C   UNL     1     -23.516  84.046 -24.633  1.00  0.00     0.223 A 
ENDROOT
BRANCH   1  11
ATOM     11  C   UNL     1     -23.930  86.521 -24.319  1.00  0.00     0.084 A 
ATOM     12  C   UNL     1     -25.288  86.891 -24.331  1.00  0.00     0.022 A 
ATOM     13  C   UNL     1     -25.675  88.140 -24.827  1.00  0.00     0.047 A 
ATOM     14  C   UNL     1     -24.718  89.027 -25.329  1.00  0.00     0.115 A 
ATOM     15  C   UNL     1     -22.976  87.409 -24.844  1.00  0.00     0.022 A 
ATOM     16  C   UNL     1     -23.367  88.657 -25.339  1.00  0.00     0.047 A 
BRANCH  14  17
ATOM     17  O   UNL     1     -25.119  90.268 -25.818  1.00  0.00    -0.508 OA
ATOM     18  H   UNL     1     -26.072  90.435 -26.119  1.00  0.00     0.293 HD
ENDBRANCH  14  17
ENDBRANCH   1  11
BRANCH  10  19
ATOM     19  O   UNL     1     -23.997  84.100 -25.941  1.00  0.00    -0.500 OA
ATOM     20  H   UNL     1     -24.889  83.694 -26.198  1.00  0.00     0.294 HD
ENDBRANCH  10  19
BRANCH   5  21
ATOM     21  O   UNL     1     -21.405  82.780 -18.740  1.00  0.00    -0.507 OA
ATOM     22  H   UNL     1     -20.431  82.894 -18.484  1.00  0.00     0.293 HD
ENDBRANCH   5  21
BRANCH   7  23
ATOM     23  O   UNL     1     -22.103  80.350 -22.821  1.00  0.00    -0.507 OA
ATOM     24  H   UNL     1     -22.128  79.449 -22.368  1.00  0.00     0.293 HD
ENDBRANCH   7  23
TORSDOF 5
ENDMDL
MODEL 6
REMARK VINA RESULT:    -6.542      6.315      9.633
REMARK INTER + INTRA:          -7.510
REMARK INTER:                  -7.202
REMARK INTRA:                  -0.308
REMARK UNBOUND:                 0.180
REMARK SMILES Oc1ccc(-c2[o+]c3cc(O)cc(O)c3cc2O)cc1
REMARK SMILES IDX 6 1 7 2 8 3 9 4 10 5 12 6 13 7 15 8 16 9 17 10 5 11 4 12
REMARK SMILES IDX 3 13 2 14 19 15 20 16 1 17 18 19 11 21 14 23
REMARK H PARENT 1 18 18 20 11 22 14 24
REMARK Flexibility Score: inf
ROOT
ATOM      1  C   UNL     1     -24.934  92.018 -28.591  1.00  0.00     0.401 A 
ATOM      2  O   UNL     1     -24.354  92.597 -29.640  1.00  0.00    -0.202 OA
ATOM      3  C   UNL     1     -24.333  93.912 -29.829  1.00  0.00     0.368 A 
ATOM      4  C   UNL     1     -23.696  94.425 -30.962  1.00  0.00     0.162 A 
ATOM      5  C   UNL     1     -23.656  95.805 -31.184  1.00  0.00     0.128 A 
ATOM      6  C   UNL     1     -24.253  96.674 -30.269  1.00  0.00     0.093 A 
ATOM      7  C   UNL     1     -24.898  96.185 -29.126  1.00  0.00     0.136 A 
ATOM      8  C   UNL     1     -24.943  94.784 -28.897  1.00  0.00     0.125 A 
ATOM      9  C   UNL     1     -25.579  94.204 -27.787  1.00  0.00     0.078 A 
ATOM     10  C   UNL     1     -25.586  92.814 -27.631  1.00  0.00     0.223 A 
ENDROOT
BRANCH   1  11
ATOM     11  C   UNL     1     -24.881  90.542 -28.487  1.00  0.00     0.084 A 
ATOM     12  C   UNL     1     -25.936  89.736 -28.953  1.00  0.00     0.022 A 
ATOM     13  C   UNL     1     -25.873  88.345 -28.823  1.00  0.00     0.047 A 
ATOM     14  C   UNL     1     -24.766  87.744 -28.217  1.00  0.00     0.115 A 
ATOM     15  C   UNL     1     -23.781  89.932 -27.862  1.00  0.00     0.022 A 
ATOM     16  C   UNL     1     -23.721  88.541 -27.734  1.00  0.00     0.047 A 
BRANCH  14  17
ATOM     17  O   UNL     1     -24.717  86.356 -28.097  1.00  0.00    -0.508 OA
ATOM     18  H   UNL     1     -24.651  85.757 -28.912  1.00  0.00     0.293 HD
ENDBRANCH  14  17
ENDBRANCH   1  11
BRANCH  10  19
ATOM     19  O   UNL     1     -26.260  92.235 -26.556  1.00  0.00    -0.500 OA
ATOM     20  H   UNL     1     -26.784  92.793 -25.892  1.00  0.00     0.294 HD
ENDBRANCH  10  19
BRANCH   5  21
ATOM     21  O   UNL     1     -23.022  96.324 -32.311  1.00  0.00    -0.507 OA
ATOM     22  H   UNL     1     -22.303  95.804 -32.801  1.00  0.00     0.293 HD
ENDBRANCH   5  21
BRANCH   7  23
ATOM     23  O   UNL     1     -25.468  97.120 -28.258  1.00  0.00    -0.507 OA
ATOM     24  H   UNL     1     -25.261  98.108 -28.267  1.00  0.00     0.293 HD
ENDBRANCH   7  23
TORSDOF 5
ENDMDL
MODEL 7
REMARK VINA RESULT:    -6.371      4.562      9.532
REMARK INTER + INTRA:          -7.309
REMARK INTER:                  -6.988
REMARK INTRA:                  -0.321
REMARK UNBOUND:                 0.180
REMARK SMILES Oc1ccc(-c2[o+]c3cc(O)cc(O)c3cc2O)cc1
REMARK SMILES IDX 6 1 7 2 8 3 9 4 10 5 12 6 13 7 15 8 16 9 17 10 5 11 4 12
REMARK SMILES IDX 3 13 2 14 19 15 20 16 1 17 18 19 11 21 14 23
REMARK H PARENT 1 18 18 20 11 22 14 24
REMARK Flexibility Score: inf
ROOT
ATOM      1  C   UNL     1     -24.970  91.489 -27.956  1.00  0.00     0.401 A 
ATOM      2  O   UNL     1     -24.097  91.041 -27.057  1.00  0.00    -0.202 OA
ATOM      3  C   UNL     1     -23.891  89.749 -26.819  1.00  0.00     0.368 A 
ATOM      4  C   UNL     1     -22.950  89.377 -25.857  1.00  0.00     0.162 A 
ATOM      5  C   UNL     1     -22.712  88.025 -25.589  1.00  0.00     0.128 A 
ATOM      6  C   UNL     1     -23.418  87.043 -26.288  1.00  0.00     0.093 A 
ATOM      7  C   UNL     1     -24.366  87.391 -27.257  1.00  0.00     0.136 A 
ATOM      8  C   UNL     1     -24.613  88.762 -27.531  1.00  0.00     0.125 A 
ATOM      9  C   UNL     1     -25.555  89.203 -28.475  1.00  0.00     0.078 A 
ATOM     10  C   UNL     1     -25.746  90.572 -28.687  1.00  0.00     0.223 A 
ENDROOT
BRANCH   1  11
ATOM     11  C   UNL     1     -25.100  92.953 -28.136  1.00  0.00     0.084 A 
ATOM     12  C   UNL     1     -24.359  93.640 -29.116  1.00  0.00     0.022 A 
ATOM     13  C   UNL     1     -24.483  95.026 -29.252  1.00  0.00     0.047 A 
ATOM     14  C   UNL     1     -25.333  95.744 -28.405  1.00  0.00     0.115 A 
ATOM     15  C   UNL     1     -25.937  93.684 -27.277  1.00  0.00     0.022 A 
ATOM     16  C   UNL     1     -26.058  95.070 -27.414  1.00  0.00     0.047 A 
BRANCH  14  17
ATOM     17  O   UNL     1     -25.447  97.125 -28.554  1.00  0.00    -0.508 OA
ATOM     18  H   UNL     1     -26.305  97.612 -28.323  1.00  0.00     0.293 HD
ENDBRANCH  14  17
ENDBRANCH   1  11
BRANCH  10  19
ATOM     19  O   UNL     1     -26.716  91.010 -29.588  1.00  0.00    -0.500 OA
ATOM     20  H   UNL     1     -26.920  91.995 -29.715  1.00  0.00     0.294 HD
ENDBRANCH  10  19
BRANCH   5  21
ATOM     21  O   UNL     1     -21.774  87.647 -24.630  1.00  0.00    -0.507 OA
ATOM     22  H   UNL     1     -21.627  88.191 -23.789  1.00  0.00     0.293 HD
ENDBRANCH   5  21
BRANCH   7  23
ATOM     23  O   UNL     1     -25.027  86.349 -27.914  1.00  0.00    -0.507 OA
ATOM     24  H   UNL     1     -24.699  85.395 -27.945  1.00  0.00     0.293 HD
ENDBRANCH   7  23
TORSDOF 5
ENDMDL
MODEL 8
REMARK VINA RESULT:    -6.326      5.112      8.348
REMARK INTER + INTRA:          -7.256
REMARK INTER:                  -6.949
REMARK INTRA:                  -0.307
REMARK UNBOUND:                 0.180
REMARK SMILES Oc1ccc(-c2[o+]c3cc(O)cc(O)c3cc2O)cc1
REMARK SMILES IDX 6 1 7 2 8 3 9 4 10 5 12 6 13 7 15 8 16 9 17 10 5 11 4 12
REMARK SMILES IDX 3 13 2 14 19 15 20 16 1 17 18 19 11 21 14 23
REMARK H PARENT 1 18 18 20 11 22 14 24
REMARK Flexibility Score: inf
ROOT
ATOM      1  C   UNL     1     -24.198  91.253 -28.140  1.00  0.00     0.401 A 
ATOM      2  O   UNL     1     -24.597  92.469 -27.775  1.00  0.00    -0.202 OA
ATOM      3  C   UNL     1     -24.551  93.524 -28.582  1.00  0.00     0.368 A 
ATOM      4  C   UNL     1     -24.996  94.761 -28.108  1.00  0.00     0.162 A 
ATOM      5  C   UNL     1     -24.962  95.887 -28.936  1.00  0.00     0.128 A 
ATOM      6  C   UNL     1     -24.483  95.775 -30.243  1.00  0.00     0.093 A 
ATOM      7  C   UNL     1     -24.031  94.547 -30.741  1.00  0.00     0.136 A 
ATOM      8  C   UNL     1     -24.061  93.401 -29.904  1.00  0.00     0.125 A 
ATOM      9  C   UNL     1     -23.617  92.133 -30.314  1.00  0.00     0.078 A 
ATOM     10  C   UNL     1     -23.673  91.051 -29.430  1.00  0.00     0.223 A 
ENDROOT
BRANCH   1  11
ATOM     11  C   UNL     1     -24.308  90.155 -27.153  1.00  0.00     0.084 A 
ATOM     12  C   UNL     1     -23.218  89.782 -26.345  1.00  0.00     0.022 A 
ATOM     13  C   UNL     1     -23.341  88.726 -25.435  1.00  0.00     0.047 A 
ATOM     14  C   UNL     1     -24.545  88.023 -25.331  1.00  0.00     0.115 A 
ATOM     15  C   UNL     1     -25.508  89.431 -27.055  1.00  0.00     0.022 A 
ATOM     16  C   UNL     1     -25.628  88.376 -26.146  1.00  0.00     0.047 A 
BRANCH  14  17
ATOM     17  O   UNL     1     -24.652  86.975 -24.419  1.00  0.00    -0.508 OA
ATOM     18  H   UNL     1     -25.364  86.973 -23.697  1.00  0.00     0.293 HD
ENDBRANCH  14  17
ENDBRANCH   1  11
BRANCH  10  19
ATOM     19  O   UNL     1     -23.185  89.804 -29.819  1.00  0.00    -0.500 OA
ATOM     20  H   UNL     1     -23.618  88.942 -29.510  1.00  0.00     0.294 HD
ENDBRANCH  10  19
BRANCH   5  21
ATOM     21  O   UNL     1     -25.405  97.124 -28.471  1.00  0.00    -0.507 OA
ATOM     22  H   UNL     1     -26.131  97.196 -27.768  1.00  0.00     0.293 HD
ENDBRANCH   5  21
BRANCH   7  23
ATOM     23  O   UNL     1     -23.570  94.517 -32.061  1.00  0.00    -0.507 OA
ATOM     24  H   UNL     1     -24.001  93.987 -32.804  1.00  0.00     0.293 HD
ENDBRANCH   7  23
TORSDOF 5
ENDMDL
MODEL 9
REMARK VINA RESULT:    -6.149      2.289      7.766
REMARK INTER + INTRA:          -7.048
REMARK INTER:                  -6.731
REMARK INTRA:                  -0.317
REMARK UNBOUND:                 0.180
REMARK SMILES Oc1ccc(-c2[o+]c3cc(O)cc(O)c3cc2O)cc1
REMARK SMILES IDX 6 1 7 2 8 3 9 4 10 5 12 6 13 7 15 8 16 9 17 10 5 11 4 12
REMARK SMILES IDX 3 13 2 14 19 15 20 16 1 17 18 19 11 21 14 23
REMARK H PARENT 1 18 18 20 11 22 14 24
REMARK Flexibility Score: inf
ROOT
ATOM      1  C   UNL     1     -23.984  88.475 -25.875  1.00  0.00     0.401 A 
ATOM      2  O   UNL     1     -24.280  87.207 -25.598  1.00  0.00    -0.202 OA
ATOM      3  C   UNL     1     -23.564  86.454 -24.770  1.00  0.00     0.368 A 
ATOM      4  C   UNL     1     -23.958  85.134 -24.540  1.00  0.00     0.162 A 
ATOM      5  C   UNL     1     -23.224  84.320 -23.671  1.00  0.00     0.128 A 
ATOM      6  C   UNL     1     -22.094  84.831 -23.028  1.00  0.00     0.093 A 
ATOM      7  C   UNL     1     -21.680  86.151 -23.242  1.00  0.00     0.136 A 
ATOM      8  C   UNL     1     -22.419  86.980 -24.125  1.00  0.00     0.125 A 
ATOM      9  C   UNL     1     -22.070  88.311 -24.409  1.00  0.00     0.078 A 
ATOM     10  C   UNL     1     -22.846  89.065 -25.295  1.00  0.00     0.223 A 
ENDROOT
BRANCH   1  11
ATOM     11  C   UNL     1     -24.866  89.212 -26.807  1.00  0.00     0.084 A 
ATOM     12  C   UNL     1     -24.641  89.200 -28.196  1.00  0.00     0.022 A 
ATOM     13  C   UNL     1     -25.476  89.923 -29.054  1.00  0.00     0.047 A 
ATOM     14  C   UNL     1     -26.534  90.676 -28.538  1.00  0.00     0.115 A 
ATOM     15  C   UNL     1     -25.920  89.988 -26.295  1.00  0.00     0.022 A 
ATOM     16  C   UNL     1     -26.753  90.710 -27.155  1.00  0.00     0.047 A 
BRANCH  14  17
ATOM     17  O   UNL     1     -27.358  91.390 -29.406  1.00  0.00    -0.508 OA
ATOM     18  H   UNL     1     -27.605  92.356 -29.226  1.00  0.00     0.293 HD
ENDBRANCH  14  17
ENDBRANCH   1  11
BRANCH  10  19
ATOM     19  O   UNL     1     -22.471  90.369 -25.616  1.00  0.00    -0.500 OA
ATOM     20  H   UNL     1     -21.655  90.806 -25.204  1.00  0.00     0.294 HD
ENDBRANCH  10  19
BRANCH   5  21
ATOM     21  O   UNL     1     -23.610  83.002 -23.437  1.00  0.00    -0.507 OA
ATOM     22  H   UNL     1     -23.568  82.300 -24.167  1.00  0.00     0.293 HD
ENDBRANCH   5  21
BRANCH   7  23
ATOM     23  O   UNL     1     -20.541  86.587 -22.558  1.00  0.00    -0.507 OA
ATOM     24  H   UNL     1     -20.514  86.800 -21.572  1.00  0.00     0.293 HD
ENDBRANCH   7  23
TORSDOF 5
ENDMDL
