MODEL 1
REMARK VINA RESULT:    -6.595      0.000      0.000
REMARK INTER + INTRA:          -8.073
REMARK INTER:                  -7.752
REMARK INTRA:                  -0.321
REMARK UNBOUND:                -0.321
REMARK SMILES Oc1ccc(-c2[o+]c3cc(O)cc(O)c3cc2O)cc1
REMARK SMILES IDX 6 1 7 2 8 3 9 4 10 5 12 6 13 7 15 8 16 9 17 10 5 11 4 12
REMARK SMILES IDX 3 13 2 14 19 15 20 16 1 17 18 19 11 21 14 23
REMARK H PARENT 1 18 18 20 11 22 14 24
REMARK Flexibility Score: inf
ROOT
ATOM      1  C   UNL     1       6.731  10.660  46.772  1.00  0.00     0.401 A 
ATOM      2  O   UNL     1       7.301   9.468  46.929  1.00  0.00    -0.202 OA
ATOM      3  C   UNL     1       8.473   9.144  46.391  1.00  0.00     0.368 A 
ATOM      4  C   UNL     1       8.989   7.864  46.611  1.00  0.00     0.162 A 
ATOM      5  C   UNL     1      10.218   7.495  46.055  1.00  0.00     0.128 A 
ATOM      6  C   UNL     1      10.931   8.409  45.274  1.00  0.00     0.093 A 
ATOM      7  C   UNL     1      10.433   9.697  45.039  1.00  0.00     0.136 A 
ATOM      8  C   UNL     1       9.188  10.077  45.604  1.00  0.00     0.125 A 
ATOM      9  C   UNL     1       8.619  11.350  45.432  1.00  0.00     0.078 A 
ATOM     10  C   UNL     1       7.389  11.653  46.025  1.00  0.00     0.223 A 
ENDROOT
BRANCH   1  11
ATOM     11  C   UNL     1       5.417  10.897  47.414  1.00  0.00     0.084 A 
ATOM     12  C   UNL     1       4.213  10.727  46.707  1.00  0.00     0.022 A 
ATOM     13  C   UNL     1       2.984  10.935  47.341  1.00  0.00     0.047 A 
ATOM     14  C   UNL     1       2.942  11.302  48.690  1.00  0.00     0.115 A 
ATOM     15  C   UNL     1       5.366  11.246  48.774  1.00  0.00     0.022 A 
ATOM     16  C   UNL     1       4.136  11.454  49.406  1.00  0.00     0.047 A 
BRANCH  14  17
ATOM     17  O   UNL     1       1.711  11.508  49.309  1.00  0.00    -0.508 OA
ATOM     18  H   UNL     1       1.457  11.015  50.157  1.00  0.00     0.293 HD
ENDBRANCH  14  17
ENDBRANCH   1  11
BRANCH  10  19
ATOM     19  O   UNL     1       6.848  12.933  45.896  1.00  0.00    -0.500 OA
ATOM     20  H   UNL     1       7.404  13.717  45.574  1.00  0.00     0.294 HD
ENDBRANCH  10  19
BRANCH   5  21
ATOM     21  O   UNL     1      10.741   6.222  46.269  1.00  0.00    -0.507 OA
ATOM     22  H   UNL     1      11.588   5.912  45.806  1.00  0.00     0.293 HD
ENDBRANCH   5  21
BRANCH   7  23
ATOM     23  O   UNL     1      11.205  10.550  44.244  1.00  0.00    -0.507 OA
ATOM     24  H   UNL     1      10.957  10.838  43.309  1.00  0.00     0.293 HD
ENDBRANCH   7  23
TORSDOF 5
ENDMDL
MODEL 2
REMARK VINA RESULT:    -6.296      1.556      7.024
REMARK INTER + INTRA:          -7.721
REMARK INTER:                  -7.457
REMARK INTRA:                  -0.263
REMARK UNBOUND:                -0.321
REMARK SMILES Oc1ccc(-c2[o+]c3cc(O)cc(O)c3cc2O)cc1
REMARK SMILES IDX 6 1 7 2 8 3 9 4 10 5 12 6 13 7 15 8 16 9 17 10 5 11 4 12
REMARK SMILES IDX 3 13 2 14 19 15 20 16 1 17 18 19 11 21 14 23
REMARK H PARENT 1 18 18 20 11 22 14 24
REMARK Flexibility Score: inf
ROOT
ATOM      1  C   UNL     1       6.118  10.966  47.173  1.00  0.00     0.401 A 
ATOM      2  O   UNL     1       4.944  10.523  46.734  1.00  0.00    -0.202 OA
ATOM      3  C   UNL     1       3.786  10.826  47.312  1.00  0.00     0.368 A 
ATOM      4  C   UNL     1       2.604  10.308  46.778  1.00  0.00     0.162 A 
ATOM      5  C   UNL     1       1.372  10.608  47.369  1.00  0.00     0.128 A 
ATOM      6  C   UNL     1       1.324  11.427  48.499  1.00  0.00     0.093 A 
ATOM      7  C   UNL     1       2.496  11.958  49.054  1.00  0.00     0.136 A 
ATOM      8  C   UNL     1       3.748  11.658  48.456  1.00  0.00     0.125 A 
ATOM      9  C   UNL     1       4.970  12.156  48.936  1.00  0.00     0.078 A 
ATOM     10  C   UNL     1       6.165  11.821  48.290  1.00  0.00     0.223 A 
ENDROOT
BRANCH   1  11
ATOM     11  C   UNL     1       7.340  10.550  46.448  1.00  0.00     0.084 A 
ATOM     12  C   UNL     1       8.016  11.428  45.582  1.00  0.00     0.022 A 
ATOM     13  C   UNL     1       9.181  11.019  44.926  1.00  0.00     0.047 A 
ATOM     14  C   UNL     1       9.693   9.735  45.136  1.00  0.00     0.115 A 
ATOM     15  C   UNL     1       7.872   9.268  46.670  1.00  0.00     0.022 A 
ATOM     16  C   UNL     1       9.037   8.861  46.013  1.00  0.00     0.047 A 
BRANCH  14  17
ATOM     17  O   UNL     1      10.854   9.340  44.475  1.00  0.00    -0.508 OA
ATOM     18  H   UNL     1      11.682   9.057  44.985  1.00  0.00     0.293 HD
ENDBRANCH  14  17
ENDBRANCH   1  11
BRANCH  10  19
ATOM     19  O   UNL     1       7.375  12.355  48.736  1.00  0.00    -0.500 OA
ATOM     20  H   UNL     1       7.877  11.955  49.520  1.00  0.00     0.294 HD
ENDBRANCH  10  19
BRANCH   5  21
ATOM     21  O   UNL     1       0.189  10.096  46.842  1.00  0.00    -0.507 OA
ATOM     22  H   UNL     1      -0.416  10.658  46.254  1.00  0.00     0.293 HD
ENDBRANCH   5  21
BRANCH   7  23
ATOM     23  O   UNL     1       2.363  12.766  50.187  1.00  0.00    -0.507 OA
ATOM     24  H   UNL     1       1.496  12.915  50.683  1.00  0.00     0.293 HD
ENDBRANCH   7  23
TORSDOF 5
ENDMDL
MODEL 3
REMARK VINA RESULT:    -6.196      2.911      5.142
REMARK INTER + INTRA:          -7.603
REMARK INTER:                  -7.329
REMARK INTRA:                  -0.274
REMARK UNBOUND:                -0.321
REMARK SMILES Oc1ccc(-c2[o+]c3cc(O)cc(O)c3cc2O)cc1
REMARK SMILES IDX 6 1 7 2 8 3 9 4 10 5 12 6 13 7 15 8 16 9 17 10 5 11 4 12
REMARK SMILES IDX 3 13 2 14 19 15 20 16 1 17 18 19 11 21 14 23
REMARK H PARENT 1 18 18 20 11 22 14 24
REMARK Flexibility Score: inf
ROOT
ATOM      1  C   UNL     1       2.585  11.035  48.066  1.00  0.00     0.401 A 
ATOM      2  O   UNL     1       3.459  10.670  47.132  1.00  0.00    -0.202 OA
ATOM      3  C   UNL     1       4.679  11.187  47.032  1.00  0.00     0.368 A 
ATOM      4  C   UNL     1       5.525  10.741  46.014  1.00  0.00     0.162 A 
ATOM      5  C   UNL     1       6.813  11.271  45.884  1.00  0.00     0.128 A 
ATOM      6  C   UNL     1       7.254  12.252  46.774  1.00  0.00     0.093 A 
ATOM      7  C   UNL     1       6.425  12.717  47.802  1.00  0.00     0.136 A 
ATOM      8  C   UNL     1       5.118  12.180  47.940  1.00  0.00     0.125 A 
ATOM      9  C   UNL     1       4.224  12.576  48.948  1.00  0.00     0.078 A 
ATOM     10  C   UNL     1       2.953  11.998  49.024  1.00  0.00     0.223 A 
ENDROOT
BRANCH   1  11
ATOM     11  C   UNL     1       1.251  10.391  48.068  1.00  0.00     0.084 A 
ATOM     12  C   UNL     1       0.104  11.077  47.630  1.00  0.00     0.022 A 
ATOM     13  C   UNL     1      -1.140  10.440  47.619  1.00  0.00     0.047 A 
ATOM     14  C   UNL     1      -1.253   9.108  48.032  1.00  0.00     0.115 A 
ATOM     15  C   UNL     1       1.134   9.047  48.461  1.00  0.00     0.022 A 
ATOM     16  C   UNL     1      -0.112   8.412  48.450  1.00  0.00     0.047 A 
BRANCH  14  17
ATOM     17  O   UNL     1      -2.499   8.487  48.017  1.00  0.00    -0.508 OA
ATOM     18  H   UNL     1      -2.592   7.484  48.128  1.00  0.00     0.293 HD
ENDBRANCH  14  17
ENDBRANCH   1  11
BRANCH  10  19
ATOM     19  O   UNL     1       2.082  12.355  50.055  1.00  0.00    -0.500 OA
ATOM     20  H   UNL     1       2.120  13.268  50.492  1.00  0.00     0.294 HD
ENDBRANCH  10  19
BRANCH   5  21
ATOM     21  O   UNL     1       7.662  10.830  44.872  1.00  0.00    -0.507 OA
ATOM     22  H   UNL     1       7.382  10.103  44.223  1.00  0.00     0.293 HD
ENDBRANCH   5  21
BRANCH   7  23
ATOM     23  O   UNL     1       6.940  13.704  48.649  1.00  0.00    -0.507 OA
ATOM     24  H   UNL     1       7.904  14.002  48.656  1.00  0.00     0.293 HD
ENDBRANCH   7  23
TORSDOF 5
ENDMDL
MODEL 4
REMARK VINA RESULT:    -6.167      9.113     12.183
REMARK INTER + INTRA:          -7.569
REMARK INTER:                  -7.280
REMARK INTRA:                  -0.289
REMARK UNBOUND:                -0.321
REMARK SMILES Oc1ccc(-c2[o+]c3cc(O)cc(O)c3cc2O)cc1
REMARK SMILES IDX 6 1 7 2 8 3 9 4 10 5 12 6 13 7 15 8 16 9 17 10 5 11 4 12
REMARK SMILES IDX 3 13 2 14 19 15 20 16 1 17 18 19 11 21 14 23
REMARK H PARENT 1 18 18 20 11 22 14 24
REMARK Flexibility Score: inf
ROOT
ATOM      1  C   UNL     1      10.917   3.772  54.355  1.00  0.00     0.401 A 
ATOM      2  O   UNL     1      10.146   4.832  54.129  1.00  0.00    -0.202 OA
ATOM      3  C   UNL     1       8.844   4.747  53.874  1.00  0.00     0.368 A 
ATOM      4  C   UNL     1       8.118   5.919  53.646  1.00  0.00     0.162 A 
ATOM      5  C   UNL     1       6.748   5.858  53.372  1.00  0.00     0.128 A 
ATOM      6  C   UNL     1       6.103   4.620  53.323  1.00  0.00     0.093 A 
ATOM      7  C   UNL     1       6.809   3.431  53.546  1.00  0.00     0.136 A 
ATOM      8  C   UNL     1       8.200   3.488  53.828  1.00  0.00     0.125 A 
ATOM      9  C   UNL     1       8.983   2.350  54.078  1.00  0.00     0.078 A 
ATOM     10  C   UNL     1      10.348   2.486  54.353  1.00  0.00     0.223 A 
ENDROOT
BRANCH   1  11
ATOM     11  C   UNL     1      12.357   3.997  54.619  1.00  0.00     0.084 A 
ATOM     12  C   UNL     1      13.330   3.757  53.632  1.00  0.00     0.022 A 
ATOM     13  C   UNL     1      14.682   3.999  53.897  1.00  0.00     0.047 A 
ATOM     14  C   UNL     1      15.076   4.494  55.144  1.00  0.00     0.115 A 
ATOM     15  C   UNL     1      12.758   4.514  55.862  1.00  0.00     0.022 A 
ATOM     16  C   UNL     1      14.111   4.755  56.125  1.00  0.00     0.047 A 
BRANCH  14  17
ATOM     17  O   UNL     1      16.426   4.729  55.396  1.00  0.00    -0.508 OA
ATOM     18  H   UNL     1      16.758   5.639  55.693  1.00  0.00     0.293 HD
ENDBRANCH  14  17
ENDBRANCH   1  11
BRANCH  10  19
ATOM     19  O   UNL     1      11.117   1.359  54.650  1.00  0.00    -0.500 OA
ATOM     20  H   UNL     1      11.165   0.980  55.589  1.00  0.00     0.294 HD
ENDBRANCH  10  19
BRANCH   5  21
ATOM     21  O   UNL     1       6.017   7.022  53.145  1.00  0.00    -0.507 OA
ATOM     22  H   UNL     1       5.518   7.173  52.276  1.00  0.00     0.293 HD
ENDBRANCH   5  21
BRANCH   7  23
ATOM     23  O   UNL     1       6.092   2.233  53.476  1.00  0.00    -0.507 OA
ATOM     24  H   UNL     1       5.803   1.694  54.278  1.00  0.00     0.293 HD
ENDBRANCH   7  23
TORSDOF 5
ENDMDL
MODEL 5
REMARK VINA RESULT:    -5.991      7.620     10.621
REMARK INTER + INTRA:          -7.362
REMARK INTER:                  -7.204
REMARK INTRA:                  -0.159
REMARK UNBOUND:                -0.321
REMARK SMILES Oc1ccc(-c2[o+]c3cc(O)cc(O)c3cc2O)cc1
REMARK SMILES IDX 6 1 7 2 8 3 9 4 10 5 12 6 13 7 15 8 16 9 17 10 5 11 4 12
REMARK SMILES IDX 3 13 2 14 19 15 20 16 1 17 18 19 11 21 14 23
REMARK H PARENT 1 18 18 20 11 22 14 24
REMARK Flexibility Score: inf
ROOT
ATOM      1  C   UNL     1      10.935   4.015  51.591  1.00  0.00     0.401 A 
ATOM      2  O   UNL     1       9.775   3.804  52.208  1.00  0.00    -0.202 OA
ATOM      3  C   UNL     1       9.678   3.231  53.404  1.00  0.00     0.368 A 
ATOM      4  C   UNL     1       8.413   3.051  53.969  1.00  0.00     0.162 A 
ATOM      5  C   UNL     1       8.282   2.448  55.224  1.00  0.00     0.128 A 
ATOM      6  C   UNL     1       9.420   2.023  55.914  1.00  0.00     0.093 A 
ATOM      7  C   UNL     1      10.698   2.192  55.367  1.00  0.00     0.136 A 
ATOM      8  C   UNL     1      10.837   2.806  54.095  1.00  0.00     0.125 A 
ATOM      9  C   UNL     1      12.078   3.028  53.477  1.00  0.00     0.078 A 
ATOM     10  C   UNL     1      12.136   3.644  52.223  1.00  0.00     0.223 A 
ENDROOT
BRANCH   1  11
ATOM     11  C   UNL     1      10.911   4.654  50.255  1.00  0.00     0.084 A 
ATOM     12  C   UNL     1      11.420   3.999  49.119  1.00  0.00     0.022 A 
ATOM     13  C   UNL     1      11.365   4.614  47.864  1.00  0.00     0.047 A 
ATOM     14  C   UNL     1      10.793   5.882  47.726  1.00  0.00     0.115 A 
ATOM     15  C   UNL     1      10.318   5.919  50.105  1.00  0.00     0.022 A 
ATOM     16  C   UNL     1      10.266   6.532  48.849  1.00  0.00     0.047 A 
BRANCH  14  17
ATOM     17  O   UNL     1      10.747   6.483  46.471  1.00  0.00    -0.508 OA
ATOM     18  H   UNL     1      10.466   7.450  46.357  1.00  0.00     0.293 HD
ENDBRANCH  14  17
ENDBRANCH   1  11
BRANCH  10  19
ATOM     19  O   UNL     1      13.371   3.910  51.630  1.00  0.00    -0.500 OA
ATOM     20  H   UNL     1      14.104   4.406  52.125  1.00  0.00     0.294 HD
ENDBRANCH  10  19
BRANCH   5  21
ATOM     21  O   UNL     1       7.025   2.265  55.796  1.00  0.00    -0.507 OA
ATOM     22  H   UNL     1       6.312   2.984  55.749  1.00  0.00     0.293 HD
ENDBRANCH   5  21
BRANCH   7  23
ATOM     23  O   UNL     1      11.786   1.736  56.119  1.00  0.00    -0.507 OA
ATOM     24  H   UNL     1      12.358   0.942  55.870  1.00  0.00     0.293 HD
ENDBRANCH   7  23
TORSDOF 5
ENDMDL
MODEL 6
REMARK VINA RESULT:    -5.949      1.975      2.827
REMARK INTER + INTRA:          -7.313
REMARK INTER:                  -6.994
REMARK INTRA:                  -0.319
REMARK UNBOUND:                -0.321
REMARK SMILES Oc1ccc(-c2[o+]c3cc(O)cc(O)c3cc2O)cc1
REMARK SMILES IDX 6 1 7 2 8 3 9 4 10 5 12 6 13 7 15 8 16 9 17 10 5 11 4 12
REMARK SMILES IDX 3 13 2 14 19 15 20 16 1 17 18 19 11 21 14 23
REMARK H PARENT 1 18 18 20 11 22 14 24
REMARK Flexibility Score: inf
ROOT
ATOM      1  C   UNL     1       6.537  10.421  47.527  1.00  0.00     0.401 A 
ATOM      2  O   UNL     1       7.107   9.837  46.476  1.00  0.00    -0.202 OA
ATOM      3  C   UNL     1       8.152   9.022  46.572  1.00  0.00     0.368 A 
ATOM      4  C   UNL     1       8.684   8.459  45.409  1.00  0.00     0.162 A 
ATOM      5  C   UNL     1       9.785   7.600  45.481  1.00  0.00     0.128 A 
ATOM      6  C   UNL     1      10.358   7.307  46.721  1.00  0.00     0.093 A 
ATOM      7  C   UNL     1       9.845   7.860  47.900  1.00  0.00     0.136 A 
ATOM      8  C   UNL     1       8.724   8.729  47.833  1.00  0.00     0.125 A 
ATOM      9  C   UNL     1       8.136   9.318  48.964  1.00  0.00     0.078 A 
ATOM     10  C   UNL     1       7.030  10.161  48.819  1.00  0.00     0.223 A 
ENDROOT
BRANCH   1  11
ATOM     11  C   UNL     1       5.382  11.318  47.289  1.00  0.00     0.084 A 
ATOM     12  C   UNL     1       5.543  12.711  47.189  1.00  0.00     0.022 A 
ATOM     13  C   UNL     1       4.441  13.535  46.941  1.00  0.00     0.047 A 
ATOM     14  C   UNL     1       3.169  12.978  46.778  1.00  0.00     0.115 A 
ATOM     15  C   UNL     1       4.105  10.763  47.103  1.00  0.00     0.022 A 
ATOM     16  C   UNL     1       3.004  11.590  46.856  1.00  0.00     0.047 A 
BRANCH  14  17
ATOM     17  O   UNL     1       2.079  13.811  46.533  1.00  0.00    -0.508 OA
ATOM     18  H   UNL     1       1.159  13.601  46.902  1.00  0.00     0.293 HD
ENDBRANCH  14  17
ENDBRANCH   1  11
BRANCH  10  19
ATOM     19  O   UNL     1       6.413  10.707  49.946  1.00  0.00    -0.500 OA
ATOM     20  H   UNL     1       5.841  10.144  50.565  1.00  0.00     0.294 HD
ENDBRANCH  10  19
BRANCH   5  21
ATOM     21  O   UNL     1      10.320   7.034  44.326  1.00  0.00    -0.507 OA
ATOM     22  H   UNL     1       9.918   6.203  43.909  1.00  0.00     0.293 HD
ENDBRANCH   5  21
BRANCH   7  23
ATOM     23  O   UNL     1      10.477   7.519  49.100  1.00  0.00    -0.507 OA
ATOM     24  H   UNL     1      10.996   6.666  49.249  1.00  0.00     0.293 HD
ENDBRANCH   7  23
TORSDOF 5
ENDMDL
MODEL 7
REMARK VINA RESULT:    -5.921      7.186      9.297
REMARK INTER + INTRA:          -7.280
REMARK INTER:                  -6.973
REMARK INTRA:                  -0.307
REMARK UNBOUND:                -0.321
REMARK SMILES Oc1ccc(-c2[o+]c3cc(O)cc(O)c3cc2O)cc1
REMARK SMILES IDX 6 1 7 2 8 3 9 4 10 5 12 6 13 7 15 8 16 9 17 10 5 11 4 12
REMARK SMILES IDX 3 13 2 14 19 15 20 16 1 17 18 19 11 21 14 23
REMARK H PARENT 1 18 18 20 11 22 14 24
REMARK Flexibility Score: inf
ROOT
ATOM      1  C   UNL     1       9.432   4.580  52.694  1.00  0.00     0.401 A 
ATOM      2  O   UNL     1       9.226   4.488  51.383  1.00  0.00    -0.202 OA
ATOM      3  C   UNL     1       9.280   5.531  50.561  1.00  0.00     0.368 A 
ATOM      4  C   UNL     1       9.045   5.334  49.197  1.00  0.00     0.162 A 
ATOM      5  C   UNL     1       9.093   6.414  48.310  1.00  0.00     0.128 A 
ATOM      6  C   UNL     1       9.373   7.696  48.789  1.00  0.00     0.093 A 
ATOM      7  C   UNL     1       9.611   7.919  50.151  1.00  0.00     0.136 A 
ATOM      8  C   UNL     1       9.567   6.825  51.055  1.00  0.00     0.125 A 
ATOM      9  C   UNL     1       9.805   6.954  52.434  1.00  0.00     0.078 A 
ATOM     10  C   UNL     1       9.748   5.828  53.262  1.00  0.00     0.223 A 
ENDROOT
BRANCH   1  11
ATOM     11  C   UNL     1       9.334   3.347  53.507  1.00  0.00     0.084 A 
ATOM     12  C   UNL     1      10.474   2.590  53.833  1.00  0.00     0.022 A 
ATOM     13  C   UNL     1      10.359   1.441  54.623  1.00  0.00     0.047 A 
ATOM     14  C   UNL     1       9.108   1.041  55.104  1.00  0.00     0.115 A 
ATOM     15  C   UNL     1       8.084   2.950  54.011  1.00  0.00     0.022 A 
ATOM     16  C   UNL     1       7.972   1.800  54.800  1.00  0.00     0.047 A 
BRANCH  14  17
ATOM     17  O   UNL     1       9.008  -0.107  55.887  1.00  0.00    -0.508 OA
ATOM     18  H   UNL     1       8.282  -0.795  55.726  1.00  0.00     0.293 HD
ENDBRANCH  14  17
ENDBRANCH   1  11
BRANCH  10  19
ATOM     19  O   UNL     1      10.033   5.947  54.623  1.00  0.00    -0.500 OA
ATOM     20  H   UNL     1      10.878   5.558  55.026  1.00  0.00     0.294 HD
ENDBRANCH  10  19
BRANCH   5  21
ATOM     21  O   UNL     1       8.861   6.225  46.950  1.00  0.00    -0.507 OA
ATOM     22  H   UNL     1       8.881   7.000  46.297  1.00  0.00     0.293 HD
ENDBRANCH   5  21
BRANCH   7  23
ATOM     23  O   UNL     1       9.880   9.232  50.551  1.00  0.00    -0.507 OA
ATOM     24  H   UNL     1       9.773   9.573  51.495  1.00  0.00     0.293 HD
ENDBRANCH   7  23
TORSDOF 5
ENDMDL
MODEL 8
REMARK VINA RESULT:    -5.914      7.031      9.501
REMARK INTER + INTRA:          -7.272
REMARK INTER:                  -6.969
REMARK INTRA:                  -0.303
REMARK UNBOUND:                -0.321
REMARK SMILES Oc1ccc(-c2[o+]c3cc(O)cc(O)c3cc2O)cc1
REMARK SMILES IDX 6 1 7 2 8 3 9 4 10 5 12 6 13 7 15 8 16 9 17 10 5 11 4 12
REMARK SMILES IDX 3 13 2 14 19 15 20 16 1 17 18 19 11 21 14 23
REMARK H PARENT 1 18 18 20 11 22 14 24
REMARK Flexibility Score: inf
ROOT
ATOM      1  C   UNL     1       9.694   4.809  51.258  1.00  0.00     0.401 A 
ATOM      2  O   UNL     1       8.697   4.453  52.064  1.00  0.00    -0.202 OA
ATOM      3  C   UNL     1       8.857   3.654  53.114  1.00  0.00     0.368 A 
ATOM      4  C   UNL     1       7.746   3.335  53.900  1.00  0.00     0.162 A 
ATOM      5  C   UNL     1       7.885   2.494  55.008  1.00  0.00     0.128 A 
ATOM      6  C   UNL     1       9.139   1.969  55.330  1.00  0.00     0.093 A 
ATOM      7  C   UNL     1      10.267   2.273  54.557  1.00  0.00     0.136 A 
ATOM      8  C   UNL     1      10.131   3.129  53.433  1.00  0.00     0.125 A 
ATOM      9  C   UNL     1      11.208   3.499  52.610  1.00  0.00     0.078 A 
ATOM     10  C   UNL     1      10.997   4.351  51.522  1.00  0.00     0.223 A 
ENDROOT
BRANCH   1  11
ATOM     11  C   UNL     1       9.387   5.698  50.114  1.00  0.00     0.084 A 
ATOM     12  C   UNL     1       9.579   7.089  50.192  1.00  0.00     0.022 A 
ATOM     13  C   UNL     1       9.304   7.904  49.090  1.00  0.00     0.047 A 
ATOM     14  C   UNL     1       8.846   7.341  47.895  1.00  0.00     0.115 A 
ATOM     15  C   UNL     1       8.946   5.137  48.904  1.00  0.00     0.022 A 
ATOM     16  C   UNL     1       8.671   5.955  47.803  1.00  0.00     0.047 A 
BRANCH  14  17
ATOM     17  O   UNL     1       8.574   8.165  46.806  1.00  0.00    -0.508 OA
ATOM     18  H   UNL     1       8.566   7.805  45.858  1.00  0.00     0.293 HD
ENDBRANCH  14  17
ENDBRANCH   1  11
BRANCH  10  19
ATOM     19  O   UNL     1      12.075   4.758  50.734  1.00  0.00    -0.500 OA
ATOM     20  H   UNL     1      12.066   5.639  50.233  1.00  0.00     0.294 HD
ENDBRANCH  10  19
BRANCH   5  21
ATOM     21  O   UNL     1       6.783   2.171  55.797  1.00  0.00    -0.507 OA
ATOM     22  H   UNL     1       6.570   2.684  56.645  1.00  0.00     0.293 HD
ENDBRANCH   5  21
BRANCH   7  23
ATOM     23  O   UNL     1      11.485   1.705  54.943  1.00  0.00    -0.507 OA
ATOM     24  H   UNL     1      11.580   0.792  55.363  1.00  0.00     0.293 HD
ENDBRANCH   7  23
TORSDOF 5
ENDMDL
MODEL 9
REMARK VINA RESULT:    -5.764      9.547     11.268
REMARK INTER + INTRA:          -7.095
REMARK INTER:                  -7.110
REMARK INTRA:                   0.015
REMARK UNBOUND:                -0.321
REMARK SMILES Oc1ccc(-c2[o+]c3cc(O)cc(O)c3cc2O)cc1
REMARK SMILES IDX 6 1 7 2 8 3 9 4 10 5 12 6 13 7 15 8 16 9 17 10 5 11 4 12
REMARK SMILES IDX 3 13 2 14 19 15 20 16 1 17 18 19 11 21 14 23
REMARK H PARENT 1 18 18 20 11 22 14 24
REMARK Flexibility Score: inf
ROOT
ATOM      1  C   UNL     1      10.446   3.906  54.524  1.00  0.00     0.401 A 
ATOM      2  O   UNL     1      10.763   5.166  54.811  1.00  0.00    -0.202 OA
ATOM      3  C   UNL     1      11.984   5.547  55.171  1.00  0.00     0.368 A 
ATOM      4  C   UNL     1      12.218   6.895  55.456  1.00  0.00     0.162 A 
ATOM      5  C   UNL     1      13.493   7.323  55.840  1.00  0.00     0.128 A 
ATOM      6  C   UNL     1      14.536   6.400  55.941  1.00  0.00     0.093 A 
ATOM      7  C   UNL     1      14.326   5.043  55.662  1.00  0.00     0.136 A 
ATOM      8  C   UNL     1      13.035   4.604  55.269  1.00  0.00     0.125 A 
ATOM      9  C   UNL     1      12.736   3.268  54.957  1.00  0.00     0.078 A 
ATOM     10  C   UNL     1      11.440   2.911  54.572  1.00  0.00     0.223 A 
ENDROOT
BRANCH   1  11
ATOM     11  C   UNL     1       9.047   3.605  54.145  1.00  0.00     0.084 A 
ATOM     12  C   UNL     1       8.356   2.510  54.695  1.00  0.00     0.022 A 
ATOM     13  C   UNL     1       7.027   2.259  54.339  1.00  0.00     0.047 A 
ATOM     14  C   UNL     1       6.369   3.104  53.440  1.00  0.00     0.115 A 
ATOM     15  C   UNL     1       8.372   4.461  53.259  1.00  0.00     0.022 A 
ATOM     16  C   UNL     1       7.043   4.208  52.904  1.00  0.00     0.047 A 
BRANCH  14  17
ATOM     17  O   UNL     1       5.046   2.842  53.093  1.00  0.00    -0.508 OA
ATOM     18  H   UNL     1       4.294   3.467  53.361  1.00  0.00     0.293 HD
ENDBRANCH  14  17
ENDBRANCH   1  11
BRANCH  10  19
ATOM     19  O   UNL     1      11.154   1.592  54.214  1.00  0.00    -0.500 OA
ATOM     20  H   UNL     1      10.535   1.012  54.769  1.00  0.00     0.294 HD
ENDBRANCH  10  19
BRANCH   5  21
ATOM     21  O   UNL     1      13.735   8.665  56.125  1.00  0.00    -0.507 OA
ATOM     22  H   UNL     1      14.625   8.975  56.498  1.00  0.00     0.293 HD
ENDBRANCH   5  21
BRANCH   7  23
ATOM     23  O   UNL     1      15.420   4.182  55.791  1.00  0.00    -0.507 OA
ATOM     24  H   UNL     1      16.251   4.393  56.324  1.00  0.00     0.293 HD
ENDBRANCH   7  23
TORSDOF 5
ENDMDL
