MODEL 1
REMARK VINA RESULT:    34.049      0.000      0.000
REMARK INTER + INTRA:          50.142
REMARK INTER:                  46.988
REMARK INTRA:                   3.154
REMARK UNBOUND:                 3.154
REMARK SMILES CC[C@@H](CC[C@H](C)[C@H]1CC[C@@H]2[C@@H]3CC=C4C[C@@H](O)CC[C@]4(C)[C@@H]3CC[C@@]21C)C(C)C
REMARK SMILES IDX 5 1 4 2 3 3 2 4 1 5 28 6 29 7 30 8 6 9 7 10 8 11 9 12 26 13
REMARK SMILES IDX 10 14 11 15 25 16 27 17 12 18 24 19 23 20 13 21 21 22 14 23
REMARK SMILES IDX 15 24 20 25 22 26 16 27 19 28 17 29 18 30
REMARK H PARENT 18 31
REMARK Flexibility Score: inf
ROOT
ATOM      1  C   UNL     1      17.540  12.783  41.925  1.00  0.00     0.004 C 
ENDROOT
BRANCH   1   2
ATOM      2  C   UNL     1      18.295  14.124  41.798  1.00  0.00     0.004 C 
BRANCH   2   3
ATOM      3  C   UNL     1      19.827  13.971  41.587  1.00  0.00    -0.009 C 
BRANCH   3   4
ATOM      4  C   UNL     1      20.108  12.763  40.636  1.00  0.00     0.000 C 
ATOM      5  C   UNL     1      19.426  11.478  41.107  1.00  0.00     0.004 C 
ENDBRANCH   3   4
BRANCH   3   6
ATOM      6  C   UNL     1      20.647  13.909  42.921  1.00  0.00    -0.014 C 
ATOM      7  C   UNL     1      20.069  12.931  43.961  1.00  0.00     0.007 C 
ATOM      8  C   UNL     1      22.135  13.613  42.677  1.00  0.00     0.007 C 
ENDBRANCH   3   6
ENDBRANCH   2   3
ENDBRANCH   1   2
BRANCH   1   9
ATOM      9  C   UNL     1      16.054  12.811  41.436  1.00  0.00    -0.011 C 
ATOM     10  C   UNL     1      15.524  11.356  41.446  1.00  0.00     0.008 C 
BRANCH   9  11
ATOM     11  C   UNL     1      15.811  13.558  40.054  1.00  0.00    -0.002 C 
ATOM     12  C   UNL     1      17.127  13.901  39.328  1.00  0.00     0.005 C 
ATOM     13  C   UNL     1      15.003  12.780  38.933  1.00  0.00    -0.026 C 
ATOM     14  C   UNL     1      17.451  12.684  38.494  1.00  0.00     0.005 C 
ATOM     15  C   UNL     1      16.098  12.165  37.992  1.00  0.00    -0.001 C 
ATOM     16  C   UNL     1      14.119  13.799  38.160  1.00  0.00     0.007 C 
ATOM     17  C   UNL     1      14.065  11.662  39.463  1.00  0.00     0.012 C 
ATOM     18  C   UNL     1      15.865  12.352  36.448  1.00  0.00     0.000 C 
ATOM     19  C   UNL     1      13.509  13.254  36.851  1.00  0.00     0.005 C 
ATOM     20  C   UNL     1      14.367  12.186  36.101  1.00  0.00     0.003 C 
ATOM     21  C   UNL     1      16.438  13.650  35.813  1.00  0.00     0.031 C 
ATOM     22  C   UNL     1      14.137  12.178  34.542  1.00  0.00    -0.008 C 
ATOM     23  C   UNL     1      15.858  14.005  34.462  1.00  0.00    -0.027 C 
ATOM     24  C   UNL     1      14.769  13.420  33.915  1.00  0.00    -0.065 C 
ATOM     25  C   UNL     1      12.605  12.107  34.218  1.00  0.00     0.014 C 
ATOM     26  C   UNL     1      14.816  10.927  33.914  1.00  0.00     0.016 C 
ATOM     27  C   UNL     1      14.352  13.833  32.517  1.00  0.00     0.063 C 
ATOM     28  C   UNL     1      12.260  12.428  32.756  1.00  0.00     0.033 C 
ATOM     29  C   UNL     1      12.826  13.799  32.359  1.00  0.00     0.118 C 
BRANCH  29  30
ATOM     30  O   UNL     1      12.457  14.125  31.042  1.00  0.00    -0.393 OA
ATOM     31  H   UNL     1      12.623  13.326  30.476  1.00  0.00     0.210 HD
ENDBRANCH  29  30
ENDBRANCH   9  11
ENDBRANCH   1   9
TORSDOF 7
ENDMDL
MODEL 2
REMARK VINA RESULT:    34.905      3.431      9.354
REMARK INTER + INTRA:          51.322
REMARK INTER:                  51.544
REMARK INTRA:                  -0.221
REMARK UNBOUND:                 3.154
REMARK SMILES CC[C@@H](CC[C@H](C)[C@H]1CC[C@@H]2[C@@H]3CC=C4C[C@@H](O)CC[C@]4(C)[C@@H]3CC[C@@]21C)C(C)C
REMARK SMILES IDX 5 1 4 2 3 3 2 4 1 5 28 6 29 7 30 8 6 9 7 10 8 11 9 12 26 13
REMARK SMILES IDX 10 14 11 15 25 16 27 17 12 18 24 19 23 20 13 21 21 22 14 23
REMARK SMILES IDX 15 24 20 25 22 26 16 27 19 28 17 29 18 30
REMARK H PARENT 18 31
REMARK Flexibility Score: inf
ROOT
ATOM      1  C   UNL     1      12.420  11.278  31.935  1.00  0.00     0.004 C 
ENDROOT
BRANCH   1   2
ATOM      2  C   UNL     1      13.003   9.849  31.910  1.00  0.00     0.004 C 
BRANCH   2   3
ATOM      3  C   UNL     1      13.243   9.287  30.480  1.00  0.00    -0.009 C 
BRANCH   3   4
ATOM      4  C   UNL     1      11.905   9.317  29.672  1.00  0.00     0.000 C 
ATOM      5  C   UNL     1      11.763  10.581  28.825  1.00  0.00     0.004 C 
ENDBRANCH   3   4
BRANCH   3   6
ATOM      6  C   UNL     1      13.945   7.885  30.460  1.00  0.00    -0.014 C 
ATOM      7  C   UNL     1      13.011   6.718  30.827  1.00  0.00     0.007 C 
ATOM      8  C   UNL     1      14.651   7.607  29.124  1.00  0.00     0.007 C 
ENDBRANCH   3   6
ENDBRANCH   2   3
ENDBRANCH   1   2
BRANCH   1   9
ATOM      9  C   UNL     1      12.402  11.960  33.343  1.00  0.00    -0.011 C 
ATOM     10  C   UNL     1      11.891  13.411  33.161  1.00  0.00     0.008 C 
BRANCH   9  11
ATOM     11  C   UNL     1      13.767  11.873  34.153  1.00  0.00    -0.002 C 
ATOM     12  C   UNL     1      14.690  13.078  33.889  1.00  0.00     0.005 C 
ATOM     13  C   UNL     1      13.679  11.861  35.737  1.00  0.00    -0.026 C 
ATOM     14  C   UNL     1      14.279  14.125  34.897  1.00  0.00     0.005 C 
ATOM     15  C   UNL     1      13.936  13.346  36.173  1.00  0.00    -0.001 C 
ATOM     16  C   UNL     1      14.788  10.922  36.290  1.00  0.00     0.007 C 
ATOM     17  C   UNL     1      12.324  11.362  36.311  1.00  0.00     0.012 C 
ATOM     18  C   UNL     1      14.956  13.552  37.352  1.00  0.00     0.000 C 
ATOM     19  C   UNL     1      15.029  11.040  37.810  1.00  0.00     0.005 C 
ATOM     20  C   UNL     1      14.776  12.453  38.425  1.00  0.00     0.003 C 
ATOM     21  C   UNL     1      16.453  13.696  36.956  1.00  0.00     0.031 C 
ATOM     22  C   UNL     1      15.652  12.748  39.701  1.00  0.00    -0.008 C 
ATOM     23  C   UNL     1      17.432  13.476  38.086  1.00  0.00    -0.027 C 
ATOM     24  C   UNL     1      17.109  12.963  39.296  1.00  0.00    -0.065 C 
ATOM     25  C   UNL     1      15.527  11.572  40.731  1.00  0.00     0.014 C 
ATOM     26  C   UNL     1      15.153  14.046  40.397  1.00  0.00     0.016 C 
ATOM     27  C   UNL     1      18.191  12.871  40.354  1.00  0.00     0.063 C 
ATOM     28  C   UNL     1      16.585  11.601  41.843  1.00  0.00     0.033 C 
ATOM     29  C   UNL     1      17.997  11.634  41.241  1.00  0.00     0.118 C 
BRANCH  29  30
ATOM     30  O   UNL     1      18.970  11.595  42.255  1.00  0.00    -0.393 OA
ATOM     31  H   UNL     1      18.496  11.619  43.128  1.00  0.00     0.210 HD
ENDBRANCH  29  30
ENDBRANCH   9  11
ENDBRANCH   1   9
TORSDOF 7
ENDMDL
MODEL 3
REMARK VINA RESULT:    36.767      1.432      2.700
REMARK INTER + INTRA:          53.891
REMARK INTER:                  52.641
REMARK INTRA:                   1.251
REMARK UNBOUND:                 3.154
REMARK SMILES CC[C@@H](CC[C@H](C)[C@H]1CC[C@@H]2[C@@H]3CC=C4C[C@@H](O)CC[C@]4(C)[C@@H]3CC[C@@]21C)C(C)C
REMARK SMILES IDX 5 1 4 2 3 3 2 4 1 5 28 6 29 7 30 8 6 9 7 10 8 11 9 12 26 13
REMARK SMILES IDX 10 14 11 15 25 16 27 17 12 18 24 19 23 20 13 21 21 22 14 23
REMARK SMILES IDX 15 24 20 25 22 26 16 27 19 28 17 29 18 30
REMARK H PARENT 18 31
REMARK Flexibility Score: inf
ROOT
ATOM      1  C   UNL     1      17.568  11.625  39.711  1.00  0.00     0.004 C 
ENDROOT
BRANCH   1   2
ATOM      2  C   UNL     1      18.624  11.944  40.792  1.00  0.00     0.004 C 
BRANCH   2   3
ATOM      3  C   UNL     1      18.190  11.563  42.235  1.00  0.00    -0.009 C 
BRANCH   3   4
ATOM      4  C   UNL     1      16.816  10.819  42.191  1.00  0.00     0.000 C 
ATOM      5  C   UNL     1      16.862   9.557  41.330  1.00  0.00     0.004 C 
ENDBRANCH   3   4
BRANCH   3   6
ATOM      6  C   UNL     1      18.209  12.766  43.240  1.00  0.00    -0.014 C 
ATOM      7  C   UNL     1      19.479  12.832  44.107  1.00  0.00     0.007 C 
ATOM      8  C   UNL     1      17.967  14.112  42.539  1.00  0.00     0.007 C 
ENDBRANCH   3   6
ENDBRANCH   2   3
ENDBRANCH   1   2
BRANCH   1   9
ATOM      9  C   UNL     1      16.768  12.861  39.182  1.00  0.00    -0.011 C 
ATOM     10  C   UNL     1      15.420  12.914  39.943  1.00  0.00     0.008 C 
BRANCH   9  11
ATOM     11  C   UNL     1      16.601  12.933  37.603  1.00  0.00    -0.002 C 
ATOM     12  C   UNL     1      17.023  11.626  36.903  1.00  0.00     0.005 C 
ATOM     13  C   UNL     1      15.139  13.161  37.031  1.00  0.00    -0.026 C 
ATOM     14  C   UNL     1      15.784  10.762  36.891  1.00  0.00     0.005 C 
ATOM     15  C   UNL     1      14.617  11.729  36.657  1.00  0.00    -0.001 C 
ATOM     16  C   UNL     1      15.234  14.062  35.768  1.00  0.00     0.007 C 
ATOM     17  C   UNL     1      14.154  13.849  38.016  1.00  0.00     0.012 C 
ATOM     18  C   UNL     1      13.933  11.590  35.248  1.00  0.00     0.000 C 
ATOM     19  C   UNL     1      13.942  14.125  34.927  1.00  0.00     0.005 C 
ATOM     20  C   UNL     1      13.065  12.833  34.942  1.00  0.00     0.003 C 
ATOM     21  C   UNL     1      14.871  11.264  34.052  1.00  0.00     0.031 C 
ATOM     22  C   UNL     1      12.220  12.632  33.626  1.00  0.00    -0.008 C 
ATOM     23  C   UNL     1      14.280  11.543  32.688  1.00  0.00    -0.027 C 
ATOM     24  C   UNL     1      13.140  12.237  32.471  1.00  0.00    -0.065 C 
ATOM     25  C   UNL     1      11.425  13.939  33.285  1.00  0.00     0.014 C 
ATOM     26  C   UNL     1      11.189  11.486  33.829  1.00  0.00     0.016 C 
ATOM     27  C   UNL     1      12.635  12.371  31.048  1.00  0.00     0.063 C 
ATOM     28  C   UNL     1      10.844  13.963  31.864  1.00  0.00     0.033 C 
ATOM     29  C   UNL     1      11.950  13.726  30.826  1.00  0.00     0.118 C 
BRANCH  29  30
ATOM     30  O   UNL     1      11.434  13.813  29.522  1.00  0.00    -0.393 OA
ATOM     31  H   UNL     1      11.410  12.894  29.145  1.00  0.00     0.210 HD
ENDBRANCH  29  30
ENDBRANCH   9  11
ENDBRANCH   1   9
TORSDOF 7
ENDMDL
MODEL 4
REMARK VINA RESULT:    36.825      3.052      8.809
REMARK INTER + INTRA:          53.971
REMARK INTER:                  48.972
REMARK INTRA:                   4.999
REMARK UNBOUND:                 3.154
REMARK SMILES CC[C@@H](CC[C@H](C)[C@H]1CC[C@@H]2[C@@H]3CC=C4C[C@@H](O)CC[C@]4(C)[C@@H]3CC[C@@]21C)C(C)C
REMARK SMILES IDX 5 1 4 2 3 3 2 4 1 5 28 6 29 7 30 8 6 9 7 10 8 11 9 12 26 13
REMARK SMILES IDX 10 14 11 15 25 16 27 17 12 18 24 19 23 20 13 21 21 22 14 23
REMARK SMILES IDX 15 24 20 25 22 26 16 27 19 28 17 29 18 30
REMARK H PARENT 18 31
REMARK Flexibility Score: inf
ROOT
ATOM      1  C   UNL     1      13.276  11.886  35.090  1.00  0.00     0.004 C 
ENDROOT
BRANCH   1   2
ATOM      2  C   UNL     1      12.639  11.349  33.789  1.00  0.00     0.004 C 
BRANCH   2   3
ATOM      3  C   UNL     1      13.125  12.071  32.501  1.00  0.00    -0.009 C 
BRANCH   3   4
ATOM      4  C   UNL     1      12.166  11.731  31.315  1.00  0.00     0.000 C 
ATOM      5  C   UNL     1      12.054  12.876  30.308  1.00  0.00     0.004 C 
ENDBRANCH   3   4
BRANCH   3   6
ATOM      6  C   UNL     1      14.635  11.816  32.165  1.00  0.00    -0.014 C 
ATOM      7  C   UNL     1      15.580  12.919  32.676  1.00  0.00     0.007 C 
ATOM      8  C   UNL     1      15.112  10.436  32.645  1.00  0.00     0.007 C 
ENDBRANCH   3   6
ENDBRANCH   2   3
ENDBRANCH   1   2
BRANCH   1   9
ATOM      9  C   UNL     1      13.490  13.435  35.131  1.00  0.00    -0.011 C 
ATOM     10  C   UNL     1      14.305  13.834  33.876  1.00  0.00     0.008 C 
BRANCH   9  11
ATOM     11  C   UNL     1      14.106  13.997  36.484  1.00  0.00    -0.002 C 
ATOM     12  C   UNL     1      13.057  14.116  37.607  1.00  0.00     0.005 C 
ATOM     13  C   UNL     1      15.246  13.142  37.181  1.00  0.00    -0.026 C 
ATOM     14  C   UNL     1      13.050  12.770  38.291  1.00  0.00     0.005 C 
ATOM     15  C   UNL     1      14.512  12.306  38.288  1.00  0.00    -0.001 C 
ATOM     16  C   UNL     1      16.279  14.114  37.817  1.00  0.00     0.007 C 
ATOM     17  C   UNL     1      16.027  12.197  36.227  1.00  0.00     0.012 C 
ATOM     18  C   UNL     1      15.191  12.292  39.706  1.00  0.00     0.000 C 
ATOM     19  C   UNL     1      17.276  13.445  38.786  1.00  0.00     0.005 C 
ATOM     20  C   UNL     1      16.729  12.211  39.571  1.00  0.00     0.003 C 
ATOM     21  C   UNL     1      14.782  13.432  40.681  1.00  0.00     0.031 C 
ATOM     22  C   UNL     1      17.418  12.002  40.973  1.00  0.00    -0.008 C 
ATOM     23  C   UNL     1      15.726  13.641  41.843  1.00  0.00    -0.027 C 
ATOM     24  C   UNL     1      16.953  13.082  41.948  1.00  0.00    -0.065 C 
ATOM     25  C   UNL     1      18.978  12.021  40.820  1.00  0.00     0.014 C 
ATOM     26  C   UNL     1      17.013  10.620  41.560  1.00  0.00     0.016 C 
ATOM     27  C   UNL     1      17.754  13.329  43.212  1.00  0.00     0.063 C 
ATOM     28  C   UNL     1      19.733  12.161  42.151  1.00  0.00     0.033 C 
ATOM     29  C   UNL     1      19.257  13.406  42.912  1.00  0.00     0.118 C 
BRANCH  29  30
ATOM     30  O   UNL     1      19.991  13.574  44.098  1.00  0.00    -0.393 OA
ATOM     31  H   UNL     1      20.467  14.444  44.037  1.00  0.00     0.210 HD
ENDBRANCH  29  30
ENDBRANCH   9  11
ENDBRANCH   1   9
TORSDOF 7
ENDMDL
