MODEL 1
REMARK VINA RESULT:    -3.429      0.000      0.000
REMARK INTER + INTRA:          -4.321
REMARK INTER:                  -4.030
REMARK INTRA:                  -0.291
REMARK UNBOUND:                -0.291
REMARK SMILES Oc1ccc(-c2[o+]c3cc(O)cc(O)c3cc2O)cc1.[Cl-]
REMARK SMILES IDX 6 1 7 2 8 3 9 4 10 5 12 6 13 7 15 8 16 9 17 10 5 11 4 12
REMARK SMILES IDX 3 13 2 14 19 15 20 16 1 17 18 19 11 21 14 23
REMARK H PARENT 1 18 18 20 11 22 14 24
REMARK Flexibility Score: inf
ROOT
ATOM      1  C   UNL     1     -44.113 -23.929  44.593  1.00  0.00     0.401 A 
ATOM      2  O   UNL     1     -44.858 -23.642  45.658  1.00  0.00    -0.202 OA
ATOM      3  C   UNL     1     -44.369 -23.566  46.892  1.00  0.00     0.368 A 
ATOM      4  C   UNL     1     -45.233 -23.262  47.947  1.00  0.00     0.162 A 
ATOM      5  C   UNL     1     -44.746 -23.178  49.256  1.00  0.00     0.128 A 
ATOM      6  C   UNL     1     -43.391 -23.401  49.508  1.00  0.00     0.093 A 
ATOM      7  C   UNL     1     -42.505 -23.708  48.468  1.00  0.00     0.136 A 
ATOM      8  C   UNL     1     -42.993 -23.791  47.138  1.00  0.00     0.125 A 
ATOM      9  C   UNL     1     -42.177 -24.080  46.033  1.00  0.00     0.078 A 
ATOM     10  C   UNL     1     -42.731 -24.140  44.749  1.00  0.00     0.223 A 
ENDROOT
BRANCH   1  11
ATOM     11  C   UNL     1     -44.776 -23.995  43.272  1.00  0.00     0.084 A 
ATOM     12  C   UNL     1     -44.739 -22.875  42.424  1.00  0.00     0.022 A 
ATOM     13  C   UNL     1     -45.377 -22.907  41.179  1.00  0.00     0.047 A 
ATOM     14  C   UNL     1     -46.072 -24.053  40.774  1.00  0.00     0.115 A 
ATOM     15  C   UNL     1     -45.493 -25.135  42.866  1.00  0.00     0.022 A 
ATOM     16  C   UNL     1     -46.131 -25.164  41.623  1.00  0.00     0.047 A 
BRANCH  14  17
ATOM     17  O   UNL     1     -46.712 -24.097  39.537  1.00  0.00    -0.508 OA
ATOM     18  H   UNL     1     -46.212 -24.348  38.692  1.00  0.00     0.293 HD
ENDBRANCH  14  17
ENDBRANCH   1  11
BRANCH  10  19
ATOM     19  O   UNL     1     -41.912 -24.377  43.646  1.00  0.00    -0.500 OA
ATOM     20  H   UNL     1     -42.144 -24.026  42.724  1.00  0.00     0.294 HD
ENDBRANCH  10  19
BRANCH   5  21
ATOM     21  O   UNL     1     -45.601 -22.875  50.313  1.00  0.00    -0.507 OA
ATOM     22  H   UNL     1     -46.069 -23.603  50.842  1.00  0.00     0.293 HD
ENDBRANCH   5  21
BRANCH   7  23
ATOM     23  O   UNL     1     -41.165 -23.920  48.805  1.00  0.00    -0.507 OA
ATOM     24  H   UNL     1     -40.839 -24.147  49.732  1.00  0.00     0.293 HD
ENDBRANCH   7  23
TORSDOF 5
ENDMDL
MODEL 2
REMARK VINA RESULT:    -3.411      0.131      1.087
REMARK INTER + INTRA:          -4.300
REMARK INTER:                  -4.041
REMARK INTRA:                  -0.259
REMARK UNBOUND:                -0.291
REMARK SMILES Oc1ccc(-c2[o+]c3cc(O)cc(O)c3cc2O)cc1.[Cl-]
REMARK SMILES IDX 6 1 7 2 8 3 9 4 10 5 12 6 13 7 15 8 16 9 17 10 5 11 4 12
REMARK SMILES IDX 3 13 2 14 19 15 20 16 1 17 18 19 11 21 14 23
REMARK H PARENT 1 18 18 20 11 22 14 24
REMARK Flexibility Score: inf
ROOT
ATOM      1  C   UNL     1     -44.103 -23.912  44.591  1.00  0.00     0.401 A 
ATOM      2  O   UNL     1     -44.843 -23.602  45.652  1.00  0.00    -0.202 OA
ATOM      3  C   UNL     1     -44.366 -23.576  46.893  1.00  0.00     0.368 A 
ATOM      4  C   UNL     1     -45.223 -23.241  47.944  1.00  0.00     0.162 A 
ATOM      5  C   UNL     1     -44.748 -23.209  49.259  1.00  0.00     0.128 A 
ATOM      6  C   UNL     1     -43.411 -23.516  49.522  1.00  0.00     0.093 A 
ATOM      7  C   UNL     1     -42.533 -23.856  48.486  1.00  0.00     0.136 A 
ATOM      8  C   UNL     1     -43.009 -23.886  47.151  1.00  0.00     0.125 A 
ATOM      9  C   UNL     1     -42.197 -24.203  46.049  1.00  0.00     0.078 A 
ATOM     10  C   UNL     1     -42.738 -24.208  44.758  1.00  0.00     0.223 A 
ENDROOT
BRANCH   1  11
ATOM     11  C   UNL     1     -44.753 -23.915  43.261  1.00  0.00     0.084 A 
ATOM     12  C   UNL     1     -45.556 -25.006  42.888  1.00  0.00     0.022 A 
ATOM     13  C   UNL     1     -46.163 -25.041  41.628  1.00  0.00     0.047 A 
ATOM     14  C   UNL     1     -45.962 -23.993  40.721  1.00  0.00     0.115 A 
ATOM     15  C   UNL     1     -44.540 -22.876  42.337  1.00  0.00     0.022 A 
ATOM     16  C   UNL     1     -45.146 -22.914  41.078  1.00  0.00     0.047 A 
BRANCH  14  17
ATOM     17  O   UNL     1     -46.560 -24.016  39.463  1.00  0.00    -0.508 OA
ATOM     18  H   UNL     1     -46.515 -24.837  38.871  1.00  0.00     0.293 HD
ENDBRANCH  14  17
ENDBRANCH   1  11
BRANCH  10  19
ATOM     19  O   UNL     1     -41.921 -24.473  43.660  1.00  0.00    -0.500 OA
ATOM     20  H   UNL     1     -42.297 -24.824  42.787  1.00  0.00     0.294 HD
ENDBRANCH  10  19
BRANCH   5  21
ATOM     21  O   UNL     1     -45.596 -22.875  50.312  1.00  0.00    -0.507 OA
ATOM     22  H   UNL     1     -46.414 -22.292  50.170  1.00  0.00     0.293 HD
ENDBRANCH   5  21
BRANCH   7  23
ATOM     23  O   UNL     1     -41.211 -24.153  48.834  1.00  0.00    -0.507 OA
ATOM     24  H   UNL     1     -40.924 -24.987  49.324  1.00  0.00     0.293 HD
ENDBRANCH   7  23
TORSDOF 5
ENDMDL
MODEL 3
REMARK VINA RESULT:    -3.400      1.901      6.791
REMARK INTER + INTRA:          -4.287
REMARK INTER:                  -3.980
REMARK INTRA:                  -0.307
REMARK UNBOUND:                -0.291
REMARK SMILES Oc1ccc(-c2[o+]c3cc(O)cc(O)c3cc2O)cc1.[Cl-]
REMARK SMILES IDX 6 1 7 2 8 3 9 4 10 5 12 6 13 7 15 8 16 9 17 10 5 11 4 12
REMARK SMILES IDX 3 13 2 14 19 15 20 16 1 17 18 19 11 21 14 23
REMARK H PARENT 1 18 18 20 11 22 14 24
REMARK Flexibility Score: inf
ROOT
ATOM      1  C   UNL     1     -43.864 -23.816  43.985  1.00  0.00     0.401 A 
ATOM      2  O   UNL     1     -44.840 -24.071  43.117  1.00  0.00    -0.202 OA
ATOM      3  C   UNL     1     -44.702 -23.937  41.802  1.00  0.00     0.368 A 
ATOM      4  C   UNL     1     -45.788 -24.226  40.972  1.00  0.00     0.162 A 
ATOM      5  C   UNL     1     -45.671 -24.091  39.584  1.00  0.00     0.128 A 
ATOM      6  C   UNL     1     -44.464 -23.664  39.028  1.00  0.00     0.093 A 
ATOM      7  C   UNL     1     -43.361 -23.367  39.839  1.00  0.00     0.136 A 
ATOM      8  C   UNL     1     -43.474 -23.506  41.246  1.00  0.00     0.125 A 
ATOM      9  C   UNL     1     -42.418 -23.244  42.134  1.00  0.00     0.078 A 
ATOM     10  C   UNL     1     -42.603 -23.408  43.511  1.00  0.00     0.223 A 
ENDROOT
BRANCH   1  11
ATOM     11  C   UNL     1     -44.144 -23.994  45.427  1.00  0.00     0.084 A 
ATOM     12  C   UNL     1     -44.481 -22.875  46.208  1.00  0.00     0.022 A 
ATOM     13  C   UNL     1     -44.730 -23.016  47.577  1.00  0.00     0.047 A 
ATOM     14  C   UNL     1     -44.630 -24.273  48.185  1.00  0.00     0.115 A 
ATOM     15  C   UNL     1     -44.027 -25.250  46.049  1.00  0.00     0.022 A 
ATOM     16  C   UNL     1     -44.274 -25.387  47.418  1.00  0.00     0.047 A 
BRANCH  14  17
ATOM     17  O   UNL     1     -44.874 -24.425  49.548  1.00  0.00    -0.508 OA
ATOM     18  H   UNL     1     -44.335 -23.921  50.242  1.00  0.00     0.293 HD
ENDBRANCH  14  17
ENDBRANCH   1  11
BRANCH  10  19
ATOM     19  O   UNL     1     -41.541 -23.197  44.389  1.00  0.00    -0.500 OA
ATOM     20  H   UNL     1     -41.366 -23.815  45.174  1.00  0.00     0.294 HD
ENDBRANCH  10  19
BRANCH   5  21
ATOM     21  O   UNL     1     -46.749 -24.377  38.750  1.00  0.00    -0.507 OA
ATOM     22  H   UNL     1     -47.696 -24.114  38.999  1.00  0.00     0.293 HD
ENDBRANCH   5  21
BRANCH   7  23
ATOM     23  O   UNL     1     -42.190 -22.943  39.203  1.00  0.00    -0.507 OA
ATOM     24  H   UNL     1     -41.346 -22.672  39.685  1.00  0.00     0.293 HD
ENDBRANCH   7  23
TORSDOF 5
ENDMDL
MODEL 4
REMARK VINA RESULT:    -3.345     15.991     16.786
REMARK INTER + INTRA:          -4.222
REMARK INTER:                  -3.968
REMARK INTRA:                  -0.255
REMARK UNBOUND:                -0.291
REMARK SMILES Oc1ccc(-c2[o+]c3cc(O)cc(O)c3cc2O)cc1.[Cl-]
REMARK SMILES IDX 6 1 7 2 8 3 9 4 10 5 12 6 13 7 15 8 16 9 17 10 5 11 4 12
REMARK SMILES IDX 3 13 2 14 19 15 20 16 1 17 18 19 11 21 14 23
REMARK H PARENT 1 18 18 20 11 22 14 24
REMARK Flexibility Score: inf
ROOT
ATOM      1  C   UNL     1     -46.093 -40.194  44.691  1.00  0.00     0.401 A 
ATOM      2  O   UNL     1     -46.346 -40.900  45.791  1.00  0.00    -0.202 OA
ATOM      3  C   UNL     1     -46.412 -40.361  47.005  1.00  0.00     0.368 A 
ATOM      4  C   UNL     1     -46.679 -41.186  48.100  1.00  0.00     0.162 A 
ATOM      5  C   UNL     1     -46.751 -40.646  49.388  1.00  0.00     0.128 A 
ATOM      6  C   UNL     1     -46.552 -39.278  49.580  1.00  0.00     0.093 A 
ATOM      7  C   UNL     1     -46.281 -38.431  48.499  1.00  0.00     0.136 A 
ATOM      8  C   UNL     1     -46.210 -38.972  47.189  1.00  0.00     0.125 A 
ATOM      9  C   UNL     1     -45.957 -38.197  46.046  1.00  0.00     0.078 A 
ATOM     10  C   UNL     1     -45.907 -38.803  44.786  1.00  0.00     0.223 A 
ENDROOT
BRANCH   1  11
ATOM     11  C   UNL     1     -46.036 -40.911  43.397  1.00  0.00     0.084 A 
ATOM     12  C   UNL     1     -47.125 -40.827  42.513  1.00  0.00     0.022 A 
ATOM     13  C   UNL     1     -47.102 -41.513  41.294  1.00  0.00     0.047 A 
ATOM     14  C   UNL     1     -45.998 -42.302  40.952  1.00  0.00     0.115 A 
ATOM     15  C   UNL     1     -44.939 -41.722  43.054  1.00  0.00     0.022 A 
ATOM     16  C   UNL     1     -44.920 -42.407  41.836  1.00  0.00     0.047 A 
BRANCH  14  17
ATOM     17  O   UNL     1     -45.963 -42.991  39.740  1.00  0.00    -0.508 OA
ATOM     18  H   UNL     1     -45.823 -42.507  38.861  1.00  0.00     0.293 HD
ENDBRANCH  14  17
ENDBRANCH   1  11
BRANCH  10  19
ATOM     19  O   UNL     1     -45.707 -38.026  43.645  1.00  0.00    -0.500 OA
ATOM     20  H   UNL     1     -45.576 -38.444  42.731  1.00  0.00     0.294 HD
ENDBRANCH  10  19
BRANCH   5  21
ATOM     21  O   UNL     1     -47.018 -41.462  50.485  1.00  0.00    -0.507 OA
ATOM     22  H   UNL     1     -46.285 -41.993  50.943  1.00  0.00     0.293 HD
ENDBRANCH   5  21
BRANCH   7  23
ATOM     23  O   UNL     1     -46.090 -37.073  48.776  1.00  0.00    -0.507 OA
ATOM     24  H   UNL     1     -45.257 -36.555  48.542  1.00  0.00     0.293 HD
ENDBRANCH   7  23
TORSDOF 5
ENDMDL
MODEL 5
REMARK VINA RESULT:    -3.287     15.552     17.894
REMARK INTER + INTRA:          -4.154
REMARK INTER:                  -3.885
REMARK INTRA:                  -0.269
REMARK UNBOUND:                -0.291
REMARK SMILES Oc1ccc(-c2[o+]c3cc(O)cc(O)c3cc2O)cc1.[Cl-]
REMARK SMILES IDX 6 1 7 2 8 3 9 4 10 5 12 6 13 7 15 8 16 9 17 10 5 11 4 12
REMARK SMILES IDX 3 13 2 14 19 15 20 16 1 17 18 19 11 21 14 23
REMARK H PARENT 1 18 18 20 11 22 14 24
REMARK Flexibility Score: inf
ROOT
ATOM      1  C   UNL     1     -27.837 -26.052  43.753  1.00  0.00     0.401 A 
ATOM      2  O   UNL     1     -28.084 -25.034  42.932  1.00  0.00    -0.202 OA
ATOM      3  C   UNL     1     -27.952 -25.112  41.612  1.00  0.00     0.368 A 
ATOM      4  C   UNL     1     -28.232 -23.986  40.833  1.00  0.00     0.162 A 
ATOM      5  C   UNL     1     -28.099 -24.039  39.442  1.00  0.00     0.128 A 
ATOM      6  C   UNL     1     -27.681 -25.222  38.829  1.00  0.00     0.093 A 
ATOM      7  C   UNL     1     -27.393 -26.364  39.588  1.00  0.00     0.136 A 
ATOM      8  C   UNL     1     -27.530 -26.316  40.999  1.00  0.00     0.125 A 
ATOM      9  C   UNL     1     -27.276 -27.414  41.836  1.00  0.00     0.078 A 
ATOM     10  C   UNL     1     -27.438 -27.292  43.221  1.00  0.00     0.223 A 
ENDROOT
BRANCH   1  11
ATOM     11  C   UNL     1     -28.012 -25.838  45.207  1.00  0.00     0.084 A 
ATOM     12  C   UNL     1     -26.878 -25.689  46.024  1.00  0.00     0.022 A 
ATOM     13  C   UNL     1     -27.019 -25.507  47.404  1.00  0.00     0.047 A 
ATOM     14  C   UNL     1     -28.293 -25.487  47.985  1.00  0.00     0.115 A 
ATOM     15  C   UNL     1     -29.287 -25.835  45.801  1.00  0.00     0.022 A 
ATOM     16  C   UNL     1     -29.424 -25.655  47.180  1.00  0.00     0.047 A 
BRANCH  14  17
ATOM     17  O   UNL     1     -28.445 -25.306  49.358  1.00  0.00    -0.508 OA
ATOM     18  H   UNL     1     -27.647 -25.154  49.964  1.00  0.00     0.293 HD
ENDBRANCH  14  17
ENDBRANCH   1  11
BRANCH  10  19
ATOM     19  O   UNL     1     -27.235 -28.396  44.048  1.00  0.00    -0.500 OA
ATOM     20  H   UNL     1     -27.248 -29.343  43.687  1.00  0.00     0.294 HD
ENDBRANCH  10  19
BRANCH   5  21
ATOM     21  O   UNL     1     -28.377 -22.921  38.659  1.00  0.00    -0.507 OA
ATOM     22  H   UNL     1     -27.702 -22.556  37.997  1.00  0.00     0.293 HD
ENDBRANCH   5  21
BRANCH   7  23
ATOM     23  O   UNL     1     -26.978 -27.507  38.898  1.00  0.00    -0.507 OA
ATOM     24  H   UNL     1     -26.014 -27.745  38.717  1.00  0.00     0.293 HD
ENDBRANCH   7  23
TORSDOF 5
ENDMDL
MODEL 6
REMARK VINA RESULT:    -3.280     15.830     16.642
REMARK INTER + INTRA:          -4.146
REMARK INTER:                  -3.828
REMARK INTRA:                  -0.317
REMARK UNBOUND:                -0.291
REMARK SMILES Oc1ccc(-c2[o+]c3cc(O)cc(O)c3cc2O)cc1.[Cl-]
REMARK SMILES IDX 6 1 7 2 8 3 9 4 10 5 12 6 13 7 15 8 16 9 17 10 5 11 4 12
REMARK SMILES IDX 3 13 2 14 19 15 20 16 1 17 18 19 11 21 14 23
REMARK H PARENT 1 18 18 20 11 22 14 24
REMARK Flexibility Score: inf
ROOT
ATOM      1  C   UNL     1     -27.995 -26.051  44.399  1.00  0.00     0.401 A 
ATOM      2  O   UNL     1     -27.790 -25.365  45.521  1.00  0.00    -0.202 OA
ATOM      3  C   UNL     1     -27.739 -25.931  46.723  1.00  0.00     0.368 A 
ATOM      4  C   UNL     1     -27.522 -25.126  47.845  1.00  0.00     0.162 A 
ATOM      5  C   UNL     1     -27.467 -25.694  49.121  1.00  0.00     0.128 A 
ATOM      6  C   UNL     1     -27.632 -27.072  49.275  1.00  0.00     0.093 A 
ATOM      7  C   UNL     1     -27.852 -27.900  48.168  1.00  0.00     0.136 A 
ATOM      8  C   UNL     1     -27.905 -27.329  46.871  1.00  0.00     0.125 A 
ATOM      9  C   UNL     1     -28.107 -28.083  45.703  1.00  0.00     0.078 A 
ATOM     10  C   UNL     1     -28.143 -27.449  44.456  1.00  0.00     0.223 A 
ENDROOT
BRANCH   1  11
ATOM     11  C   UNL     1     -28.041 -25.305  43.122  1.00  0.00     0.084 A 
ATOM     12  C   UNL     1     -29.280 -24.875  42.617  1.00  0.00     0.022 A 
ATOM     13  C   UNL     1     -29.349 -24.187  41.401  1.00  0.00     0.047 A 
ATOM     14  C   UNL     1     -28.183 -23.934  40.668  1.00  0.00     0.115 A 
ATOM     15  C   UNL     1     -26.877 -25.064  42.370  1.00  0.00     0.022 A 
ATOM     16  C   UNL     1     -26.949 -24.378  41.154  1.00  0.00     0.047 A 
BRANCH  14  17
ATOM     17  O   UNL     1     -28.240 -23.250  39.455  1.00  0.00    -0.508 OA
ATOM     18  H   UNL     1     -27.397 -22.963  38.970  1.00  0.00     0.293 HD
ENDBRANCH  14  17
ENDBRANCH   1  11
BRANCH  10  19
ATOM     19  O   UNL     1     -28.294 -28.203  43.293  1.00  0.00    -0.500 OA
ATOM     20  H   UNL     1     -28.890 -29.022  43.261  1.00  0.00     0.294 HD
ENDBRANCH  10  19
BRANCH   5  21
ATOM     21  O   UNL     1     -27.250 -24.898  50.243  1.00  0.00    -0.507 OA
ATOM     22  H   UNL     1     -26.691 -25.223  51.024  1.00  0.00     0.293 HD
ENDBRANCH   5  21
BRANCH   7  23
ATOM     23  O   UNL     1     -28.010 -29.268  48.408  1.00  0.00    -0.507 OA
ATOM     24  H   UNL     1     -27.686 -29.997  47.790  1.00  0.00     0.293 HD
ENDBRANCH   7  23
TORSDOF 5
ENDMDL
MODEL 7
REMARK VINA RESULT:    -3.204     22.197     23.730
REMARK INTER + INTRA:          -4.056
REMARK INTER:                  -4.071
REMARK INTRA:                   0.015
REMARK UNBOUND:                -0.291
REMARK SMILES Oc1ccc(-c2[o+]c3cc(O)cc(O)c3cc2O)cc1.[Cl-]
REMARK SMILES IDX 6 1 7 2 8 3 9 4 10 5 12 6 13 7 15 8 16 9 17 10 5 11 4 12
REMARK SMILES IDX 3 13 2 14 19 15 20 16 1 17 18 19 11 21 14 23
REMARK H PARENT 1 18 18 20 11 22 14 24
REMARK Flexibility Score: inf
ROOT
ATOM      1  C   UNL     1     -30.016 -42.310  45.019  1.00  0.00     0.401 A 
ATOM      2  O   UNL     1     -29.316 -42.551  46.124  1.00  0.00    -0.202 OA
ATOM      3  C   UNL     1     -29.855 -42.576  47.339  1.00  0.00     0.368 A 
ATOM      4  C   UNL     1     -29.035 -42.835  48.441  1.00  0.00     0.162 A 
ATOM      5  C   UNL     1     -29.576 -42.864  49.731  1.00  0.00     0.128 A 
ATOM      6  C   UNL     1     -30.940 -42.631  49.918  1.00  0.00     0.093 A 
ATOM      7  C   UNL     1     -31.781 -42.367  48.830  1.00  0.00     0.136 A 
ATOM      8  C   UNL     1     -31.239 -42.340  47.520  1.00  0.00     0.125 A 
ATOM      9  C   UNL     1     -32.009 -42.098  46.370  1.00  0.00     0.078 A 
ATOM     10  C   UNL     1     -31.403 -42.092  45.109  1.00  0.00     0.223 A 
ENDROOT
BRANCH   1  11
ATOM     11  C   UNL     1     -29.300 -42.299  43.724  1.00  0.00     0.084 A 
ATOM     12  C   UNL     1     -29.766 -43.102  42.670  1.00  0.00     0.022 A 
ATOM     13  C   UNL     1     -29.092 -43.125  41.444  1.00  0.00     0.047 A 
ATOM     14  C   UNL     1     -27.936 -42.356  41.263  1.00  0.00     0.115 A 
ATOM     15  C   UNL     1     -28.126 -41.545  43.540  1.00  0.00     0.022 A 
ATOM     16  C   UNL     1     -27.454 -41.571  42.315  1.00  0.00     0.047 A 
BRANCH  14  17
ATOM     17  O   UNL     1     -27.256 -42.371  40.047  1.00  0.00    -0.508 OA
ATOM     18  H   UNL     1     -27.663 -42.787  39.218  1.00  0.00     0.293 HD
ENDBRANCH  14  17
ENDBRANCH   1  11
BRANCH  10  19
ATOM     19  O   UNL     1     -32.176 -41.902  43.964  1.00  0.00    -0.500 OA
ATOM     20  H   UNL     1     -31.959 -42.367  43.090  1.00  0.00     0.294 HD
ENDBRANCH  10  19
BRANCH   5  21
ATOM     21  O   UNL     1     -28.765 -43.122  50.834  1.00  0.00    -0.507 OA
ATOM     22  H   UNL     1     -27.754 -43.077  50.771  1.00  0.00     0.293 HD
ENDBRANCH   5  21
BRANCH   7  23
ATOM     23  O   UNL     1     -33.134 -42.141  49.103  1.00  0.00    -0.507 OA
ATOM     24  H   UNL     1     -33.477 -41.447  49.749  1.00  0.00     0.293 HD
ENDBRANCH   7  23
TORSDOF 5
ENDMDL
MODEL 8
REMARK VINA RESULT:    -3.146     13.843     15.702
REMARK INTER + INTRA:          -3.988
REMARK INTER:                  -3.670
REMARK INTRA:                  -0.318
REMARK UNBOUND:                -0.291
REMARK SMILES Oc1ccc(-c2[o+]c3cc(O)cc(O)c3cc2O)cc1.[Cl-]
REMARK SMILES IDX 6 1 7 2 8 3 9 4 10 5 12 6 13 7 15 8 16 9 17 10 5 11 4 12
REMARK SMILES IDX 3 13 2 14 19 15 20 16 1 17 18 19 11 21 14 23
REMARK H PARENT 1 18 18 20 11 22 14 24
REMARK Flexibility Score: inf
ROOT
ATOM      1  C   UNL     1     -29.162 -25.243  44.658  1.00  0.00     0.401 A 
ATOM      2  O   UNL     1     -28.293 -25.150  45.661  1.00  0.00    -0.202 OA
ATOM      3  C   UNL     1     -28.606 -25.414  46.926  1.00  0.00     0.368 A 
ATOM      4  C   UNL     1     -27.624 -25.283  47.911  1.00  0.00     0.162 A 
ATOM      5  C   UNL     1     -27.927 -25.552  49.250  1.00  0.00     0.128 A 
ATOM      6  C   UNL     1     -29.218 -25.950  49.603  1.00  0.00     0.093 A 
ATOM      7  C   UNL     1     -30.220 -26.087  48.635  1.00  0.00     0.136 A 
ATOM      8  C   UNL     1     -29.917 -25.819  47.275  1.00  0.00     0.125 A 
ATOM      9  C   UNL     1     -30.854 -25.944  46.236  1.00  0.00     0.078 A 
ATOM     10  C   UNL     1     -30.479 -25.666  44.917  1.00  0.00     0.223 A 
ENDROOT
BRANCH   1  11
ATOM     11  C   UNL     1     -28.695 -24.913  43.293  1.00  0.00     0.084 A 
ATOM     12  C   UNL     1     -27.975 -25.870  42.559  1.00  0.00     0.022 A 
ATOM     13  C   UNL     1     -27.505 -25.572  41.276  1.00  0.00     0.047 A 
ATOM     14  C   UNL     1     -27.736 -24.309  40.717  1.00  0.00     0.115 A 
ATOM     15  C   UNL     1     -28.906 -23.640  42.733  1.00  0.00     0.022 A 
ATOM     16  C   UNL     1     -28.434 -23.344  41.451  1.00  0.00     0.047 A 
BRANCH  14  17
ATOM     17  O   UNL     1     -27.272 -24.000  39.440  1.00  0.00    -0.508 OA
ATOM     18  H   UNL     1     -26.322 -24.210  39.157  1.00  0.00     0.293 HD
ENDBRANCH  14  17
ENDBRANCH   1  11
BRANCH  10  19
ATOM     19  O   UNL     1     -31.395 -25.837  43.880  1.00  0.00    -0.500 OA
ATOM     20  H   UNL     1     -32.377 -26.012  44.058  1.00  0.00     0.294 HD
ENDBRANCH  10  19
BRANCH   5  21
ATOM     21  O   UNL     1     -26.953 -25.424  50.237  1.00  0.00    -0.507 OA
ATOM     22  H   UNL     1     -26.184 -24.771  50.142  1.00  0.00     0.293 HD
ENDBRANCH   5  21
BRANCH   7  23
ATOM     23  O   UNL     1     -31.487 -26.488  49.071  1.00  0.00    -0.507 OA
ATOM     24  H   UNL     1     -31.722 -27.427  49.354  1.00  0.00     0.293 HD
ENDBRANCH   7  23
TORSDOF 5
ENDMDL
MODEL 9
REMARK VINA RESULT:    -3.110      1.620      7.010
REMARK INTER + INTRA:          -3.945
REMARK INTER:                  -3.642
REMARK INTRA:                  -0.303
REMARK UNBOUND:                -0.291
REMARK SMILES Oc1ccc(-c2[o+]c3cc(O)cc(O)c3cc2O)cc1.[Cl-]
REMARK SMILES IDX 6 1 7 2 8 3 9 4 10 5 12 6 13 7 15 8 16 9 17 10 5 11 4 12
REMARK SMILES IDX 3 13 2 14 19 15 20 16 1 17 18 19 11 21 14 23
REMARK H PARENT 1 18 18 20 11 22 14 24
REMARK Flexibility Score: inf
ROOT
ATOM      1  C   UNL     1     -44.832 -24.899  45.090  1.00  0.00     0.401 A 
ATOM      2  O   UNL     1     -44.887 -24.075  44.047  1.00  0.00    -0.202 OA
ATOM      3  C   UNL     1     -45.428 -24.409  42.880  1.00  0.00     0.368 A 
ATOM      4  C   UNL     1     -45.435 -23.475  41.841  1.00  0.00     0.162 A 
ATOM      5  C   UNL     1     -45.996 -23.801  40.602  1.00  0.00     0.128 A 
ATOM      6  C   UNL     1     -46.550 -25.068  40.402  1.00  0.00     0.093 A 
ATOM      7  C   UNL     1     -46.554 -26.022  41.427  1.00  0.00     0.136 A 
ATOM      8  C   UNL     1     -45.990 -25.695  42.687  1.00  0.00     0.125 A 
ATOM      9  C   UNL     1     -45.962 -26.583  43.775  1.00  0.00     0.078 A 
ATOM     10  C   UNL     1     -45.392 -26.186  44.989  1.00  0.00     0.223 A 
ENDROOT
BRANCH   1  11
ATOM     11  C   UNL     1     -44.194 -24.413  46.334  1.00  0.00     0.084 A 
ATOM     12  C   UNL     1     -44.991 -23.848  47.344  1.00  0.00     0.022 A 
ATOM     13  C   UNL     1     -44.406 -23.362  48.519  1.00  0.00     0.047 A 
ATOM     14  C   UNL     1     -43.018 -23.422  48.691  1.00  0.00     0.115 A 
ATOM     15  C   UNL     1     -42.798 -24.451  46.507  1.00  0.00     0.022 A 
ATOM     16  C   UNL     1     -42.217 -23.964  47.681  1.00  0.00     0.047 A 
BRANCH  14  17
ATOM     17  O   UNL     1     -42.425 -22.942  49.857  1.00  0.00    -0.508 OA
ATOM     18  H   UNL     1     -42.577 -21.992  50.175  1.00  0.00     0.293 HD
ENDBRANCH  14  17
ENDBRANCH   1  11
BRANCH  10  19
ATOM     19  O   UNL     1     -45.409 -27.049  46.084  1.00  0.00    -0.500 OA
ATOM     20  H   UNL     1     -44.896 -26.844  46.934  1.00  0.00     0.294 HD
ENDBRANCH  10  19
BRANCH   5  21
ATOM     21  O   UNL     1     -46.007 -22.875  39.562  1.00  0.00    -0.507 OA
ATOM     22  H   UNL     1     -46.409 -21.952  39.678  1.00  0.00     0.293 HD
ENDBRANCH   5  21
BRANCH   7  23
ATOM     23  O   UNL     1     -47.125 -27.267  41.145  1.00  0.00    -0.507 OA
ATOM     24  H   UNL     1     -46.851 -28.132  41.585  1.00  0.00     0.293 HD
ENDBRANCH   7  23
TORSDOF 5
ENDMDL
