MODEL 1
REMARK VINA RESULT:    27.651      0.000      0.000
REMARK INTER + INTRA:          38.512
REMARK INTER:                  38.159
REMARK INTRA:                   0.354
REMARK UNBOUND:                 0.354
REMARK SMILES CC[C@@H](CC[C@@H](C)[C@H]1CC[C@@H]2[C@H]3CC=C4C[C@H](O)CC[C@@]4(C)[C@H]3CC[C@]21C)C(C)C
REMARK SMILES IDX 5 1 4 2 3 3 2 4 1 5 28 6 29 7 30 8 6 9 7 10 8 11 9 12 26 13
REMARK SMILES IDX 10 14 11 15 25 16 27 17 12 18 24 19 23 20 13 21 21 22 14 23
REMARK SMILES IDX 15 24 20 25 22 26 16 27 19 28 17 29 18 30
REMARK H PARENT 18 31
REMARK Flexibility Score: inf
ROOT
ATOM      1  C   UNL     1     -14.274  -3.859 -11.787  1.00  0.00     0.004 C 
ENDROOT
BRANCH   1   2
ATOM      2  C   UNL     1     -12.746  -3.830 -11.533  1.00  0.00     0.004 C 
BRANCH   2   3
ATOM      3  C   UNL     1     -12.344  -4.183 -10.072  1.00  0.00    -0.009 C 
BRANCH   3   4
ATOM      4  C   UNL     1     -12.956  -5.554  -9.659  1.00  0.00     0.000 C 
ATOM      5  C   UNL     1     -11.981  -6.437  -8.875  1.00  0.00     0.004 C 
ENDBRANCH   3   4
BRANCH   3   6
ATOM      6  C   UNL     1     -12.703  -3.041  -9.059  1.00  0.00    -0.014 C 
ATOM      7  C   UNL     1     -14.218  -2.829  -8.878  1.00  0.00     0.007 C 
ATOM      8  C   UNL     1     -12.029  -1.709  -9.437  1.00  0.00     0.007 C 
ENDBRANCH   3   6
ENDBRANCH   2   3
ENDBRANCH   1   2
BRANCH   1   9
ATOM      9  C   UNL     1     -14.661  -3.641 -13.280  1.00  0.00    -0.011 C 
ATOM     10  C   UNL     1     -15.171  -2.204 -13.501  1.00  0.00     0.008 C 
BRANCH   9  11
ATOM     11  C   UNL     1     -13.524  -3.985 -14.310  1.00  0.00    -0.002 C 
ATOM     12  C   UNL     1     -12.950  -5.422 -14.162  1.00  0.00     0.005 C 
ATOM     13  C   UNL     1     -13.810  -3.808 -15.850  1.00  0.00    -0.026 C 
ATOM     14  C   UNL     1     -12.975  -6.077 -15.548  1.00  0.00     0.005 C 
ATOM     15  C   UNL     1     -13.998  -5.264 -16.323  1.00  0.00    -0.001 C 
ATOM     16  C   UNL     1     -15.050  -2.954 -16.298  1.00  0.00     0.007 C 
ATOM     17  C   UNL     1     -12.530  -3.160 -16.480  1.00  0.00     0.012 C 
ATOM     18  C   UNL     1     -14.012  -5.402 -17.868  1.00  0.00     0.000 C 
ATOM     19  C   UNL     1     -15.855  -3.592 -17.460  1.00  0.00     0.005 C 
ATOM     20  C   UNL     1     -14.976  -4.335 -18.517  1.00  0.00     0.003 C 
ATOM     21  C   UNL     1     -14.360  -6.833 -18.278  1.00  0.00     0.031 C 
ATOM     22  C   UNL     1     -15.809  -4.819 -19.792  1.00  0.00    -0.008 C 
ATOM     23  C   UNL     1     -14.475  -6.939 -19.762  1.00  0.00    -0.027 C 
ATOM     24  C   UNL     1     -15.176  -6.034 -20.473  1.00  0.00    -0.065 C 
ATOM     25  C   UNL     1     -17.270  -5.253 -19.451  1.00  0.00     0.014 C 
ATOM     26  C   UNL     1     -15.849  -3.620 -20.787  1.00  0.00     0.016 C 
ATOM     27  C   UNL     1     -15.832  -6.520 -21.743  1.00  0.00     0.063 C 
ATOM     28  C   UNL     1     -18.044  -5.857 -20.652  1.00  0.00     0.033 C 
ATOM     29  C   UNL     1     -17.264  -6.967 -21.393  1.00  0.00     0.118 C 
BRANCH  29  30
ATOM     30  O   UNL     1     -17.959  -7.313 -22.562  1.00  0.00    -0.393 OA
ATOM     31  H   UNL     1     -18.355  -8.212 -22.409  1.00  0.00     0.210 HD
ENDBRANCH  29  30
ENDBRANCH   9  11
ENDBRANCH   1   9
TORSDOF 7
ENDMDL
MODEL 2
REMARK VINA RESULT:    27.670      0.633      1.682
REMARK INTER + INTRA:          38.538
REMARK INTER:                  38.328
REMARK INTRA:                   0.210
REMARK UNBOUND:                 0.354
REMARK SMILES CC[C@@H](CC[C@@H](C)[C@H]1CC[C@@H]2[C@H]3CC=C4C[C@H](O)CC[C@@]4(C)[C@H]3CC[C@]21C)C(C)C
REMARK SMILES IDX 5 1 4 2 3 3 2 4 1 5 28 6 29 7 30 8 6 9 7 10 8 11 9 12 26 13
REMARK SMILES IDX 10 14 11 15 25 16 27 17 12 18 24 19 23 20 13 21 21 22 14 23
REMARK SMILES IDX 15 24 20 25 22 26 16 27 19 28 17 29 18 30
REMARK H PARENT 18 31
REMARK Flexibility Score: inf
ROOT
ATOM      1  C   UNL     1     -14.780  -3.515 -11.550  1.00  0.00     0.004 C 
ENDROOT
BRANCH   1   2
ATOM      2  C   UNL     1     -13.309  -3.504 -11.067  1.00  0.00     0.004 C 
BRANCH   2   3
ATOM      3  C   UNL     1     -13.155  -3.482  -9.519  1.00  0.00    -0.009 C 
BRANCH   3   4
ATOM      4  C   UNL     1     -11.895  -2.664  -9.113  1.00  0.00     0.000 C 
ATOM      5  C   UNL     1     -12.047  -1.161  -9.361  1.00  0.00     0.004 C 
ENDBRANCH   3   4
BRANCH   3   6
ATOM      6  C   UNL     1     -13.157  -4.921  -8.896  1.00  0.00    -0.014 C 
ATOM      7  C   UNL     1     -11.875  -5.723  -9.188  1.00  0.00     0.007 C 
ATOM      8  C   UNL     1     -14.393  -5.731  -9.332  1.00  0.00     0.007 C 
ENDBRANCH   3   6
ENDBRANCH   2   3
ENDBRANCH   1   2
BRANCH   1   9
ATOM      9  C   UNL     1     -14.934  -3.273 -13.082  1.00  0.00    -0.011 C 
ATOM     10  C   UNL     1     -15.244  -1.791 -13.365  1.00  0.00     0.008 C 
BRANCH   9  11
ATOM     11  C   UNL     1     -13.715  -3.755 -13.949  1.00  0.00    -0.002 C 
ATOM     12  C   UNL     1     -13.263  -5.212 -13.650  1.00  0.00     0.005 C 
ATOM     13  C   UNL     1     -13.810  -3.662 -15.520  1.00  0.00    -0.026 C 
ATOM     14  C   UNL     1     -13.175  -5.955 -14.989  1.00  0.00     0.005 C 
ATOM     15  C   UNL     1     -14.044  -5.133 -15.925  1.00  0.00    -0.001 C 
ATOM     16  C   UNL     1     -14.929  -2.765 -16.160  1.00  0.00     0.007 C 
ATOM     17  C   UNL     1     -12.425  -3.139 -16.031  1.00  0.00     0.012 C 
ATOM     18  C   UNL     1     -13.892  -5.371 -17.450  1.00  0.00     0.000 C 
ATOM     19  C   UNL     1     -15.639  -3.427 -17.369  1.00  0.00     0.005 C 
ATOM     20  C   UNL     1     -14.700  -4.291 -18.270  1.00  0.00     0.003 C 
ATOM     21  C   UNL     1     -14.290  -6.801 -17.813  1.00  0.00     0.031 C 
ATOM     22  C   UNL     1     -15.414  -4.806 -19.603  1.00  0.00    -0.008 C 
ATOM     23  C   UNL     1     -14.244  -6.999 -19.292  1.00  0.00    -0.027 C 
ATOM     24  C   UNL     1     -14.794  -6.101 -20.132  1.00  0.00    -0.065 C 
ATOM     25  C   UNL     1     -16.932  -5.124 -19.412  1.00  0.00     0.014 C 
ATOM     26  C   UNL     1     -15.257  -3.676 -20.665  1.00  0.00     0.016 C 
ATOM     27  C   UNL     1     -15.334  -6.628 -21.440  1.00  0.00     0.063 C 
ATOM     28  C   UNL     1     -17.604  -5.757 -20.659  1.00  0.00     0.033 C 
ATOM     29  C   UNL     1     -16.824  -6.961 -21.236  1.00  0.00     0.118 C 
BRANCH  29  30
ATOM     30  O   UNL     1     -17.404  -7.339 -22.457  1.00  0.00    -0.393 OA
ATOM     31  H   UNL     1     -18.113  -8.003 -22.246  1.00  0.00     0.210 HD
ENDBRANCH  29  30
ENDBRANCH   9  11
ENDBRANCH   1   9
TORSDOF 7
ENDMDL
MODEL 3
REMARK VINA RESULT:    28.715      1.999      3.569
REMARK INTER + INTRA:          39.981
REMARK INTER:                  38.003
REMARK INTRA:                   1.978
REMARK UNBOUND:                 0.354
REMARK SMILES CC[C@@H](CC[C@@H](C)[C@H]1CC[C@@H]2[C@H]3CC=C4C[C@H](O)CC[C@@]4(C)[C@H]3CC[C@]21C)C(C)C
REMARK SMILES IDX 5 1 4 2 3 3 2 4 1 5 28 6 29 7 30 8 6 9 7 10 8 11 9 12 26 13
REMARK SMILES IDX 10 14 11 15 25 16 27 17 12 18 24 19 23 20 13 21 21 22 14 23
REMARK SMILES IDX 15 24 20 25 22 26 16 27 19 28 17 29 18 30
REMARK H PARENT 18 31
REMARK Flexibility Score: inf
ROOT
ATOM      1  C   UNL     1     -14.462  -3.537 -11.187  1.00  0.00     0.004 C 
ENDROOT
BRANCH   1   2
ATOM      2  C   UNL     1     -14.508  -3.229  -9.669  1.00  0.00     0.004 C 
BRANCH   2   3
ATOM      3  C   UNL     1     -13.267  -3.742  -8.885  1.00  0.00    -0.009 C 
BRANCH   3   4
ATOM      4  C   UNL     1     -12.011  -2.896  -9.248  1.00  0.00     0.000 C 
ATOM      5  C   UNL     1     -12.193  -1.401  -8.974  1.00  0.00     0.004 C 
ENDBRANCH   3   4
BRANCH   3   6
ATOM      6  C   UNL     1     -13.026  -5.280  -9.082  1.00  0.00    -0.014 C 
ATOM      7  C   UNL     1     -12.032  -5.610 -10.211  1.00  0.00     0.007 C 
ATOM      8  C   UNL     1     -14.347  -6.040  -9.307  1.00  0.00     0.007 C 
ENDBRANCH   3   6
ENDBRANCH   2   3
ENDBRANCH   1   2
BRANCH   1   9
ATOM      9  C   UNL     1     -13.157  -3.047 -11.883  1.00  0.00    -0.011 C 
ATOM     10  C   UNL     1     -12.316  -4.248 -12.357  1.00  0.00     0.008 C 
BRANCH   9  11
ATOM     11  C   UNL     1     -13.383  -2.034 -13.063  1.00  0.00    -0.002 C 
ATOM     12  C   UNL     1     -12.106  -1.248 -13.475  1.00  0.00     0.005 C 
ATOM     13  C   UNL     1     -14.001  -2.561 -14.414  1.00  0.00    -0.026 C 
ATOM     14  C   UNL     1     -11.950  -1.380 -14.994  1.00  0.00     0.005 C 
ATOM     15  C   UNL     1     -12.772  -2.608 -15.346  1.00  0.00    -0.001 C 
ATOM     16  C   UNL     1     -14.714  -3.960 -14.427  1.00  0.00     0.007 C 
ATOM     17  C   UNL     1     -15.040  -1.489 -14.889  1.00  0.00     0.012 C 
ATOM     18  C   UNL     1     -13.149  -2.825 -16.834  1.00  0.00     0.000 C 
ATOM     19  C   UNL     1     -14.359  -4.826 -15.663  1.00  0.00     0.005 C 
ATOM     20  C   UNL     1     -14.176  -4.013 -16.985  1.00  0.00     0.003 C 
ATOM     21  C   UNL     1     -11.894  -3.024 -17.684  1.00  0.00     0.031 C 
ATOM     22  C   UNL     1     -13.995  -4.945 -18.270  1.00  0.00    -0.008 C 
ATOM     23  C   UNL     1     -12.261  -3.336 -19.096  1.00  0.00    -0.027 C 
ATOM     24  C   UNL     1     -13.207  -4.252 -19.384  1.00  0.00    -0.065 C 
ATOM     25  C   UNL     1     -13.216  -6.266 -17.975  1.00  0.00     0.014 C 
ATOM     26  C   UNL     1     -15.426  -5.296 -18.779  1.00  0.00     0.016 C 
ATOM     27  C   UNL     1     -13.054  -5.009 -20.682  1.00  0.00     0.063 C 
ATOM     28  C   UNL     1     -12.910  -7.112 -19.239  1.00  0.00     0.033 C 
ATOM     29  C   UNL     1     -12.265  -6.299 -20.385  1.00  0.00     0.118 C 
BRANCH  29  30
ATOM     30  O   UNL     1     -12.203  -7.100 -21.536  1.00  0.00    -0.393 OA
ATOM     31  H   UNL     1     -12.906  -6.770 -22.156  1.00  0.00     0.210 HD
ENDBRANCH  29  30
ENDBRANCH   9  11
ENDBRANCH   1   9
TORSDOF 7
ENDMDL
