MODEL 1
REMARK VINA RESULT:    -7.724      0.000      0.000
REMARK INTER + INTRA:         -11.758
REMARK INTER:                 -10.659
REMARK INTRA:                  -1.098
REMARK UNBOUND:                -1.098
REMARK SMILES CC[C@H](CC[C@@H](C)[C@@H]1CC[C@@H]2[C@@H]3CC=C4C[C@@H](O)CC[C@]4(C)[C@H]3CC[C@@]21C)C(C)C
REMARK SMILES IDX 5 1 4 2 3 3 2 4 1 5 28 6 29 7 30 8 6 9 7 10 8 11 9 12 26 13
REMARK SMILES IDX 10 14 11 15 25 16 27 17 12 18 24 19 23 20 13 21 21 22 14 23
REMARK SMILES IDX 15 24 20 25 22 26 16 27 19 28 17 29 18 30
REMARK H PARENT 18 31
REMARK Flexibility Score: inf
ROOT
ATOM      1  C   UNL     1      19.345  20.747   8.495  1.00  0.00     0.004 C 
ENDROOT
BRANCH   1   2
ATOM      2  C   UNL     1      20.579  21.673   8.462  1.00  0.00     0.004 C 
BRANCH   2   3
ATOM      3  C   UNL     1      20.221  23.154   8.751  1.00  0.00    -0.009 C 
BRANCH   3   4
ATOM      4  C   UNL     1      20.462  24.046   7.501  1.00  0.00     0.000 C 
ATOM      5  C   UNL     1      21.816  23.884   6.804  1.00  0.00     0.004 C 
ENDBRANCH   3   4
BRANCH   3   6
ATOM      6  C   UNL     1      18.854  23.355   9.494  1.00  0.00    -0.014 C 
ATOM      7  C   UNL     1      17.974  24.489   8.946  1.00  0.00     0.007 C 
ATOM      8  C   UNL     1      19.032  23.501  11.011  1.00  0.00     0.007 C 
ENDBRANCH   3   6
ENDBRANCH   2   3
ENDBRANCH   1   2
BRANCH   1   9
ATOM      9  C   UNL     1      19.698  19.235   8.559  1.00  0.00    -0.011 C 
ATOM     10  C   UNL     1      20.979  18.965   7.734  1.00  0.00     0.008 C 
BRANCH   9  11
ATOM     11  C   UNL     1      19.769  18.760  10.054  1.00  0.00    -0.002 C 
ATOM     12  C   UNL     1      20.982  17.914  10.433  1.00  0.00     0.005 C 
ATOM     13  C   UNL     1      18.525  18.059  10.687  1.00  0.00    -0.026 C 
ATOM     14  C   UNL     1      20.640  17.300  11.791  1.00  0.00     0.005 C 
ATOM     15  C   UNL     1      19.107  17.416  11.988  1.00  0.00    -0.001 C 
ATOM     16  C   UNL     1      17.823  16.986   9.776  1.00  0.00     0.007 C 
ATOM     17  C   UNL     1      17.461  19.126  11.055  1.00  0.00     0.012 C 
ATOM     18  C   UNL     1      18.393  16.092  12.358  1.00  0.00     0.000 C 
ATOM     19  C   UNL     1      18.458  15.585   9.831  1.00  0.00     0.005 C 
ATOM     20  C   UNL     1      18.551  14.999  11.271  1.00  0.00     0.003 C 
ATOM     21  C   UNL     1      18.834  15.535  13.715  1.00  0.00     0.031 C 
ATOM     22  C   UNL     1      17.612  13.771  11.567  1.00  0.00    -0.008 C 
ATOM     23  C   UNL     1      18.181  14.208  14.009  1.00  0.00    -0.027 C 
ATOM     24  C   UNL     1      17.732  13.365  13.050  1.00  0.00    -0.065 C 
ATOM     25  C   UNL     1      18.054  12.564  10.676  1.00  0.00     0.014 C 
ATOM     26  C   UNL     1      16.125  14.117  11.272  1.00  0.00     0.016 C 
ATOM     27  C   UNL     1      17.180  12.019  13.477  1.00  0.00     0.063 C 
ATOM     28  C   UNL     1      17.430  11.221  11.089  1.00  0.00     0.033 C 
ATOM     29  C   UNL     1      17.710  10.906  12.563  1.00  0.00     0.118 C 
BRANCH  29  30
ATOM     30  O   UNL     1      17.152   9.661  12.911  1.00  0.00    -0.393 OA
ATOM     31  H   UNL     1      16.191   9.803  13.108  1.00  0.00     0.210 HD
ENDBRANCH  29  30
ENDBRANCH   9  11
ENDBRANCH   1   9
TORSDOF 7
ENDMDL
MODEL 2
REMARK VINA RESULT:    -7.681      3.090      9.081
REMARK INTER + INTRA:         -11.698
REMARK INTER:                  -9.897
REMARK INTRA:                  -1.800
REMARK UNBOUND:                -1.098
REMARK SMILES CC[C@H](CC[C@@H](C)[C@@H]1CC[C@@H]2[C@@H]3CC=C4C[C@@H](O)CC[C@]4(C)[C@H]3CC[C@@]21C)C(C)C
REMARK SMILES IDX 5 1 4 2 3 3 2 4 1 5 28 6 29 7 30 8 6 9 7 10 8 11 9 12 26 13
REMARK SMILES IDX 10 14 11 15 25 16 27 17 12 18 24 19 23 20 13 21 21 22 14 23
REMARK SMILES IDX 15 24 20 25 22 26 16 27 19 28 17 29 18 30
REMARK H PARENT 18 31
REMARK Flexibility Score: inf
ROOT
ATOM      1  C   UNL     1      16.985  12.611  14.022  1.00  0.00     0.004 C 
ENDROOT
BRANCH   1   2
ATOM      2  C   UNL     1      16.404  11.337  13.376  1.00  0.00     0.004 C 
BRANCH   2   3
ATOM      3  C   UNL     1      16.899  11.126  11.922  1.00  0.00    -0.009 C 
BRANCH   3   4
ATOM      4  C   UNL     1      18.005  10.035  11.856  1.00  0.00     0.000 C 
ATOM      5  C   UNL     1      19.013  10.159  10.711  1.00  0.00     0.004 C 
ENDBRANCH   3   4
BRANCH   3   6
ATOM      6  C   UNL     1      15.752  11.016  10.858  1.00  0.00    -0.014 C 
ATOM      7  C   UNL     1      15.089  12.347  10.473  1.00  0.00     0.007 C 
ATOM      8  C   UNL     1      14.688   9.984  11.254  1.00  0.00     0.007 C 
ENDBRANCH   3   6
ENDBRANCH   2   3
ENDBRANCH   1   2
BRANCH   1   9
ATOM      9  C   UNL     1      16.762  13.899  13.181  1.00  0.00    -0.011 C 
ATOM     10  C   UNL     1      15.815  14.858  13.942  1.00  0.00     0.008 C 
BRANCH   9  11
ATOM     11  C   UNL     1      18.143  14.526  12.776  1.00  0.00    -0.002 C 
ATOM     12  C   UNL     1      18.729  15.546  13.750  1.00  0.00     0.005 C 
ATOM     13  C   UNL     1      18.310  15.132  11.346  1.00  0.00    -0.026 C 
ATOM     14  C   UNL     1      19.847  16.248  12.979  1.00  0.00     0.005 C 
ATOM     15  C   UNL     1      19.626  15.968  11.470  1.00  0.00    -0.001 C 
ATOM     16  C   UNL     1      17.109  16.016  10.847  1.00  0.00     0.007 C 
ATOM     17  C   UNL     1      18.507  13.987  10.318  1.00  0.00     0.012 C 
ATOM     18  C   UNL     1      19.609  17.227  10.568  1.00  0.00     0.000 C 
ATOM     19  C   UNL     1      17.155  17.482  11.315  1.00  0.00     0.005 C 
ATOM     20  C   UNL     1      18.476  18.216  10.937  1.00  0.00     0.003 C 
ATOM     21  C   UNL     1      20.951  17.966  10.548  1.00  0.00     0.031 C 
ATOM     22  C   UNL     1      18.338  19.346   9.849  1.00  0.00    -0.008 C 
ATOM     23  C   UNL     1      20.877  19.227   9.726  1.00  0.00    -0.027 C 
ATOM     24  C   UNL     1      19.730  19.910   9.501  1.00  0.00    -0.065 C 
ATOM     25  C   UNL     1      17.454  20.502  10.423  1.00  0.00     0.014 C 
ATOM     26  C   UNL     1      17.692  18.796   8.547  1.00  0.00     0.016 C 
ATOM     27  C   UNL     1      19.809  21.215   8.735  1.00  0.00     0.063 C 
ATOM     28  C   UNL     1      17.500  21.794   9.592  1.00  0.00     0.033 C 
ATOM     29  C   UNL     1      18.940  22.287   9.407  1.00  0.00     0.118 C 
BRANCH  29  30
ATOM     30  O   UNL     1      18.956  23.485   8.666  1.00  0.00    -0.393 OA
ATOM     31  H   UNL     1      19.219  23.264   7.736  1.00  0.00     0.210 HD
ENDBRANCH  29  30
ENDBRANCH   9  11
ENDBRANCH   1   9
TORSDOF 7
ENDMDL
MODEL 3
REMARK VINA RESULT:    -7.604      4.279      6.235
REMARK INTER + INTRA:         -11.592
REMARK INTER:                  -9.362
REMARK INTRA:                  -2.230
REMARK UNBOUND:                -1.098
REMARK SMILES CC[C@H](CC[C@@H](C)[C@@H]1CC[C@@H]2[C@@H]3CC=C4C[C@@H](O)CC[C@]4(C)[C@H]3CC[C@@]21C)C(C)C
REMARK SMILES IDX 5 1 4 2 3 3 2 4 1 5 28 6 29 7 30 8 6 9 7 10 8 11 9 12 26 13
REMARK SMILES IDX 10 14 11 15 25 16 27 17 12 18 24 19 23 20 13 21 21 22 14 23
REMARK SMILES IDX 15 24 20 25 22 26 16 27 19 28 17 29 18 30
REMARK H PARENT 18 31
REMARK Flexibility Score: inf
ROOT
ATOM      1  C   UNL     1      17.475  18.373  13.470  1.00  0.00     0.004 C 
ENDROOT
BRANCH   1   2
ATOM      2  C   UNL     1      16.044  18.269  14.036  1.00  0.00     0.004 C 
BRANCH   2   3
ATOM      3  C   UNL     1      15.980  18.580  15.555  1.00  0.00    -0.009 C 
BRANCH   3   4
ATOM      4  C   UNL     1      14.901  17.712  16.262  1.00  0.00     0.000 C 
ATOM      5  C   UNL     1      14.606  16.349  15.630  1.00  0.00     0.004 C 
ENDBRANCH   3   4
BRANCH   3   6
ATOM      6  C   UNL     1      17.380  18.656  16.258  1.00  0.00    -0.014 C 
ATOM      7  C   UNL     1      17.626  17.593  17.339  1.00  0.00     0.007 C 
ATOM      8  C   UNL     1      17.680  20.057  16.807  1.00  0.00     0.007 C 
ENDBRANCH   3   6
ENDBRANCH   2   3
ENDBRANCH   1   2
BRANCH   1   9
ATOM      9  C   UNL     1      17.955  17.089  12.738  1.00  0.00    -0.011 C 
ATOM     10  C   UNL     1      19.500  17.091  12.646  1.00  0.00     0.008 C 
BRANCH   9  11
ATOM     11  C   UNL     1      17.342  15.816  13.423  1.00  0.00    -0.002 C 
ATOM     12  C   UNL     1      18.254  15.068  14.392  1.00  0.00     0.005 C 
ATOM     13  C   UNL     1      16.659  14.730  12.530  1.00  0.00    -0.026 C 
ATOM     14  C   UNL     1      17.575  13.720  14.631  1.00  0.00     0.005 C 
ATOM     15  C   UNL     1      16.542  13.505  13.495  1.00  0.00    -0.001 C 
ATOM     16  C   UNL     1      17.436  14.358  11.215  1.00  0.00     0.007 C 
ATOM     17  C   UNL     1      15.245  15.215  12.117  1.00  0.00     0.012 C 
ATOM     18  C   UNL     1      16.665  12.155  12.746  1.00  0.00     0.000 C 
ATOM     19  C   UNL     1      18.541  13.302  11.400  1.00  0.00     0.005 C 
ATOM     20  C   UNL     1      18.035  11.978  12.046  1.00  0.00     0.003 C 
ATOM     21  C   UNL     1      16.386  10.946  13.645  1.00  0.00     0.031 C 
ATOM     22  C   UNL     1      18.025  10.720  11.099  1.00  0.00    -0.008 C 
ATOM     23  C   UNL     1      16.591   9.647  12.907  1.00  0.00    -0.027 C 
ATOM     24  C   UNL     1      17.407   9.515  11.836  1.00  0.00    -0.065 C 
ATOM     25  C   UNL     1      19.497  10.369  10.701  1.00  0.00     0.014 C 
ATOM     26  C   UNL     1      17.191  10.991   9.816  1.00  0.00     0.016 C 
ATOM     27  C   UNL     1      17.597   8.132  11.243  1.00  0.00     0.063 C 
ATOM     28  C   UNL     1      19.653   8.989  10.043  1.00  0.00     0.033 C 
ATOM     29  C   UNL     1      19.077   7.879  10.931  1.00  0.00     0.118 C 
BRANCH  29  30
ATOM     30  O   UNL     1      19.255   6.622  10.320  1.00  0.00    -0.393 OA
ATOM     31  H   UNL     1      18.509   6.037  10.607  1.00  0.00     0.210 HD
ENDBRANCH  29  30
ENDBRANCH   9  11
ENDBRANCH   1   9
TORSDOF 7
ENDMDL
MODEL 4
REMARK VINA RESULT:    -7.531      3.504      9.113
REMARK INTER + INTRA:         -11.491
REMARK INTER:                  -9.684
REMARK INTRA:                  -1.807
REMARK UNBOUND:                -1.098
REMARK SMILES CC[C@H](CC[C@@H](C)[C@@H]1CC[C@@H]2[C@@H]3CC=C4C[C@@H](O)CC[C@]4(C)[C@H]3CC[C@@]21C)C(C)C
REMARK SMILES IDX 5 1 4 2 3 3 2 4 1 5 28 6 29 7 30 8 6 9 7 10 8 11 9 12 26 13
REMARK SMILES IDX 10 14 11 15 25 16 27 17 12 18 24 19 23 20 13 21 21 22 14 23
REMARK SMILES IDX 15 24 20 25 22 26 16 27 19 28 17 29 18 30
REMARK H PARENT 18 31
REMARK Flexibility Score: inf
ROOT
ATOM      1  C   UNL     1      18.846  14.291  10.414  1.00  0.00     0.004 C 
ENDROOT
BRANCH   1   2
ATOM      2  C   UNL     1      19.248  14.114  11.893  1.00  0.00     0.004 C 
BRANCH   2   3
ATOM      3  C   UNL     1      18.107  14.499  12.870  1.00  0.00    -0.009 C 
BRANCH   3   4
ATOM      4  C   UNL     1      16.727  14.495  12.155  1.00  0.00     0.000 C 
ATOM      5  C   UNL     1      15.840  15.721  12.387  1.00  0.00     0.004 C 
ENDBRANCH   3   4
BRANCH   3   6
ATOM      6  C   UNL     1      18.172  13.770  14.258  1.00  0.00    -0.014 C 
ATOM      7  C   UNL     1      17.068  12.731  14.501  1.00  0.00     0.007 C 
ATOM      8  C   UNL     1      18.247  14.756  15.430  1.00  0.00     0.007 C 
ENDBRANCH   3   6
ENDBRANCH   2   3
ENDBRANCH   1   2
BRANCH   1   9
ATOM      9  C   UNL     1      19.455  15.555   9.745  1.00  0.00    -0.011 C 
ATOM     10  C   UNL     1      19.919  15.211   8.309  1.00  0.00     0.008 C 
BRANCH   9  11
ATOM     11  C   UNL     1      18.446  16.754   9.838  1.00  0.00    -0.002 C 
ATOM     12  C   UNL     1      17.773  17.169   8.531  1.00  0.00     0.005 C 
ATOM     13  C   UNL     1      18.900  18.074  10.540  1.00  0.00    -0.026 C 
ATOM     14  C   UNL     1      17.146  18.534   8.813  1.00  0.00     0.005 C 
ATOM     15  C   UNL     1      17.811  19.103  10.093  1.00  0.00    -0.001 C 
ATOM     16  C   UNL     1      20.347  18.567  10.172  1.00  0.00     0.007 C 
ATOM     17  C   UNL     1      18.849  17.885  12.079  1.00  0.00     0.012 C 
ATOM     18  C   UNL     1      18.381  20.536   9.951  1.00  0.00     0.000 C 
ATOM     19  C   UNL     1      20.431  19.399   8.879  1.00  0.00     0.005 C 
ATOM     20  C   UNL     1      19.489  20.639   8.874  1.00  0.00     0.003 C 
ATOM     21  C   UNL     1      17.298  21.585   9.678  1.00  0.00     0.031 C 
ATOM     22  C   UNL     1      20.209  22.039   8.938  1.00  0.00    -0.008 C 
ATOM     23  C   UNL     1      17.893  22.954   9.468  1.00  0.00    -0.027 C 
ATOM     24  C   UNL     1      19.158  23.163   9.032  1.00  0.00    -0.065 C 
ATOM     25  C   UNL     1      21.050  22.240   7.635  1.00  0.00     0.014 C 
ATOM     26  C   UNL     1      21.140  22.134  10.178  1.00  0.00     0.016 C 
ATOM     27  C   UNL     1      19.602  24.589   8.772  1.00  0.00     0.063 C 
ATOM     28  C   UNL     1      21.543  23.681   7.428  1.00  0.00     0.033 C 
ATOM     29  C   UNL     1      20.379  24.678   7.452  1.00  0.00     0.118 C 
BRANCH  29  30
ATOM     30  O   UNL     1      20.852  25.987   7.234  1.00  0.00    -0.393 OA
ATOM     31  H   UNL     1      21.309  26.003   6.355  1.00  0.00     0.210 HD
ENDBRANCH  29  30
ENDBRANCH   9  11
ENDBRANCH   1   9
TORSDOF 7
ENDMDL
MODEL 5
REMARK VINA RESULT:    -7.408      1.249      3.108
REMARK INTER + INTRA:         -11.321
REMARK INTER:                  -9.581
REMARK INTRA:                  -1.741
REMARK UNBOUND:                -1.098
REMARK SMILES CC[C@H](CC[C@@H](C)[C@@H]1CC[C@@H]2[C@@H]3CC=C4C[C@@H](O)CC[C@]4(C)[C@H]3CC[C@@]21C)C(C)C
REMARK SMILES IDX 5 1 4 2 3 3 2 4 1 5 28 6 29 7 30 8 6 9 7 10 8 11 9 12 26 13
REMARK SMILES IDX 10 14 11 15 25 16 27 17 12 18 24 19 23 20 13 21 21 22 14 23
REMARK SMILES IDX 15 24 20 25 22 26 16 27 19 28 17 29 18 30
REMARK H PARENT 18 31
REMARK Flexibility Score: inf
ROOT
ATOM      1  C   UNL     1      17.466  21.977  10.276  1.00  0.00     0.004 C 
ENDROOT
BRANCH   1   2
ATOM      2  C   UNL     1      18.453  21.901   9.093  1.00  0.00     0.004 C 
BRANCH   2   3
ATOM      3  C   UNL     1      19.589  22.952   9.195  1.00  0.00    -0.009 C 
BRANCH   3   4
ATOM      4  C   UNL     1      19.760  23.456  10.655  1.00  0.00     0.000 C 
ATOM      5  C   UNL     1      21.199  23.595  11.160  1.00  0.00     0.004 C 
ENDBRANCH   3   4
BRANCH   3   6
ATOM      6  C   UNL     1      20.905  22.555   8.439  1.00  0.00    -0.014 C 
ATOM      7  C   UNL     1      21.254  23.437   7.231  1.00  0.00     0.007 C 
ATOM      8  C   UNL     1      20.924  21.073   8.042  1.00  0.00     0.007 C 
ENDBRANCH   3   6
ENDBRANCH   2   3
ENDBRANCH   1   2
BRANCH   1   9
ATOM      9  C   UNL     1      17.306  20.637  11.046  1.00  0.00    -0.011 C 
ATOM     10  C   UNL     1      15.841  20.483  11.521  1.00  0.00     0.008 C 
BRANCH   9  11
ATOM     11  C   UNL     1      17.839  19.445  10.173  1.00  0.00    -0.002 C 
ATOM     12  C   UNL     1      16.788  18.665   9.387  1.00  0.00     0.005 C 
ATOM     13  C   UNL     1      18.776  18.384  10.832  1.00  0.00    -0.026 C 
ATOM     14  C   UNL     1      17.489  17.386   8.930  1.00  0.00     0.005 C 
ATOM     15  C   UNL     1      18.762  17.211   9.798  1.00  0.00    -0.001 C 
ATOM     16  C   UNL     1      18.340  17.898  12.263  1.00  0.00     0.007 C 
ATOM     17  C   UNL     1      20.210  18.964  10.953  1.00  0.00     0.012 C 
ATOM     18  C   UNL     1      18.903  15.826  10.478  1.00  0.00     0.000 C 
ATOM     19  C   UNL     1      17.298  16.765  12.265  1.00  0.00     0.005 C 
ATOM     20  C   UNL     1      17.738  15.512  11.450  1.00  0.00     0.003 C 
ATOM     21  C   UNL     1      19.059  14.681   9.474  1.00  0.00     0.031 C 
ATOM     22  C   UNL     1      18.046  14.223  12.300  1.00  0.00    -0.008 C 
ATOM     23  C   UNL     1      19.114  13.342  10.164  1.00  0.00    -0.027 C 
ATOM     24  C   UNL     1      18.568  13.102  11.380  1.00  0.00    -0.065 C 
ATOM     25  C   UNL     1      16.729  13.739  12.990  1.00  0.00     0.014 C 
ATOM     26  C   UNL     1      19.124  14.509  13.383  1.00  0.00     0.016 C 
ATOM     27  C   UNL     1      18.612  11.686  11.920  1.00  0.00     0.063 C 
ATOM     28  C   UNL     1      16.820  12.326  13.588  1.00  0.00     0.033 C 
ATOM     29  C   UNL     1      17.259  11.302  12.534  1.00  0.00     0.118 C 
BRANCH  29  30
ATOM     30  O   UNL     1      17.310  10.012  13.098  1.00  0.00    -0.393 OA
ATOM     31  H   UNL     1      18.263   9.766  13.207  1.00  0.00     0.210 HD
ENDBRANCH  29  30
ENDBRANCH   9  11
ENDBRANCH   1   9
TORSDOF 7
ENDMDL
MODEL 6
REMARK VINA RESULT:    -7.291      4.498      8.995
REMARK INTER + INTRA:         -11.160
REMARK INTER:                  -9.470
REMARK INTRA:                  -1.690
REMARK UNBOUND:                -1.098
REMARK SMILES CC[C@H](CC[C@@H](C)[C@@H]1CC[C@@H]2[C@@H]3CC=C4C[C@@H](O)CC[C@]4(C)[C@H]3CC[C@@]21C)C(C)C
REMARK SMILES IDX 5 1 4 2 3 3 2 4 1 5 28 6 29 7 30 8 6 9 7 10 8 11 9 12 26 13
REMARK SMILES IDX 10 14 11 15 25 16 27 17 12 18 24 19 23 20 13 21 21 22 14 23
REMARK SMILES IDX 15 24 20 25 22 26 16 27 19 28 17 29 18 30
REMARK H PARENT 18 31
REMARK Flexibility Score: inf
ROOT
ATOM      1  C   UNL     1      17.184  12.592   9.912  1.00  0.00     0.004 C 
ENDROOT
BRANCH   1   2
ATOM      2  C   UNL     1      16.748  11.128  10.128  1.00  0.00     0.004 C 
BRANCH   2   3
ATOM      3  C   UNL     1      15.775  10.966  11.325  1.00  0.00    -0.009 C 
BRANCH   3   4
ATOM      4  C   UNL     1      14.388  10.442  10.856  1.00  0.00     0.000 C 
ATOM      5  C   UNL     1      14.106   8.958  11.101  1.00  0.00     0.004 C 
ENDBRANCH   3   4
BRANCH   3   6
ATOM      6  C   UNL     1      16.400  10.253  12.574  1.00  0.00    -0.014 C 
ATOM      7  C   UNL     1      16.647  11.161  13.788  1.00  0.00     0.007 C 
ATOM      8  C   UNL     1      17.674   9.474  12.222  1.00  0.00     0.007 C 
ENDBRANCH   3   6
ENDBRANCH   2   3
ENDBRANCH   1   2
BRANCH   1   9
ATOM      9  C   UNL     1      17.753  13.272  11.188  1.00  0.00    -0.011 C 
ATOM     10  C   UNL     1      19.213  12.811  11.415  1.00  0.00     0.008 C 
BRANCH   9  11
ATOM     11  C   UNL     1      17.564  14.828  11.101  1.00  0.00    -0.002 C 
ATOM     12  C   UNL     1      18.836  15.667  11.204  1.00  0.00     0.005 C 
ATOM     13  C   UNL     1      16.505  15.516  12.022  1.00  0.00    -0.026 C 
ATOM     14  C   UNL     1      18.360  17.099  11.450  1.00  0.00     0.005 C 
ATOM     15  C   UNL     1      16.886  17.029  11.926  1.00  0.00    -0.001 C 
ATOM     16  C   UNL     1      16.487  15.017  13.513  1.00  0.00     0.007 C 
ATOM     17  C   UNL     1      15.086  15.290  11.436  1.00  0.00     0.012 C 
ATOM     18  C   UNL     1      16.588  17.794  13.240  1.00  0.00     0.000 C 
ATOM     19  C   UNL     1      17.515  15.703  14.430  1.00  0.00     0.005 C 
ATOM     20  C   UNL     1      17.398  17.256  14.446  1.00  0.00     0.003 C 
ATOM     21  C   UNL     1      16.796  19.306  13.113  1.00  0.00     0.031 C 
ATOM     22  C   UNL     1      16.885  17.885  15.795  1.00  0.00    -0.008 C 
ATOM     23  C   UNL     1      16.574  20.009  14.427  1.00  0.00    -0.027 C 
ATOM     24  C   UNL     1      16.720  19.409  15.632  1.00  0.00    -0.065 C 
ATOM     25  C   UNL     1      17.935  17.608  16.920  1.00  0.00     0.014 C 
ATOM     26  C   UNL     1      15.511  17.285  16.207  1.00  0.00     0.016 C 
ATOM     27  C   UNL     1      16.558  20.255  16.880  1.00  0.00     0.063 C 
ATOM     28  C   UNL     1      17.711  18.430  18.199  1.00  0.00     0.033 C 
ATOM     29  C   UNL     1      17.662  19.932  17.895  1.00  0.00     0.118 C 
BRANCH  29  30
ATOM     30  O   UNL     1      17.483  20.666  19.084  1.00  0.00    -0.393 OA
ATOM     31  H   UNL     1      17.590  20.043  19.846  1.00  0.00     0.210 HD
ENDBRANCH  29  30
ENDBRANCH   9  11
ENDBRANCH   1   9
TORSDOF 7
ENDMDL
MODEL 7
REMARK VINA RESULT:    -7.243      1.638      2.544
REMARK INTER + INTRA:         -11.093
REMARK INTER:                  -9.566
REMARK INTRA:                  -1.527
REMARK UNBOUND:                -1.098
REMARK SMILES CC[C@H](CC[C@@H](C)[C@@H]1CC[C@@H]2[C@@H]3CC=C4C[C@@H](O)CC[C@]4(C)[C@H]3CC[C@@]21C)C(C)C
REMARK SMILES IDX 5 1 4 2 3 3 2 4 1 5 28 6 29 7 30 8 6 9 7 10 8 11 9 12 26 13
REMARK SMILES IDX 10 14 11 15 25 16 27 17 12 18 24 19 23 20 13 21 21 22 14 23
REMARK SMILES IDX 15 24 20 25 22 26 16 27 19 28 17 29 18 30
REMARK H PARENT 18 31
REMARK Flexibility Score: inf
ROOT
ATOM      1  C   UNL     1      17.506  20.715  10.497  1.00  0.00     0.004 C 
ENDROOT
BRANCH   1   2
ATOM      2  C   UNL     1      17.752  21.900   9.540  1.00  0.00     0.004 C 
BRANCH   2   3
ATOM      3  C   UNL     1      19.160  22.525   9.715  1.00  0.00    -0.009 C 
BRANCH   3   4
ATOM      4  C   UNL     1      20.271  21.441   9.639  1.00  0.00     0.000 C 
ATOM      5  C   UNL     1      20.624  20.930   8.239  1.00  0.00     0.004 C 
ENDBRANCH   3   4
BRANCH   3   6
ATOM      6  C   UNL     1      19.399  23.825   8.871  1.00  0.00    -0.014 C 
ATOM      7  C   UNL     1      20.683  24.597   9.210  1.00  0.00     0.007 C 
ATOM      8  C   UNL     1      18.188  24.766   8.896  1.00  0.00     0.007 C 
ENDBRANCH   3   6
ENDBRANCH   2   3
ENDBRANCH   1   2
BRANCH   1   9
ATOM      9  C   UNL     1      17.160  19.385   9.772  1.00  0.00    -0.011 C 
ATOM     10  C   UNL     1      16.728  19.684   8.317  1.00  0.00     0.008 C 
BRANCH   9  11
ATOM     11  C   UNL     1      18.352  18.372   9.906  1.00  0.00    -0.002 C 
ATOM     12  C   UNL     1      18.782  17.666   8.622  1.00  0.00     0.005 C 
ATOM     13  C   UNL     1      18.292  17.273  11.016  1.00  0.00    -0.026 C 
ATOM     14  C   UNL     1      19.677  16.512   9.073  1.00  0.00     0.005 C 
ATOM     15  C   UNL     1      19.414  16.274  10.582  1.00  0.00    -0.001 C 
ATOM     16  C   UNL     1      16.904  16.552  11.171  1.00  0.00     0.007 C 
ATOM     17  C   UNL     1      18.647  17.904  12.388  1.00  0.00     0.012 C 
ATOM     18  C   UNL     1      19.077  14.811  10.964  1.00  0.00     0.000 C 
ATOM     19  C   UNL     1      16.680  15.377  10.202  1.00  0.00     0.005 C 
ATOM     20  C   UNL     1      17.793  14.290  10.272  1.00  0.00     0.003 C 
ATOM     21  C   UNL     1      20.234  13.843  10.700  1.00  0.00     0.031 C 
ATOM     22  C   UNL     1      17.351  12.904  10.876  1.00  0.00    -0.008 C 
ATOM     23  C   UNL     1      19.847  12.419  11.007  1.00  0.00    -0.027 C 
ATOM     24  C   UNL     1      18.571  11.966  10.980  1.00  0.00    -0.065 C 
ATOM     25  C   UNL     1      16.291  12.250   9.930  1.00  0.00     0.014 C 
ATOM     26  C   UNL     1      16.744  13.078  12.296  1.00  0.00     0.016 C 
ATOM     27  C   UNL     1      18.327  10.489  11.218  1.00  0.00     0.063 C 
ATOM     28  C   UNL     1      16.014  10.769  10.233  1.00  0.00     0.033 C 
ATOM     29  C   UNL     1      17.306   9.944  10.211  1.00  0.00     0.118 C 
BRANCH  29  30
ATOM     30  O   UNL     1      17.024   8.587  10.465  1.00  0.00    -0.393 OA
ATOM     31  H   UNL     1      16.450   8.253   9.730  1.00  0.00     0.210 HD
ENDBRANCH  29  30
ENDBRANCH   9  11
ENDBRANCH   1   9
TORSDOF 7
ENDMDL
MODEL 8
REMARK VINA RESULT:    -7.236     14.734     19.456
REMARK INTER + INTRA:         -11.084
REMARK INTER:                  -9.008
REMARK INTRA:                  -2.076
REMARK UNBOUND:                -1.098
REMARK SMILES CC[C@H](CC[C@@H](C)[C@@H]1CC[C@@H]2[C@@H]3CC=C4C[C@@H](O)CC[C@]4(C)[C@H]3CC[C@@]21C)C(C)C
REMARK SMILES IDX 5 1 4 2 3 3 2 4 1 5 28 6 29 7 30 8 6 9 7 10 8 11 9 12 26 13
REMARK SMILES IDX 10 14 11 15 25 16 27 17 12 18 24 19 23 20 13 21 21 22 14 23
REMARK SMILES IDX 15 24 20 25 22 26 16 27 19 28 17 29 18 30
REMARK H PARENT 18 31
REMARK Flexibility Score: inf
ROOT
ATOM      1  C   UNL     1       3.316   9.783  21.151  1.00  0.00     0.004 C 
ENDROOT
BRANCH   1   2
ATOM      2  C   UNL     1       2.276  10.471  22.059  1.00  0.00     0.004 C 
BRANCH   2   3
ATOM      3  C   UNL     1       2.243   9.870  23.488  1.00  0.00    -0.009 C 
BRANCH   3   4
ATOM      4  C   UNL     1       3.294   8.737  23.648  1.00  0.00     0.000 C 
ATOM      5  C   UNL     1       2.742   7.328  23.878  1.00  0.00     0.004 C 
ENDBRANCH   3   4
BRANCH   3   6
ATOM      6  C   UNL     1       2.193  10.938  24.636  1.00  0.00    -0.014 C 
ATOM      7  C   UNL     1       2.015  12.391  24.169  1.00  0.00     0.007 C 
ATOM      8  C   UNL     1       3.391  10.826  25.588  1.00  0.00     0.007 C 
ENDBRANCH   3   6
ENDBRANCH   2   3
ENDBRANCH   1   2
BRANCH   1   9
ATOM      9  C   UNL     1       4.419  10.741  20.621  1.00  0.00    -0.011 C 
ATOM     10  C   UNL     1       4.254  10.929  19.094  1.00  0.00     0.008 C 
BRANCH   9  11
ATOM     11  C   UNL     1       4.418  12.075  21.449  1.00  0.00    -0.002 C 
ATOM     12  C   UNL     1       3.754  13.278  20.783  1.00  0.00     0.005 C 
ATOM     13  C   UNL     1       5.762  12.590  22.056  1.00  0.00    -0.026 C 
ATOM     14  C   UNL     1       4.194  14.490  21.605  1.00  0.00     0.005 C 
ATOM     15  C   UNL     1       5.429  14.069  22.441  1.00  0.00    -0.001 C 
ATOM     16  C   UNL     1       7.006  12.508  21.099  1.00  0.00     0.007 C 
ATOM     17  C   UNL     1       6.099  11.775  23.333  1.00  0.00     0.012 C 
ATOM     18  C   UNL     1       6.659  15.002  22.306  1.00  0.00     0.000 C 
ATOM     19  C   UNL     1       7.154  13.700  20.136  1.00  0.00     0.005 C 
ATOM     20  C   UNL     1       7.197  15.081  20.856  1.00  0.00     0.003 C 
ATOM     21  C   UNL     1       6.398  16.414  22.837  1.00  0.00     0.031 C 
ATOM     22  C   UNL     1       8.582  15.829  20.809  1.00  0.00    -0.008 C 
ATOM     23  C   UNL     1       7.586  17.317  22.619  1.00  0.00    -0.027 C 
ATOM     24  C   UNL     1       8.505  17.123  21.644  1.00  0.00    -0.065 C 
ATOM     25  C   UNL     1       8.909  16.204  19.326  1.00  0.00     0.014 C 
ATOM     26  C   UNL     1       9.719  14.940  21.384  1.00  0.00     0.016 C 
ATOM     27  C   UNL     1       9.600  18.158  21.473  1.00  0.00     0.063 C 
ATOM     28  C   UNL     1      10.066  17.204  19.176  1.00  0.00     0.033 C 
ATOM     29  C   UNL     1       9.809  18.480  19.988  1.00  0.00     0.118 C 
BRANCH  29  30
ATOM     30  O   UNL     1      10.869  19.391  19.815  1.00  0.00    -0.393 OA
ATOM     31  H   UNL     1      10.663  20.201  20.347  1.00  0.00     0.210 HD
ENDBRANCH  29  30
ENDBRANCH   9  11
ENDBRANCH   1   9
TORSDOF 7
ENDMDL
MODEL 9
REMARK VINA RESULT:    -7.116     15.221     19.870
REMARK INTER + INTRA:         -10.918
REMARK INTER:                  -8.539
REMARK INTRA:                  -2.379
REMARK UNBOUND:                -1.098
REMARK SMILES CC[C@H](CC[C@@H](C)[C@@H]1CC[C@@H]2[C@@H]3CC=C4C[C@@H](O)CC[C@]4(C)[C@H]3CC[C@@]21C)C(C)C
REMARK SMILES IDX 5 1 4 2 3 3 2 4 1 5 28 6 29 7 30 8 6 9 7 10 8 11 9 12 26 13
REMARK SMILES IDX 10 14 11 15 25 16 27 17 12 18 24 19 23 20 13 21 21 22 14 23
REMARK SMILES IDX 15 24 20 25 22 26 16 27 19 28 17 29 18 30
REMARK H PARENT 18 31
REMARK Flexibility Score: inf
ROOT
ATOM      1  C   UNL     1       1.889  12.116  24.164  1.00  0.00     0.004 C 
ENDROOT
BRANCH   1   2
ATOM      2  C   UNL     1       1.881  11.071  23.029  1.00  0.00     0.004 C 
BRANCH   2   3
ATOM      3  C   UNL     1       2.511   9.720  23.459  1.00  0.00    -0.009 C 
BRANCH   3   4
ATOM      4  C   UNL     1       3.620   9.275  22.466  1.00  0.00     0.000 C 
ATOM      5  C   UNL     1       3.502   9.805  21.034  1.00  0.00     0.004 C 
ENDBRANCH   3   4
BRANCH   3   6
ATOM      6  C   UNL     1       2.866   9.629  24.984  1.00  0.00    -0.014 C 
ATOM      7  C   UNL     1       4.364   9.724  25.311  1.00  0.00     0.007 C 
ATOM      8  C   UNL     1       2.250   8.394  25.653  1.00  0.00     0.007 C 
ENDBRANCH   3   6
ENDBRANCH   2   3
ENDBRANCH   1   2
BRANCH   1   9
ATOM      9  C   UNL     1       2.782  13.353  23.871  1.00  0.00    -0.011 C 
ATOM     10  C   UNL     1       3.291  13.953  25.204  1.00  0.00     0.008 C 
BRANCH   9  11
ATOM     11  C   UNL     1       3.914  12.973  22.851  1.00  0.00    -0.002 C 
ATOM     12  C   UNL     1       5.286  12.675  23.449  1.00  0.00     0.005 C 
ATOM     13  C   UNL     1       4.160  13.896  21.614  1.00  0.00    -0.026 C 
ATOM     14  C   UNL     1       6.257  12.692  22.267  1.00  0.00     0.005 C 
ATOM     15  C   UNL     1       5.555  13.419  21.092  1.00  0.00    -0.001 C 
ATOM     16  C   UNL     1       4.154  15.439  21.917  1.00  0.00     0.007 C 
ATOM     17  C   UNL     1       3.073  13.626  20.541  1.00  0.00     0.012 C 
ATOM     18  C   UNL     1       6.370  14.573  20.458  1.00  0.00     0.000 C 
ATOM     19  C   UNL     1       5.497  16.000  22.419  1.00  0.00     0.005 C 
ATOM     20  C   UNL     1       6.691  15.707  21.464  1.00  0.00     0.003 C 
ATOM     21  C   UNL     1       7.664  14.095  19.792  1.00  0.00     0.031 C 
ATOM     22  C   UNL     1       7.294  16.961  20.726  1.00  0.00    -0.008 C 
ATOM     23  C   UNL     1       8.471  15.249  19.254  1.00  0.00    -0.027 C 
ATOM     24  C   UNL     1       8.391  16.510  19.741  1.00  0.00    -0.065 C 
ATOM     25  C   UNL     1       7.929  17.920  21.785  1.00  0.00     0.014 C 
ATOM     26  C   UNL     1       6.199  17.721  19.926  1.00  0.00     0.016 C 
ATOM     27  C   UNL     1       9.327  17.560  19.174  1.00  0.00     0.063 C 
ATOM     28  C   UNL     1       8.821  19.015  21.180  1.00  0.00     0.033 C 
ATOM     29  C   UNL     1       9.923  18.414  20.300  1.00  0.00     0.118 C 
BRANCH  29  30
ATOM     30  O   UNL     1      10.743  19.434  19.778  1.00  0.00    -0.393 OA
ATOM     31  H   UNL     1      10.866  19.259  18.810  1.00  0.00     0.210 HD
ENDBRANCH  29  30
ENDBRANCH   9  11
ENDBRANCH   1   9
TORSDOF 7
ENDMDL
