MODEL 1
REMARK VINA RESULT:    -6.378      0.000      0.000
REMARK INTER + INTRA:          -7.518
REMARK INTER:                  -7.497
REMARK INTRA:                  -0.021
REMARK UNBOUND:                -0.021
REMARK SMILES Oc1ccc(-c2[o+]c3cc(O)cc(O)c3cc2O)cc1
REMARK SMILES IDX 6 1 7 2 8 3 9 4 10 5 12 6 13 7 15 8 16 9 17 10 5 11 4 12
REMARK SMILES IDX 3 13 2 14 19 15 20 16 1 17 18 19 11 21 14 23
REMARK H PARENT 1 18 18 20 11 22 14 24
REMARK Flexibility Score: inf
ROOT
ATOM      1  C   UNL     1     -21.869  33.952 -13.566  1.00  0.00     0.401 A 
ATOM      2  O   UNL     1     -21.242  32.940 -12.975  1.00  0.00    -0.202 OA
ATOM      3  C   UNL     1     -19.935  32.721 -13.092  1.00  0.00     0.368 A 
ATOM      4  C   UNL     1     -19.365  31.632 -12.429  1.00  0.00     0.162 A 
ATOM      5  C   UNL     1     -17.994  31.381 -12.533  1.00  0.00     0.128 A 
ATOM      6  C   UNL     1     -17.190  32.225 -13.303  1.00  0.00     0.093 A 
ATOM      7  C   UNL     1     -17.737  33.323 -13.978  1.00  0.00     0.136 A 
ATOM      8  C   UNL     1     -19.129  33.580 -13.877  1.00  0.00     0.125 A 
ATOM      9  C   UNL     1     -19.766  34.649 -14.528  1.00  0.00     0.078 A 
ATOM     10  C   UNL     1     -21.143  34.836 -14.385  1.00  0.00     0.223 A 
ENDROOT
BRANCH   1  11
ATOM     11  C   UNL     1     -23.327  34.094 -13.349  1.00  0.00     0.084 A 
ATOM     12  C   UNL     1     -23.876  34.128 -12.054  1.00  0.00     0.022 A 
ATOM     13  C   UNL     1     -25.259  34.240 -11.876  1.00  0.00     0.047 A 
ATOM     14  C   UNL     1     -26.109  34.305 -12.982  1.00  0.00     0.115 A 
ATOM     15  C   UNL     1     -24.190  34.140 -14.458  1.00  0.00     0.022 A 
ATOM     16  C   UNL     1     -25.571  34.253 -14.275  1.00  0.00     0.047 A 
BRANCH  14  17
ATOM     17  O   UNL     1     -27.484  34.418 -12.788  1.00  0.00    -0.508 OA
ATOM     18  H   UNL     1     -28.105  33.627 -12.925  1.00  0.00     0.293 HD
ENDBRANCH  14  17
ENDBRANCH   1  11
BRANCH  10  19
ATOM     19  O   UNL     1     -21.785  35.868 -15.072  1.00  0.00    -0.500 OA
ATOM     20  H   UNL     1     -22.482  35.680 -15.785  1.00  0.00     0.294 HD
ENDBRANCH  10  19
BRANCH   5  21
ATOM     21  O   UNL     1     -17.419  30.297 -11.875  1.00  0.00    -0.507 OA
ATOM     22  H   UNL     1     -16.415  30.226 -11.748  1.00  0.00     0.293 HD
ENDBRANCH   5  21
BRANCH   7  23
ATOM     23  O   UNL     1     -16.864  34.120 -14.724  1.00  0.00    -0.507 OA
ATOM     24  H   UNL     1     -17.101  35.025 -15.104  1.00  0.00     0.293 HD
ENDBRANCH   7  23
TORSDOF 5
ENDMDL
MODEL 2
REMARK VINA RESULT:    -6.330      1.115      2.879
REMARK INTER + INTRA:          -7.461
REMARK INTER:                  -7.407
REMARK INTRA:                  -0.054
REMARK UNBOUND:                -0.021
REMARK SMILES Oc1ccc(-c2[o+]c3cc(O)cc(O)c3cc2O)cc1
REMARK SMILES IDX 6 1 7 2 8 3 9 4 10 5 12 6 13 7 15 8 16 9 17 10 5 11 4 12
REMARK SMILES IDX 3 13 2 14 19 15 20 16 1 17 18 19 11 21 14 23
REMARK H PARENT 1 18 18 20 11 22 14 24
REMARK Flexibility Score: inf
ROOT
ATOM      1  C   UNL     1     -22.216  33.018 -13.315  1.00  0.00     0.401 A 
ATOM      2  O   UNL     1     -21.197  33.683 -13.852  1.00  0.00    -0.202 OA
ATOM      3  C   UNL     1     -19.926  33.327 -13.688  1.00  0.00     0.368 A 
ATOM      4  C   UNL     1     -18.923  34.087 -14.295  1.00  0.00     0.162 A 
ATOM      5  C   UNL     1     -17.580  33.734 -14.142  1.00  0.00     0.128 A 
ATOM      6  C   UNL     1     -17.237  32.616 -13.378  1.00  0.00     0.093 A 
ATOM      7  C   UNL     1     -18.224  31.837 -12.758  1.00  0.00     0.136 A 
ATOM      8  C   UNL     1     -19.589  32.194 -12.910  1.00  0.00     0.125 A 
ATOM      9  C   UNL     1     -20.644  31.481 -12.315  1.00  0.00     0.078 A 
ATOM     10  C   UNL     1     -21.964  31.895 -12.506  1.00  0.00     0.223 A 
ENDROOT
BRANCH   1  11
ATOM     11  C   UNL     1     -23.588  33.508 -13.580  1.00  0.00     0.084 A 
ATOM     12  C   UNL     1     -24.063  33.682 -14.894  1.00  0.00     0.022 A 
ATOM     13  C   UNL     1     -25.355  34.169 -15.118  1.00  0.00     0.047 A 
ATOM     14  C   UNL     1     -26.181  34.499 -14.040  1.00  0.00     0.115 A 
ATOM     15  C   UNL     1     -24.417  33.861 -12.502  1.00  0.00     0.022 A 
ATOM     16  C   UNL     1     -25.708  34.346 -12.730  1.00  0.00     0.047 A 
BRANCH  14  17
ATOM     17  O   UNL     1     -27.466  34.981 -14.280  1.00  0.00    -0.508 OA
ATOM     18  H   UNL     1     -27.759  35.269 -15.208  1.00  0.00     0.293 HD
ENDBRANCH  14  17
ENDBRANCH   1  11
BRANCH  10  19
ATOM     19  O   UNL     1     -23.009  31.217 -11.875  1.00  0.00    -0.500 OA
ATOM     20  H   UNL     1     -23.917  31.647 -11.738  1.00  0.00     0.294 HD
ENDBRANCH  10  19
BRANCH   5  21
ATOM     21  O   UNL     1     -16.574  34.487 -14.744  1.00  0.00    -0.507 OA
ATOM     22  H   UNL     1     -15.612  34.432 -14.430  1.00  0.00     0.293 HD
ENDBRANCH   5  21
BRANCH   7  23
ATOM     23  O   UNL     1     -17.799  30.733 -12.014  1.00  0.00    -0.507 OA
ATOM     24  H   UNL     1     -17.374  29.907 -12.412  1.00  0.00     0.293 HD
ENDBRANCH   7  23
TORSDOF 5
ENDMDL
MODEL 3
REMARK VINA RESULT:    -6.276      7.678     10.194
REMARK INTER + INTRA:          -7.398
REMARK INTER:                  -7.120
REMARK INTRA:                  -0.278
REMARK UNBOUND:                -0.021
REMARK SMILES Oc1ccc(-c2[o+]c3cc(O)cc(O)c3cc2O)cc1
REMARK SMILES IDX 6 1 7 2 8 3 9 4 10 5 12 6 13 7 15 8 16 9 17 10 5 11 4 12
REMARK SMILES IDX 3 13 2 14 19 15 20 16 1 17 18 19 11 21 14 23
REMARK H PARENT 1 18 18 20 11 22 14 24
REMARK Flexibility Score: inf
ROOT
ATOM      1  C   UNL     1     -25.760  29.047 -17.622  1.00  0.00     0.401 A 
ATOM      2  O   UNL     1     -25.478  28.421 -18.761  1.00  0.00    -0.202 OA
ATOM      3  C   UNL     1     -26.408  27.977 -19.600  1.00  0.00     0.368 A 
ATOM      4  C   UNL     1     -26.013  27.333 -20.776  1.00  0.00     0.162 A 
ATOM      5  C   UNL     1     -26.971  26.859 -21.677  1.00  0.00     0.128 A 
ATOM      6  C   UNL     1     -28.330  27.028 -21.401  1.00  0.00     0.093 A 
ATOM      7  C   UNL     1     -28.752  27.669 -20.229  1.00  0.00     0.136 A 
ATOM      8  C   UNL     1     -27.783  28.151 -19.310  1.00  0.00     0.125 A 
ATOM      9  C   UNL     1     -28.113  28.793 -18.106  1.00  0.00     0.078 A 
ATOM     10  C   UNL     1     -27.103  29.237 -17.248  1.00  0.00     0.223 A 
ENDROOT
BRANCH   1  11
ATOM     11  C   UNL     1     -24.634  29.505 -16.778  1.00  0.00     0.084 A 
ATOM     12  C   UNL     1     -23.902  30.665 -17.096  1.00  0.00     0.022 A 
ATOM     13  C   UNL     1     -22.827  31.063 -16.295  1.00  0.00     0.047 A 
ATOM     14  C   UNL     1     -22.461  30.307 -15.179  1.00  0.00     0.115 A 
ATOM     15  C   UNL     1     -24.247  28.738 -15.665  1.00  0.00     0.022 A 
ATOM     16  C   UNL     1     -23.173  29.141 -14.867  1.00  0.00     0.047 A 
BRANCH  14  17
ATOM     17  O   UNL     1     -21.389  30.718 -14.390  1.00  0.00    -0.508 OA
ATOM     18  H   UNL     1     -20.571  31.159 -14.797  1.00  0.00     0.293 HD
ENDBRANCH  14  17
ENDBRANCH   1  11
BRANCH  10  19
ATOM     19  O   UNL     1     -27.431  29.830 -16.028  1.00  0.00    -0.500 OA
ATOM     20  H   UNL     1     -27.527  29.284 -15.179  1.00  0.00     0.294 HD
ENDBRANCH  10  19
BRANCH   5  21
ATOM     21  O   UNL     1     -26.584  26.216 -22.851  1.00  0.00    -0.507 OA
ATOM     22  H   UNL     1     -26.011  26.682 -23.545  1.00  0.00     0.293 HD
ENDBRANCH   5  21
BRANCH   7  23
ATOM     23  O   UNL     1     -30.129  27.802 -20.029  1.00  0.00    -0.507 OA
ATOM     24  H   UNL     1     -30.833  27.322 -20.572  1.00  0.00     0.293 HD
ENDBRANCH   7  23
TORSDOF 5
ENDMDL
MODEL 4
REMARK VINA RESULT:    -6.258      8.648     10.968
REMARK INTER + INTRA:          -7.377
REMARK INTER:                  -7.099
REMARK INTRA:                  -0.278
REMARK UNBOUND:                -0.021
REMARK SMILES Oc1ccc(-c2[o+]c3cc(O)cc(O)c3cc2O)cc1
REMARK SMILES IDX 6 1 7 2 8 3 9 4 10 5 12 6 13 7 15 8 16 9 17 10 5 11 4 12
REMARK SMILES IDX 3 13 2 14 19 15 20 16 1 17 18 19 11 21 14 23
REMARK H PARENT 1 18 18 20 11 22 14 24
REMARK Flexibility Score: inf
ROOT
ATOM      1  C   UNL     1     -25.405  28.415 -19.146  1.00  0.00     0.401 A 
ATOM      2  O   UNL     1     -26.735  28.437 -19.141  1.00  0.00    -0.202 OA
ATOM      3  C   UNL     1     -27.478  27.897 -20.102  1.00  0.00     0.368 A 
ATOM      4  C   UNL     1     -28.870  27.968 -20.006  1.00  0.00     0.162 A 
ATOM      5  C   UNL     1     -29.675  27.406 -21.001  1.00  0.00     0.128 A 
ATOM      6  C   UNL     1     -29.085  26.771 -22.097  1.00  0.00     0.093 A 
ATOM      7  C   UNL     1     -27.692  26.687 -22.216  1.00  0.00     0.136 A 
ATOM      8  C   UNL     1     -26.871  27.258 -21.209  1.00  0.00     0.125 A 
ATOM      9  C   UNL     1     -25.467  27.233 -21.252  1.00  0.00     0.078 A 
ATOM     10  C   UNL     1     -24.724  27.821 -20.225  1.00  0.00     0.223 A 
ENDROOT
BRANCH   1  11
ATOM     11  C   UNL     1     -24.690  29.042 -18.011  1.00  0.00     0.084 A 
ATOM     12  C   UNL     1     -24.580  28.394 -16.766  1.00  0.00     0.022 A 
ATOM     13  C   UNL     1     -23.920  29.018 -15.702  1.00  0.00     0.047 A 
ATOM     14  C   UNL     1     -23.375  30.295 -15.861  1.00  0.00     0.115 A 
ATOM     15  C   UNL     1     -24.158  30.334 -18.157  1.00  0.00     0.022 A 
ATOM     16  C   UNL     1     -23.498  30.953 -17.092  1.00  0.00     0.047 A 
BRANCH  14  17
ATOM     17  O   UNL     1     -22.719  30.902 -14.793  1.00  0.00    -0.508 OA
ATOM     18  H   UNL     1     -23.034  30.773 -13.837  1.00  0.00     0.293 HD
ENDBRANCH  14  17
ENDBRANCH   1  11
BRANCH  10  19
ATOM     19  O   UNL     1     -23.330  27.841 -20.291  1.00  0.00    -0.500 OA
ATOM     20  H   UNL     1     -22.808  27.097 -20.741  1.00  0.00     0.294 HD
ENDBRANCH  10  19
BRANCH   5  21
ATOM     21  O   UNL     1     -31.063  27.473 -20.913  1.00  0.00    -0.507 OA
ATOM     22  H   UNL     1     -31.558  27.151 -20.089  1.00  0.00     0.293 HD
ENDBRANCH   5  21
BRANCH   7  23
ATOM     23  O   UNL     1     -27.181  26.032 -23.340  1.00  0.00    -0.507 OA
ATOM     24  H   UNL     1     -27.189  25.030 -23.469  1.00  0.00     0.293 HD
ENDBRANCH   7  23
TORSDOF 5
ENDMDL
MODEL 5
REMARK VINA RESULT:    -6.248      6.690      7.599
REMARK INTER + INTRA:          -7.365
REMARK INTER:                  -7.064
REMARK INTRA:                  -0.300
REMARK UNBOUND:                -0.021
REMARK SMILES Oc1ccc(-c2[o+]c3cc(O)cc(O)c3cc2O)cc1
REMARK SMILES IDX 6 1 7 2 8 3 9 4 10 5 12 6 13 7 15 8 16 9 17 10 5 11 4 12
REMARK SMILES IDX 3 13 2 14 19 15 20 16 1 17 18 19 11 21 14 23
REMARK H PARENT 1 18 18 20 11 22 14 24
REMARK Flexibility Score: inf
ROOT
ATOM      1  C   UNL     1     -24.381  29.586 -18.356  1.00  0.00     0.401 A 
ATOM      2  O   UNL     1     -24.231  29.159 -17.106  1.00  0.00    -0.202 OA
ATOM      3  C   UNL     1     -23.611  29.863 -16.163  1.00  0.00     0.368 A 
ATOM      4  C   UNL     1     -23.506  29.332 -14.875  1.00  0.00     0.162 A 
ATOM      5  C   UNL     1     -22.862  30.052 -13.865  1.00  0.00     0.128 A 
ATOM      6  C   UNL     1     -22.319  31.308 -14.145  1.00  0.00     0.093 A 
ATOM      7  C   UNL     1     -22.410  31.863 -15.428  1.00  0.00     0.136 A 
ATOM      8  C   UNL     1     -23.062  31.134 -16.457  1.00  0.00     0.125 A 
ATOM      9  C   UNL     1     -23.189  31.605 -17.775  1.00  0.00     0.078 A 
ATOM     10  C   UNL     1     -23.841  30.829 -18.736  1.00  0.00     0.223 A 
ENDROOT
BRANCH   1  11
ATOM     11  C   UNL     1     -25.101  28.714 -19.311  1.00  0.00     0.084 A 
ATOM     12  C   UNL     1     -24.410  27.861 -20.192  1.00  0.00     0.022 A 
ATOM     13  C   UNL     1     -25.113  27.063 -21.101  1.00  0.00     0.047 A 
ATOM     14  C   UNL     1     -26.508  27.116 -21.152  1.00  0.00     0.115 A 
ATOM     15  C   UNL     1     -26.504  28.776 -19.383  1.00  0.00     0.022 A 
ATOM     16  C   UNL     1     -27.203  27.977 -20.292  1.00  0.00     0.047 A 
BRANCH  14  17
ATOM     17  O   UNL     1     -27.194  26.314 -22.062  1.00  0.00    -0.508 OA
ATOM     18  H   UNL     1     -27.531  26.684 -22.944  1.00  0.00     0.293 HD
ENDBRANCH  14  17
ENDBRANCH   1  11
BRANCH  10  19
ATOM     19  O   UNL     1     -23.923  31.273 -20.056  1.00  0.00    -0.500 OA
ATOM     20  H   UNL     1     -24.816  31.442 -20.506  1.00  0.00     0.294 HD
ENDBRANCH  10  19
BRANCH   5  21
ATOM     21  O   UNL     1     -22.754  29.529 -12.579  1.00  0.00    -0.507 OA
ATOM     22  H   UNL     1     -23.518  29.023 -12.147  1.00  0.00     0.293 HD
ENDBRANCH   5  21
BRANCH   7  23
ATOM     23  O   UNL     1     -21.845  33.126 -15.624  1.00  0.00    -0.507 OA
ATOM     24  H   UNL     1     -20.866  33.289 -15.815  1.00  0.00     0.293 HD
ENDBRANCH   7  23
TORSDOF 5
ENDMDL
MODEL 6
REMARK VINA RESULT:    -6.243      8.459      9.586
REMARK INTER + INTRA:          -7.358
REMARK INTER:                  -7.037
REMARK INTRA:                  -0.321
REMARK UNBOUND:                -0.021
REMARK SMILES Oc1ccc(-c2[o+]c3cc(O)cc(O)c3cc2O)cc1
REMARK SMILES IDX 6 1 7 2 8 3 9 4 10 5 12 6 13 7 15 8 16 9 17 10 5 11 4 12
REMARK SMILES IDX 3 13 2 14 19 15 20 16 1 17 18 19 11 21 14 23
REMARK H PARENT 1 18 18 20 11 22 14 24
REMARK Flexibility Score: inf
ROOT
ATOM      1  C   UNL     1     -22.027  29.950 -21.453  1.00  0.00     0.401 A 
ATOM      2  O   UNL     1     -22.276  31.256 -21.483  1.00  0.00    -0.202 OA
ATOM      3  C   UNL     1     -21.324  32.183 -21.446  1.00  0.00     0.368 A 
ATOM      4  C   UNL     1     -21.685  33.532 -21.485  1.00  0.00     0.162 A 
ATOM      5  C   UNL     1     -20.703  34.526 -21.450  1.00  0.00     0.128 A 
ATOM      6  C   UNL     1     -19.355  34.170 -21.376  1.00  0.00     0.093 A 
ATOM      7  C   UNL     1     -18.966  32.825 -21.335  1.00  0.00     0.136 A 
ATOM      8  C   UNL     1     -19.960  31.812 -21.368  1.00  0.00     0.125 A 
ATOM      9  C   UNL     1     -19.665  30.439 -21.318  1.00  0.00     0.078 A 
ATOM     10  C   UNL     1     -20.698  29.499 -21.350  1.00  0.00     0.223 A 
ENDROOT
BRANCH   1  11
ATOM     11  C   UNL     1     -23.175  29.017 -21.512  1.00  0.00     0.084 A 
ATOM     12  C   UNL     1     -23.612  28.467 -22.731  1.00  0.00     0.022 A 
ATOM     13  C   UNL     1     -24.714  27.606 -22.763  1.00  0.00     0.047 A 
ATOM     14  C   UNL     1     -25.399  27.294 -21.585  1.00  0.00     0.115 A 
ATOM     15  C   UNL     1     -23.881  28.714 -20.334  1.00  0.00     0.022 A 
ATOM     16  C   UNL     1     -24.980  27.853 -20.370  1.00  0.00     0.047 A 
BRANCH  14  17
ATOM     17  O   UNL     1     -26.493  26.433 -21.633  1.00  0.00    -0.508 OA
ATOM     18  H   UNL     1     -26.608  25.765 -22.387  1.00  0.00     0.293 HD
ENDBRANCH  14  17
ENDBRANCH   1  11
BRANCH  10  19
ATOM     19  O   UNL     1     -20.409  28.137 -21.250  1.00  0.00    -0.500 OA
ATOM     20  H   UNL     1     -19.951  27.633 -22.002  1.00  0.00     0.294 HD
ENDBRANCH  10  19
BRANCH   5  21
ATOM     21  O   UNL     1     -21.056  35.873 -21.489  1.00  0.00    -0.507 OA
ATOM     22  H   UNL     1     -22.025  36.169 -21.458  1.00  0.00     0.293 HD
ENDBRANCH   5  21
BRANCH   7  23
ATOM     23  O   UNL     1     -17.597  32.552 -21.265  1.00  0.00    -0.507 OA
ATOM     24  H   UNL     1     -16.943  33.064 -20.690  1.00  0.00     0.293 HD
ENDBRANCH   7  23
TORSDOF 5
ENDMDL
MODEL 7
REMARK VINA RESULT:    -6.240      5.950      8.209
REMARK INTER + INTRA:          -7.355
REMARK INTER:                  -7.112
REMARK INTRA:                  -0.244
REMARK UNBOUND:                -0.021
REMARK SMILES Oc1ccc(-c2[o+]c3cc(O)cc(O)c3cc2O)cc1
REMARK SMILES IDX 6 1 7 2 8 3 9 4 10 5 12 6 13 7 15 8 16 9 17 10 5 11 4 12
REMARK SMILES IDX 3 13 2 14 19 15 20 16 1 17 18 19 11 21 14 23
REMARK H PARENT 1 18 18 20 11 22 14 24
REMARK Flexibility Score: inf
ROOT
ATOM      1  C   UNL     1     -25.176  29.581 -16.828  1.00  0.00     0.401 A 
ATOM      2  O   UNL     1     -25.662  30.816 -16.739  1.00  0.00    -0.202 OA
ATOM      3  C   UNL     1     -25.498  31.590 -15.670  1.00  0.00     0.368 A 
ATOM      4  C   UNL     1     -26.043  32.877 -15.672  1.00  0.00     0.162 A 
ATOM      5  C   UNL     1     -25.883  33.712 -14.563  1.00  0.00     0.128 A 
ATOM      6  C   UNL     1     -25.174  33.259 -13.448  1.00  0.00     0.093 A 
ATOM      7  C   UNL     1     -24.618  31.974 -13.421  1.00  0.00     0.136 A 
ATOM      8  C   UNL     1     -24.781  31.121 -14.544  1.00  0.00     0.125 A 
ATOM      9  C   UNL     1     -24.270  29.814 -14.601  1.00  0.00     0.078 A 
ATOM     10  C   UNL     1     -24.473  29.031 -15.740  1.00  0.00     0.223 A 
ENDROOT
BRANCH   1  11
ATOM     11  C   UNL     1     -25.417  28.823 -18.077  1.00  0.00     0.084 A 
ATOM     12  C   UNL     1     -24.370  28.530 -18.971  1.00  0.00     0.022 A 
ATOM     13  C   UNL     1     -24.628  27.832 -20.155  1.00  0.00     0.047 A 
ATOM     14  C   UNL     1     -25.929  27.431 -20.468  1.00  0.00     0.115 A 
ATOM     15  C   UNL     1     -26.727  28.434 -18.408  1.00  0.00     0.022 A 
ATOM     16  C   UNL     1     -26.979  27.736 -19.592  1.00  0.00     0.047 A 
BRANCH  14  17
ATOM     17  O   UNL     1     -26.169  26.736 -21.651  1.00  0.00    -0.508 OA
ATOM     18  H   UNL     1     -25.586  25.955 -21.934  1.00  0.00     0.293 HD
ENDBRANCH  14  17
ENDBRANCH   1  11
BRANCH  10  19
ATOM     19  O   UNL     1     -24.010  27.715 -15.778  1.00  0.00    -0.500 OA
ATOM     20  H   UNL     1     -23.274  27.428 -16.413  1.00  0.00     0.294 HD
ENDBRANCH  10  19
BRANCH   5  21
ATOM     21  O   UNL     1     -26.423  34.996 -14.557  1.00  0.00    -0.507 OA
ATOM     22  H   UNL     1     -26.966  35.339 -13.772  1.00  0.00     0.293 HD
ENDBRANCH   5  21
BRANCH   7  23
ATOM     23  O   UNL     1     -23.922  31.598 -12.269  1.00  0.00    -0.507 OA
ATOM     24  H   UNL     1     -23.191  30.900 -12.246  1.00  0.00     0.293 HD
ENDBRANCH   7  23
TORSDOF 5
ENDMDL
MODEL 8
REMARK VINA RESULT:    -6.155      6.616      8.171
REMARK INTER + INTRA:          -7.256
REMARK INTER:                  -7.044
REMARK INTRA:                  -0.211
REMARK UNBOUND:                -0.021
REMARK SMILES Oc1ccc(-c2[o+]c3cc(O)cc(O)c3cc2O)cc1
REMARK SMILES IDX 6 1 7 2 8 3 9 4 10 5 12 6 13 7 15 8 16 9 17 10 5 11 4 12
REMARK SMILES IDX 3 13 2 14 19 15 20 16 1 17 18 19 11 21 14 23
REMARK H PARENT 1 18 18 20 11 22 14 24
REMARK Flexibility Score: inf
ROOT
ATOM      1  C   UNL     1     -25.689  29.602 -17.843  1.00  0.00     0.401 A 
ATOM      2  O   UNL     1     -24.839  29.200 -16.903  1.00  0.00    -0.202 OA
ATOM      3  C   UNL     1     -24.569  29.909 -15.811  1.00  0.00     0.368 A 
ATOM      4  C   UNL     1     -23.663  29.401 -14.877  1.00  0.00     0.162 A 
ATOM      5  C   UNL     1     -23.363  30.124 -13.719  1.00  0.00     0.128 A 
ATOM      6  C   UNL     1     -23.972  31.362 -13.495  1.00  0.00     0.093 A 
ATOM      7  C   UNL     1     -24.883  31.893 -14.416  1.00  0.00     0.136 A 
ATOM      8  C   UNL     1     -25.189  31.162 -15.594  1.00  0.00     0.125 A 
ATOM      9  C   UNL     1     -26.079  31.623 -16.579  1.00  0.00     0.078 A 
ATOM     10  C   UNL     1     -26.328  30.849 -17.715  1.00  0.00     0.223 A 
ENDROOT
BRANCH   1  11
ATOM     11  C   UNL     1     -25.914  28.716 -19.008  1.00  0.00     0.084 A 
ATOM     12  C   UNL     1     -24.916  28.514 -19.979  1.00  0.00     0.022 A 
ATOM     13  C   UNL     1     -25.161  27.690 -21.083  1.00  0.00     0.047 A 
ATOM     14  C   UNL     1     -26.404  27.071 -21.238  1.00  0.00     0.115 A 
ATOM     15  C   UNL     1     -27.169  28.106 -19.181  1.00  0.00     0.022 A 
ATOM     16  C   UNL     1     -27.409  27.283 -20.285  1.00  0.00     0.047 A 
BRANCH  14  17
ATOM     17  O   UNL     1     -26.632  26.252 -22.342  1.00  0.00    -0.508 OA
ATOM     18  H   UNL     1     -27.249  26.538 -23.095  1.00  0.00     0.293 HD
ENDBRANCH  14  17
ENDBRANCH   1  11
BRANCH  10  19
ATOM     19  O   UNL     1     -27.173  31.328 -18.717  1.00  0.00    -0.500 OA
ATOM     20  H   UNL     1     -26.934  32.143 -19.271  1.00  0.00     0.294 HD
ENDBRANCH  10  19
BRANCH   5  21
ATOM     21  O   UNL     1     -22.461  29.625 -12.783  1.00  0.00    -0.507 OA
ATOM     22  H   UNL     1     -22.659  28.783 -12.254  1.00  0.00     0.293 HD
ENDBRANCH   5  21
BRANCH   7  23
ATOM     23  O   UNL     1     -25.451  33.135 -14.116  1.00  0.00    -0.507 OA
ATOM     24  H   UNL     1     -25.671  33.450 -13.182  1.00  0.00     0.293 HD
ENDBRANCH   7  23
TORSDOF 5
ENDMDL
MODEL 9
REMARK VINA RESULT:    -6.135      8.445      8.980
REMARK INTER + INTRA:          -7.232
REMARK INTER:                  -7.279
REMARK INTRA:                   0.047
REMARK UNBOUND:                -0.021
REMARK SMILES Oc1ccc(-c2[o+]c3cc(O)cc(O)c3cc2O)cc1
REMARK SMILES IDX 6 1 7 2 8 3 9 4 10 5 12 6 13 7 15 8 16 9 17 10 5 11 4 12
REMARK SMILES IDX 3 13 2 14 19 15 20 16 1 17 18 19 11 21 14 23
REMARK H PARENT 1 18 18 20 11 22 14 24
REMARK Flexibility Score: inf
ROOT
ATOM      1  C   UNL     1     -23.343  29.458 -20.753  1.00  0.00     0.401 A 
ATOM      2  O   UNL     1     -22.192  28.866 -21.058  1.00  0.00    -0.202 OA
ATOM      3  C   UNL     1     -21.019  29.491 -21.029  1.00  0.00     0.368 A 
ATOM      4  C   UNL     1     -19.862  28.782 -21.363  1.00  0.00     0.162 A 
ATOM      5  C   UNL     1     -18.615  29.414 -21.337  1.00  0.00     0.128 A 
ATOM      6  C   UNL     1     -18.525  30.760 -20.975  1.00  0.00     0.093 A 
ATOM      7  C   UNL     1     -19.670  31.493 -20.636  1.00  0.00     0.136 A 
ATOM      8  C   UNL     1     -20.938  30.855 -20.663  1.00  0.00     0.125 A 
ATOM      9  C   UNL     1     -22.139  31.514 -20.352  1.00  0.00     0.078 A 
ATOM     10  C   UNL     1     -23.352  30.822 -20.404  1.00  0.00     0.223 A 
ENDROOT
BRANCH   1  11
ATOM     11  C   UNL     1     -24.583  28.651 -20.813  1.00  0.00     0.084 A 
ATOM     12  C   UNL     1     -25.562  28.735 -19.806  1.00  0.00     0.022 A 
ATOM     13  C   UNL     1     -26.714  27.944 -19.874  1.00  0.00     0.047 A 
ATOM     14  C   UNL     1     -26.897  27.055 -20.936  1.00  0.00     0.115 A 
ATOM     15  C   UNL     1     -24.764  27.740 -21.868  1.00  0.00     0.022 A 
ATOM     16  C   UNL     1     -25.917  26.953 -21.932  1.00  0.00     0.047 A 
BRANCH  14  17
ATOM     17  O   UNL     1     -28.051  26.276 -20.990  1.00  0.00    -0.508 OA
ATOM     18  H   UNL     1     -28.109  25.457 -21.586  1.00  0.00     0.293 HD
ENDBRANCH  14  17
ENDBRANCH   1  11
BRANCH  10  19
ATOM     19  O   UNL     1     -24.550  31.487 -20.144  1.00  0.00    -0.500 OA
ATOM     20  H   UNL     1     -25.327  31.026 -19.684  1.00  0.00     0.294 HD
ENDBRANCH  10  19
BRANCH   5  21
ATOM     21  O   UNL     1     -17.458  28.714 -21.669  1.00  0.00    -0.507 OA
ATOM     22  H   UNL     1     -16.558  29.176 -21.727  1.00  0.00     0.293 HD
ENDBRANCH   5  21
BRANCH   7  23
ATOM     23  O   UNL     1     -19.494  32.833 -20.283  1.00  0.00    -0.507 OA
ATOM     24  H   UNL     1     -18.595  33.274 -20.148  1.00  0.00     0.293 HD
ENDBRANCH   7  23
TORSDOF 5
ENDMDL
