MODEL 1
REMARK VINA RESULT:    -7.021      0.000      0.000
REMARK INTER + INTRA:         -10.693
REMARK INTER:                  -9.689
REMARK INTRA:                  -1.003
REMARK UNBOUND:                -1.003
REMARK SMILES CC[C@@H](CC[C@H](C)[C@@H]1CC[C@@H]2[C@H]3CC=C4C[C@H](O)CC[C@@]4(C)[C@H]3CC[C@]21C)C(C)C
REMARK SMILES IDX 5 1 4 2 3 3 2 4 1 5 28 6 29 7 30 8 6 9 7 10 8 11 9 12 26 13
REMARK SMILES IDX 10 14 11 15 25 16 27 17 12 18 24 19 23 20 13 21 21 22 14 23
REMARK SMILES IDX 15 24 20 25 22 26 16 27 19 28 17 29 18 30
REMARK H PARENT 18 31
REMARK Flexibility Score: inf
ROOT
ATOM      1  C   UNL     1       1.981  40.710  12.134  1.00  0.00     0.004 C 
ENDROOT
BRANCH   1   2
ATOM      2  C   UNL     1       1.601  40.933  13.612  1.00  0.00     0.004 C 
BRANCH   2   3
ATOM      3  C   UNL     1       0.522  39.950  14.159  1.00  0.00    -0.009 C 
BRANCH   3   4
ATOM      4  C   UNL     1       0.308  38.806  13.125  1.00  0.00     0.000 C 
ATOM      5  C   UNL     1      -1.125  38.260  13.072  1.00  0.00     0.004 C 
ENDBRANCH   3   4
BRANCH   3   6
ATOM      6  C   UNL     1      -0.798  40.683  14.631  1.00  0.00    -0.014 C 
ATOM      7  C   UNL     1      -0.767  41.204  16.083  1.00  0.00     0.007 C 
ATOM      8  C   UNL     1      -1.121  41.892  13.728  1.00  0.00     0.007 C 
ENDBRANCH   3   6
ENDBRANCH   2   3
ENDBRANCH   1   2
BRANCH   1   9
ATOM      9  C   UNL     1       3.077  41.671  11.587  1.00  0.00    -0.011 C 
ATOM     10  C   UNL     1       4.382  41.494  12.383  1.00  0.00     0.008 C 
BRANCH   9  11
ATOM     11  C   UNL     1       2.621  43.170  11.527  1.00  0.00    -0.002 C 
ATOM     12  C   UNL     1       1.096  43.326  11.308  1.00  0.00     0.005 C 
ATOM     13  C   UNL     1       3.249  44.075  10.421  1.00  0.00    -0.026 C 
ATOM     14  C   UNL     1       0.884  44.630  10.526  1.00  0.00     0.005 C 
ATOM     15  C   UNL     1       2.270  45.259  10.451  1.00  0.00    -0.001 C 
ATOM     16  C   UNL     1       4.678  44.617  10.746  1.00  0.00     0.007 C 
ATOM     17  C   UNL     1       3.245  43.333   9.044  1.00  0.00     0.012 C 
ATOM     18  C   UNL     1       2.523  46.319   9.342  1.00  0.00     0.000 C 
ATOM     19  C   UNL     1       4.882  46.117  10.397  1.00  0.00     0.005 C 
ATOM     20  C   UNL     1       4.078  46.570   9.137  1.00  0.00     0.003 C 
ATOM     21  C   UNL     1       1.701  47.608   9.648  1.00  0.00     0.031 C 
ATOM     22  C   UNL     1       4.409  48.042   8.677  1.00  0.00    -0.008 C 
ATOM     23  C   UNL     1       2.530  48.757  10.148  1.00  0.00    -0.027 C 
ATOM     24  C   UNL     1       3.771  49.009   9.687  1.00  0.00    -0.065 C 
ATOM     25  C   UNL     1       5.960  48.246   8.498  1.00  0.00     0.014 C 
ATOM     26  C   UNL     1       3.787  48.299   7.275  1.00  0.00     0.016 C 
ATOM     27  C   UNL     1       4.515  50.164  10.334  1.00  0.00     0.063 C 
ATOM     28  C   UNL     1       6.635  49.035   9.622  1.00  0.00     0.033 C 
ATOM     29  C   UNL     1       5.940  50.379   9.816  1.00  0.00     0.118 C 
BRANCH  29  30
ATOM     30  O   UNL     1       5.925  51.097   8.608  1.00  0.00    -0.393 OA
ATOM     31  H   UNL     1       4.975  51.306   8.407  1.00  0.00     0.210 HD
ENDBRANCH  29  30
ENDBRANCH   9  11
ENDBRANCH   1   9
TORSDOF 7
ENDMDL
MODEL 2
REMARK VINA RESULT:    -6.974      1.149      2.003
REMARK INTER + INTRA:         -10.626
REMARK INTER:                 -10.200
REMARK INTRA:                  -0.426
REMARK UNBOUND:                -1.003
REMARK SMILES CC[C@@H](CC[C@H](C)[C@@H]1CC[C@@H]2[C@H]3CC=C4C[C@H](O)CC[C@@]4(C)[C@H]3CC[C@]21C)C(C)C
REMARK SMILES IDX 5 1 4 2 3 3 2 4 1 5 28 6 29 7 30 8 6 9 7 10 8 11 9 12 26 13
REMARK SMILES IDX 10 14 11 15 25 16 27 17 12 18 24 19 23 20 13 21 21 22 14 23
REMARK SMILES IDX 15 24 20 25 22 26 16 27 19 28 17 29 18 30
REMARK H PARENT 18 31
REMARK Flexibility Score: inf
ROOT
ATOM      1  C   UNL     1       1.074  41.804  12.895  1.00  0.00     0.004 C 
ENDROOT
BRANCH   1   2
ATOM      2  C   UNL     1       1.661  40.533  13.538  1.00  0.00     0.004 C 
BRANCH   2   3
ATOM      3  C   UNL     1       1.214  39.199  12.866  1.00  0.00    -0.009 C 
BRANCH   3   4
ATOM      4  C   UNL     1      -0.119  38.726  13.516  1.00  0.00     0.000 C 
ATOM      5  C   UNL     1      -0.934  37.752  12.655  1.00  0.00     0.004 C 
ENDBRANCH   3   4
BRANCH   3   6
ATOM      6  C   UNL     1       2.363  38.113  12.826  1.00  0.00    -0.014 C 
ATOM      7  C   UNL     1       2.279  37.123  11.646  1.00  0.00     0.007 C 
ATOM      8  C   UNL     1       3.757  38.773  12.760  1.00  0.00     0.007 C 
ENDBRANCH   3   6
ENDBRANCH   2   3
ENDBRANCH   1   2
BRANCH   1   9
ATOM      9  C   UNL     1       1.944  42.428  11.765  1.00  0.00    -0.011 C 
ATOM     10  C   UNL     1       3.428  42.086  11.987  1.00  0.00     0.008 C 
BRANCH   9  11
ATOM     11  C   UNL     1       1.716  43.969  11.578  1.00  0.00    -0.002 C 
ATOM     12  C   UNL     1       0.247  44.321  11.236  1.00  0.00     0.005 C 
ATOM     13  C   UNL     1       2.540  44.695  10.469  1.00  0.00    -0.026 C 
ATOM     14  C   UNL     1       0.278  45.583  10.362  1.00  0.00     0.005 C 
ATOM     15  C   UNL     1       1.743  46.004  10.353  1.00  0.00    -0.001 C 
ATOM     16  C   UNL     1       4.007  45.054  10.867  1.00  0.00     0.007 C 
ATOM     17  C   UNL     1       2.518  43.865   9.144  1.00  0.00     0.012 C 
ATOM     18  C   UNL     1       2.219  46.936   9.203  1.00  0.00     0.000 C 
ATOM     19  C   UNL     1       4.449  46.482  10.443  1.00  0.00     0.005 C 
ATOM     20  C   UNL     1       3.804  46.952   9.101  1.00  0.00     0.003 C 
ATOM     21  C   UNL     1       1.573  48.347   9.367  1.00  0.00     0.031 C 
ATOM     22  C   UNL     1       4.374  48.326   8.578  1.00  0.00    -0.008 C 
ATOM     23  C   UNL     1       2.526  49.400   9.857  1.00  0.00    -0.027 C 
ATOM     24  C   UNL     1       3.818  49.442   9.476  1.00  0.00    -0.065 C 
ATOM     25  C   UNL     1       5.947  48.297   8.505  1.00  0.00     0.014 C 
ATOM     26  C   UNL     1       3.890  48.567   7.120  1.00  0.00     0.016 C 
ATOM     27  C   UNL     1       4.677  50.525  10.106  1.00  0.00     0.063 C 
ATOM     28  C   UNL     1       6.653  49.062   9.626  1.00  0.00     0.033 C 
ATOM     29  C   UNL     1       6.149  50.500   9.683  1.00  0.00     0.118 C 
BRANCH  29  30
ATOM     30  O   UNL     1       6.318  51.125   8.436  1.00  0.00    -0.393 OA
ATOM     31  H   UNL     1       7.262  50.978   8.165  1.00  0.00     0.210 HD
ENDBRANCH  29  30
ENDBRANCH   9  11
ENDBRANCH   1   9
TORSDOF 7
ENDMDL
MODEL 3
REMARK VINA RESULT:    -4.085      1.855      3.237
REMARK INTER + INTRA:          -6.640
REMARK INTER:                  -7.079
REMARK INTRA:                   0.439
REMARK UNBOUND:                -1.003
REMARK SMILES CC[C@@H](CC[C@H](C)[C@@H]1CC[C@@H]2[C@H]3CC=C4C[C@H](O)CC[C@@]4(C)[C@H]3CC[C@]21C)C(C)C
REMARK SMILES IDX 5 1 4 2 3 3 2 4 1 5 28 6 29 7 30 8 6 9 7 10 8 11 9 12 26 13
REMARK SMILES IDX 10 14 11 15 25 16 27 17 12 18 24 19 23 20 13 21 21 22 14 23
REMARK SMILES IDX 15 24 20 25 22 26 16 27 19 28 17 29 18 30
REMARK H PARENT 18 31
REMARK Flexibility Score: inf
ROOT
ATOM      1  C   UNL     1       1.429  42.911  11.450  1.00  0.00     0.004 C 
ENDROOT
BRANCH   1   2
ATOM      2  C   UNL     1       1.803  41.661  12.270  1.00  0.00     0.004 C 
BRANCH   2   3
ATOM      3  C   UNL     1       3.319  41.535  12.608  1.00  0.00    -0.009 C 
BRANCH   3   4
ATOM      4  C   UNL     1       4.108  42.609  11.803  1.00  0.00     0.000 C 
ATOM      5  C   UNL     1       4.380  43.907  12.574  1.00  0.00     0.004 C 
ENDBRANCH   3   4
BRANCH   3   6
ATOM      6  C   UNL     1       3.863  40.057  12.465  1.00  0.00    -0.014 C 
ATOM      7  C   UNL     1       4.926  39.652  13.507  1.00  0.00     0.007 C 
ATOM      8  C   UNL     1       2.719  39.025  12.569  1.00  0.00     0.007 C 
ENDBRANCH   3   6
ENDBRANCH   2   3
ENDBRANCH   1   2
BRANCH   1   9
ATOM      9  C   UNL     1       0.481  43.911  12.174  1.00  0.00    -0.011 C 
ATOM     10  C   UNL     1      -0.936  43.320  12.274  1.00  0.00     0.008 C 
BRANCH   9  11
ATOM     11  C   UNL     1       0.479  45.344  11.538  1.00  0.00    -0.002 C 
ATOM     12  C   UNL     1      -0.815  45.647  10.744  1.00  0.00     0.005 C 
ATOM     13  C   UNL     1       1.622  45.693  10.533  1.00  0.00    -0.026 C 
ATOM     14  C   UNL     1      -0.433  46.609   9.610  1.00  0.00     0.005 C 
ATOM     15  C   UNL     1       1.028  46.949   9.874  1.00  0.00    -0.001 C 
ATOM     16  C   UNL     1       2.981  46.088  11.193  1.00  0.00     0.007 C 
ATOM     17  C   UNL     1       1.825  44.525   9.514  1.00  0.00     0.012 C 
ATOM     18  C   UNL     1       1.868  47.498   8.687  1.00  0.00     0.000 C 
ATOM     19  C   UNL     1       3.670  47.318  10.541  1.00  0.00     0.005 C 
ATOM     20  C   UNL     1       3.423  47.418   9.002  1.00  0.00     0.003 C 
ATOM     21  C   UNL     1       1.366  48.923   8.301  1.00  0.00     0.031 C 
ATOM     22  C   UNL     1       4.253  48.564   8.306  1.00  0.00    -0.008 C 
ATOM     23  C   UNL     1       2.286  50.031   8.729  1.00  0.00    -0.027 C 
ATOM     24  C   UNL     1       3.628  49.910   8.702  1.00  0.00    -0.065 C 
ATOM     25  C   UNL     1       5.784  48.449   8.656  1.00  0.00     0.014 C 
ATOM     26  C   UNL     1       4.163  48.404   6.761  1.00  0.00     0.016 C 
ATOM     27  C   UNL     1       4.427  51.089   9.228  1.00  0.00     0.063 C 
ATOM     28  C   UNL     1       6.283  49.468   9.683  1.00  0.00     0.033 C 
ATOM     29  C   UNL     1       5.945  50.884   9.228  1.00  0.00     0.118 C 
BRANCH  29  30
ATOM     30  O   UNL     1       6.478  51.125   7.950  1.00  0.00    -0.393 OA
ATOM     31  H   UNL     1       7.455  51.254   8.064  1.00  0.00     0.210 HD
ENDBRANCH  29  30
ENDBRANCH   9  11
ENDBRANCH   1   9
TORSDOF 7
ENDMDL
