MODEL 1
REMARK VINA RESULT:    -5.861      0.000      0.000
REMARK INTER + INTRA:          -9.899
REMARK INTER:                  -8.088
REMARK INTRA:                  -1.811
REMARK UNBOUND:                -1.811
REMARK SMILES CC[C@H](CC[C@@H](C)[C@@H]1CC[C@H]2[C@@H]3CC=C4C[C@H](O)CC[C@@]4(C)[C@H]3CC[C@]21C)C(C)C
REMARK SMILES IDX 5 1 4 2 3 3 2 4 1 5 28 6 29 7 30 8 6 9 7 10 8 11 9 12 26 13
REMARK SMILES IDX 10 14 11 15 25 16 27 17 12 18 24 19 23 20 13 21 21 22 14 23
REMARK SMILES IDX 15 24 20 25 22 26 16 27 19 28 17 29 18 30
REMARK H PARENT 18 31
REMARK Flexibility Score: inf
ROOT
ATOM      1  C   UNL     1      11.443  -6.359  43.776  1.00  0.00     0.004 C 
ENDROOT
BRANCH   1   2
ATOM      2  C   UNL     1      12.299  -5.436  42.871  1.00  0.00     0.004 C 
BRANCH   2   3
ATOM      3  C   UNL     1      12.752  -4.135  43.591  1.00  0.00    -0.009 C 
BRANCH   3   4
ATOM      4  C   UNL     1      11.560  -3.568  44.427  1.00  0.00     0.000 C 
ATOM      5  C   UNL     1      10.653  -2.647  43.608  1.00  0.00     0.004 C 
ENDBRANCH   3   4
BRANCH   3   6
ATOM      6  C   UNL     1      14.028  -4.378  44.472  1.00  0.00    -0.014 C 
ATOM      7  C   UNL     1      15.334  -4.230  43.660  1.00  0.00     0.007 C 
ATOM      8  C   UNL     1      14.098  -3.412  45.673  1.00  0.00     0.007 C 
ENDBRANCH   3   6
ENDBRANCH   2   3
ENDBRANCH   1   2
BRANCH   1   9
ATOM      9  C   UNL     1      10.197  -6.973  43.088  1.00  0.00    -0.011 C 
ATOM     10  C   UNL     1       8.907  -6.279  43.565  1.00  0.00     0.008 C 
BRANCH   9  11
ATOM     11  C   UNL     1      10.372  -7.095  41.524  1.00  0.00    -0.002 C 
ATOM     12  C   UNL     1       9.184  -6.664  40.641  1.00  0.00     0.005 C 
ATOM     13  C   UNL     1      10.769  -8.498  40.986  1.00  0.00    -0.026 C 
ATOM     14  C   UNL     1       9.299  -7.466  39.340  1.00  0.00     0.005 C 
ATOM     15  C   UNL     1      10.560  -8.347  39.454  1.00  0.00    -0.001 C 
ATOM     16  C   UNL     1      12.214  -8.932  41.350  1.00  0.00     0.007 C 
ATOM     17  C   UNL     1       9.806  -9.598  41.521  1.00  0.00     0.012 C 
ATOM     18  C   UNL     1      11.752  -7.681  38.681  1.00  0.00     0.000 C 
ATOM     19  C   UNL     1      13.297  -8.127  40.640  1.00  0.00     0.005 C 
ATOM     20  C   UNL     1      13.138  -8.218  39.109  1.00  0.00     0.003 C 
ATOM     21  C   UNL     1      11.594  -7.949  37.174  1.00  0.00     0.031 C 
ATOM     22  C   UNL     1      14.332  -7.537  38.309  1.00  0.00    -0.008 C 
ATOM     23  C   UNL     1      12.689  -7.302  36.390  1.00  0.00    -0.027 C 
ATOM     24  C   UNL     1      13.941  -7.163  36.867  1.00  0.00    -0.065 C 
ATOM     25  C   UNL     1      14.815  -6.222  39.004  1.00  0.00     0.014 C 
ATOM     26  C   UNL     1      15.499  -8.558  38.253  1.00  0.00     0.016 C 
ATOM     27  C   UNL     1      14.946  -6.388  36.038  1.00  0.00     0.063 C 
ATOM     28  C   UNL     1      15.838  -5.410  38.184  1.00  0.00     0.033 C 
ATOM     29  C   UNL     1      15.325  -5.096  36.773  1.00  0.00     0.118 C 
BRANCH  29  30
ATOM     30  O   UNL     1      16.327  -4.420  36.061  1.00  0.00    -0.393 OA
ATOM     31  H   UNL     1      17.194  -4.818  36.338  1.00  0.00     0.210 HD
ENDBRANCH  29  30
ENDBRANCH   9  11
ENDBRANCH   1   9
TORSDOF 7
ENDMDL
MODEL 2
REMARK VINA RESULT:    -5.843      5.315      9.638
REMARK INTER + INTRA:          -9.874
REMARK INTER:                  -7.935
REMARK INTRA:                  -1.940
REMARK UNBOUND:                -1.811
REMARK SMILES CC[C@H](CC[C@@H](C)[C@@H]1CC[C@H]2[C@@H]3CC=C4C[C@H](O)CC[C@@]4(C)[C@H]3CC[C@]21C)C(C)C
REMARK SMILES IDX 5 1 4 2 3 3 2 4 1 5 28 6 29 7 30 8 6 9 7 10 8 11 9 12 26 13
REMARK SMILES IDX 10 14 11 15 25 16 27 17 12 18 24 19 23 20 13 21 21 22 14 23
REMARK SMILES IDX 15 24 20 25 22 26 16 27 19 28 17 29 18 30
REMARK H PARENT 18 31
REMARK Flexibility Score: inf
ROOT
ATOM      1  C   UNL     1       6.644  -8.837  31.864  1.00  0.00     0.004 C 
ENDROOT
BRANCH   1   2
ATOM      2  C   UNL     1       6.752  -8.636  33.398  1.00  0.00     0.004 C 
BRANCH   2   3
ATOM      3  C   UNL     1       5.373  -8.393  34.074  1.00  0.00    -0.009 C 
BRANCH   3   4
ATOM      4  C   UNL     1       4.345  -7.927  32.994  1.00  0.00     0.000 C 
ATOM      5  C   UNL     1       4.183  -6.406  32.953  1.00  0.00     0.004 C 
ENDBRANCH   3   4
BRANCH   3   6
ATOM      6  C   UNL     1       4.879  -9.665  34.850  1.00  0.00    -0.014 C 
ATOM      7  C   UNL     1       4.079 -10.626  33.944  1.00  0.00     0.007 C 
ATOM      8  C   UNL     1       6.048 -10.455  35.474  1.00  0.00     0.007 C 
ENDBRANCH   3   6
ENDBRANCH   2   3
ENDBRANCH   1   2
BRANCH   1   9
ATOM      9  C   UNL     1       7.905  -8.423  31.063  1.00  0.00    -0.011 C 
ATOM     10  C   UNL     1       7.536  -7.467  29.913  1.00  0.00     0.008 C 
BRANCH   9  11
ATOM     11  C   UNL     1       9.084  -7.950  31.998  1.00  0.00    -0.002 C 
ATOM     12  C   UNL     1       9.667  -6.544  31.750  1.00  0.00     0.005 C 
ATOM     13  C   UNL     1      10.327  -8.882  32.061  1.00  0.00    -0.026 C 
ATOM     14  C   UNL     1      11.118  -6.585  32.241  1.00  0.00     0.005 C 
ATOM     15  C   UNL     1      11.375  -8.002  32.794  1.00  0.00    -0.001 C 
ATOM     16  C   UNL     1      10.071 -10.232  32.784  1.00  0.00     0.007 C 
ATOM     17  C   UNL     1      10.853  -9.213  30.634  1.00  0.00     0.012 C 
ATOM     18  C   UNL     1      11.265  -7.997  34.359  1.00  0.00     0.000 C 
ATOM     19  C   UNL     1       9.844 -10.094  34.285  1.00  0.00     0.005 C 
ATOM     20  C   UNL     1      11.044  -9.403  34.964  1.00  0.00     0.003 C 
ATOM     21  C   UNL     1      12.565  -7.431  34.959  1.00  0.00     0.031 C 
ATOM     22  C   UNL     1      10.941  -9.378  36.551  1.00  0.00    -0.008 C 
ATOM     23  C   UNL     1      12.493  -7.371  36.450  1.00  0.00    -0.027 C 
ATOM     24  C   UNL     1      11.813  -8.276  37.182  1.00  0.00    -0.065 C 
ATOM     25  C   UNL     1       9.474  -9.125  37.030  1.00  0.00     0.014 C 
ATOM     26  C   UNL     1      11.433 -10.753  37.073  1.00  0.00     0.016 C 
ATOM     27  C   UNL     1      11.707  -8.057  38.679  1.00  0.00     0.063 C 
ATOM     28  C   UNL     1       9.333  -8.898  38.549  1.00  0.00     0.033 C 
ATOM     29  C   UNL     1      10.246  -7.772  39.049  1.00  0.00     0.118 C 
BRANCH  29  30
ATOM     30  O   UNL     1      10.120  -7.665  40.443  1.00  0.00    -0.393 OA
ATOM     31  H   UNL     1       9.865  -6.724  40.637  1.00  0.00     0.210 HD
ENDBRANCH  29  30
ENDBRANCH   9  11
ENDBRANCH   1   9
TORSDOF 7
ENDMDL
MODEL 3
REMARK VINA RESULT:    -5.751      3.854      8.657
REMARK INTER + INTRA:          -9.747
REMARK INTER:                  -7.794
REMARK INTRA:                  -1.953
REMARK UNBOUND:                -1.811
REMARK SMILES CC[C@H](CC[C@@H](C)[C@@H]1CC[C@H]2[C@@H]3CC=C4C[C@H](O)CC[C@@]4(C)[C@H]3CC[C@]21C)C(C)C
REMARK SMILES IDX 5 1 4 2 3 3 2 4 1 5 28 6 29 7 30 8 6 9 7 10 8 11 9 12 26 13
REMARK SMILES IDX 10 14 11 15 25 16 27 17 12 18 24 19 23 20 13 21 21 22 14 23
REMARK SMILES IDX 15 24 20 25 22 26 16 27 19 28 17 29 18 30
REMARK H PARENT 18 31
REMARK Flexibility Score: inf
ROOT
ATOM      1  C   UNL     1      16.597  -3.398  38.798  1.00  0.00     0.004 C 
ENDROOT
BRANCH   1   2
ATOM      2  C   UNL     1      15.501  -4.482  38.967  1.00  0.00     0.004 C 
BRANCH   2   3
ATOM      3  C   UNL     1      15.694  -5.692  38.010  1.00  0.00    -0.009 C 
BRANCH   3   4
ATOM      4  C   UNL     1      16.287  -5.187  36.655  1.00  0.00     0.000 C 
ATOM      5  C   UNL     1      15.489  -5.676  35.445  1.00  0.00     0.004 C 
ENDBRANCH   3   4
BRANCH   3   6
ATOM      6  C   UNL     1      16.583  -6.808  38.665  1.00  0.00    -0.014 C 
ATOM      7  C   UNL     1      15.946  -8.210  38.536  1.00  0.00     0.007 C 
ATOM      8  C   UNL     1      17.995  -6.864  38.046  1.00  0.00     0.007 C 
ENDBRANCH   3   6
ENDBRANCH   2   3
ENDBRANCH   1   2
BRANCH   1   9
ATOM      9  C   UNL     1      17.812  -3.547  39.749  1.00  0.00    -0.011 C 
ATOM     10  C   UNL     1      19.038  -2.796  39.197  1.00  0.00     0.008 C 
BRANCH   9  11
ATOM     11  C   UNL     1      17.440  -3.243  41.252  1.00  0.00    -0.002 C 
ATOM     12  C   UNL     1      18.117  -2.030  41.920  1.00  0.00     0.005 C 
ATOM     13  C   UNL     1      17.650  -4.409  42.259  1.00  0.00    -0.026 C 
ATOM     14  C   UNL     1      18.159  -2.329  43.422  1.00  0.00     0.005 C 
ATOM     15  C   UNL     1      17.490  -3.703  43.634  1.00  0.00    -0.001 C 
ATOM     16  C   UNL     1      16.659  -5.590  42.077  1.00  0.00     0.007 C 
ATOM     17  C   UNL     1      19.089  -4.991  42.154  1.00  0.00     0.012 C 
ATOM     18  C   UNL     1      16.011  -3.512  44.118  1.00  0.00     0.000 C 
ATOM     19  C   UNL     1      15.221  -5.251  42.453  1.00  0.00     0.005 C 
ATOM     20  C   UNL     1      15.131  -4.768  43.914  1.00  0.00     0.003 C 
ATOM     21  C   UNL     1      16.005  -3.180  45.621  1.00  0.00     0.031 C 
ATOM     22  C   UNL     1      13.637  -4.557  44.418  1.00  0.00    -0.008 C 
ATOM     23  C   UNL     1      14.617  -2.952  46.122  1.00  0.00    -0.027 C 
ATOM     24  C   UNL     1      13.549  -3.608  45.628  1.00  0.00    -0.065 C 
ATOM     25  C   UNL     1      12.732  -3.947  43.298  1.00  0.00     0.014 C 
ATOM     26  C   UNL     1      13.085  -5.944  44.839  1.00  0.00     0.016 C 
ATOM     27  C   UNL     1      12.171  -3.218  46.125  1.00  0.00     0.063 C 
ATOM     28  C   UNL     1      11.323  -3.539  43.772  1.00  0.00     0.033 C 
ATOM     29  C   UNL     1      11.374  -2.589  44.976  1.00  0.00     0.118 C 
BRANCH  29  30
ATOM     30  O   UNL     1      10.064  -2.314  45.398  1.00  0.00    -0.393 OA
ATOM     31  H   UNL     1       9.497  -3.066  45.083  1.00  0.00     0.210 HD
ENDBRANCH  29  30
ENDBRANCH   9  11
ENDBRANCH   1   9
TORSDOF 7
ENDMDL
MODEL 4
REMARK VINA RESULT:    -5.719      6.942     10.848
REMARK INTER + INTRA:          -9.703
REMARK INTER:                  -7.398
REMARK INTRA:                  -2.305
REMARK UNBOUND:                -1.811
REMARK SMILES CC[C@H](CC[C@@H](C)[C@@H]1CC[C@H]2[C@@H]3CC=C4C[C@H](O)CC[C@@]4(C)[C@H]3CC[C@]21C)C(C)C
REMARK SMILES IDX 5 1 4 2 3 3 2 4 1 5 28 6 29 7 30 8 6 9 7 10 8 11 9 12 26 13
REMARK SMILES IDX 10 14 11 15 25 16 27 17 12 18 24 19 23 20 13 21 21 22 14 23
REMARK SMILES IDX 15 24 20 25 22 26 16 27 19 28 17 29 18 30
REMARK H PARENT 18 31
REMARK Flexibility Score: inf
ROOT
ATOM      1  C   UNL     1      13.235  -6.742  31.856  1.00  0.00     0.004 C 
ENDROOT
BRANCH   1   2
ATOM      2  C   UNL     1      12.751  -7.186  30.450  1.00  0.00     0.004 C 
BRANCH   2   3
ATOM      3  C   UNL     1      11.264  -6.822  30.180  1.00  0.00    -0.009 C 
BRANCH   3   4
ATOM      4  C   UNL     1      10.916  -5.493  30.925  1.00  0.00     0.000 C 
ATOM      5  C   UNL     1       9.718  -5.642  31.865  1.00  0.00     0.004 C 
ENDBRANCH   3   4
BRANCH   3   6
ATOM      6  C   UNL     1      10.962  -6.734  28.643  1.00  0.00    -0.014 C 
ATOM      7  C   UNL     1       9.468  -6.964  28.328  1.00  0.00     0.007 C 
ATOM      8  C   UNL     1      11.374  -5.372  28.047  1.00  0.00     0.007 C 
ENDBRANCH   3   6
ENDBRANCH   2   3
ENDBRANCH   1   2
BRANCH   1   9
ATOM      9  C   UNL     1      13.370  -7.888  32.890  1.00  0.00    -0.011 C 
ATOM     10  C   UNL     1      14.591  -7.666  33.802  1.00  0.00     0.008 C 
BRANCH   9  11
ATOM     11  C   UNL     1      12.009  -8.196  33.628  1.00  0.00    -0.002 C 
ATOM     12  C   UNL     1      11.918  -7.843  35.126  1.00  0.00     0.005 C 
ATOM     13  C   UNL     1      11.498  -9.662  33.542  1.00  0.00    -0.026 C 
ATOM     14  C   UNL     1      10.881  -8.793  35.733  1.00  0.00     0.005 C 
ATOM     15  C   UNL     1      10.353  -9.685  34.590  1.00  0.00    -0.001 C 
ATOM     16  C   UNL     1      11.020 -10.084  32.127  1.00  0.00     0.007 C 
ATOM     17  C   UNL     1      12.603 -10.668  33.978  1.00  0.00     0.012 C 
ATOM     18  C   UNL     1       8.971  -9.143  34.081  1.00  0.00     0.000 C 
ATOM     19  C   UNL     1       9.737  -9.394  31.678  1.00  0.00     0.005 C 
ATOM     20  C   UNL     1       8.590  -9.660  32.674  1.00  0.00     0.003 C 
ATOM     21  C   UNL     1       7.862  -9.581  35.054  1.00  0.00     0.031 C 
ATOM     22  C   UNL     1       7.184  -9.106  32.178  1.00  0.00    -0.008 C 
ATOM     23  C   UNL     1       6.529  -9.056  34.630  1.00  0.00    -0.027 C 
ATOM     24  C   UNL     1       6.191  -8.892  33.336  1.00  0.00    -0.065 C 
ATOM     25  C   UNL     1       7.331  -7.730  31.449  1.00  0.00     0.014 C 
ATOM     26  C   UNL     1       6.585 -10.153  31.204  1.00  0.00     0.016 C 
ATOM     27  C   UNL     1       4.858  -8.244  33.017  1.00  0.00     0.063 C 
ATOM     28  C   UNL     1       5.992  -7.044  31.111  1.00  0.00     0.033 C 
ATOM     29  C   UNL     1       5.100  -6.885  32.349  1.00  0.00     0.118 C 
BRANCH  29  30
ATOM     30  O   UNL     1       3.875  -6.320  31.961  1.00  0.00    -0.393 OA
ATOM     31  H   UNL     1       3.304  -6.286  32.773  1.00  0.00     0.210 HD
ENDBRANCH  29  30
ENDBRANCH   9  11
ENDBRANCH   1   9
TORSDOF 7
ENDMDL
MODEL 5
REMARK VINA RESULT:    -5.687      2.706      6.743
REMARK INTER + INTRA:          -9.659
REMARK INTER:                  -7.138
REMARK INTRA:                  -2.521
REMARK UNBOUND:                -1.811
REMARK SMILES CC[C@H](CC[C@@H](C)[C@@H]1CC[C@H]2[C@@H]3CC=C4C[C@H](O)CC[C@@]4(C)[C@H]3CC[C@]21C)C(C)C
REMARK SMILES IDX 5 1 4 2 3 3 2 4 1 5 28 6 29 7 30 8 6 9 7 10 8 11 9 12 26 13
REMARK SMILES IDX 10 14 11 15 25 16 27 17 12 18 24 19 23 20 13 21 21 22 14 23
REMARK SMILES IDX 15 24 20 25 22 26 16 27 19 28 17 29 18 30
REMARK H PARENT 18 31
REMARK Flexibility Score: inf
ROOT
ATOM      1  C   UNL     1       9.213  -9.647  38.562  1.00  0.00     0.004 C 
ENDROOT
BRANCH   1   2
ATOM      2  C   UNL     1       8.561  -9.930  39.940  1.00  0.00     0.004 C 
BRANCH   2   3
ATOM      3  C   UNL     1       8.120  -8.634  40.678  1.00  0.00    -0.009 C 
BRANCH   3   4
ATOM      4  C   UNL     1       7.993  -7.471  39.642  1.00  0.00     0.000 C 
ATOM      5  C   UNL     1       8.707  -6.196  40.098  1.00  0.00     0.004 C 
ENDBRANCH   3   4
BRANCH   3   6
ATOM      6  C   UNL     1       6.793  -8.854  41.486  1.00  0.00    -0.014 C 
ATOM      7  C   UNL     1       6.890  -8.305  42.926  1.00  0.00     0.007 C 
ATOM      8  C   UNL     1       5.580  -8.191  40.801  1.00  0.00     0.007 C 
ENDBRANCH   3   6
ENDBRANCH   2   3
ENDBRANCH   1   2
BRANCH   1   9
ATOM      9  C   UNL     1      10.742  -9.896  38.501  1.00  0.00    -0.011 C 
ATOM     10  C   UNL     1      11.184 -10.258  37.071  1.00  0.00     0.008 C 
BRANCH   9  11
ATOM     11  C   UNL     1      11.567  -8.750  39.205  1.00  0.00    -0.002 C 
ATOM     12  C   UNL     1      12.426  -7.838  38.306  1.00  0.00     0.005 C 
ATOM     13  C   UNL     1      12.530  -9.196  40.341  1.00  0.00    -0.026 C 
ATOM     14  C   UNL     1      13.574  -7.325  39.181  1.00  0.00     0.005 C 
ATOM     15  C   UNL     1      13.376  -7.918  40.592  1.00  0.00    -0.001 C 
ATOM     16  C   UNL     1      11.811  -9.696  41.623  1.00  0.00     0.007 C 
ATOM     17  C   UNL     1      13.472 -10.339  39.862  1.00  0.00     0.012 C 
ATOM     18  C   UNL     1      12.712  -6.853  41.534  1.00  0.00     0.000 C 
ATOM     19  C   UNL     1      11.086  -8.597  42.390  1.00  0.00     0.005 C 
ATOM     20  C   UNL     1      12.058  -7.469  42.792  1.00  0.00     0.003 C 
ATOM     21  C   UNL     1      13.784  -5.855  42.008  1.00  0.00     0.031 C 
ATOM     22  C   UNL     1      11.397  -6.375  43.738  1.00  0.00    -0.008 C 
ATOM     23  C   UNL     1      13.191  -4.797  42.881  1.00  0.00    -0.027 C 
ATOM     24  C   UNL     1      12.153  -5.033  43.707  1.00  0.00    -0.065 C 
ATOM     25  C   UNL     1       9.920  -6.071  43.324  1.00  0.00     0.014 C 
ATOM     26  C   UNL     1      11.432  -6.926  45.187  1.00  0.00     0.016 C 
ATOM     27  C   UNL     1      11.554  -3.863  44.463  1.00  0.00     0.063 C 
ATOM     28  C   UNL     1       9.282  -4.885  44.074  1.00  0.00     0.033 C 
ATOM     29  C   UNL     1      10.127  -3.610  43.960  1.00  0.00     0.118 C 
BRANCH  29  30
ATOM     30  O   UNL     1       9.528  -2.594  44.719  1.00  0.00    -0.393 OA
ATOM     31  H   UNL     1       8.887  -2.128  44.120  1.00  0.00     0.210 HD
ENDBRANCH  29  30
ENDBRANCH   9  11
ENDBRANCH   1   9
TORSDOF 7
ENDMDL
MODEL 6
REMARK VINA RESULT:    -5.684      7.319     11.590
REMARK INTER + INTRA:          -9.655
REMARK INTER:                  -7.194
REMARK INTRA:                  -2.461
REMARK UNBOUND:                -1.811
REMARK SMILES CC[C@H](CC[C@@H](C)[C@@H]1CC[C@H]2[C@@H]3CC=C4C[C@H](O)CC[C@@]4(C)[C@H]3CC[C@]21C)C(C)C
REMARK SMILES IDX 5 1 4 2 3 3 2 4 1 5 28 6 29 7 30 8 6 9 7 10 8 11 9 12 26 13
REMARK SMILES IDX 10 14 11 15 25 16 27 17 12 18 24 19 23 20 13 21 21 22 14 23
REMARK SMILES IDX 15 24 20 25 22 26 16 27 19 28 17 29 18 30
REMARK H PARENT 18 31
REMARK Flexibility Score: inf
ROOT
ATOM      1  C   UNL     1      12.503  -7.384  32.251  1.00  0.00     0.004 C 
ENDROOT
BRANCH   1   2
ATOM      2  C   UNL     1      11.305  -7.455  33.235  1.00  0.00     0.004 C 
BRANCH   2   3
ATOM      3  C   UNL     1      11.111  -8.870  33.848  1.00  0.00    -0.009 C 
BRANCH   3   4
ATOM      4  C   UNL     1      11.499  -8.832  35.361  1.00  0.00     0.000 C 
ATOM      5  C   UNL     1      12.148  -7.508  35.770  1.00  0.00     0.004 C 
ENDBRANCH   3   4
BRANCH   3   6
ATOM      6  C   UNL     1       9.650  -9.399  33.625  1.00  0.00    -0.014 C 
ATOM      7  C   UNL     1       9.542 -10.305  32.379  1.00  0.00     0.007 C 
ATOM      8  C   UNL     1       9.127 -10.191  34.841  1.00  0.00     0.007 C 
ENDBRANCH   3   6
ENDBRANCH   2   3
ENDBRANCH   1   2
BRANCH   1   9
ATOM      9  C   UNL     1      12.145  -6.894  30.824  1.00  0.00    -0.011 C 
ATOM     10  C   UNL     1      13.366  -6.984  29.890  1.00  0.00     0.008 C 
BRANCH   9  11
ATOM     11  C   UNL     1      10.815  -7.545  30.280  1.00  0.00    -0.002 C 
ATOM     12  C   UNL     1      10.951  -8.696  29.264  1.00  0.00     0.005 C 
ATOM     13  C   UNL     1       9.791  -6.572  29.631  1.00  0.00    -0.026 C 
ATOM     14  C   UNL     1       9.673  -8.682  28.420  1.00  0.00     0.005 C 
ATOM     15  C   UNL     1       8.783  -7.540  28.954  1.00  0.00    -0.001 C 
ATOM     16  C   UNL     1       9.106  -5.608  30.637  1.00  0.00     0.007 C 
ATOM     17  C   UNL     1      10.465  -5.695  28.535  1.00  0.00     0.012 C 
ATOM     18  C   UNL     1       7.675  -8.120  29.901  1.00  0.00     0.000 C 
ATOM     19  C   UNL     1       8.148  -6.300  31.599  1.00  0.00     0.005 C 
ATOM     20  C   UNL     1       7.046  -7.058  30.832  1.00  0.00     0.003 C 
ATOM     21  C   UNL     1       6.543  -8.723  29.050  1.00  0.00     0.031 C 
ATOM     22  C   UNL     1       5.920  -7.663  31.779  1.00  0.00    -0.008 C 
ATOM     23  C   UNL     1       5.479  -9.323  29.910  1.00  0.00    -0.027 C 
ATOM     24  C   UNL     1       5.149  -8.820  31.116  1.00  0.00    -0.065 C 
ATOM     25  C   UNL     1       6.526  -8.225  33.107  1.00  0.00     0.014 C 
ATOM     26  C   UNL     1       4.918  -6.525  32.101  1.00  0.00     0.016 C 
ATOM     27  C   UNL     1       4.137  -9.572  31.958  1.00  0.00     0.063 C 
ATOM     28  C   UNL     1       5.521  -8.997  33.985  1.00  0.00     0.033 C 
ATOM     29  C   UNL     1       4.827 -10.125  33.210  1.00  0.00     0.118 C 
BRANCH  29  30
ATOM     30  O   UNL     1       3.880 -10.739  34.045  1.00  0.00    -0.393 OA
ATOM     31  H   UNL     1       3.779 -10.154  34.842  1.00  0.00     0.210 HD
ENDBRANCH  29  30
ENDBRANCH   9  11
ENDBRANCH   1   9
TORSDOF 7
ENDMDL
MODEL 7
REMARK VINA RESULT:    -5.594     10.699     13.575
REMARK INTER + INTRA:          -9.530
REMARK INTER:                  -6.984
REMARK INTRA:                  -2.546
REMARK UNBOUND:                -1.811
REMARK SMILES CC[C@H](CC[C@@H](C)[C@@H]1CC[C@H]2[C@@H]3CC=C4C[C@H](O)CC[C@@]4(C)[C@H]3CC[C@]21C)C(C)C
REMARK SMILES IDX 5 1 4 2 3 3 2 4 1 5 28 6 29 7 30 8 6 9 7 10 8 11 9 12 26 13
REMARK SMILES IDX 10 14 11 15 25 16 27 17 12 18 24 19 23 20 13 21 21 22 14 23
REMARK SMILES IDX 15 24 20 25 22 26 16 27 19 28 17 29 18 30
REMARK H PARENT 18 31
REMARK Flexibility Score: inf
ROOT
ATOM      1  C   UNL     1      24.095 -13.763  41.726  1.00  0.00     0.004 C 
ENDROOT
BRANCH   1   2
ATOM      2  C   UNL     1      23.122 -13.233  40.640  1.00  0.00     0.004 C 
BRANCH   2   3
ATOM      3  C   UNL     1      22.083 -14.297  40.188  1.00  0.00    -0.009 C 
BRANCH   3   4
ATOM      4  C   UNL     1      20.673 -13.905  40.736  1.00  0.00     0.000 C 
ATOM      5  C   UNL     1      20.395 -12.404  40.623  1.00  0.00     0.004 C 
ENDBRANCH   3   4
BRANCH   3   6
ATOM      6  C   UNL     1      22.083 -14.477  38.629  1.00  0.00    -0.014 C 
ATOM      7  C   UNL     1      23.391 -15.118  38.116  1.00  0.00     0.007 C 
ATOM      8  C   UNL     1      20.902 -15.343  38.145  1.00  0.00     0.007 C 
ENDBRANCH   3   6
ENDBRANCH   2   3
ENDBRANCH   1   2
BRANCH   1   9
ATOM      9  C   UNL     1      23.784 -13.286  43.168  1.00  0.00    -0.011 C 
ATOM     10  C   UNL     1      24.125 -11.794  43.339  1.00  0.00     0.008 C 
BRANCH   9  11
ATOM     11  C   UNL     1      22.345 -13.721  43.648  1.00  0.00    -0.002 C 
ATOM     12  C   UNL     1      21.483 -12.660  44.359  1.00  0.00     0.005 C 
ATOM     13  C   UNL     1      22.280 -14.964  44.580  1.00  0.00    -0.026 C 
ATOM     14  C   UNL     1      20.526 -13.425  45.280  1.00  0.00     0.005 C 
ATOM     15  C   UNL     1      20.814 -14.929  45.092  1.00  0.00    -0.001 C 
ATOM     16  C   UNL     1      22.633 -16.303  43.877  1.00  0.00     0.007 C 
ATOM     17  C   UNL     1      23.243 -14.809  45.792  1.00  0.00     0.012 C 
ATOM     18  C   UNL     1      19.754 -15.562  44.124  1.00  0.00     0.000 C 
ATOM     19  C   UNL     1      21.595 -16.757  42.858  1.00  0.00     0.005 C 
ATOM     20  C   UNL     1      20.207 -16.908  43.513  1.00  0.00     0.003 C 
ATOM     21  C   UNL     1      18.448 -15.819  44.898  1.00  0.00     0.031 C 
ATOM     22  C   UNL     1      19.117 -17.538  42.541  1.00  0.00    -0.008 C 
ATOM     23  C   UNL     1      17.393 -16.389  44.007  1.00  0.00    -0.027 C 
ATOM     24  C   UNL     1      17.676 -17.211  42.978  1.00  0.00    -0.065 C 
ATOM     25  C   UNL     1      19.276 -17.012  41.077  1.00  0.00     0.014 C 
ATOM     26  C   UNL     1      19.301 -19.078  42.567  1.00  0.00     0.016 C 
ATOM     27  C   UNL     1      16.544 -17.641  42.066  1.00  0.00     0.063 C 
ATOM     28  C   UNL     1      18.139 -17.431  40.125  1.00  0.00     0.033 C 
ATOM     29  C   UNL     1      16.759 -17.042  40.671  1.00  0.00     0.118 C 
BRANCH  29  30
ATOM     30  O   UNL     1      15.770 -17.512  39.793  1.00  0.00    -0.393 OA
ATOM     31  H   UNL     1      15.926 -17.064  38.919  1.00  0.00     0.210 HD
ENDBRANCH  29  30
ENDBRANCH   9  11
ENDBRANCH   1   9
TORSDOF 7
ENDMDL
MODEL 8
REMARK VINA RESULT:    -5.504      2.472      6.826
REMARK INTER + INTRA:          -9.406
REMARK INTER:                  -6.683
REMARK INTRA:                  -2.723
REMARK UNBOUND:                -1.811
REMARK SMILES CC[C@H](CC[C@@H](C)[C@@H]1CC[C@H]2[C@@H]3CC=C4C[C@H](O)CC[C@@]4(C)[C@H]3CC[C@]21C)C(C)C
REMARK SMILES IDX 5 1 4 2 3 3 2 4 1 5 28 6 29 7 30 8 6 9 7 10 8 11 9 12 26 13
REMARK SMILES IDX 10 14 11 15 25 16 27 17 12 18 24 19 23 20 13 21 21 22 14 23
REMARK SMILES IDX 15 24 20 25 22 26 16 27 19 28 17 29 18 30
REMARK H PARENT 18 31
REMARK Flexibility Score: inf
ROOT
ATOM      1  C   UNL     1       9.825  -8.503  38.726  1.00  0.00     0.004 C 
ENDROOT
BRANCH   1   2
ATOM      2  C   UNL     1      10.957  -7.895  39.593  1.00  0.00     0.004 C 
BRANCH   2   3
ATOM      3  C   UNL     1      12.284  -8.701  39.508  1.00  0.00    -0.009 C 
BRANCH   3   4
ATOM      4  C   UNL     1      13.409  -7.782  38.933  1.00  0.00     0.000 C 
ATOM      5  C   UNL     1      13.263  -7.544  37.429  1.00  0.00     0.004 C 
ENDBRANCH   3   4
BRANCH   3   6
ATOM      6  C   UNL     1      12.675  -9.316  40.897  1.00  0.00    -0.014 C 
ATOM      7  C   UNL     1      12.111  -8.496  42.078  1.00  0.00     0.007 C 
ATOM      8  C   UNL     1      12.185 -10.771  41.047  1.00  0.00     0.007 C 
ENDBRANCH   3   6
ENDBRANCH   2   3
ENDBRANCH   1   2
BRANCH   1   9
ATOM      9  C   UNL     1       8.690  -9.193  39.525  1.00  0.00    -0.011 C 
ATOM     10  C   UNL     1       8.588 -10.685  39.159  1.00  0.00     0.008 C 
BRANCH   9  11
ATOM     11  C   UNL     1       8.758  -8.867  41.068  1.00  0.00    -0.002 C 
ATOM     12  C   UNL     1       8.691 -10.055  42.048  1.00  0.00     0.005 C 
ATOM     13  C   UNL     1       7.700  -7.861  41.603  1.00  0.00    -0.026 C 
ATOM     14  C   UNL     1       8.104  -9.508  43.353  1.00  0.00     0.005 C 
ATOM     15  C   UNL     1       7.847  -8.001  43.143  1.00  0.00    -0.001 C 
ATOM     16  C   UNL     1       7.909  -6.402  41.116  1.00  0.00     0.007 C 
ATOM     17  C   UNL     1       6.261  -8.286  41.191  1.00  0.00     0.012 C 
ATOM     18  C   UNL     1       9.009  -7.164  43.782  1.00  0.00     0.000 C 
ATOM     19  C   UNL     1       9.145  -5.728  41.698  1.00  0.00     0.005 C 
ATOM     20  C   UNL     1       9.095  -5.718  43.240  1.00  0.00     0.003 C 
ATOM     21  C   UNL     1       8.798  -7.078  45.304  1.00  0.00     0.031 C 
ATOM     22  C   UNL     1      10.274  -4.883  43.904  1.00  0.00    -0.008 C 
ATOM     23  C   UNL     1       9.903  -6.319  45.964  1.00  0.00    -0.027 C 
ATOM     24  C   UNL     1      10.537  -5.291  45.366  1.00  0.00    -0.065 C 
ATOM     25  C   UNL     1      11.621  -5.073  43.132  1.00  0.00     0.014 C 
ATOM     26  C   UNL     1       9.862  -3.388  43.877  1.00  0.00     0.016 C 
ATOM     27  C   UNL     1      11.721  -4.665  46.075  1.00  0.00     0.063 C 
ATOM     28  C   UNL     1      12.845  -4.447  43.829  1.00  0.00     0.033 C 
ATOM     29  C   UNL     1      12.999  -4.940  45.274  1.00  0.00     0.118 C 
BRANCH  29  30
ATOM     30  O   UNL     1      14.086  -4.283  45.869  1.00  0.00    -0.393 OA
ATOM     31  H   UNL     1      14.395  -3.595  45.221  1.00  0.00     0.210 HD
ENDBRANCH  29  30
ENDBRANCH   9  11
ENDBRANCH   1   9
TORSDOF 7
ENDMDL
