MODEL 1
REMARK VINA RESULT:    -4.082      0.000      0.000
REMARK INTER + INTRA:         -10.688
REMARK INTER:                  -8.616
REMARK INTRA:                  -2.072
REMARK UNBOUND:                -2.072
REMARK SMILES CCC(=O)CCCCC[C@@H]1NC(=O)[C@H]2CCCCN2C(=O)[C@H]([C@@H](C)CC)NC(=O)[C@H](Cc2cn(OC)c3ccccc23)NC1=O
REMARK SMILES IDX 9 1 10 2 44 3 43 4 45 6 30 7 28 8 27 9 29 11 22 12 23 14
REMARK SMILES IDX 24 15 25 16 26 17 31 18 32 19 33 20 42 21 34 22 37 23 41 24
REMARK SMILES IDX 38 25 40 26 39 27 35 28 36 29 11 30 12 31 13 33 14 34 19 35
REMARK SMILES IDX 15 36 18 37 16 38 17 39 20 40 21 41 8 43 7 44 6 45 5 46 3 47
REMARK SMILES IDX 4 48 2 49 1 50
REMARK H PARENT 43 5 27 10 11 32
REMARK Flexibility Score: 80.00
ROOT
ATOM      1  C   UNL     1      62.857  25.512  51.438  1.00  0.00     0.035 C 
ENDROOT
BRANCH   1   2
ATOM      2  C   UNL     1      63.026  26.613  50.367  1.00  0.00     0.171 C 
BRANCH   2   3
ATOM      3  C   UNL     1      61.863  27.577  50.350  1.00  0.00     0.243 C 
ATOM      4  N   UNL     1      61.724  28.601  51.347  1.00  0.00    -0.342 N 
ATOM      5  H   UNL     1      62.281  28.522  52.228  1.00  0.00     0.164 HD
ATOM      6  O   UNL     1      60.998  27.470  49.435  1.00  0.00    -0.273 OA
BRANCH   4   7
ATOM      7  C   UNL     1      60.934  29.819  51.127  1.00  0.00     0.175 C 
BRANCH   7   8
ATOM      8  C   UNL     1      61.808  31.024  51.362  1.00  0.00     0.243 C 
ATOM      9  N   UNL     1      62.251  31.817  50.254  1.00  0.00    -0.342 N 
ATOM     10  H   UNL     1      61.511  32.134  49.576  1.00  0.00     0.164 HD
ATOM     11  O   UNL     1      62.142  31.347  52.535  1.00  0.00    -0.273 OA
BRANCH   9  12
ATOM     12  C   UNL     1      63.644  31.828  49.779  1.00  0.00     0.174 CG0
ATOM     13  G   UNL     1      64.234  30.431  49.740  1.00  0.00     0.000 G0
BRANCH  12  14
ATOM     14  C   UNL     1      64.504  32.965  50.437  1.00  0.00     0.018 C 
ATOM     15  C   UNL     1      65.353  33.657  49.353  1.00  0.00     0.010 C 
BRANCH  14  16
ATOM     16  C   UNL     1      63.673  34.021  51.201  1.00  0.00     0.002 C 
ATOM     17  C   UNL     1      64.332  35.407  51.235  1.00  0.00     0.004 C 
ENDBRANCH  14  16
ENDBRANCH  12  14
ENDBRANCH   9  12
ENDBRANCH   7   8
BRANCH   7  18
ATOM     18  C   UNL     1      59.693  29.812  52.044  1.00  0.00     0.073 C 
BRANCH  18  19
ATOM     19  C   UNL     1      58.760  28.682  51.701  1.00  0.00    -0.016 A 
ATOM     20  C   UNL     1      57.628  28.762  50.885  1.00  0.00     0.134 A 
ATOM     21  C   UNL     1      58.677  27.454  52.342  1.00  0.00     0.006 A 
ATOM     22  N   UNL     1      56.895  27.628  51.014  1.00  0.00    -0.191 N 
ATOM     23  C   UNL     1      57.524  26.849  51.908  1.00  0.00     0.087 A 
ATOM     24  C   UNL     1      59.516  26.843  53.276  1.00  0.00     0.011 A 
ATOM     25  C   UNL     1      57.133  25.593  52.383  1.00  0.00     0.030 A 
ATOM     26  C   UNL     1      59.145  25.575  53.763  1.00  0.00     0.001 A 
ATOM     27  C   UNL     1      57.958  24.956  53.315  1.00  0.00     0.002 A 
BRANCH  22  28
ATOM     28  O   UNL     1      55.726  27.304  50.349  1.00  0.00    -0.417 OA
ATOM     29  C   UNL     1      54.575  28.133  50.397  1.00  0.00     0.313 C 
ENDBRANCH  22  28
ENDBRANCH  18  19
ENDBRANCH   7  18
ENDBRANCH   4   7
ENDBRANCH   2   3
BRANCH   2  30
ATOM     30  N   UNL     1      64.306  27.343  50.488  1.00  0.00    -0.343 N 
ATOM     31  C   UNL     1      64.815  27.907  51.708  1.00  0.00     0.243 C 
ATOM     32  H   UNL     1      64.817  27.545  49.606  1.00  0.00     0.164 HD
ATOM     33  O   UNL     1      64.870  27.193  52.749  1.00  0.00    -0.273 OA
BRANCH  31  34
ATOM     34  C   UNL     1      65.198  29.378  51.830  1.00  0.00     0.174 C 
ATOM     35  N   UNL     1      65.420  30.065  50.537  1.00  0.00    -0.329 N 
ATOM     36  C   UNL     1      66.404  29.579  52.774  1.00  0.00     0.035 C 
ATOM     37  C   UNL     1      66.726  29.975  49.866  1.00  0.00     0.120 C 
ATOM     38  C   UNL     1      67.725  29.297  52.066  1.00  0.00     0.004 C 
ATOM     39  C   UNL     1      67.877  30.209  50.851  1.00  0.00     0.022 C 
BRANCH  35  40
ATOM     40  C   UNL     1      64.295  30.434  49.724  1.00  0.00     0.246 CG0
ATOM     41  O   UNL     1      63.881  29.619  48.853  1.00  0.00    -0.272 OA
ATOM     42  G   UNL     1      63.626  31.793  49.795  1.00  0.00     0.000 G0
ENDBRANCH  35  40
ENDBRANCH  31  34
ENDBRANCH   2  30
ENDBRANCH   1   2
BRANCH   1  43
ATOM     43  C   UNL     1      61.631  24.596  51.225  1.00  0.00     0.003 C 
BRANCH  43  44
ATOM     44  C   UNL     1      61.948  23.105  51.014  1.00  0.00     0.001 C 
BRANCH  44  45
ATOM     45  C   UNL     1      60.748  22.263  50.530  1.00  0.00     0.008 C 
BRANCH  45  46
ATOM     46  C   UNL     1      61.125  21.075  49.626  1.00  0.00     0.075 C 
BRANCH  46  47
ATOM     47  C   UNL     1      61.322  19.771  50.383  1.00  0.00     0.132 C 
ATOM     48  O   UNL     1      62.323  19.624  51.075  1.00  0.00    -0.300 OA
BRANCH  47  49
ATOM     49  C   UNL     1      60.294  18.660  50.399  1.00  0.00     0.072 C 
ATOM     50  C   UNL     1      58.843  19.115  50.234  1.00  0.00     0.012 C 
ENDBRANCH  47  49
ENDBRANCH  46  47
ENDBRANCH  45  46
ENDBRANCH  44  45
ENDBRANCH  43  44
ENDBRANCH   1  43
TORSDOF 12
ENDMDL
MODEL 2
REMARK VINA RESULT:    -3.926      2.568      3.929
REMARK INTER + INTRA:         -10.358
REMARK INTER:                  -8.766
REMARK INTRA:                  -1.592
REMARK UNBOUND:                -2.072
REMARK SMILES CCC(=O)CCCCC[C@@H]1NC(=O)[C@H]2CCCCN2C(=O)[C@H]([C@@H](C)CC)NC(=O)[C@H](Cc2cn(OC)c3ccccc23)NC1=O
REMARK SMILES IDX 9 1 10 2 44 3 43 4 45 6 30 7 28 8 27 9 29 11 22 12 23 14
REMARK SMILES IDX 24 15 25 16 26 17 31 18 32 19 33 20 42 21 34 22 37 23 41 24
REMARK SMILES IDX 38 25 40 26 39 27 35 28 36 29 11 30 12 31 13 33 14 34 19 35
REMARK SMILES IDX 15 36 18 37 16 38 17 39 20 40 21 41 8 43 7 44 6 45 5 46 3 47
REMARK SMILES IDX 4 48 2 49 1 50
REMARK H PARENT 43 5 27 10 11 32
REMARK Flexibility Score: 80.00
ROOT
ATOM      1  C   UNL     1      60.479  23.420  52.087  1.00  0.00     0.035 C 
ENDROOT
BRANCH   1   2
ATOM      2  C   UNL     1      60.165  24.460  50.988  1.00  0.00     0.171 C 
BRANCH   2   3
ATOM      3  C   UNL     1      59.069  25.414  51.401  1.00  0.00     0.243 C 
ATOM      4  N   UNL     1      59.265  26.368  52.456  1.00  0.00    -0.342 N 
ATOM      5  H   UNL     1      60.069  26.234  53.111  1.00  0.00     0.164 HD
ATOM      6  O   UNL     1      57.960  25.363  50.799  1.00  0.00    -0.273 OA
BRANCH   4   7
ATOM      7  C   UNL     1      58.463  27.592  52.577  1.00  0.00     0.175 C 
BRANCH   7   8
ATOM      8  C   UNL     1      59.387  28.776  52.709  1.00  0.00     0.243 C 
ATOM      9  N   UNL     1      59.555  29.681  51.611  1.00  0.00    -0.342 N 
ATOM     10  H   UNL     1      58.677  30.058  51.172  1.00  0.00     0.164 HD
ATOM     11  O   UNL     1      60.004  28.982  53.790  1.00  0.00    -0.273 OA
BRANCH   9  12
ATOM     12  C   UNL     1      60.790  29.755  50.812  1.00  0.00     0.174 CG0
ATOM     13  G   UNL     1      61.231  28.384  50.337  1.00  0.00     0.000 G0
BRANCH  12  14
ATOM     14  C   UNL     1      61.875  30.691  51.452  1.00  0.00     0.018 C 
ATOM     15  C   UNL     1      62.660  31.403  50.333  1.00  0.00     0.010 C 
BRANCH  14  16
ATOM     16  C   UNL     1      61.306  31.737  52.436  1.00  0.00     0.002 C 
ATOM     17  C   UNL     1      62.311  32.174  53.511  1.00  0.00     0.004 C 
ENDBRANCH  14  16
ENDBRANCH  12  14
ENDBRANCH   9  12
ENDBRANCH   7   8
BRANCH   7  18
ATOM     18  C   UNL     1      57.496  27.471  53.773  1.00  0.00     0.073 C 
BRANCH  18  19
ATOM     19  C   UNL     1      56.083  27.225  53.317  1.00  0.00    -0.016 A 
ATOM     20  C   UNL     1      55.324  26.078  53.561  1.00  0.00     0.134 A 
ATOM     21  C   UNL     1      55.389  27.940  52.352  1.00  0.00     0.006 A 
ATOM     22  N   UNL     1      54.210  26.098  52.787  1.00  0.00    -0.191 N 
ATOM     23  C   UNL     1      54.262  27.217  52.047  1.00  0.00     0.087 A 
ATOM     24  C   UNL     1      55.673  29.151  51.718  1.00  0.00     0.011 A 
ATOM     25  C   UNL     1      53.348  27.657  51.085  1.00  0.00     0.030 A 
ATOM     26  C   UNL     1      54.763  29.617  50.751  1.00  0.00     0.001 A 
ATOM     27  C   UNL     1      53.606  28.870  50.439  1.00  0.00     0.002 A 
BRANCH  22  28
ATOM     28  O   UNL     1      53.189  25.164  52.760  1.00  0.00    -0.417 OA
ATOM     29  C   UNL     1      53.384  23.846  52.271  1.00  0.00     0.313 C 
ENDBRANCH  22  28
ENDBRANCH  18  19
ENDBRANCH   7  18
ENDBRANCH   4   7
ENDBRANCH   2   3
BRANCH   2  30
ATOM     30  N   UNL     1      61.362  25.203  50.539  1.00  0.00    -0.343 N 
ATOM     31  C   UNL     1      62.475  25.549  51.380  1.00  0.00     0.243 C 
ATOM     32  H   UNL     1      61.343  25.584  49.572  1.00  0.00     0.164 HD
ATOM     33  O   UNL     1      63.022  24.656  52.086  1.00  0.00    -0.273 OA
BRANCH  31  34
ATOM     34  C   UNL     1      62.961  26.985  51.539  1.00  0.00     0.174 C 
ATOM     35  N   UNL     1      62.604  27.884  50.418  1.00  0.00    -0.329 N 
ATOM     36  C   UNL     1      64.477  27.047  51.832  1.00  0.00     0.035 C 
ATOM     37  C   UNL     1      63.444  27.932  49.211  1.00  0.00     0.120 C 
ATOM     38  C   UNL     1      65.302  26.911  50.556  1.00  0.00     0.004 C 
ATOM     39  C   UNL     1      64.932  28.018  49.570  1.00  0.00     0.022 C 
BRANCH  35  40
ATOM     40  C   UNL     1      61.257  28.364  50.292  1.00  0.00     0.246 CG0
ATOM     41  O   UNL     1      60.422  27.670  49.646  1.00  0.00    -0.272 OA
ATOM     42  G   UNL     1      60.799  29.710  50.821  1.00  0.00     0.000 G0
ENDBRANCH  35  40
ENDBRANCH  31  34
ENDBRANCH   2  30
ENDBRANCH   1   2
BRANCH   1  43
ATOM     43  C   UNL     1      59.234  22.742  52.701  1.00  0.00     0.003 C 
BRANCH  43  44
ATOM     44  C   UNL     1      59.358  21.228  52.946  1.00  0.00     0.001 C 
BRANCH  44  45
ATOM     45  C   UNL     1      58.200  20.621  53.767  1.00  0.00     0.008 C 
BRANCH  45  46
ATOM     46  C   UNL     1      57.239  19.733  52.955  1.00  0.00     0.075 C 
BRANCH  46  47
ATOM     47  C   UNL     1      57.947  18.725  52.063  1.00  0.00     0.132 C 
ATOM     48  O   UNL     1      58.218  17.615  52.510  1.00  0.00    -0.300 OA
BRANCH  47  49
ATOM     49  C   UNL     1      58.264  18.987  50.607  1.00  0.00     0.072 C 
ATOM     50  C   UNL     1      59.025  17.868  49.896  1.00  0.00     0.012 C 
ENDBRANCH  47  49
ENDBRANCH  46  47
ENDBRANCH  45  46
ENDBRANCH  44  45
ENDBRANCH  43  44
ENDBRANCH   1  43
TORSDOF 12
ENDMDL
MODEL 3
REMARK VINA RESULT:    -3.850      7.804     11.462
REMARK INTER + INTRA:         -10.199
REMARK INTER:                  -7.992
REMARK INTRA:                  -2.207
REMARK UNBOUND:                -2.072
REMARK SMILES CCC(=O)CCCCC[C@@H]1NC(=O)[C@H]2CCCCN2C(=O)[C@H]([C@@H](C)CC)NC(=O)[C@H](Cc2cn(OC)c3ccccc23)NC1=O
REMARK SMILES IDX 9 1 10 2 44 3 43 4 45 6 30 7 28 8 27 9 29 11 22 12 23 14
REMARK SMILES IDX 24 15 25 16 26 17 31 18 32 19 33 20 42 21 34 22 37 23 41 24
REMARK SMILES IDX 38 25 40 26 39 27 35 28 36 29 11 30 12 31 13 33 14 34 19 35
REMARK SMILES IDX 15 36 18 37 16 38 17 39 20 40 21 41 8 43 7 44 6 45 5 46 3 47
REMARK SMILES IDX 4 48 2 49 1 50
REMARK H PARENT 43 5 27 10 11 32
REMARK Flexibility Score: 80.00
ROOT
ATOM      1  C   UNL     1      63.915  26.138  59.627  1.00  0.00     0.035 C 
ENDROOT
BRANCH   1   2
ATOM      2  C   UNL     1      63.894  27.560  60.230  1.00  0.00     0.171 C 
BRANCH   2   3
ATOM      3  C   UNL     1      65.180  28.310  59.969  1.00  0.00     0.243 C 
ATOM      4  N   UNL     1      65.381  29.052  58.757  1.00  0.00    -0.342 N 
ATOM      5  H   UNL     1      64.750  28.869  57.945  1.00  0.00     0.164 HD
ATOM      6  O   UNL     1      66.091  28.274  60.843  1.00  0.00    -0.273 OA
BRANCH   4   7
ATOM      7  C   UNL     1      66.352  30.150  58.653  1.00  0.00     0.175 C 
BRANCH   7   8
ATOM      8  C   UNL     1      65.634  31.403  58.219  1.00  0.00     0.243 C 
ATOM      9  N   UNL     1      65.399  32.457  59.161  1.00  0.00    -0.342 N 
ATOM     10  H   UNL     1      66.228  32.786  59.718  1.00  0.00     0.164 HD
ATOM     11  O   UNL     1      65.252  31.535  57.025  1.00  0.00    -0.273 OA
BRANCH   9  12
ATOM     12  C   UNL     1      64.064  32.772  59.697  1.00  0.00     0.174 CG0
ATOM     13  G   UNL     1      63.237  31.520  59.915  1.00  0.00     0.000 G0
BRANCH  12  14
ATOM     14  C   UNL     1      63.381  33.980  58.960  1.00  0.00     0.018 C 
ATOM     15  C   UNL     1      62.813  34.961  60.005  1.00  0.00     0.010 C 
BRANCH  14  16
ATOM     16  C   UNL     1      64.315  34.735  57.989  1.00  0.00     0.002 C 
ATOM     17  C   UNL     1      63.562  35.587  56.958  1.00  0.00     0.004 C 
ENDBRANCH  14  16
ENDBRANCH  12  14
ENDBRANCH   9  12
ENDBRANCH   7   8
BRANCH   7  18
ATOM     18  C   UNL     1      67.482  29.760  57.678  1.00  0.00     0.073 C 
BRANCH  18  19
ATOM     19  C   UNL     1      68.809  30.314  58.123  1.00  0.00    -0.016 A 
ATOM     20  C   UNL     1      69.638  29.780  59.114  1.00  0.00     0.134 A 
ATOM     21  C   UNL     1      69.311  31.578  57.852  1.00  0.00     0.006 A 
ATOM     22  N   UNL     1      70.608  30.675  59.424  1.00  0.00    -0.191 N 
ATOM     23  C   UNL     1      70.396  31.766  58.671  1.00  0.00     0.087 A 
ATOM     24  C   UNL     1      68.884  32.570  56.967  1.00  0.00     0.011 A 
ATOM     25  C   UNL     1      71.124  32.960  58.660  1.00  0.00     0.030 A 
ATOM     26  C   UNL     1      69.606  33.777  56.933  1.00  0.00     0.001 A 
ATOM     27  C   UNL     1      70.721  33.967  57.778  1.00  0.00     0.002 A 
BRANCH  22  28
ATOM     28  O   UNL     1      71.643  30.512  60.329  1.00  0.00    -0.417 OA
ATOM     29  C   UNL     1      71.682  29.428  61.244  1.00  0.00     0.313 C 
ENDBRANCH  22  28
ENDBRANCH  18  19
ENDBRANCH   7  18
ENDBRANCH   4   7
ENDBRANCH   2   3
BRANCH   2  30
ATOM     30  N   UNL     1      62.729  28.357  59.789  1.00  0.00    -0.343 N 
ATOM     31  C   UNL     1      62.473  28.753  58.432  1.00  0.00     0.243 C 
ATOM     32  H   UNL     1      62.111  28.736  60.533  1.00  0.00     0.164 HD
ATOM     33  O   UNL     1      62.507  27.885  57.513  1.00  0.00    -0.273 OA
BRANCH  31  34
ATOM     34  C   UNL     1      62.265  30.209  58.032  1.00  0.00     0.174 C 
ATOM     35  N   UNL     1      62.079  31.139  59.169  1.00  0.00    -0.329 N 
ATOM     36  C   UNL     1      61.121  30.362  57.004  1.00  0.00     0.035 C 
ATOM     37  C   UNL     1      60.750  31.312  59.776  1.00  0.00     0.120 C 
ATOM     38  C   UNL     1      59.753  30.355  57.680  1.00  0.00     0.004 C 
ATOM     39  C   UNL     1      59.666  31.483  58.705  1.00  0.00     0.022 C 
BRANCH  35  40
ATOM     40  C   UNL     1      63.211  31.528  59.962  1.00  0.00     0.246 CG0
ATOM     41  O   UNL     1      63.479  30.867  61.005  1.00  0.00    -0.272 OA
ATOM     42  G   UNL     1      64.058  32.750  59.663  1.00  0.00     0.000 G0
ENDBRANCH  35  40
ENDBRANCH  31  34
ENDBRANCH   2  30
ENDBRANCH   1   2
BRANCH   1  43
ATOM     43  C   UNL     1      62.689  25.272  59.991  1.00  0.00     0.003 C 
BRANCH  43  44
ATOM     44  C   UNL     1      62.421  25.103  61.497  1.00  0.00     0.001 C 
BRANCH  44  45
ATOM     45  C   UNL     1      61.243  25.946  62.031  1.00  0.00     0.008 C 
BRANCH  45  46
ATOM     46  C   UNL     1      59.918  25.174  62.167  1.00  0.00     0.075 C 
BRANCH  46  47
ATOM     47  C   UNL     1      58.823  25.675  61.239  1.00  0.00     0.132 C 
ATOM     48  O   UNL     1      57.748  26.027  61.714  1.00  0.00    -0.300 OA
BRANCH  47  49
ATOM     49  C   UNL     1      59.016  25.846  59.748  1.00  0.00     0.072 C 
ATOM     50  C   UNL     1      59.313  24.559  58.979  1.00  0.00     0.012 C 
ENDBRANCH  47  49
ENDBRANCH  46  47
ENDBRANCH  45  46
ENDBRANCH  44  45
ENDBRANCH  43  44
ENDBRANCH   1  43
TORSDOF 12
ENDMDL
MODEL 4
REMARK VINA RESULT:    -3.743      8.132     11.558
REMARK INTER + INTRA:          -9.972
REMARK INTER:                  -8.178
REMARK INTRA:                  -1.795
REMARK UNBOUND:                -2.072
REMARK SMILES CCC(=O)CCCCC[C@@H]1NC(=O)[C@H]2CCCCN2C(=O)[C@H]([C@@H](C)CC)NC(=O)[C@H](Cc2cn(OC)c3ccccc23)NC1=O
REMARK SMILES IDX 9 1 10 2 44 3 43 4 45 6 30 7 28 8 27 9 29 11 22 12 23 14
REMARK SMILES IDX 24 15 25 16 26 17 31 18 32 19 33 20 42 21 34 22 37 23 41 24
REMARK SMILES IDX 38 25 40 26 39 27 35 28 36 29 11 30 12 31 13 33 14 34 19 35
REMARK SMILES IDX 15 36 18 37 16 38 17 39 20 40 21 41 8 43 7 44 6 45 5 46 3 47
REMARK SMILES IDX 4 48 2 49 1 50
REMARK H PARENT 43 5 27 10 11 32
REMARK Flexibility Score: 80.00
ROOT
ATOM      1  C   UNL     1      57.817  29.263  58.324  1.00  0.00     0.035 C 
ENDROOT
BRANCH   1   2
ATOM      2  C   UNL     1      59.296  29.012  57.953  1.00  0.00     0.171 C 
BRANCH   2   3
ATOM      3  C   UNL     1      60.177  30.193  58.287  1.00  0.00     0.243 C 
ATOM      4  N   UNL     1      60.797  30.324  59.575  1.00  0.00    -0.342 N 
ATOM      5  H   UNL     1      60.439  29.741  60.366  1.00  0.00     0.164 HD
ATOM      6  O   UNL     1      60.364  31.080  57.407  1.00  0.00    -0.273 OA
BRANCH   4   7
ATOM      7  C   UNL     1      61.996  31.142  59.797  1.00  0.00     0.175 C 
BRANCH   7   8
ATOM      8  C   UNL     1      63.074  30.283  60.410  1.00  0.00     0.243 C 
ATOM      9  N   UNL     1      64.186  29.853  59.617  1.00  0.00    -0.342 N 
ATOM     10  H   UNL     1      64.694  30.598  59.075  1.00  0.00     0.164 HD
ATOM     11  O   UNL     1      63.006  29.951  61.625  1.00  0.00    -0.273 OA
BRANCH   9  12
ATOM     12  C   UNL     1      64.368  28.461  59.175  1.00  0.00     0.174 CG0
ATOM     13  G   UNL     1      63.052  27.826  58.767  1.00  0.00     0.000 G0
BRANCH  12  14
ATOM     14  C   UNL     1      65.313  27.639  60.121  1.00  0.00     0.018 C 
ATOM     15  C   UNL     1      66.016  26.534  59.308  1.00  0.00     0.010 C 
BRANCH  14  16
ATOM     16  C   UNL     1      66.367  28.495  60.858  1.00  0.00     0.002 C 
ATOM     17  C   UNL     1      67.567  28.875  59.978  1.00  0.00     0.004 C 
ENDBRANCH  14  16
ENDBRANCH  12  14
ENDBRANCH   9  12
ENDBRANCH   7   8
BRANCH   7  18
ATOM     18  C   UNL     1      61.646  32.356  60.682  1.00  0.00     0.073 C 
BRANCH  18  19
ATOM     19  C   UNL     1      61.966  33.654  59.990  1.00  0.00    -0.016 A 
ATOM     20  C   UNL     1      61.390  34.124  58.807  1.00  0.00     0.134 A 
ATOM     21  C   UNL     1      63.065  34.468  60.225  1.00  0.00     0.006 A 
ATOM     22  N   UNL     1      62.100  35.184  58.347  1.00  0.00    -0.191 N 
ATOM     23  C   UNL     1      63.119  35.377  59.198  1.00  0.00     0.087 A 
ATOM     24  C   UNL     1      64.016  34.461  61.246  1.00  0.00     0.011 A 
ATOM     25  C   UNL     1      64.133  36.338  59.125  1.00  0.00     0.030 A 
ATOM     26  C   UNL     1      65.041  35.424  61.197  1.00  0.00     0.001 A 
ATOM     27  C   UNL     1      65.095  36.357  60.139  1.00  0.00     0.002 A 
BRANCH  22  28
ATOM     28  O   UNL     1      61.833  35.950  57.225  1.00  0.00    -0.417 OA
ATOM     29  C   UNL     1      60.512  36.163  56.753  1.00  0.00     0.313 C 
ENDBRANCH  22  28
ENDBRANCH  18  19
ENDBRANCH   7  18
ENDBRANCH   4   7
ENDBRANCH   2   3
BRANCH   2  30
ATOM     30  N   UNL     1      59.837  27.773  58.550  1.00  0.00    -0.343 N 
ATOM     31  C   UNL     1      60.032  27.558  59.957  1.00  0.00     0.243 C 
ATOM     32  H   UNL     1      60.193  27.051  57.892  1.00  0.00     0.164 HD
ATOM     33  O   UNL     1      59.084  27.793  60.759  1.00  0.00    -0.273 OA
BRANCH  31  34
ATOM     34  C   UNL     1      61.380  27.156  60.543  1.00  0.00     0.174 C 
ATOM     35  N   UNL     1      62.396  26.766  59.538  1.00  0.00    -0.329 N 
ATOM     36  C   UNL     1      61.232  26.066  61.628  1.00  0.00     0.035 C 
ATOM     37  C   UNL     1      62.427  25.392  59.012  1.00  0.00     0.120 C 
ATOM     38  C   UNL     1      61.088  24.677  61.012  1.00  0.00     0.004 C 
ATOM     39  C   UNL     1      62.300  24.360  60.139  1.00  0.00     0.022 C 
BRANCH  35  40
ATOM     40  C   UNL     1      63.048  27.776  58.754  1.00  0.00     0.246 CG0
ATOM     41  O   UNL     1      62.565  28.076  57.627  1.00  0.00    -0.272 OA
ATOM     42  G   UNL     1      64.342  28.448  59.170  1.00  0.00     0.000 G0
ENDBRANCH  35  40
ENDBRANCH  31  34
ENDBRANCH   2  30
ENDBRANCH   1   2
BRANCH   1  43
ATOM     43  C   UNL     1      57.077  30.235  57.378  1.00  0.00     0.003 C 
BRANCH  43  44
ATOM     44  C   UNL     1      55.570  29.971  57.204  1.00  0.00     0.001 C 
BRANCH  44  45
ATOM     45  C   UNL     1      54.684  31.225  57.361  1.00  0.00     0.008 C 
BRANCH  45  46
ATOM     46  C   UNL     1      55.461  32.524  57.646  1.00  0.00     0.075 C 
BRANCH  46  47
ATOM     47  C   UNL     1      55.464  33.502  56.483  1.00  0.00     0.132 C 
ATOM     48  O   UNL     1      54.985  33.156  55.407  1.00  0.00    -0.300 OA
BRANCH  47  49
ATOM     49  C   UNL     1      55.953  34.929  56.602  1.00  0.00     0.072 C 
ATOM     50  C   UNL     1      56.989  35.171  57.700  1.00  0.00     0.012 C 
ENDBRANCH  47  49
ENDBRANCH  46  47
ENDBRANCH  45  46
ENDBRANCH  44  45
ENDBRANCH  43  44
ENDBRANCH   1  43
TORSDOF 12
ENDMDL
MODEL 5
REMARK VINA RESULT:    -3.731      5.419      8.629
REMARK INTER + INTRA:          -9.948
REMARK INTER:                  -6.973
REMARK INTRA:                  -2.975
REMARK UNBOUND:                -2.072
REMARK SMILES CCC(=O)CCCCC[C@@H]1NC(=O)[C@H]2CCCCN2C(=O)[C@H]([C@@H](C)CC)NC(=O)[C@H](Cc2cn(OC)c3ccccc23)NC1=O
REMARK SMILES IDX 9 1 10 2 44 3 43 4 45 6 30 7 28 8 27 9 29 11 22 12 23 14
REMARK SMILES IDX 24 15 25 16 26 17 31 18 32 19 33 20 42 21 34 22 37 23 41 24
REMARK SMILES IDX 38 25 40 26 39 27 35 28 36 29 11 30 12 31 13 33 14 34 19 35
REMARK SMILES IDX 15 36 18 37 16 38 17 39 20 40 21 41 8 43 7 44 6 45 5 46 3 47
REMARK SMILES IDX 4 48 2 49 1 50
REMARK H PARENT 43 5 27 10 11 32
REMARK Flexibility Score: 80.00
ROOT
ATOM      1  C   UNL     1      57.987  30.820  55.113  1.00  0.00     0.035 C 
ENDROOT
BRANCH   1   2
ATOM      2  C   UNL     1      58.361  29.662  56.066  1.00  0.00     0.171 C 
BRANCH   2   3
ATOM      3  C   UNL     1      59.288  28.663  55.414  1.00  0.00     0.243 C 
ATOM      4  N   UNL     1      60.713  28.841  55.432  1.00  0.00    -0.342 N 
ATOM      5  H   UNL     1      61.098  29.784  55.669  1.00  0.00     0.164 HD
ATOM      6  O   UNL     1      58.789  27.654  54.842  1.00  0.00    -0.273 OA
BRANCH   4   7
ATOM      7  C   UNL     1      61.652  27.726  55.261  1.00  0.00     0.175 C 
BRANCH   7   8
ATOM      8  C   UNL     1      62.585  27.680  56.446  1.00  0.00     0.243 C 
ATOM      9  N   UNL     1      62.432  26.659  57.440  1.00  0.00    -0.342 N 
ATOM     10  H   UNL     1      62.369  25.668  57.092  1.00  0.00     0.164 HD
ATOM     11  O   UNL     1      63.509  28.529  56.559  1.00  0.00    -0.273 OA
BRANCH   9  12
ATOM     12  C   UNL     1      61.925  26.927  58.796  1.00  0.00     0.174 CG0
ATOM     13  G   UNL     1      60.804  27.949  58.783  1.00  0.00     0.000 G0
BRANCH  12  14
ATOM     14  C   UNL     1      63.073  27.116  59.849  1.00  0.00     0.018 C 
ATOM     15  C   UNL     1      62.625  26.534  61.204  1.00  0.00     0.010 C 
BRANCH  14  16
ATOM     16  C   UNL     1      64.421  26.488  59.433  1.00  0.00     0.002 C 
ATOM     17  C   UNL     1      64.458  24.961  59.592  1.00  0.00     0.004 C 
ENDBRANCH  14  16
ENDBRANCH  12  14
ENDBRANCH   9  12
ENDBRANCH   7   8
BRANCH   7  18
ATOM     18  C   UNL     1      62.413  27.879  53.928  1.00  0.00     0.073 C 
BRANCH  18  19
ATOM     19  C   UNL     1      61.678  27.215  52.795  1.00  0.00    -0.016 A 
ATOM     20  C   UNL     1      61.886  25.915  52.324  1.00  0.00     0.134 A 
ATOM     21  C   UNL     1      60.887  27.839  51.841  1.00  0.00     0.006 A 
ATOM     22  N   UNL     1      61.241  25.752  51.142  1.00  0.00    -0.191 N 
ATOM     23  C   UNL     1      60.653  26.922  50.847  1.00  0.00     0.087 A 
ATOM     24  C   UNL     1      60.378  29.137  51.772  1.00  0.00     0.011 A 
ATOM     25  C   UNL     1      59.896  27.245  49.717  1.00  0.00     0.030 A 
ATOM     26  C   UNL     1      59.607  29.482  50.647  1.00  0.00     0.001 A 
ATOM     27  C   UNL     1      59.370  28.537  49.626  1.00  0.00     0.002 A 
BRANCH  22  28
ATOM     28  O   UNL     1      61.172  24.602  50.375  1.00  0.00    -0.417 OA
ATOM     29  C   UNL     1      60.377  23.489  50.753  1.00  0.00     0.313 C 
ENDBRANCH  22  28
ENDBRANCH  18  19
ENDBRANCH   7  18
ENDBRANCH   4   7
ENDBRANCH   2   3
BRANCH   2  30
ATOM     30  N   UNL     1      58.921  30.132  57.351  1.00  0.00    -0.343 N 
ATOM     31  C   UNL     1      60.151  30.862  57.491  1.00  0.00     0.243 C 
ATOM     32  H   UNL     1      58.437  29.821  58.216  1.00  0.00     0.164 HD
ATOM     33  O   UNL     1      60.353  31.884  56.776  1.00  0.00    -0.273 OA
BRANCH  31  34
ATOM     34  C   UNL     1      61.282  30.390  58.398  1.00  0.00     0.174 C 
ATOM     35  N   UNL     1      60.911  29.294  59.323  1.00  0.00    -0.329 N 
ATOM     36  C   UNL     1      61.927  31.564  59.168  1.00  0.00     0.035 C 
ATOM     37  C   UNL     1      60.260  29.596  60.607  1.00  0.00     0.120 C 
ATOM     38  C   UNL     1      61.106  31.951  60.394  1.00  0.00     0.004 C 
ATOM     39  C   UNL     1      60.961  30.752  61.330  1.00  0.00     0.022 C 
BRANCH  35  40
ATOM     40  C   UNL     1      60.769  27.956  58.821  1.00  0.00     0.246 CG0
ATOM     41  O   UNL     1      59.624  27.560  58.464  1.00  0.00    -0.272 OA
ATOM     42  G   UNL     1      61.908  26.957  58.775  1.00  0.00     0.000 G0
ENDBRANCH  35  40
ENDBRANCH  31  34
ENDBRANCH   2  30
ENDBRANCH   1   2
BRANCH   1  43
ATOM     43  C   UNL     1      56.546  31.349  55.285  1.00  0.00     0.003 C 
BRANCH  43  44
ATOM     44  C   UNL     1      55.514  30.798  54.284  1.00  0.00     0.001 C 
BRANCH  44  45
ATOM     45  C   UNL     1      54.741  29.560  54.785  1.00  0.00     0.008 C 
BRANCH  45  46
ATOM     46  C   UNL     1      54.425  28.521  53.693  1.00  0.00     0.075 C 
BRANCH  46  47
ATOM     47  C   UNL     1      55.609  27.638  53.331  1.00  0.00     0.132 C 
ATOM     48  O   UNL     1      55.815  26.616  53.976  1.00  0.00    -0.300 OA
BRANCH  47  49
ATOM     49  C   UNL     1      56.511  27.909  52.146  1.00  0.00     0.072 C 
ATOM     50  C   UNL     1      55.944  28.873  51.104  1.00  0.00     0.012 C 
ENDBRANCH  47  49
ENDBRANCH  46  47
ENDBRANCH  45  46
ENDBRANCH  44  45
ENDBRANCH  43  44
ENDBRANCH   1  43
TORSDOF 12
ENDMDL
MODEL 6
REMARK VINA RESULT:    -3.585      8.466     11.945
REMARK INTER + INTRA:          -9.640
REMARK INTER:                  -9.800
REMARK INTRA:                   0.160
REMARK UNBOUND:                -2.072
REMARK SMILES CCC(=O)CCCCC[C@@H]1NC(=O)[C@H]2CCCCN2C(=O)[C@H]([C@@H](C)CC)NC(=O)[C@H](Cc2cn(OC)c3ccccc23)NC1=O
REMARK SMILES IDX 9 1 10 2 44 3 43 4 45 6 30 7 28 8 27 9 29 11 22 12 23 14
REMARK SMILES IDX 24 15 25 16 26 17 31 18 32 19 33 20 42 21 34 22 37 23 41 24
REMARK SMILES IDX 38 25 40 26 39 27 35 28 36 29 11 30 12 31 13 33 14 34 19 35
REMARK SMILES IDX 15 36 18 37 16 38 17 39 20 40 21 41 8 43 7 44 6 45 5 46 3 47
REMARK SMILES IDX 4 48 2 49 1 50
REMARK H PARENT 43 5 27 10 11 32
REMARK Flexibility Score: 80.00
ROOT
ATOM      1  C   UNL     1      66.280  28.776  60.276  1.00  0.00     0.035 C 
ENDROOT
BRANCH   1   2
ATOM      2  C   UNL     1      64.841  28.563  60.797  1.00  0.00     0.171 C 
BRANCH   2   3
ATOM      3  C   UNL     1      63.851  29.497  60.141  1.00  0.00     0.243 C 
ATOM      4  N   UNL     1      62.587  29.797  60.751  1.00  0.00    -0.342 N 
ATOM      5  H   UNL     1      62.240  29.176  61.517  1.00  0.00     0.164 HD
ATOM      6  O   UNL     1      64.152  30.019  59.031  1.00  0.00    -0.273 OA
BRANCH   4   7
ATOM      7  C   UNL     1      61.823  31.011  60.436  1.00  0.00     0.175 C 
BRANCH   7   8
ATOM      8  C   UNL     1      60.747  30.671  59.435  1.00  0.00     0.243 C 
ATOM      9  N   UNL     1      59.653  29.829  59.817  1.00  0.00    -0.342 N 
ATOM     10  H   UNL     1      59.144  30.088  60.700  1.00  0.00     0.164 HD
ATOM     11  O   UNL     1      60.799  31.137  58.265  1.00  0.00    -0.273 OA
BRANCH   9  12
ATOM     12  C   UNL     1      59.496  28.447  59.334  1.00  0.00     0.174 CG0
ATOM     13  G   UNL     1      60.838  27.781  59.095  1.00  0.00     0.000 G0
BRANCH  12  14
ATOM     14  C   UNL     1      58.404  28.312  58.214  1.00  0.00     0.018 C 
ATOM     15  C   UNL     1      57.401  27.211  58.609  1.00  0.00     0.010 C 
BRANCH  14  16
ATOM     16  C   UNL     1      57.646  29.624  57.912  1.00  0.00     0.002 C 
ATOM     17  C   UNL     1      57.952  30.198  56.521  1.00  0.00     0.004 C 
ENDBRANCH  14  16
ENDBRANCH  12  14
ENDBRANCH   9  12
ENDBRANCH   7   8
BRANCH   7  18
ATOM     18  C   UNL     1      62.774  32.109  59.917  1.00  0.00     0.073 C 
BRANCH  18  19
ATOM     19  C   UNL     1      62.312  33.480  60.332  1.00  0.00    -0.016 A 
ATOM     20  C   UNL     1      61.100  34.084  59.985  1.00  0.00     0.134 A 
ATOM     21  C   UNL     1      63.095  34.489  60.875  1.00  0.00     0.006 A 
ATOM     22  N   UNL     1      61.139  35.400  60.313  1.00  0.00    -0.191 N 
ATOM     23  C   UNL     1      62.352  35.642  60.835  1.00  0.00     0.087 A 
ATOM     24  C   UNL     1      64.396  34.475  61.380  1.00  0.00     0.011 A 
ATOM     25  C   UNL     1      62.865  36.859  61.294  1.00  0.00     0.030 A 
ATOM     26  C   UNL     1      64.930  35.688  61.854  1.00  0.00     0.001 A 
ATOM     27  C   UNL     1      64.164  36.873  61.810  1.00  0.00     0.002 A 
BRANCH  22  28
ATOM     28  O   UNL     1      60.128  36.333  60.164  1.00  0.00    -0.417 OA
ATOM     29  C   UNL     1      59.800  36.896  58.903  1.00  0.00     0.313 C 
ENDBRANCH  22  28
ENDBRANCH  18  19
ENDBRANCH   7  18
ENDBRANCH   4   7
ENDBRANCH   2   3
BRANCH   2  30
ATOM     30  N   UNL     1      64.388  27.160  60.681  1.00  0.00    -0.343 N 
ATOM     31  C   UNL     1      63.844  26.570  59.489  1.00  0.00     0.243 C 
ATOM     32  H   UNL     1      64.374  26.597  61.554  1.00  0.00     0.164 HD
ATOM     33  O   UNL     1      64.464  26.693  58.394  1.00  0.00    -0.273 OA
BRANCH  31  34
ATOM     34  C   UNL     1      62.482  25.887  59.465  1.00  0.00     0.174 C 
ATOM     35  N   UNL     1      61.363  26.728  59.949  1.00  0.00    -0.329 N 
ATOM     36  C   UNL     1      62.509  24.529  60.203  1.00  0.00     0.035 C 
ATOM     37  C   UNL     1      61.079  26.825  61.390  1.00  0.00     0.120 C 
ATOM     38  C   UNL     1      62.390  24.709  61.714  1.00  0.00     0.004 C 
ATOM     39  C   UNL     1      61.096  25.445  62.057  1.00  0.00     0.022 C 
BRANCH  35  40
ATOM     40  C   UNL     1      60.843  27.772  59.112  1.00  0.00     0.246 CG0
ATOM     41  O   UNL     1      61.569  28.224  58.183  1.00  0.00    -0.272 OA
ATOM     42  G   UNL     1      59.493  28.427  59.337  1.00  0.00     0.000 G0
ENDBRANCH  35  40
ENDBRANCH  31  34
ENDBRANCH   2  30
ENDBRANCH   1   2
BRANCH   1  43
ATOM     43  C   UNL     1      67.370  28.052  61.095  1.00  0.00     0.003 C 
BRANCH  43  44
ATOM     44  C   UNL     1      68.633  27.653  60.310  1.00  0.00     0.001 C 
BRANCH  44  45
ATOM     45  C   UNL     1      68.618  28.077  58.826  1.00  0.00     0.008 C 
BRANCH  45  46
ATOM     46  C   UNL     1      70.012  28.186  58.180  1.00  0.00     0.075 C 
BRANCH  46  47
ATOM     47  C   UNL     1      70.805  29.397  58.643  1.00  0.00     0.132 C 
ATOM     48  O   UNL     1      72.025  29.312  58.747  1.00  0.00    -0.300 OA
BRANCH  47  49
ATOM     49  C   UNL     1      70.176  30.748  58.906  1.00  0.00     0.072 C 
ATOM     50  C   UNL     1      70.466  31.817  57.853  1.00  0.00     0.012 C 
ENDBRANCH  47  49
ENDBRANCH  46  47
ENDBRANCH  45  46
ENDBRANCH  44  45
ENDBRANCH  43  44
ENDBRANCH   1  43
TORSDOF 12
ENDMDL
MODEL 7
REMARK VINA RESULT:    -3.466      6.769     10.380
REMARK INTER + INTRA:          -9.389
REMARK INTER:                  -6.582
REMARK INTRA:                  -2.807
REMARK UNBOUND:                -2.072
REMARK SMILES CCC(=O)CCCCC[C@@H]1NC(=O)[C@H]2CCCCN2C(=O)[C@H]([C@@H](C)CC)NC(=O)[C@H](Cc2cn(OC)c3ccccc23)NC1=O
REMARK SMILES IDX 9 1 10 2 44 3 43 4 45 6 30 7 28 8 27 9 29 11 22 12 23 14
REMARK SMILES IDX 24 15 25 16 26 17 31 18 32 19 33 20 42 21 34 22 37 23 41 24
REMARK SMILES IDX 38 25 40 26 39 27 35 28 36 29 11 30 12 31 13 33 14 34 19 35
REMARK SMILES IDX 15 36 18 37 16 38 17 39 20 40 21 41 8 43 7 44 6 45 5 46 3 47
REMARK SMILES IDX 4 48 2 49 1 50
REMARK H PARENT 43 5 27 10 11 32
REMARK Flexibility Score: 80.00
ROOT
ATOM      1  C   UNL     1      61.804  30.826  54.607  1.00  0.00     0.035 C 
ENDROOT
BRANCH   1   2
ATOM      2  C   UNL     1      63.064  30.676  55.488  1.00  0.00     0.171 C 
BRANCH   2   3
ATOM      3  C   UNL     1      64.019  31.834  55.322  1.00  0.00     0.243 C 
ATOM      4  N   UNL     1      63.844  33.060  56.050  1.00  0.00    -0.342 N 
ATOM      5  H   UNL     1      62.920  33.249  56.499  1.00  0.00     0.164 HD
ATOM      6  O   UNL     1      64.988  31.712  54.521  1.00  0.00    -0.273 OA
BRANCH   4   7
ATOM      7  C   UNL     1      64.947  33.996  56.300  1.00  0.00     0.175 C 
BRANCH   7   8
ATOM      8  C   UNL     1      65.165  34.116  57.787  1.00  0.00     0.243 C 
ATOM      9  N   UNL     1      64.643  33.116  58.671  1.00  0.00    -0.342 N 
ATOM     10  H   UNL     1      64.864  32.116  58.434  1.00  0.00     0.164 HD
ATOM     11  O   UNL     1      65.818  35.087  58.257  1.00  0.00    -0.273 OA
BRANCH   9  12
ATOM     12  C   UNL     1      63.504  33.356  59.573  1.00  0.00     0.174 CG0
ATOM     13  G   UNL     1      62.203  32.852  58.978  1.00  0.00     0.000 G0
BRANCH  12  14
ATOM     14  C   UNL     1      63.513  34.797  60.196  1.00  0.00     0.018 C 
ATOM     15  C   UNL     1      62.085  35.171  60.640  1.00  0.00     0.010 C 
BRANCH  14  16
ATOM     16  C   UNL     1      64.488  34.964  61.382  1.00  0.00     0.002 C 
ATOM     17  C   UNL     1      65.166  36.341  61.425  1.00  0.00     0.004 C 
ENDBRANCH  14  16
ENDBRANCH  12  14
ENDBRANCH   9  12
ENDBRANCH   7   8
BRANCH   7  18
ATOM     18  C   UNL     1      64.637  35.359  55.646  1.00  0.00     0.073 C 
BRANCH  18  19
ATOM     19  C   UNL     1      63.930  35.190  54.328  1.00  0.00    -0.016 A 
ATOM     20  C   UNL     1      64.532  34.923  53.095  1.00  0.00     0.134 A 
ATOM     21  C   UNL     1      62.620  35.544  54.040  1.00  0.00     0.006 A 
ATOM     22  N   UNL     1      63.625  35.097  52.102  1.00  0.00    -0.191 N 
ATOM     23  C   UNL     1      62.477  35.488  52.676  1.00  0.00     0.087 A 
ATOM     24  C   UNL     1      61.563  35.923  54.870  1.00  0.00     0.011 A 
ATOM     25  C   UNL     1      61.267  35.810  52.053  1.00  0.00     0.030 A 
ATOM     26  C   UNL     1      60.334  36.245  54.265  1.00  0.00     0.001 A 
ATOM     27  C   UNL     1      60.191  36.187  52.862  1.00  0.00     0.002 A 
BRANCH  22  28
ATOM     28  O   UNL     1      63.817  34.898  50.745  1.00  0.00    -0.417 OA
ATOM     29  C   UNL     1      63.810  33.604  50.164  1.00  0.00     0.313 C 
ENDBRANCH  22  28
ENDBRANCH  18  19
ENDBRANCH   7  18
ENDBRANCH   4   7
ENDBRANCH   2   3
BRANCH   2  30
ATOM     30  N   UNL     1      62.746  30.464  56.917  1.00  0.00    -0.343 N 
ATOM     31  C   UNL     1      61.465  30.049  57.418  1.00  0.00     0.243 C 
ATOM     32  H   UNL     1      63.476  30.733  57.606  1.00  0.00     0.164 HD
ATOM     33  O   UNL     1      60.896  29.039  56.914  1.00  0.00    -0.273 OA
BRANCH  31  34
ATOM     34  C   UNL     1      60.703  30.845  58.471  1.00  0.00     0.174 C 
ATOM     35  N   UNL     1      61.563  31.601  59.411  1.00  0.00    -0.329 N 
ATOM     36  C   UNL     1      59.694  29.962  59.239  1.00  0.00     0.035 C 
ATOM     37  C   UNL     1      62.129  30.937  60.595  1.00  0.00     0.120 C 
ATOM     38  C   UNL     1      60.376  29.158  60.342  1.00  0.00     0.004 C 
ATOM     39  C   UNL     1      61.073  30.098  61.324  1.00  0.00     0.022 C 
BRANCH  35  40
ATOM     40  C   UNL     1      62.204  32.810  58.974  1.00  0.00     0.246 CG0
ATOM     41  O   UNL     1      61.724  33.428  57.984  1.00  0.00    -0.272 OA
ATOM     42  G   UNL     1      63.485  33.343  59.588  1.00  0.00     0.000 G0
ENDBRANCH  35  40
ENDBRANCH  31  34
ENDBRANCH   2  30
ENDBRANCH   1   2
BRANCH   1  43
ATOM     43  C   UNL     1      61.283  32.274  54.477  1.00  0.00     0.003 C 
BRANCH  43  44
ATOM     44  C   UNL     1      59.822  32.494  54.909  1.00  0.00     0.001 C 
BRANCH  44  45
ATOM     45  C   UNL     1      58.852  32.781  53.743  1.00  0.00     0.008 C 
BRANCH  45  46
ATOM     46  C   UNL     1      57.398  33.046  54.175  1.00  0.00     0.075 C 
BRANCH  46  47
ATOM     47  C   UNL     1      57.020  34.519  54.172  1.00  0.00     0.132 C 
ATOM     48  O   UNL     1      56.715  35.058  53.114  1.00  0.00    -0.300 OA
BRANCH  47  49
ATOM     49  C   UNL     1      56.916  35.349  55.434  1.00  0.00     0.072 C 
ATOM     50  C   UNL     1      57.547  34.723  56.677  1.00  0.00     0.012 C 
ENDBRANCH  47  49
ENDBRANCH  46  47
ENDBRANCH  45  46
ENDBRANCH  44  45
ENDBRANCH  43  44
ENDBRANCH   1  43
TORSDOF 12
ENDMDL
MODEL 8
REMARK VINA RESULT:    -3.466      5.542      9.980
REMARK INTER + INTRA:          -9.387
REMARK INTER:                  -7.146
REMARK INTRA:                  -2.241
REMARK UNBOUND:                -2.072
REMARK SMILES CCC(=O)CCCCC[C@@H]1NC(=O)[C@H]2CCCCN2C(=O)[C@H]([C@@H](C)CC)NC(=O)[C@H](Cc2cn(OC)c3ccccc23)NC1=O
REMARK SMILES IDX 9 1 10 2 44 3 43 4 45 6 30 7 28 8 27 9 29 11 22 12 23 14
REMARK SMILES IDX 24 15 25 16 26 17 31 18 32 19 33 20 42 21 34 22 37 23 41 24
REMARK SMILES IDX 38 25 40 26 39 27 35 28 36 29 11 30 12 31 13 33 14 34 19 35
REMARK SMILES IDX 15 36 18 37 16 38 17 39 20 40 21 41 8 43 7 44 6 45 5 46 3 47
REMARK SMILES IDX 4 48 2 49 1 50
REMARK H PARENT 43 5 27 10 11 32
REMARK Flexibility Score: 80.00
ROOT
ATOM      1  C   UNL     1      59.185  33.506  54.628  1.00  0.00     0.035 C 
ENDROOT
BRANCH   1   2
ATOM      2  C   UNL     1      60.148  32.382  54.186  1.00  0.00     0.171 C 
BRANCH   2   3
ATOM      3  C   UNL     1      60.563  31.499  55.340  1.00  0.00     0.243 C 
ATOM      4  N   UNL     1      59.797  30.342  55.711  1.00  0.00    -0.342 N 
ATOM      5  H   UNL     1      58.819  30.252  55.353  1.00  0.00     0.164 HD
ATOM      6  O   UNL     1      61.607  31.794  55.987  1.00  0.00    -0.273 OA
BRANCH   4   7
ATOM      7  C   UNL     1      60.372  29.219  56.462  1.00  0.00     0.175 C 
BRANCH   7   8
ATOM      8  C   UNL     1      60.228  27.957  55.651  1.00  0.00     0.243 C 
ATOM      9  N   UNL     1      61.378  27.368  55.032  1.00  0.00    -0.342 N 
ATOM     10  H   UNL     1      62.217  27.213  55.647  1.00  0.00     0.164 HD
ATOM     11  O   UNL     1      59.100  27.408  55.525  1.00  0.00    -0.273 OA
BRANCH   9  12
ATOM     12  C   UNL     1      61.608  27.389  53.578  1.00  0.00     0.174 CG0
ATOM     13  G   UNL     1      61.115  28.679  52.951  1.00  0.00     0.000 G0
BRANCH  12  14
ATOM     14  C   UNL     1      61.212  26.040  52.878  1.00  0.00     0.018 C 
ATOM     15  C   UNL     1      62.088  24.900  53.434  1.00  0.00     0.010 C 
BRANCH  14  16
ATOM     16  C   UNL     1      59.720  25.669  53.023  1.00  0.00     0.002 C 
ATOM     17  C   UNL     1      59.077  25.203  51.708  1.00  0.00     0.004 C 
ENDBRANCH  14  16
ENDBRANCH  12  14
ENDBRANCH   9  12
ENDBRANCH   7   8
BRANCH   7  18
ATOM     18  C   UNL     1      59.688  29.106  57.841  1.00  0.00     0.073 C 
BRANCH  18  19
ATOM     19  C   UNL     1      60.423  29.899  58.888  1.00  0.00    -0.016 A 
ATOM     20  C   UNL     1      60.184  31.232  59.234  1.00  0.00     0.134 A 
ATOM     21  C   UNL     1      61.629  29.564  59.485  1.00  0.00     0.006 A 
ATOM     22  N   UNL     1      61.195  31.685  60.016  1.00  0.00    -0.191 N 
ATOM     23  C   UNL     1      62.073  30.679  60.152  1.00  0.00     0.087 A 
ATOM     24  C   UNL     1      62.365  28.378  59.476  1.00  0.00     0.011 A 
ATOM     25  C   UNL     1      63.285  30.681  60.849  1.00  0.00     0.030 A 
ATOM     26  C   UNL     1      63.584  28.354  60.178  1.00  0.00     0.001 A 
ATOM     27  C   UNL     1      64.038  29.503  60.861  1.00  0.00     0.002 A 
BRANCH  22  28
ATOM     28  O   UNL     1      61.313  32.938  60.593  1.00  0.00    -0.417 OA
ATOM     29  C   UNL     1      61.150  34.132  59.845  1.00  0.00     0.313 C 
ENDBRANCH  22  28
ENDBRANCH  18  19
ENDBRANCH   7  18
ENDBRANCH   4   7
ENDBRANCH   2   3
BRANCH   2  30
ATOM     30  N   UNL     1      59.614  31.568  53.073  1.00  0.00    -0.343 N 
ATOM     31  C   UNL     1      58.529  30.633  53.189  1.00  0.00     0.243 C 
ATOM     32  H   UNL     1      60.130  31.608  52.172  1.00  0.00     0.164 HD
ATOM     33  O   UNL     1      57.449  30.998  53.734  1.00  0.00    -0.273 OA
BRANCH  31  34
ATOM     34  C   UNL     1      58.662  29.172  52.775  1.00  0.00     0.174 C 
ATOM     35  N   UNL     1      59.950  28.832  52.128  1.00  0.00    -0.329 N 
ATOM     36  C   UNL     1      57.471  28.712  51.906  1.00  0.00     0.035 C 
ATOM     37  C   UNL     1      60.138  29.061  50.687  1.00  0.00     0.120 C 
ATOM     38  C   UNL     1      57.640  29.138  50.450  1.00  0.00     0.004 C 
ATOM     39  C   UNL     1      58.934  28.561  49.880  1.00  0.00     0.022 C 
BRANCH  35  40
ATOM     40  C   UNL     1      61.137  28.704  52.926  1.00  0.00     0.246 CG0
ATOM     41  O   UNL     1      61.895  29.706  53.052  1.00  0.00    -0.272 OA
ATOM     42  G   UNL     1      61.578  27.400  53.562  1.00  0.00     0.000 G0
ENDBRANCH  35  40
ENDBRANCH  31  34
ENDBRANCH   2  30
ENDBRANCH   1   2
BRANCH   1  43
ATOM     43  C   UNL     1      58.853  34.534  53.523  1.00  0.00     0.003 C 
BRANCH  43  44
ATOM     44  C   UNL     1      57.419  35.093  53.548  1.00  0.00     0.001 C 
BRANCH  44  45
ATOM     45  C   UNL     1      56.357  34.095  54.058  1.00  0.00     0.008 C 
BRANCH  45  46
ATOM     46  C   UNL     1      55.384  34.677  55.100  1.00  0.00     0.075 C 
BRANCH  46  47
ATOM     47  C   UNL     1      56.072  35.465  56.203  1.00  0.00     0.132 C 
ATOM     48  O   UNL     1      55.840  36.664  56.318  1.00  0.00    -0.300 OA
BRANCH  47  49
ATOM     49  C   UNL     1      56.974  34.826  57.237  1.00  0.00     0.072 C 
ATOM     50  C   UNL     1      58.136  35.699  57.713  1.00  0.00     0.012 C 
ENDBRANCH  47  49
ENDBRANCH  46  47
ENDBRANCH  45  46
ENDBRANCH  44  45
ENDBRANCH  43  44
ENDBRANCH   1  43
TORSDOF 12
ENDMDL
MODEL 9
REMARK VINA RESULT:    -3.450      5.116      7.115
REMARK INTER + INTRA:          -9.355
REMARK INTER:                  -7.462
REMARK INTRA:                  -1.892
REMARK UNBOUND:                -2.072
REMARK SMILES CCC(=O)CCCCC[C@@H]1NC(=O)[C@H]2CCCCN2C(=O)[C@H]([C@@H](C)CC)NC(=O)[C@H](Cc2cn(OC)c3ccccc23)NC1=O
REMARK SMILES IDX 9 1 10 2 44 3 43 4 45 6 30 7 28 8 27 9 29 11 22 12 23 14
REMARK SMILES IDX 24 15 25 16 26 17 31 18 32 19 33 20 42 21 34 22 37 23 41 24
REMARK SMILES IDX 38 25 40 26 39 27 35 28 36 29 11 30 12 31 13 33 14 34 19 35
REMARK SMILES IDX 15 36 18 37 16 38 17 39 20 40 21 41 8 43 7 44 6 45 5 46 3 47
REMARK SMILES IDX 4 48 2 49 1 50
REMARK H PARENT 43 5 27 10 11 32
REMARK Flexibility Score: 80.00
ROOT
ATOM      1  C   UNL     1      62.245  29.578  51.125  1.00  0.00     0.035 C 
ENDROOT
BRANCH   1   2
ATOM      2  C   UNL     1      61.196  30.447  51.853  1.00  0.00     0.171 C 
BRANCH   2   3
ATOM      3  C   UNL     1      61.050  30.069  53.308  1.00  0.00     0.243 C 
ATOM      4  N   UNL     1      61.830  30.708  54.330  1.00  0.00    -0.342 N 
ATOM      5  H   UNL     1      62.678  31.251  54.048  1.00  0.00     0.164 HD
ATOM      6  O   UNL     1      60.222  29.168  53.621  1.00  0.00    -0.273 OA
BRANCH   4   7
ATOM      7  C   UNL     1      61.415  30.743  55.738  1.00  0.00     0.175 C 
BRANCH   7   8
ATOM      8  C   UNL     1      61.379  32.175  56.207  1.00  0.00     0.243 C 
ATOM      9  N   UNL     1      60.122  32.843  56.374  1.00  0.00    -0.342 N 
ATOM     10  H   UNL     1      59.394  32.342  56.944  1.00  0.00     0.164 HD
ATOM     11  O   UNL     1      62.451  32.785  56.467  1.00  0.00    -0.273 OA
BRANCH   9  12
ATOM     12  C   UNL     1      59.653  33.909  55.473  1.00  0.00     0.174 CG0
ATOM     13  G   UNL     1      59.988  33.607  54.025  1.00  0.00     0.000 G0
BRANCH  12  14
ATOM     14  C   UNL     1      59.973  35.348  56.013  1.00  0.00     0.018 C 
ATOM     15  C   UNL     1      58.842  36.311  55.602  1.00  0.00     0.010 C 
BRANCH  14  16
ATOM     16  C   UNL     1      60.187  35.416  57.541  1.00  0.00     0.002 C 
ATOM     17  C   UNL     1      58.902  35.725  58.323  1.00  0.00     0.004 C 
ENDBRANCH  14  16
ENDBRANCH  12  14
ENDBRANCH   9  12
ENDBRANCH   7   8
BRANCH   7  18
ATOM     18  C   UNL     1      62.368  29.876  56.587  1.00  0.00     0.073 C 
BRANCH  18  19
ATOM     19  C   UNL     1      61.679  29.334  57.810  1.00  0.00    -0.016 A 
ATOM     20  C   UNL     1      60.773  28.270  57.845  1.00  0.00     0.134 A 
ATOM     21  C   UNL     1      61.586  29.950  59.049  1.00  0.00     0.006 A 
ATOM     22  N   UNL     1      60.164  28.233  59.056  1.00  0.00    -0.191 N 
ATOM     23  C   UNL     1      60.647  29.259  59.774  1.00  0.00     0.087 A 
ATOM     24  C   UNL     1      62.241  31.063  59.577  1.00  0.00     0.011 A 
ATOM     25  C   UNL     1      60.299  29.640  61.073  1.00  0.00     0.030 A 
ATOM     26  C   UNL     1      61.913  31.461  60.886  1.00  0.00     0.001 A 
ATOM     27  C   UNL     1      60.945  30.749  61.628  1.00  0.00     0.002 A 
BRANCH  22  28
ATOM     28  O   UNL     1      59.231  27.311  59.499  1.00  0.00    -0.417 OA
ATOM     29  C   UNL     1      58.219  26.794  58.650  1.00  0.00     0.313 C 
ENDBRANCH  22  28
ENDBRANCH  18  19
ENDBRANCH   7  18
ENDBRANCH   4   7
ENDBRANCH   2   3
BRANCH   2  30
ATOM     30  N   UNL     1      61.452  31.897  51.714  1.00  0.00    -0.343 N 
ATOM     31  C   UNL     1      62.560  32.593  52.309  1.00  0.00     0.243 C 
ATOM     32  H   UNL     1      60.722  32.460  51.236  1.00  0.00     0.164 HD
ATOM     33  O   UNL     1      63.731  32.146  52.155  1.00  0.00    -0.273 OA
BRANCH  31  34
ATOM     34  C   UNL     1      62.370  33.802  53.218  1.00  0.00     0.174 C 
ATOM     35  N   UNL     1      60.988  34.334  53.255  1.00  0.00    -0.329 N 
ATOM     36  C   UNL     1      63.383  34.924  52.898  1.00  0.00     0.035 C 
ATOM     37  C   UNL     1      60.530  35.275  52.222  1.00  0.00     0.120 C 
ATOM     38  C   UNL     1      62.938  35.757  51.700  1.00  0.00     0.004 C 
ATOM     39  C   UNL     1      61.567  36.376  51.969  1.00  0.00     0.022 C 
BRANCH  35  40
ATOM     40  C   UNL     1      59.975  33.633  53.991  1.00  0.00     0.246 CG0
ATOM     41  O   UNL     1      59.259  32.787  53.386  1.00  0.00    -0.272 OA
ATOM     42  G   UNL     1      59.657  33.915  55.447  1.00  0.00     0.000 G0
ENDBRANCH  35  40
ENDBRANCH  31  34
ENDBRANCH   2  30
ENDBRANCH   1   2
BRANCH   1  43
ATOM     43  C   UNL     1      62.621  28.276  51.866  1.00  0.00     0.003 C 
BRANCH  43  44
ATOM     44  C   UNL     1      62.736  27.020  50.983  1.00  0.00     0.001 C 
BRANCH  44  45
ATOM     45  C   UNL     1      61.815  25.857  51.409  1.00  0.00     0.008 C 
BRANCH  45  46
ATOM     46  C   UNL     1      60.757  25.465  50.361  1.00  0.00     0.075 C 
BRANCH  46  47
ATOM     47  C   UNL     1      59.557  26.397  50.328  1.00  0.00     0.132 C 
ATOM     48  O   UNL     1      58.538  26.085  50.935  1.00  0.00    -0.300 OA
BRANCH  47  49
ATOM     49  C   UNL     1      59.577  27.749  49.648  1.00  0.00     0.072 C 
ATOM     50  C   UNL     1      58.525  28.741  50.142  1.00  0.00     0.012 C 
ENDBRANCH  47  49
ENDBRANCH  46  47
ENDBRANCH  45  46
ENDBRANCH  44  45
ENDBRANCH  43  44
ENDBRANCH   1  43
TORSDOF 12
ENDMDL
