MODEL 1
REMARK VINA RESULT:    -5.996      0.000      0.000
REMARK INTER + INTRA:         -11.082
REMARK INTER:                  -8.275
REMARK INTRA:                  -2.807
REMARK UNBOUND:                -2.807
REMARK SMILES CC[C@H](CC[C@H](C)[C@@H]1CC[C@H]2[C@@H]3CC=C4C[C@H](O)CC[C@@]4(C)[C@@H]3CC[C@@]21C)C(C)C
REMARK SMILES IDX 5 1 4 2 3 3 2 4 1 5 28 6 29 7 30 8 6 9 7 10 8 11 9 12 26 13
REMARK SMILES IDX 10 14 11 15 25 16 27 17 12 18 24 19 23 20 13 21 21 22 14 23
REMARK SMILES IDX 15 24 20 25 22 26 16 27 19 28 17 29 18 30
REMARK H PARENT 18 31
REMARK Flexibility Score: inf
ROOT
ATOM      1  C   UNL     1      -3.990   1.143  -4.539  1.00  0.00     0.004 C 
ENDROOT
BRANCH   1   2
ATOM      2  C   UNL     1      -3.651   2.621  -4.241  1.00  0.00     0.004 C 
BRANCH   2   3
ATOM      3  C   UNL     1      -2.581   3.253  -5.179  1.00  0.00    -0.009 C 
BRANCH   3   4
ATOM      4  C   UNL     1      -3.229   4.144  -6.284  1.00  0.00     0.000 C 
ATOM      5  C   UNL     1      -2.735   3.905  -7.719  1.00  0.00     0.004 C 
ENDBRANCH   3   4
BRANCH   3   6
ATOM      6  C   UNL     1      -1.361   3.913  -4.447  1.00  0.00    -0.014 C 
ATOM      7  C   UNL     1      -1.196   3.415  -2.998  1.00  0.00     0.007 C 
ATOM      8  C   UNL     1      -0.048   3.643  -5.204  1.00  0.00     0.007 C 
ENDBRANCH   3   6
ENDBRANCH   2   3
ENDBRANCH   1   2
BRANCH   1   9
ATOM      9  C   UNL     1      -3.153   0.486  -5.683  1.00  0.00    -0.011 C 
ATOM     10  C   UNL     1      -4.008   0.382  -6.954  1.00  0.00     0.008 C 
BRANCH   9  11
ATOM     11  C   UNL     1      -2.380  -0.811  -5.181  1.00  0.00    -0.002 C 
ATOM     12  C   UNL     1      -2.449  -0.797  -3.621  1.00  0.00     0.005 C 
ATOM     13  C   UNL     1      -0.831  -0.989  -5.411  1.00  0.00    -0.026 C 
ATOM     14  C   UNL     1      -1.110  -0.217  -3.121  1.00  0.00     0.005 C 
ATOM     15  C   UNL     1      -0.281   0.017  -4.386  1.00  0.00    -0.001 C 
ATOM     16  C   UNL     1      -0.205  -0.756  -6.833  1.00  0.00     0.007 C 
ATOM     17  C   UNL     1      -0.448  -2.465  -5.025  1.00  0.00     0.012 C 
ATOM     18  C   UNL     1       1.260  -0.035  -4.237  1.00  0.00     0.000 C 
ATOM     19  C   UNL     1       0.992   0.221  -6.824  1.00  0.00     0.005 C 
ATOM     20  C   UNL     1       1.975  -0.066  -5.645  1.00  0.00     0.003 C 
ATOM     21  C   UNL     1       1.749   1.120  -3.355  1.00  0.00     0.031 C 
ATOM     22  C   UNL     1       3.334   0.760  -5.746  1.00  0.00    -0.008 C 
ATOM     23  C   UNL     1       3.241   1.109  -3.273  1.00  0.00    -0.027 C 
ATOM     24  C   UNL     1       4.000   0.909  -4.367  1.00  0.00    -0.065 C 
ATOM     25  C   UNL     1       4.296  -0.006  -6.712  1.00  0.00     0.014 C 
ATOM     26  C   UNL     1       3.098   2.192  -6.301  1.00  0.00     0.016 C 
ATOM     27  C   UNL     1       5.489   1.182  -4.255  1.00  0.00     0.063 C 
ATOM     28  C   UNL     1       5.739   0.504  -6.681  1.00  0.00     0.033 C 
ATOM     29  C   UNL     1       6.313   0.372  -5.265  1.00  0.00     0.118 C 
BRANCH  29  30
ATOM     30  O   UNL     1       7.659   0.771  -5.235  1.00  0.00    -0.393 OA
ATOM     31  H   UNL     1       8.206  -0.030  -5.023  1.00  0.00     0.210 HD
ENDBRANCH  29  30
ENDBRANCH   9  11
ENDBRANCH   1   9
TORSDOF 7
ENDMDL
MODEL 2
REMARK VINA RESULT:    -5.992      2.973      5.378
REMARK INTER + INTRA:         -11.076
REMARK INTER:                  -9.080
REMARK INTRA:                  -1.996
REMARK UNBOUND:                -2.807
REMARK SMILES CC[C@H](CC[C@H](C)[C@@H]1CC[C@H]2[C@@H]3CC=C4C[C@H](O)CC[C@@]4(C)[C@@H]3CC[C@@]21C)C(C)C
REMARK SMILES IDX 5 1 4 2 3 3 2 4 1 5 28 6 29 7 30 8 6 9 7 10 8 11 9 12 26 13
REMARK SMILES IDX 10 14 11 15 25 16 27 17 12 18 24 19 23 20 13 21 21 22 14 23
REMARK SMILES IDX 15 24 20 25 22 26 16 27 19 28 17 29 18 30
REMARK H PARENT 18 31
REMARK Flexibility Score: inf
ROOT
ATOM      1  C   UNL     1      -2.591  -1.415  -7.066  1.00  0.00     0.004 C 
ENDROOT
BRANCH   1   2
ATOM      2  C   UNL     1      -2.619  -2.440  -5.910  1.00  0.00     0.004 C 
BRANCH   2   3
ATOM      3  C   UNL     1      -1.277  -3.191  -5.663  1.00  0.00    -0.009 C 
BRANCH   3   4
ATOM      4  C   UNL     1      -0.107  -2.582  -6.496  1.00  0.00     0.000 C 
ATOM      5  C   UNL     1       1.206  -2.339  -5.737  1.00  0.00     0.004 C 
ENDBRANCH   3   4
BRANCH   3   6
ATOM      6  C   UNL     1      -0.931  -3.455  -4.156  1.00  0.00    -0.014 C 
ATOM      7  C   UNL     1      -2.065  -3.031  -3.202  1.00  0.00     0.007 C 
ATOM      8  C   UNL     1      -0.624  -4.943  -3.911  1.00  0.00     0.007 C 
ENDBRANCH   3   6
ENDBRANCH   2   3
ENDBRANCH   1   2
BRANCH   1   9
ATOM      9  C   UNL     1      -2.834   0.069  -6.645  1.00  0.00    -0.011 C 
ATOM     10  C   UNL     1      -1.726   0.960  -7.226  1.00  0.00     0.008 C 
BRANCH   9  11
ATOM     11  C   UNL     1      -3.174   0.197  -5.095  1.00  0.00    -0.002 C 
ATOM     12  C   UNL     1      -4.334   1.236  -4.976  1.00  0.00     0.005 C 
ATOM     13  C   UNL     1      -2.136   0.789  -4.068  1.00  0.00    -0.026 C 
ATOM     14  C   UNL     1      -3.687   2.585  -4.602  1.00  0.00     0.005 C 
ATOM     15  C   UNL     1      -2.195   2.280  -4.440  1.00  0.00    -0.001 C 
ATOM     16  C   UNL     1      -0.654   0.266  -4.043  1.00  0.00     0.007 C 
ATOM     17  C   UNL     1      -2.690   0.540  -2.617  1.00  0.00     0.012 C 
ATOM     18  C   UNL     1      -1.392   3.189  -3.478  1.00  0.00     0.000 C 
ATOM     19  C   UNL     1       0.397   1.396  -4.122  1.00  0.00     0.005 C 
ATOM     20  C   UNL     1       0.042   2.595  -3.187  1.00  0.00     0.003 C 
ATOM     21  C   UNL     1      -1.335   4.622  -4.021  1.00  0.00     0.031 C 
ATOM     22  C   UNL     1       1.218   3.663  -3.063  1.00  0.00    -0.008 C 
ATOM     23  C   UNL     1      -0.498   5.478  -3.127  1.00  0.00    -0.027 C 
ATOM     24  C   UNL     1       0.678   5.041  -2.640  1.00  0.00    -0.065 C 
ATOM     25  C   UNL     1       2.231   3.146  -1.989  1.00  0.00     0.014 C 
ATOM     26  C   UNL     1       1.967   3.855  -4.410  1.00  0.00     0.016 C 
ATOM     27  C   UNL     1       1.589   6.054  -1.973  1.00  0.00     0.063 C 
ATOM     28  C   UNL     1       3.254   4.196  -1.546  1.00  0.00     0.033 C 
ATOM     29  C   UNL     1       2.535   5.411  -0.949  1.00  0.00     0.118 C 
BRANCH  29  30
ATOM     30  O   UNL     1       3.462   6.354  -0.476  1.00  0.00    -0.393 OA
ATOM     31  H   UNL     1       3.349   7.182  -1.010  1.00  0.00     0.210 HD
ENDBRANCH  29  30
ENDBRANCH   9  11
ENDBRANCH   1   9
TORSDOF 7
ENDMDL
MODEL 3
REMARK VINA RESULT:    -5.938      1.621      4.530
REMARK INTER + INTRA:         -11.002
REMARK INTER:                  -8.290
REMARK INTRA:                  -2.712
REMARK UNBOUND:                -2.807
REMARK SMILES CC[C@H](CC[C@H](C)[C@@H]1CC[C@H]2[C@@H]3CC=C4C[C@H](O)CC[C@@]4(C)[C@@H]3CC[C@@]21C)C(C)C
REMARK SMILES IDX 5 1 4 2 3 3 2 4 1 5 28 6 29 7 30 8 6 9 7 10 8 11 9 12 26 13
REMARK SMILES IDX 10 14 11 15 25 16 27 17 12 18 24 19 23 20 13 21 21 22 14 23
REMARK SMILES IDX 15 24 20 25 22 26 16 27 19 28 17 29 18 30
REMARK H PARENT 18 31
REMARK Flexibility Score: inf
ROOT
ATOM      1  C   UNL     1      -4.478  -1.011  -4.747  1.00  0.00     0.004 C 
ENDROOT
BRANCH   1   2
ATOM      2  C   UNL     1      -3.734  -2.338  -5.023  1.00  0.00     0.004 C 
BRANCH   2   3
ATOM      3  C   UNL     1      -2.500  -2.602  -4.111  1.00  0.00    -0.009 C 
BRANCH   3   4
ATOM      4  C   UNL     1      -2.776  -3.731  -3.070  1.00  0.00     0.000 C 
ATOM      5  C   UNL     1      -2.806  -3.296  -1.596  1.00  0.00     0.004 C 
ENDBRANCH   3   4
BRANCH   3   6
ATOM      6  C   UNL     1      -1.133  -2.739  -4.868  1.00  0.00    -0.014 C 
ATOM      7  C   UNL     1      -0.238  -3.850  -4.285  1.00  0.00     0.007 C 
ATOM      8  C   UNL     1      -1.354  -3.031  -6.363  1.00  0.00     0.007 C 
ENDBRANCH   3   6
ENDBRANCH   2   3
ENDBRANCH   1   2
BRANCH   1   9
ATOM      9  C   UNL     1      -3.977  -0.215  -3.501  1.00  0.00    -0.011 C 
ATOM     10  C   UNL     1      -5.000  -0.338  -2.362  1.00  0.00     0.008 C 
BRANCH   9  11
ATOM     11  C   UNL     1      -3.454   1.236  -3.895  1.00  0.00    -0.002 C 
ATOM     12  C   UNL     1      -3.942   1.505  -5.354  1.00  0.00     0.005 C 
ATOM     13  C   UNL     1      -1.916   1.551  -4.031  1.00  0.00    -0.026 C 
ATOM     14  C   UNL     1      -2.754   1.191  -6.286  1.00  0.00     0.005 C 
ATOM     15  C   UNL     1      -1.599   0.825  -5.350  1.00  0.00    -0.001 C 
ATOM     16  C   UNL     1      -0.914   1.133  -2.894  1.00  0.00     0.007 C 
ATOM     17  C   UNL     1      -1.749   3.108  -4.181  1.00  0.00     0.012 C 
ATOM     18  C   UNL     1      -0.163   1.087  -5.868  1.00  0.00     0.000 C 
ATOM     19  C   UNL     1       0.296   0.324  -3.411  1.00  0.00     0.005 C 
ATOM     20  C   UNL     1       0.903   0.940  -4.711  1.00  0.00     0.003 C 
ATOM     21  C   UNL     1       0.143   0.183  -7.068  1.00  0.00     0.031 C 
ATOM     22  C   UNL     1       2.289   0.276  -5.133  1.00  0.00    -0.008 C 
ATOM     23  C   UNL     1       1.553   0.386  -7.518  1.00  0.00    -0.027 C 
ATOM     24  C   UNL     1       2.565   0.468  -6.634  1.00  0.00    -0.065 C 
ATOM     25  C   UNL     1       3.424   0.958  -4.300  1.00  0.00     0.014 C 
ATOM     26  C   UNL     1       2.306  -1.252  -4.851  1.00  0.00     0.016 C 
ATOM     27  C   UNL     1       3.982   0.400  -7.173  1.00  0.00     0.063 C 
ATOM     28  C   UNL     1       4.836   0.638  -4.801  1.00  0.00     0.033 C 
ATOM     29  C   UNL     1       4.995   1.099  -6.255  1.00  0.00     0.118 C 
BRANCH  29  30
ATOM     30  O   UNL     1       6.305   0.875  -6.707  1.00  0.00    -0.393 OA
ATOM     31  H   UNL     1       6.420  -0.103  -6.826  1.00  0.00     0.210 HD
ENDBRANCH  29  30
ENDBRANCH   9  11
ENDBRANCH   1   9
TORSDOF 7
ENDMDL
MODEL 4
REMARK VINA RESULT:    -5.901      3.363      6.039
REMARK INTER + INTRA:         -10.951
REMARK INTER:                  -8.068
REMARK INTRA:                  -2.882
REMARK UNBOUND:                -2.807
REMARK SMILES CC[C@H](CC[C@H](C)[C@@H]1CC[C@H]2[C@@H]3CC=C4C[C@H](O)CC[C@@]4(C)[C@@H]3CC[C@@]21C)C(C)C
REMARK SMILES IDX 5 1 4 2 3 3 2 4 1 5 28 6 29 7 30 8 6 9 7 10 8 11 9 12 26 13
REMARK SMILES IDX 10 14 11 15 25 16 27 17 12 18 24 19 23 20 13 21 21 22 14 23
REMARK SMILES IDX 15 24 20 25 22 26 16 27 19 28 17 29 18 30
REMARK H PARENT 18 31
REMARK Flexibility Score: inf
ROOT
ATOM      1  C   UNL     1      -1.409   4.579  -6.746  1.00  0.00     0.004 C 
ENDROOT
BRANCH   1   2
ATOM      2  C   UNL     1      -0.047   4.624  -6.017  1.00  0.00     0.004 C 
BRANCH   2   3
ATOM      3  C   UNL     1       0.153   3.530  -4.926  1.00  0.00    -0.009 C 
BRANCH   3   4
ATOM      4  C   UNL     1       1.210   2.466  -5.355  1.00  0.00     0.000 C 
ATOM      5  C   UNL     1       0.689   1.031  -5.530  1.00  0.00     0.004 C 
ENDBRANCH   3   4
BRANCH   3   6
ATOM      6  C   UNL     1       0.336   4.073  -3.466  1.00  0.00    -0.014 C 
ATOM      7  C   UNL     1      -0.660   5.197  -3.120  1.00  0.00     0.007 C 
ATOM      8  C   UNL     1       0.170   2.945  -2.431  1.00  0.00     0.007 C 
ENDBRANCH   3   6
ENDBRANCH   2   3
ENDBRANCH   1   2
BRANCH   1   9
ATOM      9  C   UNL     1      -1.801   3.188  -7.336  1.00  0.00    -0.011 C 
ATOM     10  C   UNL     1      -1.442   3.138  -8.828  1.00  0.00     0.008 C 
BRANCH   9  11
ATOM     11  C   UNL     1      -3.266   2.749  -6.894  1.00  0.00    -0.002 C 
ATOM     12  C   UNL     1      -3.631   3.608  -5.642  1.00  0.00     0.005 C 
ATOM     13  C   UNL     1      -3.567   1.297  -6.360  1.00  0.00    -0.026 C 
ATOM     14  C   UNL     1      -3.358   2.729  -4.404  1.00  0.00     0.005 C 
ATOM     15  C   UNL     1      -2.920   1.374  -4.967  1.00  0.00    -0.001 C 
ATOM     16  C   UNL     1      -3.066   0.037  -7.154  1.00  0.00     0.007 C 
ATOM     17  C   UNL     1      -5.129   1.131  -6.256  1.00  0.00     0.012 C 
ATOM     18  C   UNL     1      -3.193   0.127  -4.090  1.00  0.00     0.000 C 
ATOM     19  C   UNL     1      -2.275  -0.963  -6.281  1.00  0.00     0.005 C 
ATOM     20  C   UNL     1      -2.961  -1.209  -4.900  1.00  0.00     0.003 C 
ATOM     21  C   UNL     1      -2.361   0.186  -2.804  1.00  0.00     0.031 C 
ATOM     22  C   UNL     1      -2.305  -2.407  -4.079  1.00  0.00    -0.008 C 
ATOM     23  C   UNL     1      -2.571  -1.053  -1.996  1.00  0.00    -0.027 C 
ATOM     24  C   UNL     1      -2.585  -2.269  -2.572  1.00  0.00    -0.065 C 
ATOM     25  C   UNL     1      -2.919  -3.747  -4.605  1.00  0.00     0.014 C 
ATOM     26  C   UNL     1      -0.763  -2.455  -4.260  1.00  0.00     0.016 C 
ATOM     27  C   UNL     1      -2.530  -3.484  -1.664  1.00  0.00     0.063 C 
ATOM     28  C   UNL     1      -2.611  -4.958  -3.720  1.00  0.00     0.033 C 
ATOM     29  C   UNL     1      -3.158  -4.728  -2.306  1.00  0.00     0.118 C 
BRANCH  29  30
ATOM     30  O   UNL     1      -2.944  -5.859  -1.501  1.00  0.00    -0.393 OA
ATOM     31  H   UNL     1      -2.675  -5.540  -0.600  1.00  0.00     0.210 HD
ENDBRANCH  29  30
ENDBRANCH   9  11
ENDBRANCH   1   9
TORSDOF 7
ENDMDL
MODEL 5
REMARK VINA RESULT:    -5.689      1.362      4.102
REMARK INTER + INTRA:         -10.658
REMARK INTER:                  -8.618
REMARK INTRA:                  -2.040
REMARK UNBOUND:                -2.807
REMARK SMILES CC[C@H](CC[C@H](C)[C@@H]1CC[C@H]2[C@@H]3CC=C4C[C@H](O)CC[C@@]4(C)[C@@H]3CC[C@@]21C)C(C)C
REMARK SMILES IDX 5 1 4 2 3 3 2 4 1 5 28 6 29 7 30 8 6 9 7 10 8 11 9 12 26 13
REMARK SMILES IDX 10 14 11 15 25 16 27 17 12 18 24 19 23 20 13 21 21 22 14 23
REMARK SMILES IDX 15 24 20 25 22 26 16 27 19 28 17 29 18 30
REMARK H PARENT 18 31
REMARK Flexibility Score: inf
ROOT
ATOM      1  C   UNL     1      -3.223   0.424  -3.817  1.00  0.00     0.004 C 
ENDROOT
BRANCH   1   2
ATOM      2  C   UNL     1      -3.674  -0.963  -4.328  1.00  0.00     0.004 C 
BRANCH   2   3
ATOM      3  C   UNL     1      -2.518  -1.918  -4.750  1.00  0.00    -0.009 C 
BRANCH   3   4
ATOM      4  C   UNL     1      -1.663  -1.320  -5.910  1.00  0.00     0.000 C 
ATOM      5  C   UNL     1      -2.386  -1.132  -7.252  1.00  0.00     0.004 C 
ENDBRANCH   3   4
BRANCH   3   6
ATOM      6  C   UNL     1      -1.679  -2.509  -3.564  1.00  0.00    -0.014 C 
ATOM      7  C   UNL     1      -2.561  -3.073  -2.433  1.00  0.00     0.007 C 
ATOM      8  C   UNL     1      -0.745  -3.631  -4.052  1.00  0.00     0.007 C 
ENDBRANCH   3   6
ENDBRANCH   2   3
ENDBRANCH   1   2
BRANCH   1   9
ATOM      9  C   UNL     1      -3.991   1.639  -4.428  1.00  0.00    -0.011 C 
ATOM     10  C   UNL     1      -4.837   1.170  -5.620  1.00  0.00     0.008 C 
BRANCH   9  11
ATOM     11  C   UNL     1      -3.042   2.903  -4.622  1.00  0.00    -0.002 C 
ATOM     12  C   UNL     1      -3.168   3.330  -6.118  1.00  0.00     0.005 C 
ATOM     13  C   UNL     1      -1.477   2.791  -4.473  1.00  0.00    -0.026 C 
ATOM     14  C   UNL     1      -1.955   2.729  -6.857  1.00  0.00     0.005 C 
ATOM     15  C   UNL     1      -1.128   2.040  -5.769  1.00  0.00    -0.001 C 
ATOM     16  C   UNL     1      -0.845   2.088  -3.217  1.00  0.00     0.007 C 
ATOM     17  C   UNL     1      -0.883   4.247  -4.478  1.00  0.00     0.012 C 
ATOM     18  C   UNL     1       0.396   1.914  -6.017  1.00  0.00     0.000 C 
ATOM     19  C   UNL     1       0.184   0.994  -3.580  1.00  0.00     0.005 C 
ATOM     20  C   UNL     1       1.157   1.454  -4.711  1.00  0.00     0.003 C 
ATOM     21  C   UNL     1       0.667   0.991  -7.211  1.00  0.00     0.031 C 
ATOM     22  C   UNL     1       2.372   0.450  -4.940  1.00  0.00    -0.008 C 
ATOM     23  C   UNL     1       2.138   0.815  -7.401  1.00  0.00    -0.027 C 
ATOM     24  C   UNL     1       2.957   0.597  -6.356  1.00  0.00    -0.065 C 
ATOM     25  C   UNL     1       3.476   0.777  -3.881  1.00  0.00     0.014 C 
ATOM     26  C   UNL     1       1.936  -1.032  -4.772  1.00  0.00     0.016 C 
ATOM     27  C   UNL     1       4.380   0.159  -6.651  1.00  0.00     0.063 C 
ATOM     28  C   UNL     1       4.820   0.098  -4.159  1.00  0.00     0.033 C 
ATOM     29  C   UNL     1       5.356   0.534  -5.528  1.00  0.00     0.118 C 
BRANCH  29  30
ATOM     30  O   UNL     1       6.622  -0.026  -5.767  1.00  0.00    -0.393 OA
ATOM     31  H   UNL     1       7.230   0.287  -5.048  1.00  0.00     0.210 HD
ENDBRANCH  29  30
ENDBRANCH   9  11
ENDBRANCH   1   9
TORSDOF 7
ENDMDL
MODEL 6
REMARK VINA RESULT:    -5.682      2.890      4.594
REMARK INTER + INTRA:         -10.648
REMARK INTER:                  -7.870
REMARK INTRA:                  -2.778
REMARK UNBOUND:                -2.807
REMARK SMILES CC[C@H](CC[C@H](C)[C@@H]1CC[C@H]2[C@@H]3CC=C4C[C@H](O)CC[C@@]4(C)[C@@H]3CC[C@@]21C)C(C)C
REMARK SMILES IDX 5 1 4 2 3 3 2 4 1 5 28 6 29 7 30 8 6 9 7 10 8 11 9 12 26 13
REMARK SMILES IDX 10 14 11 15 25 16 27 17 12 18 24 19 23 20 13 21 21 22 14 23
REMARK SMILES IDX 15 24 20 25 22 26 16 27 19 28 17 29 18 30
REMARK H PARENT 18 31
REMARK Flexibility Score: inf
ROOT
ATOM      1  C   UNL     1      -3.885   0.021  -7.313  1.00  0.00     0.004 C 
ENDROOT
BRANCH   1   2
ATOM      2  C   UNL     1      -3.237   0.921  -8.389  1.00  0.00     0.004 C 
BRANCH   2   3
ATOM      3  C   UNL     1      -1.817   1.454  -8.033  1.00  0.00    -0.009 C 
BRANCH   3   4
ATOM      4  C   UNL     1      -0.692   0.612  -8.712  1.00  0.00     0.000 C 
ATOM      5  C   UNL     1       0.346  -0.012  -7.768  1.00  0.00     0.004 C 
ENDBRANCH   3   4
BRANCH   3   6
ATOM      6  C   UNL     1      -1.636   3.006  -8.169  1.00  0.00    -0.014 C 
ATOM      7  C   UNL     1      -2.850   3.795  -7.644  1.00  0.00     0.007 C 
ATOM      8  C   UNL     1      -0.384   3.485  -7.413  1.00  0.00     0.007 C 
ENDBRANCH   3   6
ENDBRANCH   2   3
ENDBRANCH   1   2
BRANCH   1   9
ATOM      9  C   UNL     1      -2.887  -0.643  -6.312  1.00  0.00    -0.011 C 
ATOM     10  C   UNL     1      -2.635  -2.101  -6.723  1.00  0.00     0.008 C 
BRANCH   9  11
ATOM     11  C   UNL     1      -3.275  -0.339  -4.799  1.00  0.00    -0.002 C 
ATOM     12  C   UNL     1      -4.460   0.678  -4.837  1.00  0.00     0.005 C 
ATOM     13  C   UNL     1      -2.280   0.398  -3.824  1.00  0.00    -0.026 C 
ATOM     14  C   UNL     1      -3.853   2.078  -4.611  1.00  0.00     0.005 C 
ATOM     15  C   UNL     1      -2.360   1.832  -4.375  1.00  0.00    -0.001 C 
ATOM     16  C   UNL     1      -0.789  -0.082  -3.697  1.00  0.00     0.007 C 
ATOM     17  C   UNL     1      -2.871   0.311  -2.368  1.00  0.00     0.012 C 
ATOM     18  C   UNL     1      -1.605   2.869  -3.509  1.00  0.00     0.000 C 
ATOM     19  C   UNL     1       0.240   1.056  -3.884  1.00  0.00     0.005 C 
ATOM     20  C   UNL     1      -0.167   2.350  -3.110  1.00  0.00     0.003 C 
ATOM     21  C   UNL     1      -1.563   4.227  -4.219  1.00  0.00     0.031 C 
ATOM     22  C   UNL     1       0.982   3.453  -3.086  1.00  0.00    -0.008 C 
ATOM     23  C   UNL     1      -0.770   5.205  -3.414  1.00  0.00    -0.027 C 
ATOM     24  C   UNL     1       0.400   4.858  -2.847  1.00  0.00    -0.065 C 
ATOM     25  C   UNL     1       1.973   3.094  -1.930  1.00  0.00     0.014 C 
ATOM     26  C   UNL     1       1.766   3.500  -4.426  1.00  0.00     0.016 C 
ATOM     27  C   UNL     1       1.270   5.967  -2.283  1.00  0.00     0.063 C 
ATOM     28  C   UNL     1       2.960   4.215  -1.592  1.00  0.00     0.033 C 
ATOM     29  C   UNL     1       2.199   5.475  -1.165  1.00  0.00     0.118 C 
BRANCH  29  30
ATOM     30  O   UNL     1       3.092   6.490  -0.784  1.00  0.00    -0.393 OA
ATOM     31  H   UNL     1       3.895   6.417  -1.363  1.00  0.00     0.210 HD
ENDBRANCH  29  30
ENDBRANCH   9  11
ENDBRANCH   1   9
TORSDOF 7
ENDMDL
MODEL 7
REMARK VINA RESULT:    -5.604      3.880      6.388
REMARK INTER + INTRA:         -10.541
REMARK INTER:                  -7.929
REMARK INTRA:                  -2.611
REMARK UNBOUND:                -2.807
REMARK SMILES CC[C@H](CC[C@H](C)[C@@H]1CC[C@H]2[C@@H]3CC=C4C[C@H](O)CC[C@@]4(C)[C@@H]3CC[C@@]21C)C(C)C
REMARK SMILES IDX 5 1 4 2 3 3 2 4 1 5 28 6 29 7 30 8 6 9 7 10 8 11 9 12 26 13
REMARK SMILES IDX 10 14 11 15 25 16 27 17 12 18 24 19 23 20 13 21 21 22 14 23
REMARK SMILES IDX 15 24 20 25 22 26 16 27 19 28 17 29 18 30
REMARK H PARENT 18 31
REMARK Flexibility Score: inf
ROOT
ATOM      1  C   UNL     1      -3.630  -5.577  -4.144  1.00  0.00     0.004 C 
ENDROOT
BRANCH   1   2
ATOM      2  C   UNL     1      -4.461  -5.222  -2.890  1.00  0.00     0.004 C 
BRANCH   2   3
ATOM      3  C   UNL     1      -4.239  -3.782  -2.339  1.00  0.00    -0.009 C 
BRANCH   3   4
ATOM      4  C   UNL     1      -5.474  -2.864  -2.593  1.00  0.00     0.000 C 
ATOM      5  C   UNL     1      -5.166  -1.432  -3.055  1.00  0.00     0.004 C 
ENDBRANCH   3   4
BRANCH   3   6
ATOM      6  C   UNL     1      -3.668  -3.711  -0.879  1.00  0.00    -0.014 C 
ATOM      7  C   UNL     1      -4.756  -3.415   0.171  1.00  0.00     0.007 C 
ATOM      8  C   UNL     1      -2.969  -5.027  -0.494  1.00  0.00     0.007 C 
ENDBRANCH   3   6
ENDBRANCH   2   3
ENDBRANCH   1   2
BRANCH   1   9
ATOM      9  C   UNL     1      -3.705  -4.537  -5.307  1.00  0.00    -0.011 C 
ATOM     10  C   UNL     1      -4.685  -5.031  -6.381  1.00  0.00     0.008 C 
BRANCH   9  11
ATOM     11  C   UNL     1      -2.259  -4.055  -5.766  1.00  0.00    -0.002 C 
ATOM     12  C   UNL     1      -1.281  -4.405  -4.599  1.00  0.00     0.005 C 
ATOM     13  C   UNL     1      -1.928  -2.530  -5.987  1.00  0.00    -0.026 C 
ATOM     14  C   UNL     1      -1.083  -3.112  -3.781  1.00  0.00     0.005 C 
ATOM     15  C   UNL     1      -1.882  -2.041  -4.529  1.00  0.00    -0.001 C 
ATOM     16  C   UNL     1      -2.873  -1.629  -6.862  1.00  0.00     0.007 C 
ATOM     17  C   UNL     1      -0.513  -2.433  -6.667  1.00  0.00     0.012 C 
ATOM     18  C   UNL     1      -1.402  -0.576  -4.385  1.00  0.00     0.000 C 
ATOM     19  C   UNL     1      -3.313  -0.330  -6.151  1.00  0.00     0.005 C 
ATOM     20  C   UNL     1      -2.124   0.372  -5.421  1.00  0.00     0.003 C 
ATOM     21  C   UNL     1      -1.570  -0.100  -2.937  1.00  0.00     0.031 C 
ATOM     22  C   UNL     1      -2.488   1.827  -4.885  1.00  0.00    -0.008 C 
ATOM     23  C   UNL     1      -1.174   1.335  -2.818  1.00  0.00    -0.027 C 
ATOM     24  C   UNL     1      -1.560   2.245  -3.731  1.00  0.00    -0.065 C 
ATOM     25  C   UNL     1      -2.333   2.834  -6.073  1.00  0.00     0.014 C 
ATOM     26  C   UNL     1      -3.946   1.898  -4.354  1.00  0.00     0.016 C 
ATOM     27  C   UNL     1      -1.353   3.712  -3.401  1.00  0.00     0.063 C 
ATOM     28  C   UNL     1      -2.361   4.304  -5.646  1.00  0.00     0.033 C 
ATOM     29  C   UNL     1      -1.225   4.586  -4.656  1.00  0.00     0.118 C 
BRANCH  29  30
ATOM     30  O   UNL     1      -1.195   5.946  -4.308  1.00  0.00    -0.393 OA
ATOM     31  H   UNL     1      -0.729   6.433  -5.037  1.00  0.00     0.210 HD
ENDBRANCH  29  30
ENDBRANCH   9  11
ENDBRANCH   1   9
TORSDOF 7
ENDMDL
MODEL 8
REMARK VINA RESULT:    -5.583      5.182      7.868
REMARK INTER + INTRA:         -10.512
REMARK INTER:                  -7.645
REMARK INTRA:                  -2.867
REMARK UNBOUND:                -2.807
REMARK SMILES CC[C@H](CC[C@H](C)[C@@H]1CC[C@H]2[C@@H]3CC=C4C[C@H](O)CC[C@@]4(C)[C@@H]3CC[C@@]21C)C(C)C
REMARK SMILES IDX 5 1 4 2 3 3 2 4 1 5 28 6 29 7 30 8 6 9 7 10 8 11 9 12 26 13
REMARK SMILES IDX 10 14 11 15 25 16 27 17 12 18 24 19 23 20 13 21 21 22 14 23
REMARK SMILES IDX 15 24 20 25 22 26 16 27 19 28 17 29 18 30
REMARK H PARENT 18 31
REMARK Flexibility Score: inf
ROOT
ATOM      1  C   UNL     1      -4.959  -6.323  -1.220  1.00  0.00     0.004 C 
ENDROOT
BRANCH   1   2
ATOM      2  C   UNL     1      -6.222  -5.714  -0.570  1.00  0.00     0.004 C 
BRANCH   2   3
ATOM      3  C   UNL     1      -6.372  -4.173  -0.739  1.00  0.00    -0.009 C 
BRANCH   3   4
ATOM      4  C   UNL     1      -7.516  -3.805  -1.735  1.00  0.00     0.000 C 
ATOM      5  C   UNL     1      -7.085  -3.082  -3.020  1.00  0.00     0.004 C 
ENDBRANCH   3   4
BRANCH   3   6
ATOM      6  C   UNL     1      -6.390  -3.356   0.600  1.00  0.00    -0.014 C 
ATOM      7  C   UNL     1      -5.230  -3.730   1.541  1.00  0.00     0.007 C 
ATOM      8  C   UNL     1      -6.320  -1.842   0.325  1.00  0.00     0.007 C 
ENDBRANCH   3   6
ENDBRANCH   2   3
ENDBRANCH   1   2
BRANCH   1   9
ATOM      9  C   UNL     1      -4.675  -5.859  -2.684  1.00  0.00    -0.011 C 
ATOM     10  C   UNL     1      -5.122  -6.949  -3.668  1.00  0.00     0.008 C 
BRANCH   9  11
ATOM     11  C   UNL     1      -3.213  -5.250  -2.839  1.00  0.00    -0.002 C 
ATOM     12  C   UNL     1      -2.804  -4.705  -1.434  1.00  0.00     0.005 C 
ATOM     13  C   UNL     1      -2.935  -3.989  -3.742  1.00  0.00    -0.026 C 
ATOM     14  C   UNL     1      -3.073  -3.186  -1.450  1.00  0.00     0.005 C 
ATOM     15  C   UNL     1      -3.554  -2.882  -2.871  1.00  0.00    -0.001 C 
ATOM     16  C   UNL     1      -3.480  -3.929  -5.215  1.00  0.00     0.007 C 
ATOM     17  C   UNL     1      -1.377  -3.814  -3.867  1.00  0.00     0.012 C 
ATOM     18  C   UNL     1      -3.293  -1.454  -3.412  1.00  0.00     0.000 C 
ATOM     19  C   UNL     1      -4.278  -2.642  -5.521  1.00  0.00     0.005 C 
ATOM     20  C   UNL     1      -3.572  -1.365  -4.964  1.00  0.00     0.003 C 
ATOM     21  C   UNL     1      -4.099  -0.425  -2.610  1.00  0.00     0.031 C 
ATOM     22  C   UNL     1      -4.238  -0.009  -5.467  1.00  0.00    -0.008 C 
ATOM     23  C   UNL     1      -3.901   0.941  -3.180  1.00  0.00    -0.027 C 
ATOM     24  C   UNL     1      -3.927   1.155  -4.509  1.00  0.00    -0.065 C 
ATOM     25  C   UNL     1      -3.666   0.314  -6.887  1.00  0.00     0.014 C 
ATOM     26  C   UNL     1      -5.785  -0.127  -5.562  1.00  0.00     0.016 C 
ATOM     27  C   UNL     1      -3.992   2.591  -4.994  1.00  0.00     0.063 C 
ATOM     28  C   UNL     1      -3.985   1.731  -7.374  1.00  0.00     0.033 C 
ATOM     29  C   UNL     1      -3.406   2.764  -6.402  1.00  0.00     0.118 C 
BRANCH  29  30
ATOM     30  O   UNL     1      -3.630   4.069  -6.872  1.00  0.00    -0.393 OA
ATOM     31  H   UNL     1      -4.128   3.999  -7.727  1.00  0.00     0.210 HD
ENDBRANCH  29  30
ENDBRANCH   9  11
ENDBRANCH   1   9
TORSDOF 7
ENDMDL
MODEL 9
REMARK VINA RESULT:    -5.582      3.239      6.009
REMARK INTER + INTRA:         -10.510
REMARK INTER:                  -7.721
REMARK INTRA:                  -2.788
REMARK UNBOUND:                -2.807
REMARK SMILES CC[C@H](CC[C@H](C)[C@@H]1CC[C@H]2[C@@H]3CC=C4C[C@H](O)CC[C@@]4(C)[C@@H]3CC[C@@]21C)C(C)C
REMARK SMILES IDX 5 1 4 2 3 3 2 4 1 5 28 6 29 7 30 8 6 9 7 10 8 11 9 12 26 13
REMARK SMILES IDX 10 14 11 15 25 16 27 17 12 18 24 19 23 20 13 21 21 22 14 23
REMARK SMILES IDX 15 24 20 25 22 26 16 27 19 28 17 29 18 30
REMARK H PARENT 18 31
REMARK Flexibility Score: inf
ROOT
ATOM      1  C   UNL     1      -2.458  -3.598  -5.991  1.00  0.00     0.004 C 
ENDROOT
BRANCH   1   2
ATOM      2  C   UNL     1      -1.338  -3.323  -7.021  1.00  0.00     0.004 C 
BRANCH   2   3
ATOM      3  C   UNL     1      -0.468  -2.065  -6.728  1.00  0.00    -0.009 C 
BRANCH   3   4
ATOM      4  C   UNL     1       0.918  -2.446  -6.120  1.00  0.00     0.000 C 
ATOM      5  C   UNL     1       1.222  -1.877  -4.726  1.00  0.00     0.004 C 
ENDBRANCH   3   4
BRANCH   3   6
ATOM      6  C   UNL     1      -0.399  -1.018  -7.893  1.00  0.00    -0.014 C 
ATOM      7  C   UNL     1      -1.785  -0.687  -8.479  1.00  0.00     0.007 C 
ATOM      8  C   UNL     1       0.251   0.295  -7.420  1.00  0.00     0.007 C 
ENDBRANCH   3   6
ENDBRANCH   2   3
ENDBRANCH   1   2
BRANCH   1   9
ATOM      9  C   UNL     1      -2.121  -3.194  -4.520  1.00  0.00    -0.011 C 
ATOM     10  C   UNL     1      -1.629  -4.425  -3.745  1.00  0.00     0.008 C 
BRANCH   9  11
ATOM     11  C   UNL     1      -3.268  -2.300  -3.873  1.00  0.00    -0.002 C 
ATOM     12  C   UNL     1      -4.348  -2.088  -4.982  1.00  0.00     0.005 C 
ATOM     13  C   UNL     1      -3.002  -0.813  -3.426  1.00  0.00    -0.026 C 
ATOM     14  C   UNL     1      -4.082  -0.702  -5.603  1.00  0.00     0.005 C 
ATOM     15  C   UNL     1      -2.917  -0.121  -4.797  1.00  0.00    -0.001 C 
ATOM     16  C   UNL     1      -1.760  -0.461  -2.531  1.00  0.00     0.007 C 
ATOM     17  C   UNL     1      -4.255  -0.318  -2.613  1.00  0.00     0.012 C 
ATOM     18  C   UNL     1      -2.826   1.422  -4.705  1.00  0.00     0.000 C 
ATOM     19  C   UNL     1      -0.896   0.686  -3.103  1.00  0.00     0.005 C 
ATOM     20  C   UNL     1      -1.767   1.873  -3.623  1.00  0.00     0.003 C 
ATOM     21  C   UNL     1      -2.547   2.023  -6.087  1.00  0.00     0.031 C 
ATOM     22  C   UNL     1      -0.909   3.163  -3.996  1.00  0.00    -0.008 C 
ATOM     23  C   UNL     1      -2.387   3.505  -5.982  1.00  0.00    -0.027 C 
ATOM     24  C   UNL     1      -1.658   4.061  -4.996  1.00  0.00    -0.065 C 
ATOM     25  C   UNL     1      -0.638   3.961  -2.678  1.00  0.00     0.014 C 
ATOM     26  C   UNL     1       0.451   2.785  -4.644  1.00  0.00     0.016 C 
ATOM     27  C   UNL     1      -1.319   5.536  -5.112  1.00  0.00     0.063 C 
ATOM     28  C   UNL     1      -0.083   5.369  -2.910  1.00  0.00     0.033 C 
ATOM     29  C   UNL     1      -1.069   6.192  -3.747  1.00  0.00     0.118 C 
BRANCH  29  30
ATOM     30  O   UNL     1      -0.606   7.508  -3.911  1.00  0.00    -0.393 OA
ATOM     31  H   UNL     1       0.095   7.495  -4.613  1.00  0.00     0.210 HD
ENDBRANCH  29  30
ENDBRANCH   9  11
ENDBRANCH   1   9
TORSDOF 7
ENDMDL
