MODEL 1
REMARK VINA RESULT:    -6.762      0.000      0.000
REMARK INTER + INTRA:         -10.983
REMARK INTER:                  -9.331
REMARK INTRA:                  -1.652
REMARK UNBOUND:                -1.652
REMARK SMILES CC[C@@H](CC[C@H](C)[C@@H]1CC[C@@H]2[C@H]3CC=C4C[C@@H](O)CC[C@]4(C)[C@@H]3CC[C@]21C)C(C)C
REMARK SMILES IDX 5 1 4 2 3 3 2 4 1 5 28 6 29 7 30 8 6 9 7 10 8 11 9 12 26 13
REMARK SMILES IDX 10 14 11 15 25 16 27 17 12 18 24 19 23 20 13 21 21 22 14 23
REMARK SMILES IDX 15 24 20 25 22 26 16 27 19 28 17 29 18 30
REMARK H PARENT 18 31
REMARK Flexibility Score: inf
ROOT
ATOM      1  C   UNL     1     -13.608 -47.767 113.452  1.00  0.00     0.004 C 
ENDROOT
BRANCH   1   2
ATOM      2  C   UNL     1     -12.576 -48.747 112.836  1.00  0.00     0.004 C 
BRANCH   2   3
ATOM      3  C   UNL     1     -12.493 -50.113 113.588  1.00  0.00    -0.009 C 
BRANCH   3   4
ATOM      4  C   UNL     1     -11.054 -50.727 113.488  1.00  0.00     0.000 C 
ATOM      5  C   UNL     1     -10.971 -52.197 113.927  1.00  0.00     0.004 C 
ENDBRANCH   3   4
BRANCH   3   6
ATOM      6  C   UNL     1     -13.526 -51.175 113.068  1.00  0.00    -0.014 C 
ATOM      7  C   UNL     1     -13.994 -50.963 111.609  1.00  0.00     0.007 C 
ATOM      8  C   UNL     1     -14.766 -51.228 113.977  1.00  0.00     0.007 C 
ENDBRANCH   3   6
ENDBRANCH   2   3
ENDBRANCH   1   2
BRANCH   1   9
ATOM      9  C   UNL     1     -14.013 -46.568 112.545  1.00  0.00    -0.011 C 
ATOM     10  C   UNL     1     -13.865 -45.251 113.337  1.00  0.00     0.008 C 
BRANCH   9  11
ATOM     11  C   UNL     1     -15.421 -46.708 111.851  1.00  0.00    -0.002 C 
ATOM     12  C   UNL     1     -16.140 -48.041 112.204  1.00  0.00     0.005 C 
ATOM     13  C   UNL     1     -15.479 -46.689 110.284  1.00  0.00    -0.026 C 
ATOM     14  C   UNL     1     -17.008 -48.428 111.002  1.00  0.00     0.005 C 
ATOM     15  C   UNL     1     -16.906 -47.235 110.068  1.00  0.00    -0.001 C 
ATOM     16  C   UNL     1     -15.425 -45.296 109.584  1.00  0.00     0.007 C 
ATOM     17  C   UNL     1     -14.366 -47.623 109.685  1.00  0.00     0.012 C 
ATOM     18  C   UNL     1     -17.259 -47.452 108.576  1.00  0.00     0.000 C 
ATOM     19  C   UNL     1     -15.780 -45.400 108.076  1.00  0.00     0.005 C 
ATOM     20  C   UNL     1     -17.145 -46.097 107.816  1.00  0.00     0.003 C 
ATOM     21  C   UNL     1     -18.704 -47.947 108.399  1.00  0.00     0.031 C 
ATOM     22  C   UNL     1     -17.610 -46.207 106.283  1.00  0.00    -0.008 C 
ATOM     23  C   UNL     1     -18.909 -48.273 106.953  1.00  0.00    -0.027 C 
ATOM     24  C   UNL     1     -18.316 -47.542 105.981  1.00  0.00    -0.065 C 
ATOM     25  C   UNL     1     -16.442 -46.016 105.242  1.00  0.00     0.014 C 
ATOM     26  C   UNL     1     -18.650 -45.085 106.016  1.00  0.00     0.016 C 
ATOM     27  C   UNL     1     -18.040 -48.200 104.653  1.00  0.00     0.063 C 
ATOM     28  C   UNL     1     -15.645 -47.304 104.979  1.00  0.00     0.033 C 
ATOM     29  C   UNL     1     -16.528 -48.531 104.624  1.00  0.00     0.118 C 
BRANCH  29  30
ATOM     30  O   UNL     1     -16.105 -49.079 103.389  1.00  0.00    -0.393 OA
ATOM     31  H   UNL     1     -16.764 -48.861 102.679  1.00  0.00     0.210 HD
ENDBRANCH  29  30
ENDBRANCH   9  11
ENDBRANCH   1   9
TORSDOF 7
ENDMDL
MODEL 2
REMARK VINA RESULT:    -6.597      4.454     10.037
REMARK INTER + INTRA:         -10.756
REMARK INTER:                  -8.984
REMARK INTRA:                  -1.772
REMARK UNBOUND:                -1.652
REMARK SMILES CC[C@@H](CC[C@H](C)[C@@H]1CC[C@@H]2[C@H]3CC=C4C[C@@H](O)CC[C@]4(C)[C@@H]3CC[C@]21C)C(C)C
REMARK SMILES IDX 5 1 4 2 3 3 2 4 1 5 28 6 29 7 30 8 6 9 7 10 8 11 9 12 26 13
REMARK SMILES IDX 10 14 11 15 25 16 27 17 12 18 24 19 23 20 13 21 21 22 14 23
REMARK SMILES IDX 15 24 20 25 22 26 16 27 19 28 17 29 18 30
REMARK H PARENT 18 31
REMARK Flexibility Score: inf
ROOT
ATOM      1  C   UNL     1     -22.118 -46.351 102.304  1.00  0.00     0.004 C 
ENDROOT
BRANCH   1   2
ATOM      2  C   UNL     1     -21.459 -46.898 101.011  1.00  0.00     0.004 C 
BRANCH   2   3
ATOM      3  C   UNL     1     -21.139 -45.787  99.960  1.00  0.00    -0.009 C 
BRANCH   3   4
ATOM      4  C   UNL     1     -20.025 -46.258  98.962  1.00  0.00     0.000 C 
ATOM      5  C   UNL     1     -19.276 -47.522  99.413  1.00  0.00     0.004 C 
ENDBRANCH   3   4
BRANCH   3   6
ATOM      6  C   UNL     1     -20.689 -44.429 100.606  1.00  0.00    -0.014 C 
ATOM      7  C   UNL     1     -21.403 -43.178 100.045  1.00  0.00     0.007 C 
ATOM      8  C   UNL     1     -19.170 -44.230 100.467  1.00  0.00     0.007 C 
ENDBRANCH   3   6
ENDBRANCH   2   3
ENDBRANCH   1   2
BRANCH   1   9
ATOM      9  C   UNL     1     -21.639 -47.014 103.628  1.00  0.00    -0.011 C 
ATOM     10  C   UNL     1     -22.862 -47.541 104.411  1.00  0.00     0.008 C 
BRANCH   9  11
ATOM     11  C   UNL     1     -20.688 -46.120 104.511  1.00  0.00    -0.002 C 
ATOM     12  C   UNL     1     -20.651 -44.635 104.047  1.00  0.00     0.005 C 
ATOM     13  C   UNL     1     -19.167 -46.498 104.578  1.00  0.00    -0.026 C 
ATOM     14  C   UNL     1     -19.260 -44.084 104.382  1.00  0.00     0.005 C 
ATOM     15  C   UNL     1     -18.600 -45.195 105.178  1.00  0.00    -0.001 C 
ATOM     16  C   UNL     1     -18.762 -47.649 105.550  1.00  0.00     0.007 C 
ATOM     17  C   UNL     1     -18.617 -46.804 103.139  1.00  0.00     0.012 C 
ATOM     18  C   UNL     1     -17.055 -45.191 105.279  1.00  0.00     0.000 C 
ATOM     19  C   UNL     1     -17.221 -47.723 105.735  1.00  0.00     0.005 C 
ATOM     20  C   UNL     1     -16.593 -46.374 106.183  1.00  0.00     0.003 C 
ATOM     21  C   UNL     1     -16.530 -43.899 105.929  1.00  0.00     0.031 C 
ATOM     22  C   UNL     1     -15.009 -46.374 106.440  1.00  0.00    -0.008 C 
ATOM     23  C   UNL     1     -15.036 -43.912 105.849  1.00  0.00    -0.027 C 
ATOM     24  C   UNL     1     -14.340 -45.067 105.972  1.00  0.00    -0.065 C 
ATOM     25  C   UNL     1     -14.250 -47.585 105.777  1.00  0.00     0.014 C 
ATOM     26  C   UNL     1     -14.771 -46.468 107.972  1.00  0.00     0.016 C 
ATOM     27  C   UNL     1     -12.986 -45.164 105.319  1.00  0.00     0.063 C 
ATOM     28  C   UNL     1     -13.900 -47.348 104.299  1.00  0.00     0.033 C 
ATOM     29  C   UNL     1     -13.169 -46.004 104.031  1.00  0.00     0.118 C 
BRANCH  29  30
ATOM     30  O   UNL     1     -11.951 -46.252 103.354  1.00  0.00    -0.393 OA
ATOM     31  H   UNL     1     -11.804 -47.231 103.271  1.00  0.00     0.210 HD
ENDBRANCH  29  30
ENDBRANCH   9  11
ENDBRANCH   1   9
TORSDOF 7
ENDMDL
MODEL 3
REMARK VINA RESULT:    -6.492      0.759      1.446
REMARK INTER + INTRA:         -10.611
REMARK INTER:                  -8.968
REMARK INTRA:                  -1.643
REMARK UNBOUND:                -1.652
REMARK SMILES CC[C@@H](CC[C@H](C)[C@@H]1CC[C@@H]2[C@H]3CC=C4C[C@@H](O)CC[C@]4(C)[C@@H]3CC[C@]21C)C(C)C
REMARK SMILES IDX 5 1 4 2 3 3 2 4 1 5 28 6 29 7 30 8 6 9 7 10 8 11 9 12 26 13
REMARK SMILES IDX 10 14 11 15 25 16 27 17 12 18 24 19 23 20 13 21 21 22 14 23
REMARK SMILES IDX 15 24 20 25 22 26 16 27 19 28 17 29 18 30
REMARK H PARENT 18 31
REMARK Flexibility Score: inf
ROOT
ATOM      1  C   UNL     1     -14.608 -48.045 114.194  1.00  0.00     0.004 C 
ENDROOT
BRANCH   1   2
ATOM      2  C   UNL     1     -13.674 -49.272 114.362  1.00  0.00     0.004 C 
BRANCH   2   3
ATOM      3  C   UNL     1     -13.596 -50.171 113.088  1.00  0.00    -0.009 C 
BRANCH   3   4
ATOM      4  C   UNL     1     -14.198 -51.593 113.361  1.00  0.00     0.000 C 
ATOM      5  C   UNL     1     -15.467 -51.577 114.229  1.00  0.00     0.004 C 
ENDBRANCH   3   4
BRANCH   3   6
ATOM      6  C   UNL     1     -12.137 -50.345 112.536  1.00  0.00    -0.014 C 
ATOM      7  C   UNL     1     -12.043 -51.053 111.164  1.00  0.00     0.007 C 
ATOM      8  C   UNL     1     -11.254 -51.105 113.541  1.00  0.00     0.007 C 
ENDBRANCH   3   6
ENDBRANCH   2   3
ENDBRANCH   1   2
BRANCH   1   9
ATOM      9  C   UNL     1     -14.519 -47.323 112.818  1.00  0.00    -0.011 C 
ATOM     10  C   UNL     1     -13.889 -45.926 113.010  1.00  0.00     0.008 C 
BRANCH   9  11
ATOM     11  C   UNL     1     -15.867 -47.278 112.004  1.00  0.00    -0.002 C 
ATOM     12  C   UNL     1     -16.742 -48.547 112.211  1.00  0.00     0.005 C 
ATOM     13  C   UNL     1     -15.787 -47.166 110.442  1.00  0.00    -0.026 C 
ATOM     14  C   UNL     1     -17.536 -48.775 110.920  1.00  0.00     0.005 C 
ATOM     15  C   UNL     1     -17.236 -47.549 110.076  1.00  0.00    -0.001 C 
ATOM     16  C   UNL     1     -15.535 -45.750 109.840  1.00  0.00     0.007 C 
ATOM     17  C   UNL     1     -14.723 -48.176 109.877  1.00  0.00     0.012 C 
ATOM     18  C   UNL     1     -17.477 -47.645 108.550  1.00  0.00     0.000 C 
ATOM     19  C   UNL     1     -15.766 -45.733 108.304  1.00  0.00     0.005 C 
ATOM     20  C   UNL     1     -17.164 -46.268 107.890  1.00  0.00     0.003 C 
ATOM     21  C   UNL     1     -18.943 -47.977 108.224  1.00  0.00     0.031 C 
ATOM     22  C   UNL     1     -17.502 -46.245 106.320  1.00  0.00    -0.008 C 
ATOM     23  C   UNL     1     -19.052 -48.200 106.748  1.00  0.00    -0.027 C 
ATOM     24  C   UNL     1     -18.307 -47.481 105.877  1.00  0.00    -0.065 C 
ATOM     25  C   UNL     1     -16.235 -46.118 105.392  1.00  0.00     0.014 C 
ATOM     26  C   UNL     1     -18.400 -45.008 106.042  1.00  0.00     0.016 C 
ATOM     27  C   UNL     1     -17.982 -48.089 104.536  1.00  0.00     0.063 C 
ATOM     28  C   UNL     1     -15.548 -47.464 105.112  1.00  0.00     0.033 C 
ATOM     29  C   UNL     1     -16.513 -48.572 104.609  1.00  0.00     0.118 C 
BRANCH  29  30
ATOM     30  O   UNL     1     -16.040 -49.092 103.380  1.00  0.00    -0.393 OA
ATOM     31  H   UNL     1     -15.971 -50.081 103.435  1.00  0.00     0.210 HD
ENDBRANCH  29  30
ENDBRANCH   9  11
ENDBRANCH   1   9
TORSDOF 7
ENDMDL
MODEL 4
REMARK VINA RESULT:    -6.432      4.330      6.877
REMARK INTER + INTRA:         -10.528
REMARK INTER:                  -8.674
REMARK INTRA:                  -1.855
REMARK UNBOUND:                -1.652
REMARK SMILES CC[C@@H](CC[C@H](C)[C@@H]1CC[C@@H]2[C@H]3CC=C4C[C@@H](O)CC[C@]4(C)[C@@H]3CC[C@]21C)C(C)C
REMARK SMILES IDX 5 1 4 2 3 3 2 4 1 5 28 6 29 7 30 8 6 9 7 10 8 11 9 12 26 13
REMARK SMILES IDX 10 14 11 15 25 16 27 17 12 18 24 19 23 20 13 21 21 22 14 23
REMARK SMILES IDX 15 24 20 25 22 26 16 27 19 28 17 29 18 30
REMARK H PARENT 18 31
REMARK Flexibility Score: inf
ROOT
ATOM      1  C   UNL     1     -14.882 -52.621 113.603  1.00  0.00     0.004 C 
ENDROOT
BRANCH   1   2
ATOM      2  C   UNL     1     -16.299 -52.801 114.207  1.00  0.00     0.004 C 
BRANCH   2   3
ATOM      3  C   UNL     1     -17.185 -51.519 114.105  1.00  0.00    -0.009 C 
BRANCH   3   4
ATOM      4  C   UNL     1     -17.738 -51.101 115.511  1.00  0.00     0.000 C 
ATOM      5  C   UNL     1     -18.714 -52.117 116.125  1.00  0.00     0.004 C 
ENDBRANCH   3   4
BRANCH   3   6
ATOM      6  C   UNL     1     -18.395 -51.674 113.117  1.00  0.00    -0.014 C 
ATOM      7  C   UNL     1     -18.484 -53.048 112.412  1.00  0.00     0.007 C 
ATOM      8  C   UNL     1     -18.374 -50.573 112.043  1.00  0.00     0.007 C 
ENDBRANCH   3   6
ENDBRANCH   2   3
ENDBRANCH   1   2
BRANCH   1   9
ATOM      9  C   UNL     1     -14.812 -51.751 112.314  1.00  0.00    -0.011 C 
ATOM     10  C   UNL     1     -14.896 -52.665 111.072  1.00  0.00     0.008 C 
BRANCH   9  11
ATOM     11  C   UNL     1     -13.597 -50.751 112.255  1.00  0.00    -0.002 C 
ATOM     12  C   UNL     1     -12.749 -50.749 113.559  1.00  0.00     0.005 C 
ATOM     13  C   UNL     1     -13.901 -49.227 112.041  1.00  0.00    -0.026 C 
ATOM     14  C   UNL     1     -12.162 -49.343 113.725  1.00  0.00     0.005 C 
ATOM     15  C   UNL     1     -12.536 -48.628 112.439  1.00  0.00    -0.001 C 
ATOM     16  C   UNL     1     -14.185 -48.755 110.581  1.00  0.00     0.007 C 
ATOM     17  C   UNL     1     -15.073 -48.767 112.981  1.00  0.00     0.012 C 
ATOM     18  C   UNL     1     -12.526 -47.080 112.444  1.00  0.00     0.000 C 
ATOM     19  C   UNL     1     -14.182 -47.205 110.472  1.00  0.00     0.005 C 
ATOM     20  C   UNL     1     -12.880 -46.556 111.019  1.00  0.00     0.003 C 
ATOM     21  C   UNL     1     -11.137 -46.521 112.795  1.00  0.00     0.031 C 
ATOM     22  C   UNL     1     -12.775 -44.959 110.904  1.00  0.00    -0.008 C 
ATOM     23  C   UNL     1     -11.253 -45.034 112.926  1.00  0.00    -0.027 C 
ATOM     24  C   UNL     1     -12.090 -44.328 112.131  1.00  0.00    -0.065 C 
ATOM     25  C   UNL     1     -14.159 -44.238 110.682  1.00  0.00     0.014 C 
ATOM     26  C   UNL     1     -11.882 -44.624 109.678  1.00  0.00     0.016 C 
ATOM     27  C   UNL     1     -12.631 -43.016 112.643  1.00  0.00     0.063 C 
ATOM     28  C   UNL     1     -14.929 -43.984 111.988  1.00  0.00     0.033 C 
ATOM     29  C   UNL     1     -14.090 -43.278 113.088  1.00  0.00     0.118 C 
BRANCH  29  30
ATOM     30  O   UNL     1     -14.757 -42.104 113.513  1.00  0.00    -0.393 OA
ATOM     31  H   UNL     1     -14.443 -41.325 112.983  1.00  0.00     0.210 HD
ENDBRANCH  29  30
ENDBRANCH   9  11
ENDBRANCH   1   9
TORSDOF 7
ENDMDL
MODEL 5
REMARK VINA RESULT:    -6.413      5.119      9.770
REMARK INTER + INTRA:         -10.502
REMARK INTER:                  -9.313
REMARK INTRA:                  -1.189
REMARK UNBOUND:                -1.652
REMARK SMILES CC[C@@H](CC[C@H](C)[C@@H]1CC[C@@H]2[C@H]3CC=C4C[C@@H](O)CC[C@]4(C)[C@@H]3CC[C@]21C)C(C)C
REMARK SMILES IDX 5 1 4 2 3 3 2 4 1 5 28 6 29 7 30 8 6 9 7 10 8 11 9 12 26 13
REMARK SMILES IDX 10 14 11 15 25 16 27 17 12 18 24 19 23 20 13 21 21 22 14 23
REMARK SMILES IDX 15 24 20 25 22 26 16 27 19 28 17 29 18 30
REMARK H PARENT 18 31
REMARK Flexibility Score: inf
ROOT
ATOM      1  C   UNL     1     -22.481 -46.684 102.570  1.00  0.00     0.004 C 
ENDROOT
BRANCH   1   2
ATOM      2  C   UNL     1     -22.603 -48.199 102.260  1.00  0.00     0.004 C 
BRANCH   2   3
ATOM      3  C   UNL     1     -22.631 -49.093 103.540  1.00  0.00    -0.009 C 
BRANCH   3   4
ATOM      4  C   UNL     1     -24.027 -49.787 103.713  1.00  0.00     0.000 C 
ATOM      5  C   UNL     1     -24.432 -50.679 102.530  1.00  0.00     0.004 C 
ENDBRANCH   3   4
BRANCH   3   6
ATOM      6  C   UNL     1     -22.296 -48.309 104.857  1.00  0.00    -0.014 C 
ATOM      7  C   UNL     1     -21.138 -48.906 105.690  1.00  0.00     0.007 C 
ATOM      8  C   UNL     1     -23.537 -48.189 105.759  1.00  0.00     0.007 C 
ENDBRANCH   3   6
ENDBRANCH   2   3
ENDBRANCH   1   2
BRANCH   1   9
ATOM      9  C   UNL     1     -21.802 -45.829 101.460  1.00  0.00    -0.011 C 
ATOM     10  C   UNL     1     -21.362 -46.749 100.299  1.00  0.00     0.008 C 
BRANCH   9  11
ATOM     11  C   UNL     1     -20.644 -44.887 101.964  1.00  0.00    -0.002 C 
ATOM     12  C   UNL     1     -19.625 -44.528 100.845  1.00  0.00     0.005 C 
ATOM     13  C   UNL     1     -19.717 -45.406 103.119  1.00  0.00    -0.026 C 
ATOM     14  C   UNL     1     -18.261 -44.322 101.512  1.00  0.00     0.005 C 
ATOM     15  C   UNL     1     -18.558 -44.394 102.999  1.00  0.00    -0.001 C 
ATOM     16  C   UNL     1     -20.261 -45.289 104.576  1.00  0.00     0.007 C 
ATOM     17  C   UNL     1     -19.272 -46.886 102.839  1.00  0.00     0.012 C 
ATOM     18  C   UNL     1     -17.381 -44.697 103.958  1.00  0.00     0.000 C 
ATOM     19  C   UNL     1     -19.147 -45.562 105.624  1.00  0.00     0.005 C 
ATOM     20  C   UNL     1     -17.892 -44.667 105.430  1.00  0.00     0.003 C 
ATOM     21  C   UNL     1     -16.269 -43.639 103.847  1.00  0.00     0.031 C 
ATOM     22  C   UNL     1     -16.709 -44.853 106.499  1.00  0.00    -0.008 C 
ATOM     23  C   UNL     1     -15.115 -44.088 104.687  1.00  0.00    -0.027 C 
ATOM     24  C   UNL     1     -15.314 -44.745 105.853  1.00  0.00    -0.065 C 
ATOM     25  C   UNL     1     -16.779 -46.205 107.306  1.00  0.00     0.014 C 
ATOM     26  C   UNL     1     -16.809 -43.697 107.531  1.00  0.00     0.016 C 
ATOM     27  C   UNL     1     -14.236 -45.674 106.348  1.00  0.00     0.063 C 
ATOM     28  C   UNL     1     -16.147 -47.392 106.562  1.00  0.00     0.033 C 
ATOM     29  C   UNL     1     -14.710 -47.115 106.040  1.00  0.00     0.118 C 
BRANCH  29  30
ATOM     30  O   UNL     1     -13.827 -48.106 106.532  1.00  0.00    -0.393 OA
ATOM     31  H   UNL     1     -13.335 -48.526 105.779  1.00  0.00     0.210 HD
ENDBRANCH  29  30
ENDBRANCH   9  11
ENDBRANCH   1   9
TORSDOF 7
ENDMDL
MODEL 6
REMARK VINA RESULT:    -6.250      4.003      7.394
REMARK INTER + INTRA:         -10.277
REMARK INTER:                  -8.646
REMARK INTRA:                  -1.631
REMARK UNBOUND:                -1.652
REMARK SMILES CC[C@@H](CC[C@H](C)[C@@H]1CC[C@@H]2[C@H]3CC=C4C[C@@H](O)CC[C@]4(C)[C@@H]3CC[C@]21C)C(C)C
REMARK SMILES IDX 5 1 4 2 3 3 2 4 1 5 28 6 29 7 30 8 6 9 7 10 8 11 9 12 26 13
REMARK SMILES IDX 10 14 11 15 25 16 27 17 12 18 24 19 23 20 13 21 21 22 14 23
REMARK SMILES IDX 15 24 20 25 22 26 16 27 19 28 17 29 18 30
REMARK H PARENT 18 31
REMARK Flexibility Score: inf
ROOT
ATOM      1  C   UNL     1     -12.016 -46.973 112.930  1.00  0.00     0.004 C 
ENDROOT
BRANCH   1   2
ATOM      2  C   UNL     1     -12.354 -46.835 111.423  1.00  0.00     0.004 C 
BRANCH   2   3
ATOM      3  C   UNL     1     -12.563 -45.357 110.966  1.00  0.00    -0.009 C 
BRANCH   3   4
ATOM      4  C   UNL     1     -11.636 -44.380 111.771  1.00  0.00     0.000 C 
ATOM      5  C   UNL     1     -10.876 -43.374 110.892  1.00  0.00     0.004 C 
ENDBRANCH   3   4
BRANCH   3   6
ATOM      6  C   UNL     1     -14.046 -44.864 111.104  1.00  0.00    -0.014 C 
ATOM      7  C   UNL     1     -14.386 -44.202 112.460  1.00  0.00     0.007 C 
ATOM      8  C   UNL     1     -15.035 -46.019 110.863  1.00  0.00     0.007 C 
ENDBRANCH   3   6
ENDBRANCH   2   3
ENDBRANCH   1   2
BRANCH   1   9
ATOM      9  C   UNL     1     -13.190 -47.443 113.837  1.00  0.00    -0.011 C 
ATOM     10  C   UNL     1     -13.227 -46.582 115.119  1.00  0.00     0.008 C 
BRANCH   9  11
ATOM     11  C   UNL     1     -13.216 -48.989 114.139  1.00  0.00    -0.002 C 
ATOM     12  C   UNL     1     -11.995 -49.744 113.540  1.00  0.00     0.005 C 
ATOM     13  C   UNL     1     -14.432 -49.827 113.610  1.00  0.00    -0.026 C 
ATOM     14  C   UNL     1     -12.453 -51.167 113.203  1.00  0.00     0.005 C 
ATOM     15  C   UNL     1     -13.859 -51.251 113.771  1.00  0.00    -0.001 C 
ATOM     16  C   UNL     1     -15.748 -49.780 114.446  1.00  0.00     0.007 C 
ATOM     17  C   UNL     1     -14.743 -49.454 112.116  1.00  0.00     0.012 C 
ATOM     18  C   UNL     1     -14.796 -52.353 113.220  1.00  0.00     0.000 C 
ATOM     19  C   UNL     1     -16.759 -50.864 113.981  1.00  0.00     0.005 C 
ATOM     20  C   UNL     1     -16.159 -52.297 113.975  1.00  0.00     0.003 C 
ATOM     21  C   UNL     1     -14.216 -53.759 113.444  1.00  0.00     0.031 C 
ATOM     22  C   UNL     1     -17.151 -53.486 113.549  1.00  0.00    -0.008 C 
ATOM     23  C   UNL     1     -15.104 -54.745 112.752  1.00  0.00    -0.027 C 
ATOM     24  C   UNL     1     -16.444 -54.562 112.703  1.00  0.00    -0.065 C 
ATOM     25  C   UNL     1     -18.432 -53.004 112.768  1.00  0.00     0.014 C 
ATOM     26  C   UNL     1     -17.640 -54.190 114.843  1.00  0.00     0.016 C 
ATOM     27  C   UNL     1     -17.212 -55.177 111.561  1.00  0.00     0.063 C 
ATOM     28  C   UNL     1     -18.192 -52.810 111.262  1.00  0.00     0.033 C 
ATOM     29  C   UNL     1     -17.529 -54.032 110.568  1.00  0.00     0.118 C 
BRANCH  29  30
ATOM     30  O   UNL     1     -18.330 -54.450 109.478  1.00  0.00    -0.393 OA
ATOM     31  H   UNL     1     -17.819 -54.365 108.631  1.00  0.00     0.210 HD
ENDBRANCH  29  30
ENDBRANCH   9  11
ENDBRANCH   1   9
TORSDOF 7
ENDMDL
MODEL 7
REMARK VINA RESULT:    -6.149      3.664      6.290
REMARK INTER + INTRA:         -10.137
REMARK INTER:                  -8.236
REMARK INTRA:                  -1.901
REMARK UNBOUND:                -1.652
REMARK SMILES CC[C@@H](CC[C@H](C)[C@@H]1CC[C@@H]2[C@H]3CC=C4C[C@@H](O)CC[C@]4(C)[C@@H]3CC[C@]21C)C(C)C
REMARK SMILES IDX 5 1 4 2 3 3 2 4 1 5 28 6 29 7 30 8 6 9 7 10 8 11 9 12 26 13
REMARK SMILES IDX 10 14 11 15 25 16 27 17 12 18 24 19 23 20 13 21 21 22 14 23
REMARK SMILES IDX 15 24 20 25 22 26 16 27 19 28 17 29 18 30
REMARK H PARENT 18 31
REMARK Flexibility Score: inf
ROOT
ATOM      1  C   UNL     1     -15.388 -52.720 113.718  1.00  0.00     0.004 C 
ENDROOT
BRANCH   1   2
ATOM      2  C   UNL     1     -16.665 -52.801 112.843  1.00  0.00     0.004 C 
BRANCH   2   3
ATOM      3  C   UNL     1     -17.960 -52.350 113.591  1.00  0.00    -0.009 C 
BRANCH   3   4
ATOM      4  C   UNL     1     -18.331 -50.868 113.238  1.00  0.00     0.000 C 
ATOM      5  C   UNL     1     -18.443 -50.595 111.730  1.00  0.00     0.004 C 
ENDBRANCH   3   4
BRANCH   3   6
ATOM      6  C   UNL     1     -17.855 -52.481 115.152  1.00  0.00    -0.014 C 
ATOM      7  C   UNL     1     -18.746 -53.583 115.771  1.00  0.00     0.007 C 
ATOM      8  C   UNL     1     -18.181 -51.144 115.840  1.00  0.00     0.007 C 
ENDBRANCH   3   6
ENDBRANCH   2   3
ENDBRANCH   1   2
BRANCH   1   9
ATOM      9  C   UNL     1     -14.161 -52.036 113.047  1.00  0.00    -0.011 C 
ATOM     10  C   UNL     1     -12.947 -52.989 113.103  1.00  0.00     0.008 C 
BRANCH   9  11
ATOM     11  C   UNL     1     -13.830 -50.593 113.586  1.00  0.00    -0.002 C 
ATOM     12  C   UNL     1     -14.871 -50.080 114.621  1.00  0.00     0.005 C 
ATOM     13  C   UNL     1     -13.762 -49.414 112.553  1.00  0.00    -0.026 C 
ATOM     14  C   UNL     1     -14.936 -48.554 114.492  1.00  0.00     0.005 C 
ATOM     15  C   UNL     1     -13.819 -48.215 113.521  1.00  0.00    -0.001 C 
ATOM     16  C   UNL     1     -12.445 -49.262 111.731  1.00  0.00     0.007 C 
ATOM     17  C   UNL     1     -14.990 -49.475 111.575  1.00  0.00     0.012 C 
ATOM     18  C   UNL     1     -13.882 -46.847 112.797  1.00  0.00     0.000 C 
ATOM     19  C   UNL     1     -12.400 -47.907 110.973  1.00  0.00     0.005 C 
ATOM     20  C   UNL     1     -12.618 -46.679 111.900  1.00  0.00     0.003 C 
ATOM     21  C   UNL     1     -13.885 -45.675 113.793  1.00  0.00     0.031 C 
ATOM     22  C   UNL     1     -12.543 -45.235 111.203  1.00  0.00    -0.008 C 
ATOM     23  C   UNL     1     -14.099 -44.411 113.022  1.00  0.00    -0.027 C 
ATOM     24  C   UNL     1     -13.576 -44.251 111.784  1.00  0.00    -0.065 C 
ATOM     25  C   UNL     1     -12.714 -45.267 109.637  1.00  0.00     0.014 C 
ATOM     26  C   UNL     1     -11.142 -44.632 111.499  1.00  0.00     0.016 C 
ATOM     27  C   UNL     1     -14.261 -43.305 110.830  1.00  0.00     0.063 C 
ATOM     28  C   UNL     1     -14.183 -45.288 109.185  1.00  0.00     0.033 C 
ATOM     29  C   UNL     1     -15.057 -44.177 109.830  1.00  0.00     0.118 C 
BRANCH  29  30
ATOM     30  O   UNL     1     -15.686 -43.419 108.813  1.00  0.00    -0.393 OA
ATOM     31  H   UNL     1     -15.009 -43.103 108.158  1.00  0.00     0.210 HD
ENDBRANCH  29  30
ENDBRANCH   9  11
ENDBRANCH   1   9
TORSDOF 7
ENDMDL
MODEL 8
REMARK VINA RESULT:    -6.056      4.592      8.459
REMARK INTER + INTRA:         -10.010
REMARK INTER:                  -8.373
REMARK INTRA:                  -1.637
REMARK UNBOUND:                -1.652
REMARK SMILES CC[C@@H](CC[C@H](C)[C@@H]1CC[C@@H]2[C@H]3CC=C4C[C@@H](O)CC[C@]4(C)[C@@H]3CC[C@]21C)C(C)C
REMARK SMILES IDX 5 1 4 2 3 3 2 4 1 5 28 6 29 7 30 8 6 9 7 10 8 11 9 12 26 13
REMARK SMILES IDX 10 14 11 15 25 16 27 17 12 18 24 19 23 20 13 21 21 22 14 23
REMARK SMILES IDX 15 24 20 25 22 26 16 27 19 28 17 29 18 30
REMARK H PARENT 18 31
REMARK Flexibility Score: inf
ROOT
ATOM      1  C   UNL     1     -12.732 -57.808 112.224  1.00  0.00     0.004 C 
ENDROOT
BRANCH   1   2
ATOM      2  C   UNL     1     -11.968 -58.379 113.447  1.00  0.00     0.004 C 
BRANCH   2   3
ATOM      3  C   UNL     1     -12.848 -59.294 114.357  1.00  0.00    -0.009 C 
BRANCH   3   4
ATOM      4  C   UNL     1     -14.248 -59.563 113.702  1.00  0.00     0.000 C 
ATOM      5  C   UNL     1     -14.639 -61.049 113.656  1.00  0.00     0.004 C 
ENDBRANCH   3   4
BRANCH   3   6
ATOM      6  C   UNL     1     -13.074 -58.709 115.796  1.00  0.00    -0.014 C 
ATOM      7  C   UNL     1     -14.483 -58.122 116.043  1.00  0.00     0.007 C 
ATOM      8  C   UNL     1     -12.029 -57.629 116.123  1.00  0.00     0.007 C 
ENDBRANCH   3   6
ENDBRANCH   2   3
ENDBRANCH   1   2
BRANCH   1   9
ATOM      9  C   UNL     1     -12.643 -56.265 112.043  1.00  0.00    -0.011 C 
ATOM     10  C   UNL     1     -11.161 -55.831 112.057  1.00  0.00     0.008 C 
BRANCH   9  11
ATOM     11  C   UNL     1     -13.533 -55.428 113.037  1.00  0.00    -0.002 C 
ATOM     12  C   UNL     1     -14.984 -55.975 113.157  1.00  0.00     0.005 C 
ATOM     13  C   UNL     1     -13.764 -53.908 112.724  1.00  0.00    -0.026 C 
ATOM     14  C   UNL     1     -15.903 -54.785 113.455  1.00  0.00     0.005 C 
ATOM     15  C   UNL     1     -14.949 -53.623 113.670  1.00  0.00    -0.001 C 
ATOM     16  C   UNL     1     -12.627 -52.918 113.124  1.00  0.00     0.007 C 
ATOM     17  C   UNL     1     -14.126 -53.712 111.208  1.00  0.00     0.012 C 
ATOM     18  C   UNL     1     -15.514 -52.189 113.527  1.00  0.00     0.000 C 
ATOM     19  C   UNL     1     -13.098 -51.440 113.029  1.00  0.00     0.005 C 
ATOM     20  C   UNL     1     -14.390 -51.156 113.844  1.00  0.00     0.003 C 
ATOM     21  C   UNL     1     -16.659 -51.925 114.521  1.00  0.00     0.031 C 
ATOM     22  C   UNL     1     -14.922 -49.642 113.836  1.00  0.00    -0.008 C 
ATOM     23  C   UNL     1     -17.242 -50.582 114.213  1.00  0.00    -0.027 C 
ATOM     24  C   UNL     1     -16.460 -49.562 113.790  1.00  0.00    -0.065 C 
ATOM     25  C   UNL     1     -14.344 -48.764 112.661  1.00  0.00     0.014 C 
ATOM     26  C   UNL     1     -14.483 -48.972 115.167  1.00  0.00     0.016 C 
ATOM     27  C   UNL     1     -17.083 -48.479 112.947  1.00  0.00     0.063 C 
ATOM     28  C   UNL     1     -15.116 -48.927 111.342  1.00  0.00     0.033 C 
ATOM     29  C   UNL     1     -16.652 -48.746 111.485  1.00  0.00     0.118 C 
BRANCH  29  30
ATOM     30  O   UNL     1     -17.098 -47.748 110.585  1.00  0.00    -0.393 OA
ATOM     31  H   UNL     1     -16.318 -47.295 110.168  1.00  0.00     0.210 HD
ENDBRANCH  29  30
ENDBRANCH   9  11
ENDBRANCH   1   9
TORSDOF 7
ENDMDL
MODEL 9
REMARK VINA RESULT:    -6.000      3.293      8.742
REMARK INTER + INTRA:          -9.932
REMARK INTER:                  -8.156
REMARK INTRA:                  -1.776
REMARK UNBOUND:                -1.652
REMARK SMILES CC[C@@H](CC[C@H](C)[C@@H]1CC[C@@H]2[C@H]3CC=C4C[C@@H](O)CC[C@]4(C)[C@@H]3CC[C@]21C)C(C)C
REMARK SMILES IDX 5 1 4 2 3 3 2 4 1 5 28 6 29 7 30 8 6 9 7 10 8 11 9 12 26 13
REMARK SMILES IDX 10 14 11 15 25 16 27 17 12 18 24 19 23 20 13 21 21 22 14 23
REMARK SMILES IDX 15 24 20 25 22 26 16 27 19 28 17 29 18 30
REMARK H PARENT 18 31
REMARK Flexibility Score: inf
ROOT
ATOM      1  C   UNL     1     -19.959 -46.921 105.030  1.00  0.00     0.004 C 
ENDROOT
BRANCH   1   2
ATOM      2  C   UNL     1     -20.524 -45.564 104.534  1.00  0.00     0.004 C 
BRANCH   2   3
ATOM      3  C   UNL     1     -19.606 -44.348 104.876  1.00  0.00    -0.009 C 
BRANCH   3   4
ATOM      4  C   UNL     1     -20.289 -43.399 105.920  1.00  0.00     0.000 C 
ATOM      5  C   UNL     1     -19.400 -42.234 106.381  1.00  0.00     0.004 C 
ENDBRANCH   3   4
BRANCH   3   6
ATOM      6  C   UNL     1     -19.202 -43.499 103.619  1.00  0.00    -0.014 C 
ATOM      7  C   UNL     1     -20.228 -43.526 102.462  1.00  0.00     0.007 C 
ATOM      8  C   UNL     1     -17.834 -43.941 103.071  1.00  0.00     0.007 C 
ENDBRANCH   3   6
ENDBRANCH   2   3
ENDBRANCH   1   2
BRANCH   1   9
ATOM      9  C   UNL     1     -18.408 -46.995 105.146  1.00  0.00    -0.011 C 
ATOM     10  C   UNL     1     -17.836 -47.742 103.922  1.00  0.00     0.008 C 
BRANCH   9  11
ATOM     11  C   UNL     1     -17.873 -47.564 106.514  1.00  0.00    -0.002 C 
ATOM     12  C   UNL     1     -19.010 -47.859 107.534  1.00  0.00     0.005 C 
ATOM     13  C   UNL     1     -16.884 -46.678 107.349  1.00  0.00    -0.026 C 
ATOM     14  C   UNL     1     -18.434 -47.649 108.939  1.00  0.00     0.005 C 
ATOM     15  C   UNL     1     -16.953 -47.413 108.704  1.00  0.00    -0.001 C 
ATOM     16  C   UNL     1     -15.385 -46.682 106.917  1.00  0.00     0.007 C 
ATOM     17  C   UNL     1     -17.407 -45.198 107.423  1.00  0.00     0.012 C 
ATOM     18  C   UNL     1     -16.148 -46.709 109.823  1.00  0.00     0.000 C 
ATOM     19  C   UNL     1     -14.481 -46.008 107.985  1.00  0.00     0.005 C 
ATOM     20  C   UNL     1     -14.649 -46.620 109.403  1.00  0.00     0.003 C 
ATOM     21  C   UNL     1     -16.198 -47.497 111.143  1.00  0.00     0.031 C 
ATOM     22  C   UNL     1     -13.718 -46.010 110.560  1.00  0.00    -0.008 C 
ATOM     23  C   UNL     1     -15.528 -46.676 112.200  1.00  0.00    -0.027 C 
ATOM     24  C   UNL     1     -14.455 -45.905 111.909  1.00  0.00    -0.065 C 
ATOM     25  C   UNL     1     -13.108 -44.598 110.216  1.00  0.00     0.014 C 
ATOM     26  C   UNL     1     -12.527 -46.982 110.781  1.00  0.00     0.016 C 
ATOM     27  C   UNL     1     -14.187 -44.693 112.765  1.00  0.00     0.063 C 
ATOM     28  C   UNL     1     -14.063 -43.432 110.519  1.00  0.00     0.033 C 
ATOM     29  C   UNL     1     -14.657 -43.461 111.955  1.00  0.00     0.118 C 
BRANCH  29  30
ATOM     30  O   UNL     1     -14.384 -42.234 112.606  1.00  0.00    -0.393 OA
ATOM     31  H   UNL     1     -13.769 -41.686 112.050  1.00  0.00     0.210 HD
ENDBRANCH  29  30
ENDBRANCH   9  11
ENDBRANCH   1   9
TORSDOF 7
ENDMDL
