MODEL 1
REMARK VINA RESULT:    54.030      0.000      0.000
REMARK INTER + INTRA:          76.200
REMARK INTER:                  74.561
REMARK INTRA:                   1.638
REMARK UNBOUND:                 1.638
REMARK SMILES CC[C@H](CC[C@H](C)[C@H]1CC[C@H]2[C@@H]3CC=C4C[C@H](O)CC[C@]4(C)[C@@H]3CC[C@@]12C)C(C)C
REMARK SMILES IDX 5 1 4 2 3 3 2 4 1 5 28 6 29 7 30 8 6 9 7 10 8 11 9 12 26 13
REMARK SMILES IDX 10 14 11 15 25 16 27 17 12 18 24 19 23 20 13 21 21 22 14 23
REMARK SMILES IDX 15 24 20 25 22 26 16 27 19 28 17 29 18 30
REMARK H PARENT 18 31
REMARK Flexibility Score: inf
ROOT
ATOM      1  C   UNL     1     -41.628  23.097   6.212  1.00  0.00     0.004 C 
ENDROOT
BRANCH   1   2
ATOM      2  C   UNL     1     -40.971  22.910   4.824  1.00  0.00     0.004 C 
BRANCH   2   3
ATOM      3  C   UNL     1     -41.366  24.042   3.832  1.00  0.00    -0.009 C 
BRANCH   3   4
ATOM      4  C   UNL     1     -42.124  25.176   4.597  1.00  0.00     0.000 C 
ATOM      5  C   UNL     1     -42.123  26.496   3.825  1.00  0.00     0.004 C 
ENDBRANCH   3   4
BRANCH   3   6
ATOM      6  C   UNL     1     -40.133  24.618   3.052  1.00  0.00    -0.014 C 
ATOM      7  C   UNL     1     -40.399  24.661   1.533  1.00  0.00     0.007 C 
ATOM      8  C   UNL     1     -38.839  23.812   3.291  1.00  0.00     0.007 C 
ENDBRANCH   3   6
ENDBRANCH   2   3
ENDBRANCH   1   2
BRANCH   1   9
ATOM      9  C   UNL     1     -41.017  22.221   7.337  1.00  0.00    -0.011 C 
ATOM     10  C   UNL     1     -42.124  21.476   8.112  1.00  0.00     0.008 C 
BRANCH   9  11
ATOM     11  C   UNL     1     -39.970  23.010   8.214  1.00  0.00    -0.002 C 
ATOM     12  C   UNL     1     -38.709  22.243   8.632  1.00  0.00     0.005 C 
ATOM     13  C   UNL     1     -39.454  24.366   7.647  1.00  0.00    -0.026 C 
ATOM     14  C   UNL     1     -37.675  23.302   9.002  1.00  0.00     0.005 C 
ATOM     15  C   UNL     1     -38.259  24.671   8.602  1.00  0.00    -0.001 C 
ATOM     16  C   UNL     1     -38.977  24.228   6.174  1.00  0.00     0.007 C 
ATOM     17  C   UNL     1     -40.577  25.433   7.752  1.00  0.00     0.012 C 
ATOM     18  C   UNL     1     -37.164  25.651   8.077  1.00  0.00     0.000 C 
ATOM     19  C   UNL     1     -38.032  25.347   5.718  1.00  0.00     0.005 C 
ATOM     20  C   UNL     1     -36.764  25.393   6.601  1.00  0.00     0.003 C 
ATOM     21  C   UNL     1     -37.570  27.118   8.303  1.00  0.00     0.031 C 
ATOM     22  C   UNL     1     -35.615  26.385   6.129  1.00  0.00    -0.008 C 
ATOM     23  C   UNL     1     -36.596  28.092   7.714  1.00  0.00    -0.027 C 
ATOM     24  C   UNL     1     -35.807  27.813   6.656  1.00  0.00    -0.065 C 
ATOM     25  C   UNL     1     -35.512  26.449   4.571  1.00  0.00     0.014 C 
ATOM     26  C   UNL     1     -34.269  25.846   6.690  1.00  0.00     0.016 C 
ATOM     27  C   UNL     1     -34.905  28.911   6.118  1.00  0.00     0.063 C 
ATOM     28  C   UNL     1     -34.512  27.498   4.054  1.00  0.00     0.033 C 
ATOM     29  C   UNL     1     -34.851  28.899   4.582  1.00  0.00     0.118 C 
BRANCH  29  30
ATOM     30  O   UNL     1     -36.082  29.319   4.050  1.00  0.00    -0.393 OA
ATOM     31  H   UNL     1     -36.222  28.809   3.210  1.00  0.00     0.210 HD
ENDBRANCH  29  30
ENDBRANCH   9  11
ENDBRANCH   1   9
TORSDOF 7
ENDMDL
MODEL 2
REMARK VINA RESULT:    55.792      9.364     14.235
REMARK INTER + INTRA:          78.630
REMARK INTER:                  77.723
REMARK INTRA:                   0.907
REMARK UNBOUND:                 1.638
REMARK SMILES CC[C@H](CC[C@H](C)[C@H]1CC[C@H]2[C@@H]3CC=C4C[C@H](O)CC[C@]4(C)[C@@H]3CC[C@@]12C)C(C)C
REMARK SMILES IDX 5 1 4 2 3 3 2 4 1 5 28 6 29 7 30 8 6 9 7 10 8 11 9 12 26 13
REMARK SMILES IDX 10 14 11 15 25 16 27 17 12 18 24 19 23 20 13 21 21 22 14 23
REMARK SMILES IDX 15 24 20 25 22 26 16 27 19 28 17 29 18 30
REMARK H PARENT 18 31
REMARK Flexibility Score: inf
ROOT
ATOM      1  C   UNL     1     -31.611  33.292  -4.260  1.00  0.00     0.004 C 
ENDROOT
BRANCH   1   2
ATOM      2  C   UNL     1     -30.885  33.815  -5.522  1.00  0.00     0.004 C 
BRANCH   2   3
ATOM      3  C   UNL     1     -29.985  35.045  -5.214  1.00  0.00    -0.009 C 
BRANCH   3   4
ATOM      4  C   UNL     1     -28.581  34.564  -4.721  1.00  0.00     0.000 C 
ATOM      5  C   UNL     1     -27.800  35.679  -4.024  1.00  0.00     0.004 C 
ENDBRANCH   3   4
BRANCH   3   6
ATOM      6  C   UNL     1     -29.850  36.016  -6.439  1.00  0.00    -0.014 C 
ATOM      7  C   UNL     1     -30.859  35.663  -7.550  1.00  0.00     0.007 C 
ATOM      8  C   UNL     1     -28.435  36.014  -7.055  1.00  0.00     0.007 C 
ENDBRANCH   3   6
ENDBRANCH   2   3
ENDBRANCH   1   2
BRANCH   1   9
ATOM      9  C   UNL     1     -30.694  32.553  -3.250  1.00  0.00    -0.011 C 
ATOM     10  C   UNL     1     -29.675  31.661  -3.988  1.00  0.00     0.008 C 
BRANCH   9  11
ATOM     11  C   UNL     1     -31.511  31.857  -2.093  1.00  0.00    -0.002 C 
ATOM     12  C   UNL     1     -32.015  32.768  -0.966  1.00  0.00     0.005 C 
ATOM     13  C   UNL     1     -32.747  31.007  -2.513  1.00  0.00    -0.026 C 
ATOM     14  C   UNL     1     -33.148  32.008  -0.283  1.00  0.00     0.005 C 
ATOM     15  C   UNL     1     -33.439  30.760  -1.138  1.00  0.00    -0.001 C 
ATOM     16  C   UNL     1     -33.679  31.790  -3.480  1.00  0.00     0.007 C 
ATOM     17  C   UNL     1     -32.268  29.688  -3.177  1.00  0.00     0.012 C 
ATOM     18  C   UNL     1     -34.958  30.402  -1.163  1.00  0.00     0.000 C 
ATOM     19  C   UNL     1     -35.110  31.239  -3.548  1.00  0.00     0.005 C 
ATOM     20  C   UNL     1     -35.778  31.268  -2.154  1.00  0.00     0.003 C 
ATOM     21  C   UNL     1     -35.176  28.899  -1.415  1.00  0.00     0.031 C 
ATOM     22  C   UNL     1     -37.323  30.898  -2.109  1.00  0.00    -0.008 C 
ATOM     23  C   UNL     1     -36.622  28.533  -1.557  1.00  0.00    -0.027 C 
ATOM     24  C   UNL     1     -37.570  29.388  -1.990  1.00  0.00    -0.065 C 
ATOM     25  C   UNL     1     -38.079  31.419  -3.374  1.00  0.00     0.014 C 
ATOM     26  C   UNL     1     -37.934  31.581  -0.853  1.00  0.00     0.016 C 
ATOM     27  C   UNL     1     -38.991  28.872  -2.146  1.00  0.00     0.063 C 
ATOM     28  C   UNL     1     -39.548  30.968  -3.453  1.00  0.00     0.033 C 
ATOM     29  C   UNL     1     -39.665  29.439  -3.405  1.00  0.00     0.118 C 
BRANCH  29  30
ATOM     30  O   UNL     1     -39.084  28.884  -4.558  1.00  0.00    -0.393 OA
ATOM     31  H   UNL     1     -39.677  28.147  -4.855  1.00  0.00     0.210 HD
ENDBRANCH  29  30
ENDBRANCH   9  11
ENDBRANCH   1   9
TORSDOF 7
ENDMDL
MODEL 3
REMARK VINA RESULT:    56.894      2.556      7.768
REMARK INTER + INTRA:          80.152
REMARK INTER:                  77.803
REMARK INTRA:                   2.349
REMARK UNBOUND:                 1.638
REMARK SMILES CC[C@H](CC[C@H](C)[C@H]1CC[C@H]2[C@@H]3CC=C4C[C@H](O)CC[C@]4(C)[C@@H]3CC[C@@]12C)C(C)C
REMARK SMILES IDX 5 1 4 2 3 3 2 4 1 5 28 6 29 7 30 8 6 9 7 10 8 11 9 12 26 13
REMARK SMILES IDX 10 14 11 15 25 16 27 17 12 18 24 19 23 20 13 21 21 22 14 23
REMARK SMILES IDX 15 24 20 25 22 26 16 27 19 28 17 29 18 30
REMARK H PARENT 18 31
REMARK Flexibility Score: inf
ROOT
ATOM      1  C   UNL     1     -32.864  27.972   5.745  1.00  0.00     0.004 C 
ENDROOT
BRANCH   1   2
ATOM      2  C   UNL     1     -31.672  27.153   6.293  1.00  0.00     0.004 C 
BRANCH   2   3
ATOM      3  C   UNL     1     -32.095  25.719   6.723  1.00  0.00    -0.009 C 
BRANCH   3   4
ATOM      4  C   UNL     1     -30.960  24.703   6.368  1.00  0.00     0.000 C 
ATOM      5  C   UNL     1     -30.566  23.835   7.564  1.00  0.00     0.004 C 
ENDBRANCH   3   4
BRANCH   3   6
ATOM      6  C   UNL     1     -32.474  25.631   8.242  1.00  0.00    -0.014 C 
ATOM      7  C   UNL     1     -31.427  26.342   9.125  1.00  0.00     0.007 C 
ATOM      8  C   UNL     1     -32.622  24.180   8.744  1.00  0.00     0.007 C 
ENDBRANCH   3   6
ENDBRANCH   2   3
ENDBRANCH   1   2
BRANCH   1   9
ATOM      9  C   UNL     1     -34.137  27.137   5.444  1.00  0.00    -0.011 C 
ATOM     10  C   UNL     1     -34.860  27.674   4.192  1.00  0.00     0.008 C 
BRANCH   9  11
ATOM     11  C   UNL     1     -35.036  26.926   6.724  1.00  0.00    -0.002 C 
ATOM     12  C   UNL     1     -35.980  28.077   7.095  1.00  0.00     0.005 C 
ATOM     13  C   UNL     1     -35.920  25.645   6.762  1.00  0.00    -0.026 C 
ATOM     14  C   UNL     1     -37.051  27.470   7.996  1.00  0.00     0.005 C 
ATOM     15  C   UNL     1     -36.851  25.942   7.977  1.00  0.00    -0.001 C 
ATOM     16  C   UNL     1     -36.741  25.475   5.452  1.00  0.00     0.007 C 
ATOM     17  C   UNL     1     -35.022  24.401   6.999  1.00  0.00     0.012 C 
ATOM     18  C   UNL     1     -38.205  25.168   8.039  1.00  0.00     0.000 C 
ATOM     19  C   UNL     1     -37.959  24.553   5.595  1.00  0.00     0.005 C 
ATOM     20  C   UNL     1     -38.931  25.089   6.672  1.00  0.00     0.003 C 
ATOM     21  C   UNL     1     -38.025  23.774   8.664  1.00  0.00     0.031 C 
ATOM     22  C   UNL     1     -40.324  24.332   6.797  1.00  0.00    -0.008 C 
ATOM     23  C   UNL     1     -39.280  22.956   8.642  1.00  0.00    -0.027 C 
ATOM     24  C   UNL     1     -40.259  23.114   7.728  1.00  0.00    -0.065 C 
ATOM     25  C   UNL     1     -40.849  23.855   5.405  1.00  0.00     0.014 C 
ATOM     26  C   UNL     1     -41.351  25.335   7.395  1.00  0.00     0.016 C 
ATOM     27  C   UNL     1     -41.455  22.178   7.781  1.00  0.00     0.063 C 
ATOM     28  C   UNL     1     -42.123  22.996   5.479  1.00  0.00     0.033 C 
ATOM     29  C   UNL     1     -41.914  21.766   6.373  1.00  0.00     0.118 C 
BRANCH  29  30
ATOM     30  O   UNL     1     -40.967  20.910   5.785  1.00  0.00    -0.393 OA
ATOM     31  H   UNL     1     -41.302  19.984   5.905  1.00  0.00     0.210 HD
ENDBRANCH  29  30
ENDBRANCH   9  11
ENDBRANCH   1   9
TORSDOF 7
ENDMDL
