MODEL 1
REMARK VINA RESULT:    -6.505      0.000      0.000
REMARK INTER + INTRA:         -10.341
REMARK INTER:                  -8.977
REMARK INTRA:                  -1.364
REMARK UNBOUND:                -1.364
REMARK SMILES CC[C@@H](CC[C@H](C)[C@H]1CC[C@H]2[C@H]3CC=C4C[C@@H](O)CC[C@]4(C)[C@@H]3CC[C@]12C)C(C)C
REMARK SMILES IDX 5 1 4 2 3 3 2 4 1 5 28 6 29 7 30 8 6 9 7 10 8 11 9 12 26 13
REMARK SMILES IDX 10 14 11 15 25 16 27 17 12 18 24 19 23 20 13 21 21 22 14 23
REMARK SMILES IDX 15 24 20 25 22 26 16 27 19 28 17 29 18 30
REMARK H PARENT 18 31
REMARK Flexibility Score: inf
ROOT
ATOM      1  C   UNL     1     131.059 146.204 119.754  1.00  0.00     0.004 C 
ENDROOT
BRANCH   1   2
ATOM      2  C   UNL     1     132.439 145.528 119.925  1.00  0.00     0.004 C 
BRANCH   2   3
ATOM      3  C   UNL     1     133.648 146.494 120.115  1.00  0.00    -0.009 C 
BRANCH   3   4
ATOM      4  C   UNL     1     134.625 146.392 118.910  1.00  0.00     0.000 C 
ATOM      5  C   UNL     1     134.812 144.969 118.378  1.00  0.00     0.004 C 
ENDBRANCH   3   4
BRANCH   3   6
ATOM      6  C   UNL     1     134.355 146.289 121.499  1.00  0.00    -0.014 C 
ATOM      7  C   UNL     1     135.841 146.685 121.503  1.00  0.00     0.007 C 
ATOM      8  C   UNL     1     134.189 144.856 122.034  1.00  0.00     0.007 C 
ENDBRANCH   3   6
ENDBRANCH   2   3
ENDBRANCH   1   2
BRANCH   1   9
ATOM      9  C   UNL     1     129.840 145.393 120.277  1.00  0.00    -0.011 C 
ATOM     10  C   UNL     1     128.844 145.121 119.129  1.00  0.00     0.008 C 
BRANCH   9  11
ATOM     11  C   UNL     1     129.216 146.109 121.531  1.00  0.00    -0.002 C 
ATOM     12  C   UNL     1     127.701 146.449 121.480  1.00  0.00     0.005 C 
ATOM     13  C   UNL     1     129.422 145.426 122.915  1.00  0.00    -0.026 C 
ATOM     14  C   UNL     1     127.210 146.471 122.943  1.00  0.00     0.005 C 
ATOM     15  C   UNL     1     128.482 146.296 123.766  1.00  0.00    -0.001 C 
ATOM     16  C   UNL     1     130.882 145.538 123.478  1.00  0.00     0.007 C 
ATOM     17  C   UNL     1     128.969 143.934 122.850  1.00  0.00     0.012 C 
ATOM     18  C   UNL     1     128.416 145.955 125.279  1.00  0.00     0.000 C 
ATOM     19  C   UNL     1     130.958 145.899 124.994  1.00  0.00     0.005 C 
ATOM     20  C   UNL     1     129.747 145.338 125.788  1.00  0.00     0.003 C 
ATOM     21  C   UNL     1     127.270 145.058 125.748  1.00  0.00     0.031 C 
ATOM     22  C   UNL     1     129.831 145.404 127.358  1.00  0.00    -0.008 C 
ATOM     23  C   UNL     1     127.315 144.947 127.254  1.00  0.00    -0.027 C 
ATOM     24  C   UNL     1     128.449 145.119 127.987  1.00  0.00    -0.065 C 
ATOM     25  C   UNL     1     130.306 146.806 127.847  1.00  0.00     0.014 C 
ATOM     26  C   UNL     1     130.830 144.317 127.840  1.00  0.00     0.016 C 
ATOM     27  C   UNL     1     128.327 145.275 129.489  1.00  0.00     0.063 C 
ATOM     28  C   UNL     1     130.185 146.996 129.373  1.00  0.00     0.033 C 
ATOM     29  C   UNL     1     128.765 146.690 129.885  1.00  0.00     0.118 C 
BRANCH  29  30
ATOM     30  O   UNL     1     128.726 146.806 131.284  1.00  0.00    -0.393 OA
ATOM     31  H   UNL     1     128.158 146.064 131.617  1.00  0.00     0.210 HD
ENDBRANCH  29  30
ENDBRANCH   9  11
ENDBRANCH   1   9
TORSDOF 7
ENDMDL
MODEL 2
REMARK VINA RESULT:    -6.105      1.976      4.290
REMARK INTER + INTRA:          -9.789
REMARK INTER:                  -7.638
REMARK INTRA:                  -2.151
REMARK UNBOUND:                -1.364
REMARK SMILES CC[C@@H](CC[C@H](C)[C@H]1CC[C@H]2[C@H]3CC=C4C[C@@H](O)CC[C@]4(C)[C@@H]3CC[C@]12C)C(C)C
REMARK SMILES IDX 5 1 4 2 3 3 2 4 1 5 28 6 29 7 30 8 6 9 7 10 8 11 9 12 26 13
REMARK SMILES IDX 10 14 11 15 25 16 27 17 12 18 24 19 23 20 13 21 21 22 14 23
REMARK SMILES IDX 15 24 20 25 22 26 16 27 19 28 17 29 18 30
REMARK H PARENT 18 31
REMARK Flexibility Score: inf
ROOT
ATOM      1  C   UNL     1     130.766 145.872 120.502  1.00  0.00     0.004 C 
ENDROOT
BRANCH   1   2
ATOM      2  C   UNL     1     129.418 146.353 121.089  1.00  0.00     0.004 C 
BRANCH   2   3
ATOM      3  C   UNL     1     128.141 145.871 120.338  1.00  0.00    -0.009 C 
BRANCH   3   4
ATOM      4  C   UNL     1     126.887 146.000 121.249  1.00  0.00     0.000 C 
ATOM      5  C   UNL     1     127.206 146.388 122.695  1.00  0.00     0.004 C 
ENDBRANCH   3   4
BRANCH   3   6
ATOM      6  C   UNL     1     128.316 144.435 119.735  1.00  0.00    -0.014 C 
ATOM      7  C   UNL     1     128.035 144.356 118.225  1.00  0.00     0.007 C 
ATOM      8  C   UNL     1     127.483 143.381 120.483  1.00  0.00     0.007 C 
ENDBRANCH   3   6
ENDBRANCH   2   3
ENDBRANCH   1   2
BRANCH   1   9
ATOM      9  C   UNL     1     131.595 144.918 121.406  1.00  0.00    -0.011 C 
ATOM     10  C   UNL     1     132.359 143.891 120.542  1.00  0.00     0.008 C 
BRANCH   9  11
ATOM     11  C   UNL     1     130.673 144.287 122.513  1.00  0.00    -0.002 C 
ATOM     12  C   UNL     1     130.567 142.738 122.558  1.00  0.00     0.005 C 
ATOM     13  C   UNL     1     130.942 144.709 123.987  1.00  0.00    -0.026 C 
ATOM     14  C   UNL     1     130.237 142.367 124.019  1.00  0.00     0.005 C 
ATOM     15  C   UNL     1     130.019 143.711 124.706  1.00  0.00    -0.001 C 
ATOM     16  C   UNL     1     130.492 146.172 124.332  1.00  0.00     0.007 C 
ATOM     17  C   UNL     1     132.448 144.499 124.339  1.00  0.00     0.012 C 
ATOM     18  C   UNL     1     129.965 143.820 126.253  1.00  0.00     0.000 C 
ATOM     19  C   UNL     1     129.746 146.307 125.696  1.00  0.00     0.005 C 
ATOM     20  C   UNL     1     130.244 145.269 126.738  1.00  0.00     0.003 C 
ATOM     21  C   UNL     1     130.859 142.874 127.056  1.00  0.00     0.031 C 
ATOM     22  C   UNL     1     129.765 145.464 128.223  1.00  0.00    -0.008 C 
ATOM     23  C   UNL     1     130.572 143.054 128.528  1.00  0.00    -0.027 C 
ATOM     24  C   UNL     1     130.065 144.200 129.060  1.00  0.00    -0.065 C 
ATOM     25  C   UNL     1     128.234 145.745 128.300  1.00  0.00     0.014 C 
ATOM     26  C   UNL     1     130.546 146.661 128.835  1.00  0.00     0.016 C 
ATOM     27  C   UNL     1     129.546 144.174 130.483  1.00  0.00     0.063 C 
ATOM     28  C   UNL     1     127.676 145.715 129.737  1.00  0.00     0.033 C 
ATOM     29  C   UNL     1     128.031 144.408 130.471  1.00  0.00     0.118 C 
BRANCH  29  30
ATOM     30  O   UNL     1     127.566 144.461 131.794  1.00  0.00    -0.393 OA
ATOM     31  H   UNL     1     127.178 145.365 131.925  1.00  0.00     0.210 HD
ENDBRANCH  29  30
ENDBRANCH   9  11
ENDBRANCH   1   9
TORSDOF 7
ENDMDL
MODEL 3
REMARK VINA RESULT:    -6.092      1.850      4.520
REMARK INTER + INTRA:          -9.770
REMARK INTER:                  -7.821
REMARK INTRA:                  -1.949
REMARK UNBOUND:                -1.364
REMARK SMILES CC[C@@H](CC[C@H](C)[C@H]1CC[C@H]2[C@H]3CC=C4C[C@@H](O)CC[C@]4(C)[C@@H]3CC[C@]12C)C(C)C
REMARK SMILES IDX 5 1 4 2 3 3 2 4 1 5 28 6 29 7 30 8 6 9 7 10 8 11 9 12 26 13
REMARK SMILES IDX 10 14 11 15 25 16 27 17 12 18 24 19 23 20 13 21 21 22 14 23
REMARK SMILES IDX 15 24 20 25 22 26 16 27 19 28 17 29 18 30
REMARK H PARENT 18 31
REMARK Flexibility Score: inf
ROOT
ATOM      1  C   UNL     1     130.714 143.486 120.613  1.00  0.00     0.004 C 
ENDROOT
BRANCH   1   2
ATOM      2  C   UNL     1     129.346 143.013 120.069  1.00  0.00     0.004 C 
BRANCH   2   3
ATOM      3  C   UNL     1     128.100 143.442 120.899  1.00  0.00    -0.009 C 
BRANCH   3   4
ATOM      4  C   UNL     1     127.273 142.198 121.329  1.00  0.00     0.000 C 
ATOM      5  C   UNL     1     127.560 140.943 120.502  1.00  0.00     0.004 C 
ENDBRANCH   3   4
BRANCH   3   6
ATOM      6  C   UNL     1     127.242 144.526 120.159  1.00  0.00    -0.014 C 
ATOM      7  C   UNL     1     127.640 144.736 118.689  1.00  0.00     0.007 C 
ATOM      8  C   UNL     1     127.233 145.872 120.902  1.00  0.00     0.007 C 
ENDBRANCH   3   6
ENDBRANCH   2   3
ENDBRANCH   1   2
BRANCH   1   9
ATOM      9  C   UNL     1     130.733 144.901 121.255  1.00  0.00    -0.011 C 
ATOM     10  C   UNL     1     131.440 145.905 120.318  1.00  0.00     0.008 C 
BRANCH   9  11
ATOM     11  C   UNL     1     131.333 144.827 122.707  1.00  0.00    -0.002 C 
ATOM     12  C   UNL     1     132.658 145.591 122.974  1.00  0.00     0.005 C 
ATOM     13  C   UNL     1     130.398 145.232 123.884  1.00  0.00    -0.026 C 
ATOM     14  C   UNL     1     132.662 145.946 124.475  1.00  0.00     0.005 C 
ATOM     15  C   UNL     1     131.426 145.244 125.028  1.00  0.00    -0.001 C 
ATOM     16  C   UNL     1     129.276 144.184 124.206  1.00  0.00     0.007 C 
ATOM     17  C   UNL     1     129.778 146.639 123.616  1.00  0.00     0.012 C 
ATOM     18  C   UNL     1     130.876 145.583 126.439  1.00  0.00     0.000 C 
ATOM     19  C   UNL     1     129.076 143.909 125.729  1.00  0.00     0.005 C 
ATOM     20  C   UNL     1     129.389 145.160 126.594  1.00  0.00     0.003 C 
ATOM     21  C   UNL     1     131.006 147.031 126.915  1.00  0.00     0.031 C 
ATOM     22  C   UNL     1     128.980 145.099 128.112  1.00  0.00    -0.008 C 
ATOM     23  C   UNL     1     130.526 147.125 128.345  1.00  0.00    -0.027 C 
ATOM     24  C   UNL     1     129.636 146.256 128.897  1.00  0.00    -0.065 C 
ATOM     25  C   UNL     1     129.419 143.756 128.770  1.00  0.00     0.014 C 
ATOM     26  C   UNL     1     127.436 145.246 128.208  1.00  0.00     0.016 C 
ATOM     27  C   UNL     1     129.449 146.265 130.400  1.00  0.00     0.063 C 
ATOM     28  C   UNL     1     129.249 143.739 130.302  1.00  0.00     0.033 C 
ATOM     29  C   UNL     1     129.948 144.935 130.977  1.00  0.00     0.118 C 
BRANCH  29  30
ATOM     30  O   UNL     1     129.701 144.914 132.359  1.00  0.00    -0.393 OA
ATOM     31  H   UNL     1     128.776 144.575 132.480  1.00  0.00     0.210 HD
ENDBRANCH  29  30
ENDBRANCH   9  11
ENDBRANCH   1   9
TORSDOF 7
ENDMDL
MODEL 4
REMARK VINA RESULT:    -6.071      2.427      4.702
REMARK INTER + INTRA:          -9.742
REMARK INTER:                  -7.829
REMARK INTRA:                  -1.913
REMARK UNBOUND:                -1.364
REMARK SMILES CC[C@@H](CC[C@H](C)[C@H]1CC[C@H]2[C@H]3CC=C4C[C@@H](O)CC[C@]4(C)[C@@H]3CC[C@]12C)C(C)C
REMARK SMILES IDX 5 1 4 2 3 3 2 4 1 5 28 6 29 7 30 8 6 9 7 10 8 11 9 12 26 13
REMARK SMILES IDX 10 14 11 15 25 16 27 17 12 18 24 19 23 20 13 21 21 22 14 23
REMARK SMILES IDX 15 24 20 25 22 26 16 27 19 28 17 29 18 30
REMARK H PARENT 18 31
REMARK Flexibility Score: inf
ROOT
ATOM      1  C   UNL     1     127.551 143.480 119.842  1.00  0.00     0.004 C 
ENDROOT
BRANCH   1   2
ATOM      2  C   UNL     1     127.301 142.263 120.763  1.00  0.00     0.004 C 
BRANCH   2   3
ATOM      3  C   UNL     1     128.166 141.001 120.469  1.00  0.00    -0.009 C 
BRANCH   3   4
ATOM      4  C   UNL     1     127.271 139.822 119.993  1.00  0.00     0.000 C 
ATOM      5  C   UNL     1     128.008 138.487 119.877  1.00  0.00     0.004 C 
ENDBRANCH   3   4
BRANCH   3   6
ATOM      6  C   UNL     1     129.089 140.622 121.678  1.00  0.00    -0.014 C 
ATOM      7  C   UNL     1     128.349 140.545 123.024  1.00  0.00     0.007 C 
ATOM      8  C   UNL     1     130.307 141.553 121.798  1.00  0.00     0.007 C 
ENDBRANCH   3   6
ENDBRANCH   2   3
ENDBRANCH   1   2
BRANCH   1   9
ATOM      9  C   UNL     1     127.695 144.852 120.558  1.00  0.00    -0.011 C 
ATOM     10  C   UNL     1     127.692 145.999 119.525  1.00  0.00     0.008 C 
BRANCH   9  11
ATOM     11  C   UNL     1     128.946 144.833 121.512  1.00  0.00    -0.002 C 
ATOM     12  C   UNL     1     130.173 145.691 121.099  1.00  0.00     0.005 C 
ATOM     13  C   UNL     1     128.703 145.184 123.009  1.00  0.00    -0.026 C 
ATOM     14  C   UNL     1     130.906 146.059 122.406  1.00  0.00     0.005 C 
ATOM     15  C   UNL     1     130.163 145.278 123.484  1.00  0.00    -0.001 C 
ATOM     16  C   UNL     1     127.965 144.064 123.823  1.00  0.00     0.007 C 
ATOM     17  C   UNL     1     127.942 146.542 123.125  1.00  0.00     0.012 C 
ATOM     18  C   UNL     1     130.374 145.592 124.990  1.00  0.00     0.000 C 
ATOM     19  C   UNL     1     128.574 143.790 125.233  1.00  0.00     0.005 C 
ATOM     20  C   UNL     1     129.197 145.069 125.857  1.00  0.00     0.003 C 
ATOM     21  C   UNL     1     130.632 147.050 125.375  1.00  0.00     0.031 C 
ATOM     22  C   UNL     1     129.609 144.994 127.373  1.00  0.00    -0.008 C 
ATOM     23  C   UNL     1     130.928 147.125 126.854  1.00  0.00    -0.027 C 
ATOM     24  C   UNL     1     130.494 146.202 127.755  1.00  0.00    -0.065 C 
ATOM     25  C   UNL     1     130.406 143.691 127.687  1.00  0.00     0.014 C 
ATOM     26  C   UNL     1     128.316 145.034 128.234  1.00  0.00     0.016 C 
ATOM     27  C   UNL     1     131.086 146.212 129.149  1.00  0.00     0.063 C 
ATOM     28  C   UNL     1     131.028 143.677 129.098  1.00  0.00     0.033 C 
ATOM     29  C   UNL     1     131.892 144.925 129.363  1.00  0.00     0.118 C 
BRANCH  29  30
ATOM     30  O   UNL     1     132.374 144.901 130.681  1.00  0.00    -0.393 OA
ATOM     31  H   UNL     1     132.960 144.103 130.758  1.00  0.00     0.210 HD
ENDBRANCH  29  30
ENDBRANCH   9  11
ENDBRANCH   1   9
TORSDOF 7
ENDMDL
MODEL 5
REMARK VINA RESULT:    -5.962      3.190      7.860
REMARK INTER + INTRA:          -9.591
REMARK INTER:                  -7.512
REMARK INTRA:                  -2.079
REMARK UNBOUND:                -1.364
REMARK SMILES CC[C@@H](CC[C@H](C)[C@H]1CC[C@H]2[C@H]3CC=C4C[C@@H](O)CC[C@]4(C)[C@@H]3CC[C@]12C)C(C)C
REMARK SMILES IDX 5 1 4 2 3 3 2 4 1 5 28 6 29 7 30 8 6 9 7 10 8 11 9 12 26 13
REMARK SMILES IDX 10 14 11 15 25 16 27 17 12 18 24 19 23 20 13 21 21 22 14 23
REMARK SMILES IDX 15 24 20 25 22 26 16 27 19 28 17 29 18 30
REMARK H PARENT 18 31
REMARK Flexibility Score: inf
ROOT
ATOM      1  C   UNL     1     127.717 145.961 122.289  1.00  0.00     0.004 C 
ENDROOT
BRANCH   1   2
ATOM      2  C   UNL     1     128.383 146.727 123.456  1.00  0.00     0.004 C 
BRANCH   2   3
ATOM      3  C   UNL     1     128.775 145.869 124.696  1.00  0.00    -0.009 C 
BRANCH   3   4
ATOM      4  C   UNL     1     130.112 146.371 125.310  1.00  0.00     0.000 C 
ATOM      5  C   UNL     1     130.175 146.268 126.835  1.00  0.00     0.004 C 
ENDBRANCH   3   4
BRANCH   3   6
ATOM      6  C   UNL     1     128.786 144.335 124.372  1.00  0.00    -0.014 C 
ATOM      7  C   UNL     1     127.995 143.482 125.378  1.00  0.00     0.007 C 
ATOM      8  C   UNL     1     130.212 143.781 124.215  1.00  0.00     0.007 C 
ENDBRANCH   3   6
ENDBRANCH   2   3
ENDBRANCH   1   2
BRANCH   1   9
ATOM      9  C   UNL     1     128.436 146.063 120.915  1.00  0.00    -0.011 C 
ATOM     10  C   UNL     1     127.411 145.960 119.765  1.00  0.00     0.008 C 
BRANCH   9  11
ATOM     11  C   UNL     1     129.610 145.018 120.842  1.00  0.00    -0.002 C 
ATOM     12  C   UNL     1     129.515 143.911 119.758  1.00  0.00     0.005 C 
ATOM     13  C   UNL     1     131.055 145.582 120.707  1.00  0.00    -0.026 C 
ATOM     14  C   UNL     1     130.965 143.499 119.428  1.00  0.00     0.005 C 
ATOM     15  C   UNL     1     131.811 144.271 120.435  1.00  0.00    -0.001 C 
ATOM     16  C   UNL     1     131.615 146.241 122.016  1.00  0.00     0.007 C 
ATOM     17  C   UNL     1     131.132 146.581 119.511  1.00  0.00     0.012 C 
ATOM     18  C   UNL     1     133.350 144.390 120.265  1.00  0.00     0.000 C 
ATOM     19  C   UNL     1     133.090 145.853 122.348  1.00  0.00     0.005 C 
ATOM     20  C   UNL     1     133.926 145.590 121.066  1.00  0.00     0.003 C 
ATOM     21  C   UNL     1     133.895 144.469 118.838  1.00  0.00     0.031 C 
ATOM     22  C   UNL     1     135.482 145.446 121.246  1.00  0.00    -0.008 C 
ATOM     23  C   UNL     1     135.405 144.458 118.886  1.00  0.00    -0.027 C 
ATOM     24  C   UNL     1     136.126 144.873 119.963  1.00  0.00    -0.065 C 
ATOM     25  C   UNL     1     135.836 144.498 122.431  1.00  0.00     0.014 C 
ATOM     26  C   UNL     1     136.075 146.858 121.511  1.00  0.00     0.016 C 
ATOM     27  C   UNL     1     137.604 144.550 120.017  1.00  0.00     0.063 C 
ATOM     28  C   UNL     1     137.335 144.144 122.506  1.00  0.00     0.033 C 
ATOM     29  C   UNL     1     137.865 143.578 121.174  1.00  0.00     0.118 C 
BRANCH  29  30
ATOM     30  O   UNL     1     139.245 143.341 121.271  1.00  0.00    -0.393 OA
ATOM     31  H   UNL     1     139.465 142.647 120.596  1.00  0.00     0.210 HD
ENDBRANCH  29  30
ENDBRANCH   9  11
ENDBRANCH   1   9
TORSDOF 7
ENDMDL
MODEL 6
REMARK VINA RESULT:    -5.945      3.564      7.531
REMARK INTER + INTRA:          -9.568
REMARK INTER:                  -7.784
REMARK INTRA:                  -1.784
REMARK UNBOUND:                -1.364
REMARK SMILES CC[C@@H](CC[C@H](C)[C@H]1CC[C@H]2[C@H]3CC=C4C[C@@H](O)CC[C@]4(C)[C@@H]3CC[C@]12C)C(C)C
REMARK SMILES IDX 5 1 4 2 3 3 2 4 1 5 28 6 29 7 30 8 6 9 7 10 8 11 9 12 26 13
REMARK SMILES IDX 10 14 11 15 25 16 27 17 12 18 24 19 23 20 13 21 21 22 14 23
REMARK SMILES IDX 15 24 20 25 22 26 16 27 19 28 17 29 18 30
REMARK H PARENT 18 31
REMARK Flexibility Score: inf
ROOT
ATOM      1  C   UNL     1     127.807 146.137 121.973  1.00  0.00     0.004 C 
ENDROOT
BRANCH   1   2
ATOM      2  C   UNL     1     127.241 145.002 121.089  1.00  0.00     0.004 C 
BRANCH   2   3
ATOM      3  C   UNL     1     128.137 143.735 120.954  1.00  0.00    -0.009 C 
BRANCH   3   4
ATOM      4  C   UNL     1     128.580 143.531 119.478  1.00  0.00     0.000 C 
ATOM      5  C   UNL     1     127.988 144.551 118.503  1.00  0.00     0.004 C 
ENDBRANCH   3   4
BRANCH   3   6
ATOM      6  C   UNL     1     127.459 142.464 121.574  1.00  0.00    -0.014 C 
ATOM      7  C   UNL     1     128.370 141.679 122.532  1.00  0.00     0.007 C 
ATOM      8  C   UNL     1     126.888 141.524 120.499  1.00  0.00     0.007 C 
ENDBRANCH   3   6
ENDBRANCH   2   3
ENDBRANCH   1   2
BRANCH   1   9
ATOM      9  C   UNL     1     128.409 145.695 123.337  1.00  0.00    -0.011 C 
ATOM     10  C   UNL     1     127.416 145.992 124.482  1.00  0.00     0.008 C 
BRANCH   9  11
ATOM     11  C   UNL     1     129.836 146.328 123.527  1.00  0.00    -0.002 C 
ATOM     12  C   UNL     1     130.288 146.650 124.977  1.00  0.00     0.005 C 
ATOM     13  C   UNL     1     131.040 145.569 122.896  1.00  0.00    -0.026 C 
ATOM     14  C   UNL     1     131.830 146.581 124.978  1.00  0.00     0.005 C 
ATOM     15  C   UNL     1     132.195 146.376 123.512  1.00  0.00    -0.001 C 
ATOM     16  C   UNL     1     131.116 145.667 121.332  1.00  0.00     0.007 C 
ATOM     17  C   UNL     1     131.034 144.078 123.355  1.00  0.00     0.012 C 
ATOM     18  C   UNL     1     133.629 145.947 123.097  1.00  0.00     0.000 C 
ATOM     19  C   UNL     1     132.549 145.940 120.777  1.00  0.00     0.005 C 
ATOM     20  C   UNL     1     133.651 145.318 121.676  1.00  0.00     0.003 C 
ATOM     21  C   UNL     1     134.382 145.008 124.040  1.00  0.00     0.031 C 
ATOM     22  C   UNL     1     135.114 145.294 121.099  1.00  0.00    -0.008 C 
ATOM     23  C   UNL     1     135.787 144.810 123.520  1.00  0.00    -0.027 C 
ATOM     24  C   UNL     1     136.131 144.955 122.211  1.00  0.00    -0.065 C 
ATOM     25  C   UNL     1     135.510 146.671 120.484  1.00  0.00     0.014 C 
ATOM     26  C   UNL     1     135.189 144.194 120.004  1.00  0.00     0.016 C 
ATOM     27  C   UNL     1     137.600 145.021 121.849  1.00  0.00     0.063 C 
ATOM     28  C   UNL     1     137.003 146.771 120.114  1.00  0.00     0.033 C 
ATOM     29  C   UNL     1     137.921 146.416 121.299  1.00  0.00     0.118 C 
BRANCH  29  30
ATOM     30  O   UNL     1     139.264 146.450 120.892  1.00  0.00    -0.393 OA
ATOM     31  H   UNL     1     139.295 146.982 120.054  1.00  0.00     0.210 HD
ENDBRANCH  29  30
ENDBRANCH   9  11
ENDBRANCH   1   9
TORSDOF 7
ENDMDL
MODEL 7
REMARK VINA RESULT:    -5.936      1.652      2.398
REMARK INTER + INTRA:          -9.555
REMARK INTER:                  -7.340
REMARK INTRA:                  -2.215
REMARK UNBOUND:                -1.364
REMARK SMILES CC[C@@H](CC[C@H](C)[C@H]1CC[C@H]2[C@H]3CC=C4C[C@@H](O)CC[C@]4(C)[C@@H]3CC[C@]12C)C(C)C
REMARK SMILES IDX 5 1 4 2 3 3 2 4 1 5 28 6 29 7 30 8 6 9 7 10 8 11 9 12 26 13
REMARK SMILES IDX 10 14 11 15 25 16 27 17 12 18 24 19 23 20 13 21 21 22 14 23
REMARK SMILES IDX 15 24 20 25 22 26 16 27 19 28 17 29 18 30
REMARK H PARENT 18 31
REMARK Flexibility Score: inf
ROOT
ATOM      1  C   UNL     1     130.611 142.445 120.648  1.00  0.00     0.004 C 
ENDROOT
BRANCH   1   2
ATOM      2  C   UNL     1     130.947 143.551 119.621  1.00  0.00     0.004 C 
BRANCH   2   3
ATOM      3  C   UNL     1     132.109 144.511 120.014  1.00  0.00    -0.009 C 
BRANCH   3   4
ATOM      4  C   UNL     1     132.998 143.873 121.118  1.00  0.00     0.000 C 
ATOM      5  C   UNL     1     134.500 143.977 120.846  1.00  0.00     0.004 C 
ENDBRANCH   3   4
BRANCH   3   6
ATOM      6  C   UNL     1     131.590 145.942 120.393  1.00  0.00    -0.014 C 
ATOM      7  C   UNL     1     131.451 146.170 121.908  1.00  0.00     0.007 C 
ATOM      8  C   UNL     1     130.272 146.292 119.683  1.00  0.00     0.007 C 
ENDBRANCH   3   6
ENDBRANCH   2   3
ENDBRANCH   1   2
BRANCH   1   9
ATOM      9  C   UNL     1     129.189 142.512 121.272  1.00  0.00    -0.011 C 
ATOM     10  C   UNL     1     128.115 142.486 120.163  1.00  0.00     0.008 C 
BRANCH   9  11
ATOM     11  C   UNL     1     129.088 143.737 122.254  1.00  0.00    -0.002 C 
ATOM     12  C   UNL     1     127.893 144.711 122.061  1.00  0.00     0.005 C 
ATOM     13  C   UNL     1     129.105 143.429 123.780  1.00  0.00    -0.026 C 
ATOM     14  C   UNL     1     127.619 145.342 123.442  1.00  0.00     0.005 C 
ATOM     15  C   UNL     1     128.753 144.824 124.321  1.00  0.00    -0.001 C 
ATOM     16  C   UNL     1     130.508 142.996 124.334  1.00  0.00     0.007 C 
ATOM     17  C   UNL     1     128.024 142.357 124.123  1.00  0.00     0.012 C 
ATOM     18  C   UNL     1     128.696 144.965 125.866  1.00  0.00     0.000 C 
ATOM     19  C   UNL     1     130.894 143.668 125.689  1.00  0.00     0.005 C 
ATOM     20  C   UNL     1     129.650 143.961 126.570  1.00  0.00     0.003 C 
ATOM     21  C   UNL     1     127.324 144.858 126.532  1.00  0.00     0.031 C 
ATOM     22  C   UNL     1     129.916 144.393 128.059  1.00  0.00    -0.008 C 
ATOM     23  C   UNL     1     127.469 145.140 128.009  1.00  0.00    -0.027 C 
ATOM     24  C   UNL     1     128.627 144.956 128.699  1.00  0.00    -0.065 C 
ATOM     25  C   UNL     1     131.021 145.489 128.149  1.00  0.00     0.014 C 
ATOM     26  C   UNL     1     130.361 143.137 128.860  1.00  0.00     0.016 C 
ATOM     27  C   UNL     1     128.745 145.539 130.092  1.00  0.00     0.063 C 
ATOM     28  C   UNL     1     131.157 146.108 129.555  1.00  0.00     0.033 C 
ATOM     29  C   UNL     1     129.812 146.640 130.088  1.00  0.00     0.118 C 
BRANCH  29  30
ATOM     30  O   UNL     1     129.975 147.125 131.395  1.00  0.00    -0.393 OA
ATOM     31  H   UNL     1     130.906 146.913 131.666  1.00  0.00     0.210 HD
ENDBRANCH  29  30
ENDBRANCH   9  11
ENDBRANCH   1   9
TORSDOF 7
ENDMDL
MODEL 8
REMARK VINA RESULT:    -5.872      1.864      4.682
REMARK INTER + INTRA:          -9.467
REMARK INTER:                  -7.402
REMARK INTRA:                  -2.064
REMARK UNBOUND:                -1.364
REMARK SMILES CC[C@@H](CC[C@H](C)[C@H]1CC[C@H]2[C@H]3CC=C4C[C@@H](O)CC[C@]4(C)[C@@H]3CC[C@]12C)C(C)C
REMARK SMILES IDX 5 1 4 2 3 3 2 4 1 5 28 6 29 7 30 8 6 9 7 10 8 11 9 12 26 13
REMARK SMILES IDX 10 14 11 15 25 16 27 17 12 18 24 19 23 20 13 21 21 22 14 23
REMARK SMILES IDX 15 24 20 25 22 26 16 27 19 28 17 29 18 30
REMARK H PARENT 18 31
REMARK Flexibility Score: inf
ROOT
ATOM      1  C   UNL     1     130.034 146.232 119.728  1.00  0.00     0.004 C 
ENDROOT
BRANCH   1   2
ATOM      2  C   UNL     1     129.516 144.775 119.773  1.00  0.00     0.004 C 
BRANCH   2   3
ATOM      3  C   UNL     1     127.977 144.608 119.953  1.00  0.00    -0.009 C 
BRANCH   3   4
ATOM      4  C   UNL     1     127.300 145.988 120.187  1.00  0.00     0.000 C 
ATOM      5  C   UNL     1     126.877 146.237 121.637  1.00  0.00     0.004 C 
ENDBRANCH   3   4
BRANCH   3   6
ATOM      6  C   UNL     1     127.622 143.554 121.058  1.00  0.00    -0.014 C 
ATOM      7  C   UNL     1     128.818 143.148 121.936  1.00  0.00     0.007 C 
ATOM      8  C   UNL     1     126.945 142.303 120.476  1.00  0.00     0.007 C 
ENDBRANCH   3   6
ENDBRANCH   2   3
ENDBRANCH   1   2
BRANCH   1   9
ATOM      9  C   UNL     1     131.265 146.539 120.627  1.00  0.00    -0.011 C 
ATOM     10  C   UNL     1     132.523 146.752 119.758  1.00  0.00     0.008 C 
BRANCH   9  11
ATOM     11  C   UNL     1     131.413 145.432 121.734  1.00  0.00    -0.002 C 
ATOM     12  C   UNL     1     132.639 144.483 121.637  1.00  0.00     0.005 C 
ATOM     13  C   UNL     1     131.395 145.904 123.218  1.00  0.00    -0.026 C 
ATOM     14  C   UNL     1     132.943 144.015 123.076  1.00  0.00     0.005 C 
ATOM     15  C   UNL     1     131.798 144.588 123.905  1.00  0.00    -0.001 C 
ATOM     16  C   UNL     1     129.982 146.347 123.736  1.00  0.00     0.007 C 
ATOM     17  C   UNL     1     132.441 147.042 123.432  1.00  0.00     0.012 C 
ATOM     18  C   UNL     1     131.868 144.619 125.455  1.00  0.00     0.000 C 
ATOM     19  C   UNL     1     129.627 145.815 125.160  1.00  0.00     0.005 C 
ATOM     20  C   UNL     1     130.886 145.661 126.055  1.00  0.00     0.003 C 
ATOM     21  C   UNL     1     133.241 144.843 126.092  1.00  0.00     0.031 C 
ATOM     22  C   UNL     1     130.644 145.386 127.585  1.00  0.00    -0.008 C 
ATOM     23  C   UNL     1     133.114 144.719 127.592  1.00  0.00    -0.027 C 
ATOM     24  C   UNL     1     131.955 144.939 128.270  1.00  0.00    -0.065 C 
ATOM     25  C   UNL     1     129.577 144.270 127.804  1.00  0.00     0.014 C 
ATOM     26  C   UNL     1     130.161 146.705 128.248  1.00  0.00     0.016 C 
ATOM     27  C   UNL     1     131.866 144.507 129.719  1.00  0.00     0.063 C 
ATOM     28  C   UNL     1     129.471 143.803 129.270  1.00  0.00     0.033 C 
ATOM     29  C   UNL     1     130.836 143.378 129.845  1.00  0.00     0.118 C 
BRANCH  29  30
ATOM     30  O   UNL     1     130.698 143.033 131.199  1.00  0.00    -0.393 OA
ATOM     31  H   UNL     1     130.778 142.045 131.252  1.00  0.00     0.210 HD
ENDBRANCH  29  30
ENDBRANCH   9  11
ENDBRANCH   1   9
TORSDOF 7
ENDMDL
MODEL 9
REMARK VINA RESULT:    -5.844      5.509      8.508
REMARK INTER + INTRA:          -9.429
REMARK INTER:                  -7.255
REMARK INTRA:                  -2.174
REMARK UNBOUND:                -1.364
REMARK SMILES CC[C@@H](CC[C@H](C)[C@H]1CC[C@H]2[C@H]3CC=C4C[C@@H](O)CC[C@]4(C)[C@@H]3CC[C@]12C)C(C)C
REMARK SMILES IDX 5 1 4 2 3 3 2 4 1 5 28 6 29 7 30 8 6 9 7 10 8 11 9 12 26 13
REMARK SMILES IDX 10 14 11 15 25 16 27 17 12 18 24 19 23 20 13 21 21 22 14 23
REMARK SMILES IDX 15 24 20 25 22 26 16 27 19 28 17 29 18 30
REMARK H PARENT 18 31
REMARK Flexibility Score: inf
ROOT
ATOM      1  C   UNL     1     127.638 145.320 122.663  1.00  0.00     0.004 C 
ENDROOT
BRANCH   1   2
ATOM      2  C   UNL     1     128.474 146.387 121.919  1.00  0.00     0.004 C 
BRANCH   2   3
ATOM      3  C   UNL     1     128.763 146.097 120.416  1.00  0.00    -0.009 C 
BRANCH   3   4
ATOM      4  C   UNL     1     127.894 144.911 119.910  1.00  0.00     0.000 C 
ATOM      5  C   UNL     1     127.670 144.904 118.396  1.00  0.00     0.004 C 
ENDBRANCH   3   4
BRANCH   3   6
ATOM      6  C   UNL     1     130.294 145.899 120.137  1.00  0.00    -0.014 C 
ATOM      7  C   UNL     1     130.684 144.448 119.812  1.00  0.00     0.007 C 
ATOM      8  C   UNL     1     131.170 146.438 121.280  1.00  0.00     0.007 C 
ENDBRANCH   3   6
ENDBRANCH   2   3
ENDBRANCH   1   2
BRANCH   1   9
ATOM      9  C   UNL     1     128.423 144.419 123.657  1.00  0.00    -0.011 C 
ATOM     10  C   UNL     1     129.139 145.286 124.715  1.00  0.00     0.008 C 
BRANCH   9  11
ATOM     11  C   UNL     1     129.365 143.438 122.867  1.00  0.00    -0.002 C 
ATOM     12  C   UNL     1     130.824 143.282 123.377  1.00  0.00     0.005 C 
ATOM     13  C   UNL     1     128.860 141.980 122.659  1.00  0.00    -0.026 C 
ATOM     14  C   UNL     1     131.287 141.874 122.947  1.00  0.00     0.005 C 
ATOM     15  C   UNL     1     130.141 141.350 122.088  1.00  0.00    -0.001 C 
ATOM     16  C   UNL     1     127.702 141.842 121.610  1.00  0.00     0.007 C 
ATOM     17  C   UNL     1     128.440 141.358 124.027  1.00  0.00     0.012 C 
ATOM     18  C   UNL     1     130.052 139.849 121.700  1.00  0.00     0.000 C 
ATOM     19  C   UNL     1     127.870 140.643 120.625  1.00  0.00     0.005 C 
ATOM     20  C   UNL     1     128.610 139.447 121.284  1.00  0.00     0.003 C 
ATOM     21  C   UNL     1     130.549 138.828 122.724  1.00  0.00     0.031 C 
ATOM     22  C   UNL     1     128.616 138.088 120.492  1.00  0.00    -0.008 C 
ATOM     23  C   UNL     1     130.490 137.448 122.113  1.00  0.00    -0.027 C 
ATOM     24  C   UNL     1     129.644 137.109 121.102  1.00  0.00    -0.065 C 
ATOM     25  C   UNL     1     128.978 138.300 118.991  1.00  0.00     0.014 C 
ATOM     26  C   UNL     1     127.201 137.454 120.602  1.00  0.00     0.016 C 
ATOM     27  C   UNL     1     129.868 135.800 120.374  1.00  0.00     0.063 C 
ATOM     28  C   UNL     1     129.221 136.983 118.227  1.00  0.00     0.033 C 
ATOM     29  C   UNL     1     130.267 136.092 118.923  1.00  0.00     0.118 C 
BRANCH  29  30
ATOM     30  O   UNL     1     130.398 134.878 118.231  1.00  0.00    -0.393 OA
ATOM     31  H   UNL     1     129.656 134.293 118.537  1.00  0.00     0.210 HD
ENDBRANCH  29  30
ENDBRANCH   9  11
ENDBRANCH   1   9
TORSDOF 7
ENDMDL
