MODEL 1
REMARK VINA RESULT:    -1.374      0.000      0.000
REMARK INTER + INTRA:          -1.901
REMARK INTER:                  -1.615
REMARK INTRA:                  -0.286
REMARK UNBOUND:                -0.286
REMARK SMILES Oc1ccc(-c2[o+]c3cc(O)cc(O)c3cc2O)cc1
REMARK SMILES IDX 6 1 7 2 8 3 9 4 10 5 12 6 13 7 15 8 16 9 17 10 5 11 4 12
REMARK SMILES IDX 3 13 2 14 19 15 20 16 1 17 18 19 11 21 14 23
REMARK H PARENT 1 18 18 20 11 22 14 24
REMARK Flexibility Score: inf
ROOT
ATOM      1  C   UNL     1       8.573 -33.722  15.265  1.00  0.00     0.401 A 
ATOM      2  O   UNL     1       8.516 -33.573  16.586  1.00  0.00    -0.202 OA
ATOM      3  C   UNL     1       9.137 -32.594  17.236  1.00  0.00     0.368 A 
ATOM      4  C   UNL     1       9.032 -32.510  18.628  1.00  0.00     0.162 A 
ATOM      5  C   UNL     1       9.685 -31.485  19.324  1.00  0.00     0.128 A 
ATOM      6  C   UNL     1      10.447 -30.542  18.624  1.00  0.00     0.093 A 
ATOM      7  C   UNL     1      10.561 -30.613  17.228  1.00  0.00     0.136 A 
ATOM      8  C   UNL     1       9.904 -31.643  16.529  1.00  0.00     0.125 A 
ATOM      9  C   UNL     1       9.977 -31.758  15.136  1.00  0.00     0.078 A 
ATOM     10  C   UNL     1       9.300 -32.796  14.489  1.00  0.00     0.223 A 
ENDROOT
BRANCH   1  11
ATOM     11  C   UNL     1       7.844 -34.859  14.656  1.00  0.00     0.084 A 
ATOM     12  C   UNL     1       8.443 -36.130  14.630  1.00  0.00     0.022 A 
ATOM     13  C   UNL     1       7.782 -37.212  14.042  1.00  0.00     0.047 A 
ATOM     14  C   UNL     1       6.524 -37.036  13.458  1.00  0.00     0.115 A 
ATOM     15  C   UNL     1       6.587 -34.683  14.050  1.00  0.00     0.022 A 
ATOM     16  C   UNL     1       5.929 -35.768  13.460  1.00  0.00     0.047 A 
BRANCH  14  17
ATOM     17  O   UNL     1       5.877 -38.123  12.876  1.00  0.00    -0.508 OA
ATOM     18  H   UNL     1       6.024 -39.068  13.211  1.00  0.00     0.293 HD
ENDBRANCH  14  17
ENDBRANCH   1  11
BRANCH  10  19
ATOM     19  O   UNL     1       9.327 -32.888  13.097  1.00  0.00    -0.500 OA
ATOM     20  H   UNL     1      10.120 -32.559  12.558  1.00  0.00     0.294 HD
ENDBRANCH  10  19
BRANCH   5  21
ATOM     21  O   UNL     1       9.586 -31.393  20.711  1.00  0.00    -0.507 OA
ATOM     22  H   UNL     1       8.991 -30.702  21.154  1.00  0.00     0.293 HD
ENDBRANCH   5  21
BRANCH   7  23
ATOM     23  O   UNL     1      11.322 -29.665  16.543  1.00  0.00    -0.507 OA
ATOM     24  H   UNL     1      11.816 -29.897  15.689  1.00  0.00     0.293 HD
ENDBRANCH   7  23
TORSDOF 5
ENDMDL
MODEL 2
REMARK VINA RESULT:    -0.615      1.972      7.076
REMARK INTER + INTRA:          -1.008
REMARK INTER:                  -1.433
REMARK INTRA:                   0.424
REMARK UNBOUND:                -0.286
REMARK SMILES Oc1ccc(-c2[o+]c3cc(O)cc(O)c3cc2O)cc1
REMARK SMILES IDX 6 1 7 2 8 3 9 4 10 5 12 6 13 7 15 8 16 9 17 10 5 11 4 12
REMARK SMILES IDX 3 13 2 14 19 15 20 16 1 17 18 19 11 21 14 23
REMARK H PARENT 1 18 18 20 11 22 14 24
REMARK Flexibility Score: inf
ROOT
ATOM      1  C   UNL     1       8.375 -33.746  17.082  1.00  0.00     0.401 A 
ATOM      2  O   UNL     1       8.321 -34.330  15.887  1.00  0.00    -0.202 OA
ATOM      3  C   UNL     1       7.727 -35.501  15.675  1.00  0.00     0.368 A 
ATOM      4  C   UNL     1       7.717 -36.050  14.390  1.00  0.00     0.162 A 
ATOM      5  C   UNL     1       7.099 -37.285  14.155  1.00  0.00     0.128 A 
ATOM      6  C   UNL     1       6.488 -37.971  15.211  1.00  0.00     0.093 A 
ATOM      7  C   UNL     1       6.489 -37.431  16.506  1.00  0.00     0.136 A 
ATOM      8  C   UNL     1       7.111 -36.191  16.741  1.00  0.00     0.125 A 
ATOM      9  C   UNL     1       7.135 -35.601  18.011  1.00  0.00     0.078 A 
ATOM     10  C   UNL     1       7.761 -34.363  18.189  1.00  0.00     0.223 A 
ENDROOT
BRANCH   1  11
ATOM     11  C   UNL     1       9.073 -32.444  17.193  1.00  0.00     0.084 A 
ATOM     12  C   UNL     1       9.896 -32.008  16.141  1.00  0.00     0.022 A 
ATOM     13  C   UNL     1      10.580 -30.793  16.234  1.00  0.00     0.047 A 
ATOM     14  C   UNL     1      10.465 -30.006  17.384  1.00  0.00     0.115 A 
ATOM     15  C   UNL     1       8.975 -31.657  18.355  1.00  0.00     0.022 A 
ATOM     16  C   UNL     1       9.663 -30.442  18.446  1.00  0.00     0.047 A 
BRANCH  14  17
ATOM     17  O   UNL     1      11.152 -28.797  17.462  1.00  0.00    -0.508 OA
ATOM     18  H   UNL     1      11.661 -28.424  16.669  1.00  0.00     0.293 HD
ENDBRANCH  14  17
ENDBRANCH   1  11
BRANCH  10  19
ATOM     19  O   UNL     1       7.745 -33.747  19.441  1.00  0.00    -0.500 OA
ATOM     20  H   UNL     1       7.190 -34.111  20.206  1.00  0.00     0.294 HD
ENDBRANCH  10  19
BRANCH   5  21
ATOM     21  O   UNL     1       7.084 -37.840  12.877  1.00  0.00    -0.507 OA
ATOM     22  H   UNL     1       7.272 -38.825  12.726  1.00  0.00     0.293 HD
ENDBRANCH   5  21
BRANCH   7  23
ATOM     23  O   UNL     1       5.875 -38.125  17.550  1.00  0.00    -0.507 OA
ATOM     24  H   UNL     1       5.249 -37.663  18.199  1.00  0.00     0.293 HD
ENDBRANCH   7  23
TORSDOF 5
ENDMDL
MODEL 3
REMARK VINA RESULT:    -0.136      1.265      2.874
REMARK INTER + INTRA:          -0.446
REMARK INTER:                  -0.964
REMARK INTRA:                   0.518
REMARK UNBOUND:                -0.286
REMARK SMILES Oc1ccc(-c2[o+]c3cc(O)cc(O)c3cc2O)cc1
REMARK SMILES IDX 6 1 7 2 8 3 9 4 10 5 12 6 13 7 15 8 16 9 17 10 5 11 4 12
REMARK SMILES IDX 3 13 2 14 19 15 20 16 1 17 18 19 11 21 14 23
REMARK H PARENT 1 18 18 20 11 22 14 24
REMARK Flexibility Score: inf
ROOT
ATOM      1  C   UNL     1       7.943 -34.307  16.562  1.00  0.00     0.401 A 
ATOM      2  O   UNL     1       8.728 -33.331  16.111  1.00  0.00    -0.202 OA
ATOM      3  C   UNL     1       9.265 -32.406  16.901  1.00  0.00     0.368 A 
ATOM      4  C   UNL     1      10.076 -31.409  16.349  1.00  0.00     0.162 A 
ATOM      5  C   UNL     1      10.643 -30.427  17.171  1.00  0.00     0.128 A 
ATOM      6  C   UNL     1      10.398 -30.442  18.548  1.00  0.00     0.093 A 
ATOM      7  C   UNL     1       9.587 -31.436  19.117  1.00  0.00     0.136 A 
ATOM      8  C   UNL     1       9.017 -32.423  18.291  1.00  0.00     0.125 A 
ATOM      9  C   UNL     1       8.207 -33.443  18.803  1.00  0.00     0.078 A 
ATOM     10  C   UNL     1       7.670 -34.404  17.941  1.00  0.00     0.223 A 
ENDROOT
BRANCH   1  11
ATOM     11  C   UNL     1       7.398 -35.275  15.582  1.00  0.00     0.084 A 
ATOM     12  C   UNL     1       6.600 -36.340  16.032  1.00  0.00     0.022 A 
ATOM     13  C   UNL     1       6.092 -37.277  15.128  1.00  0.00     0.047 A 
ATOM     14  C   UNL     1       6.389 -37.172  13.765  1.00  0.00     0.115 A 
ATOM     15  C   UNL     1       7.708 -35.185  14.212  1.00  0.00     0.022 A 
ATOM     16  C   UNL     1       7.200 -36.126  13.310  1.00  0.00     0.047 A 
BRANCH  14  17
ATOM     17  O   UNL     1       5.875 -38.113  12.875  1.00  0.00    -0.508 OA
ATOM     18  H   UNL     1       5.566 -37.850  11.947  1.00  0.00     0.293 HD
ENDBRANCH  14  17
ENDBRANCH   1  11
BRANCH  10  19
ATOM     19  O   UNL     1       6.903 -35.451  18.452  1.00  0.00    -0.500 OA
ATOM     20  H   UNL     1       7.310 -36.172  19.036  1.00  0.00     0.294 HD
ENDBRANCH  10  19
BRANCH   5  21
ATOM     21  O   UNL     1      11.453 -29.430  16.629  1.00  0.00    -0.507 OA
ATOM     22  H   UNL     1      11.234 -28.447  16.749  1.00  0.00     0.293 HD
ENDBRANCH   5  21
BRANCH   7  23
ATOM     23  O   UNL     1       9.352 -31.441  20.492  1.00  0.00    -0.507 OA
ATOM     24  H   UNL     1      10.024 -31.061  21.147  1.00  0.00     0.293 HD
ENDBRANCH   7  23
TORSDOF 5
ENDMDL
MODEL 4
REMARK VINA RESULT:     0.481      1.488      3.032
REMARK INTER + INTRA:           0.279
REMARK INTER:                   0.597
REMARK INTRA:                  -0.318
REMARK UNBOUND:                -0.286
REMARK SMILES Oc1ccc(-c2[o+]c3cc(O)cc(O)c3cc2O)cc1
REMARK SMILES IDX 6 1 7 2 8 3 9 4 10 5 12 6 13 7 15 8 16 9 17 10 5 11 4 12
REMARK SMILES IDX 3 13 2 14 19 15 20 16 1 17 18 19 11 21 14 23
REMARK H PARENT 1 18 18 20 11 22 14 24
REMARK Flexibility Score: inf
ROOT
ATOM      1  C   UNL     1       8.745 -33.690  14.984  1.00  0.00     0.401 A 
ATOM      2  O   UNL     1       9.882 -33.355  14.377  1.00  0.00    -0.202 OA
ATOM      3  C   UNL     1      10.650 -32.346  14.776  1.00  0.00     0.368 A 
ATOM      4  C   UNL     1      11.829 -32.055  14.081  1.00  0.00     0.162 A 
ATOM      5  C   UNL     1      12.644 -30.992  14.489  1.00  0.00     0.128 A 
ATOM      6  C   UNL     1      12.279 -30.218  15.597  1.00  0.00     0.093 A 
ATOM      7  C   UNL     1      11.100 -30.499  16.305  1.00  0.00     0.136 A 
ATOM      8  C   UNL     1      10.281 -31.567  15.894  1.00  0.00     0.125 A 
ATOM      9  C   UNL     1       9.099 -31.898  16.567  1.00  0.00     0.078 A 
ATOM     10  C   UNL     1       8.324 -32.973  16.122  1.00  0.00     0.223 A 
ENDROOT
BRANCH   1  11
ATOM     11  C   UNL     1       7.971 -34.830  14.441  1.00  0.00     0.084 A 
ATOM     12  C   UNL     1       8.364 -36.143  14.751  1.00  0.00     0.022 A 
ATOM     13  C   UNL     1       7.661 -37.234  14.232  1.00  0.00     0.047 A 
ATOM     14  C   UNL     1       6.568 -37.028  13.384  1.00  0.00     0.115 A 
ATOM     15  C   UNL     1       6.883 -34.629  13.572  1.00  0.00     0.022 A 
ATOM     16  C   UNL     1       6.183 -35.723  13.053  1.00  0.00     0.047 A 
BRANCH  14  17
ATOM     17  O   UNL     1       5.877 -38.125  12.875  1.00  0.00    -0.508 OA
ATOM     18  H   UNL     1       6.292 -39.049  12.852  1.00  0.00     0.293 HD
ENDBRANCH  14  17
ENDBRANCH   1  11
BRANCH  10  19
ATOM     19  O   UNL     1       7.171 -33.339  16.818  1.00  0.00    -0.500 OA
ATOM     20  H   UNL     1       7.114 -33.266  17.826  1.00  0.00     0.294 HD
ENDBRANCH  10  19
BRANCH   5  21
ATOM     21  O   UNL     1      13.820 -30.695  13.803  1.00  0.00    -0.507 OA
ATOM     22  H   UNL     1      14.272 -29.793  13.893  1.00  0.00     0.293 HD
ENDBRANCH   5  21
BRANCH   7  23
ATOM     23  O   UNL     1      10.749 -29.720  17.408  1.00  0.00    -0.507 OA
ATOM     24  H   UNL     1      10.573 -30.134  18.315  1.00  0.00     0.293 HD
ENDBRANCH   7  23
TORSDOF 5
ENDMDL
