MODEL 1
REMARK VINA RESULT:    -7.298      0.000      0.000
REMARK INTER + INTRA:         -17.575
REMARK INTER:                 -15.404
REMARK INTRA:                  -2.171
REMARK UNBOUND:                -2.171
REMARK SMILES CCC(=O)CCCCC[C@H]1NC(=O)[C@@H]2CCCCN2C(=O)[C@@H]([C@@H](C)CC)NC(=O)[C@H](Cc2cn(OC)c3ccccc23)NC1=O
REMARK SMILES IDX 9 1 10 2 44 3 43 4 45 6 30 7 28 8 27 9 29 11 22 12 23 14
REMARK SMILES IDX 24 15 25 16 26 17 31 18 32 19 33 20 42 21 34 22 37 23 41 24
REMARK SMILES IDX 38 25 40 26 39 27 35 28 36 29 11 30 12 31 13 33 14 34 19 35
REMARK SMILES IDX 15 36 18 37 16 38 17 39 20 40 21 41 8 43 7 44 6 45 5 46 3 47
REMARK SMILES IDX 4 48 2 49 1 50
REMARK H PARENT 43 5 27 10 11 32
REMARK Flexibility Score: 80.00
ROOT
ATOM      1  C   UNL     1      20.657 -34.428  25.099  1.00  0.00     0.035 C 
ENDROOT
BRANCH   1   2
ATOM      2  C   UNL     1      20.024 -33.950  23.770  1.00  0.00     0.171 C 
BRANCH   2   3
ATOM      3  C   UNL     1      20.017 -32.447  23.735  1.00  0.00     0.243 C 
ATOM      4  N   UNL     1      20.201 -31.749  22.497  1.00  0.00    -0.342 N 
ATOM      5  H   UNL     1      20.601 -32.272  21.676  1.00  0.00     0.164 HD
ATOM      6  O   UNL     1      19.819 -31.797  24.801  1.00  0.00    -0.273 OA
BRANCH   4   7
ATOM      7  C   UNL     1      19.657 -30.403  22.310  1.00  0.00     0.175 C 
BRANCH   7   8
ATOM      8  C   UNL     1      18.218 -30.523  21.881  1.00  0.00     0.243 C 
ATOM      9  N   UNL     1      17.368 -31.532  22.451  1.00  0.00    -0.342 N 
ATOM     10  H   UNL     1      17.761 -32.145  23.208  1.00  0.00     0.164 HD
ATOM     11  O   UNL     1      17.782 -29.754  20.977  1.00  0.00    -0.273 OA
BRANCH   9  12
ATOM     12  C   UNL     1      16.071 -31.858  21.842  1.00  0.00     0.174 CG0
ATOM     13  G   UNL     1      15.960 -33.360  21.680  1.00  0.00     0.000 G0
BRANCH  12  14
ATOM     14  C   UNL     1      14.862 -31.219  22.598  1.00  0.00     0.018 C 
ATOM     15  C   UNL     1      15.247 -30.093  23.576  1.00  0.00     0.010 C 
BRANCH  14  16
ATOM     16  C   UNL     1      13.774 -30.685  21.629  1.00  0.00     0.002 C 
ATOM     17  C   UNL     1      12.380 -30.645  22.247  1.00  0.00     0.004 C 
ENDBRANCH  14  16
ENDBRANCH  12  14
ENDBRANCH   9  12
ENDBRANCH   7   8
BRANCH   7  18
ATOM     18  C   UNL     1      20.462 -29.632  21.254  1.00  0.00     0.073 C 
BRANCH  18  19
ATOM     19  C   UNL     1      21.285 -28.548  21.889  1.00  0.00    -0.016 A 
ATOM     20  C   UNL     1      22.186 -28.697  22.946  1.00  0.00     0.134 A 
ATOM     21  C   UNL     1      21.420 -27.239  21.457  1.00  0.00     0.006 A 
ATOM     22  N   UNL     1      22.819 -27.525  23.172  1.00  0.00    -0.191 N 
ATOM     23  C   UNL     1      22.360 -26.645  22.260  1.00  0.00     0.087 A 
ATOM     24  C   UNL     1      20.824 -26.559  20.390  1.00  0.00     0.011 A 
ATOM     25  C   UNL     1      22.785 -25.331  22.038  1.00  0.00     0.030 A 
ATOM     26  C   UNL     1      21.212 -25.225  20.164  1.00  0.00     0.001 A 
ATOM     27  C   UNL     1      22.185 -24.613  20.987  1.00  0.00     0.002 A 
BRANCH  22  28
ATOM     28  O   UNL     1      23.859 -27.340  24.057  1.00  0.00    -0.417 OA
ATOM     29  C   UNL     1      23.620 -27.164  25.448  1.00  0.00     0.313 C 
ENDBRANCH  22  28
ENDBRANCH  18  19
ENDBRANCH   7  18
ENDBRANCH   4   7
ENDBRANCH   2   3
BRANCH   2  30
ATOM     30  N   UNL     1      18.652 -34.445  23.575  1.00  0.00    -0.343 N 
ATOM     31  C   UNL     1      18.408 -35.568  22.716  1.00  0.00     0.243 C 
ATOM     32  H   UNL     1      17.932 -34.303  24.305  1.00  0.00     0.164 HD
ATOM     33  O   UNL     1      19.128 -36.599  22.814  1.00  0.00    -0.273 OA
BRANCH  31  34
ATOM     34  C   UNL     1      17.303 -35.505  21.697  1.00  0.00     0.174 C 
ATOM     35  N   UNL     1      17.113 -34.113  21.232  1.00  0.00    -0.329 N 
ATOM     36  C   UNL     1      17.570 -36.449  20.499  1.00  0.00     0.035 C 
ATOM     37  C   UNL     1      17.800 -33.728  19.993  1.00  0.00     0.120 C 
ATOM     38  C   UNL     1      16.790 -35.965  19.261  1.00  0.00     0.004 C 
ATOM     39  C   UNL     1      17.259 -34.564  18.827  1.00  0.00     0.022 C 
BRANCH  35  40
ATOM     40  C   UNL     1      15.965 -33.356  21.674  1.00  0.00     0.246 CG0
ATOM     41  O   UNL     1      14.930 -33.968  22.048  1.00  0.00    -0.272 OA
ATOM     42  G   UNL     1      16.047 -31.853  21.840  1.00  0.00     0.000 G0
ENDBRANCH  35  40
ENDBRANCH  31  34
ENDBRANCH   2  30
ENDBRANCH   1   2
BRANCH   1  43
ATOM     43  C   UNL     1      21.514 -35.706  25.030  1.00  0.00     0.003 C 
BRANCH  43  44
ATOM     44  C   UNL     1      20.903 -36.958  25.681  1.00  0.00     0.001 C 
BRANCH  44  45
ATOM     45  C   UNL     1      19.629 -36.713  26.502  1.00  0.00     0.008 C 
BRANCH  45  46
ATOM     46  C   UNL     1      18.417 -37.472  25.929  1.00  0.00     0.075 C 
BRANCH  46  47
ATOM     47  C   UNL     1      17.087 -37.173  26.598  1.00  0.00     0.132 C 
ATOM     48  O   UNL     1      16.506 -36.144  26.278  1.00  0.00    -0.300 OA
BRANCH  47  49
ATOM     49  C   UNL     1      16.462 -38.110  27.612  1.00  0.00     0.072 C 
ATOM     50  C   UNL     1      16.772 -37.718  29.062  1.00  0.00     0.012 C 
ENDBRANCH  47  49
ENDBRANCH  46  47
ENDBRANCH  45  46
ENDBRANCH  44  45
ENDBRANCH  43  44
ENDBRANCH   1  43
TORSDOF 12
ENDMDL
MODEL 2
REMARK VINA RESULT:    -7.127      2.419      7.368
REMARK INTER + INTRA:         -17.215
REMARK INTER:                 -14.483
REMARK INTRA:                  -2.732
REMARK UNBOUND:                -2.171
REMARK SMILES CCC(=O)CCCCC[C@H]1NC(=O)[C@@H]2CCCCN2C(=O)[C@@H]([C@@H](C)CC)NC(=O)[C@H](Cc2cn(OC)c3ccccc23)NC1=O
REMARK SMILES IDX 9 1 10 2 44 3 43 4 45 6 30 7 28 8 27 9 29 11 22 12 23 14
REMARK SMILES IDX 24 15 25 16 26 17 31 18 32 19 33 20 42 21 34 22 37 23 41 24
REMARK SMILES IDX 38 25 40 26 39 27 35 28 36 29 11 30 12 31 13 33 14 34 19 35
REMARK SMILES IDX 15 36 18 37 16 38 17 39 20 40 21 41 8 43 7 44 6 45 5 46 3 47
REMARK SMILES IDX 4 48 2 49 1 50
REMARK H PARENT 43 5 27 10 11 32
REMARK Flexibility Score: 80.00
ROOT
ATOM      1  C   UNL     1      20.364 -29.102  21.069  1.00  0.00     0.035 C 
ENDROOT
BRANCH   1   2
ATOM      2  C   UNL     1      19.432 -30.090  21.813  1.00  0.00     0.171 C 
BRANCH   2   3
ATOM      3  C   UNL     1      20.231 -30.856  22.831  1.00  0.00     0.243 C 
ATOM      4  N   UNL     1      19.898 -30.778  24.223  1.00  0.00    -0.342 N 
ATOM      5  H   UNL     1      19.280 -29.992  24.552  1.00  0.00     0.164 HD
ATOM      6  O   UNL     1      21.184 -31.595  22.452  1.00  0.00    -0.273 OA
BRANCH   4   7
ATOM      7  C   UNL     1      20.232 -31.874  25.133  1.00  0.00     0.175 C 
BRANCH   7   8
ATOM      8  C   UNL     1      19.097 -32.864  25.128  1.00  0.00     0.243 C 
ATOM      9  N   UNL     1      19.252 -34.150  24.504  1.00  0.00    -0.342 N 
ATOM     10  H   UNL     1      20.189 -34.398  24.101  1.00  0.00     0.164 HD
ATOM     11  O   UNL     1      17.990 -32.530  25.639  1.00  0.00    -0.273 OA
BRANCH   9  12
ATOM     12  C   UNL     1      18.086 -35.000  24.227  1.00  0.00     0.174 CG0
ATOM     13  G   UNL     1      18.019 -35.286  22.741  1.00  0.00     0.000 G0
BRANCH  12  14
ATOM     14  C   UNL     1      18.039 -36.285  25.114  1.00  0.00     0.018 C 
ATOM     15  C   UNL     1      19.381 -36.649  25.777  1.00  0.00     0.010 C 
BRANCH  14  16
ATOM     16  C   UNL     1      16.948 -36.205  26.215  1.00  0.00     0.002 C 
ATOM     17  C   UNL     1      16.804 -37.492  27.020  1.00  0.00     0.004 C 
ENDBRANCH  14  16
ENDBRANCH  12  14
ENDBRANCH   9  12
ENDBRANCH   7   8
BRANCH   7  18
ATOM     18  C   UNL     1      20.469 -31.347  26.556  1.00  0.00     0.073 C 
BRANCH  18  19
ATOM     19  C   UNL     1      21.504 -30.259  26.563  1.00  0.00    -0.016 A 
ATOM     20  C   UNL     1      21.266 -28.883  26.504  1.00  0.00     0.134 A 
ATOM     21  C   UNL     1      22.864 -30.401  26.778  1.00  0.00     0.006 A 
ATOM     22  N   UNL     1      22.432 -28.215  26.642  1.00  0.00    -0.191 N 
ATOM     23  C   UNL     1      23.399 -29.138  26.820  1.00  0.00     0.087 A 
ATOM     24  C   UNL     1      23.646 -31.541  26.990  1.00  0.00     0.011 A 
ATOM     25  C   UNL     1      24.753 -28.928  27.097  1.00  0.00     0.030 A 
ATOM     26  C   UNL     1      25.018 -31.358  27.242  1.00  0.00     0.001 A 
ATOM     27  C   UNL     1      25.570 -30.057  27.290  1.00  0.00     0.002 A 
BRANCH  22  28
ATOM     28  O   UNL     1      22.556 -26.848  26.755  1.00  0.00    -0.417 OA
ATOM     29  C   UNL     1      21.411 -26.005  26.796  1.00  0.00     0.313 C 
ENDBRANCH  22  28
ENDBRANCH  18  19
ENDBRANCH   7  18
ENDBRANCH   4   7
ENDBRANCH   2   3
BRANCH   2  30
ATOM     30  N   UNL     1      18.761 -31.039  20.911  1.00  0.00    -0.343 N 
ATOM     31  C   UNL     1      17.943 -32.087  21.449  1.00  0.00     0.243 C 
ATOM     32  H   UNL     1      18.518 -30.764  19.943  1.00  0.00     0.164 HD
ATOM     33  O   UNL     1      17.100 -31.823  22.349  1.00  0.00    -0.273 OA
BRANCH  31  34
ATOM     34  C   UNL     1      18.105 -33.496  20.946  1.00  0.00     0.174 C 
ATOM     35  N   UNL     1      17.330 -34.434  21.789  1.00  0.00    -0.329 N 
ATOM     36  C   UNL     1      17.691 -33.627  19.459  1.00  0.00     0.035 C 
ATOM     37  C   UNL     1      15.988 -34.794  21.317  1.00  0.00     0.120 C 
ATOM     38  C   UNL     1      17.312 -35.087  19.144  1.00  0.00     0.004 C 
ATOM     39  C   UNL     1      16.097 -35.534  19.978  1.00  0.00     0.022 C 
BRANCH  35  40
ATOM     40  C   UNL     1      18.015 -35.302  22.717  1.00  0.00     0.246 CG0
ATOM     41  O   UNL     1      18.694 -36.265  22.274  1.00  0.00    -0.272 OA
ATOM     42  G   UNL     1      18.055 -34.976  24.196  1.00  0.00     0.000 G0
ENDBRANCH  35  40
ENDBRANCH  31  34
ENDBRANCH   2  30
ENDBRANCH   1   2
BRANCH   1  43
ATOM     43  C   UNL     1      19.734 -27.771  20.620  1.00  0.00     0.003 C 
BRANCH  43  44
ATOM     44  C   UNL     1      20.354 -26.499  21.224  1.00  0.00     0.001 C 
BRANCH  44  45
ATOM     45  C   UNL     1      20.625 -25.366  20.224  1.00  0.00     0.008 C 
BRANCH  45  46
ATOM     46  C   UNL     1      22.013 -24.730  20.433  1.00  0.00     0.075 C 
BRANCH  46  47
ATOM     47  C   UNL     1      23.145 -25.368  19.647  1.00  0.00     0.132 C 
ATOM     48  O   UNL     1      23.559 -24.775  18.660  1.00  0.00    -0.300 OA
BRANCH  47  49
ATOM     49  C   UNL     1      23.779 -26.681  20.063  1.00  0.00     0.072 C 
ATOM     50  C   UNL     1      23.669 -26.950  21.568  1.00  0.00     0.012 C 
ENDBRANCH  47  49
ENDBRANCH  46  47
ENDBRANCH  45  46
ENDBRANCH  44  45
ENDBRANCH  43  44
ENDBRANCH   1  43
TORSDOF 12
ENDMDL
MODEL 3
REMARK VINA RESULT:    -7.115      2.434      7.240
REMARK INTER + INTRA:         -17.188
REMARK INTER:                 -13.916
REMARK INTRA:                  -3.272
REMARK UNBOUND:                -2.171
REMARK SMILES CCC(=O)CCCCC[C@H]1NC(=O)[C@@H]2CCCCN2C(=O)[C@@H]([C@@H](C)CC)NC(=O)[C@H](Cc2cn(OC)c3ccccc23)NC1=O
REMARK SMILES IDX 9 1 10 2 44 3 43 4 45 6 30 7 28 8 27 9 29 11 22 12 23 14
REMARK SMILES IDX 24 15 25 16 26 17 31 18 32 19 33 20 42 21 34 22 37 23 41 24
REMARK SMILES IDX 38 25 40 26 39 27 35 28 36 29 11 30 12 31 13 33 14 34 19 35
REMARK SMILES IDX 15 36 18 37 16 38 17 39 20 40 21 41 8 43 7 44 6 45 5 46 3 47
REMARK SMILES IDX 4 48 2 49 1 50
REMARK H PARENT 43 5 27 10 11 32
REMARK Flexibility Score: 80.00
ROOT
ATOM      1  C   UNL     1      20.658 -29.210  21.045  1.00  0.00     0.035 C 
ENDROOT
BRANCH   1   2
ATOM      2  C   UNL     1      19.666 -30.092  21.841  1.00  0.00     0.171 C 
BRANCH   2   3
ATOM      3  C   UNL     1      20.410 -30.828  22.921  1.00  0.00     0.243 C 
ATOM      4  N   UNL     1      19.965 -30.766  24.281  1.00  0.00    -0.342 N 
ATOM      5  H   UNL     1      19.294 -30.006  24.559  1.00  0.00     0.164 HD
ATOM      6  O   UNL     1      21.418 -31.529  22.619  1.00  0.00    -0.273 OA
BRANCH   4   7
ATOM      7  C   UNL     1      20.269 -31.850  25.217  1.00  0.00     0.175 C 
BRANCH   7   8
ATOM      8  C   UNL     1      19.115 -32.819  25.218  1.00  0.00     0.243 C 
ATOM      9  N   UNL     1      19.265 -34.134  24.658  1.00  0.00    -0.342 N 
ATOM     10  H   UNL     1      20.209 -34.418  24.298  1.00  0.00     0.164 HD
ATOM     11  O   UNL     1      17.999 -32.441  25.676  1.00  0.00    -0.273 OA
BRANCH   9  12
ATOM     12  C   UNL     1      18.092 -34.974  24.381  1.00  0.00     0.174 CG0
ATOM     13  G   UNL     1      18.033 -35.274  22.897  1.00  0.00     0.000 G0
BRANCH  12  14
ATOM     14  C   UNL     1      18.025 -36.250  25.281  1.00  0.00     0.018 C 
ATOM     15  C   UNL     1      19.337 -36.577  26.018  1.00  0.00     0.010 C 
BRANCH  14  16
ATOM     16  C   UNL     1      16.875 -36.181  26.320  1.00  0.00     0.002 C 
ATOM     17  C   UNL     1      16.842 -37.376  27.267  1.00  0.00     0.004 C 
ENDBRANCH  14  16
ENDBRANCH  12  14
ENDBRANCH   9  12
ENDBRANCH   7   8
BRANCH   7  18
ATOM     18  C   UNL     1      20.500 -31.300  26.631  1.00  0.00     0.073 C 
BRANCH  18  19
ATOM     19  C   UNL     1      21.946 -30.952  26.845  1.00  0.00    -0.016 A 
ATOM     20  C   UNL     1      22.991 -31.847  27.088  1.00  0.00     0.134 A 
ATOM     21  C   UNL     1      22.536 -29.709  26.696  1.00  0.00     0.006 A 
ATOM     22  N   UNL     1      24.164 -31.177  27.119  1.00  0.00    -0.191 N 
ATOM     23  C   UNL     1      23.886 -29.881  26.870  1.00  0.00     0.087 A 
ATOM     24  C   UNL     1      21.988 -28.465  26.370  1.00  0.00     0.011 A 
ATOM     25  C   UNL     1      24.784 -28.821  26.709  1.00  0.00     0.030 A 
ATOM     26  C   UNL     1      22.867 -27.375  26.233  1.00  0.00     0.001 A 
ATOM     27  C   UNL     1      24.259 -27.552  26.406  1.00  0.00     0.002 A 
BRANCH  22  28
ATOM     28  O   UNL     1      25.409 -31.758  27.213  1.00  0.00    -0.417 OA
ATOM     29  C   UNL     1      26.043 -32.329  26.075  1.00  0.00     0.313 C 
ENDBRANCH  22  28
ENDBRANCH  18  19
ENDBRANCH   7  18
ENDBRANCH   4   7
ENDBRANCH   2   3
BRANCH   2  30
ATOM     30  N   UNL     1      18.954 -31.063  20.996  1.00  0.00    -0.343 N 
ATOM     31  C   UNL     1      18.170 -32.103  21.599  1.00  0.00     0.243 C 
ATOM     32  H   UNL     1      18.659 -30.811  20.036  1.00  0.00     0.164 HD
ATOM     33  O   UNL     1      17.374 -31.822  22.536  1.00  0.00    -0.273 OA
BRANCH  31  34
ATOM     34  C   UNL     1      18.312 -33.521  21.119  1.00  0.00     0.174 C 
ATOM     35  N   UNL     1      17.456 -34.423  21.922  1.00  0.00    -0.329 N 
ATOM     36  C   UNL     1      17.983 -33.654  19.611  1.00  0.00     0.035 C 
ATOM     37  C   UNL     1      16.132 -34.742  21.373  1.00  0.00     0.120 C 
ATOM     38  C   UNL     1      17.573 -35.104  19.287  1.00  0.00     0.004 C 
ATOM     39  C   UNL     1      16.296 -35.500  20.050  1.00  0.00     0.022 C 
BRANCH  35  40
ATOM     40  C   UNL     1      18.054 -35.304  22.897  1.00  0.00     0.246 CG0
ATOM     41  O   UNL     1      18.677 -36.326  22.505  1.00  0.00    -0.272 OA
ATOM     42  G   UNL     1      18.075 -34.932  24.365  1.00  0.00     0.000 G0
ENDBRANCH  35  40
ENDBRANCH  31  34
ENDBRANCH   2  30
ENDBRANCH   1   2
BRANCH   1  43
ATOM     43  C   UNL     1      20.820 -27.756  21.525  1.00  0.00     0.003 C 
BRANCH  43  44
ATOM     44  C   UNL     1      19.875 -26.728  20.878  1.00  0.00     0.001 C 
BRANCH  44  45
ATOM     45  C   UNL     1      20.569 -25.584  20.125  1.00  0.00     0.008 C 
BRANCH  45  46
ATOM     46  C   UNL     1      22.055 -25.454  20.512  1.00  0.00     0.075 C 
BRANCH  46  47
ATOM     47  C   UNL     1      22.377 -24.337  21.488  1.00  0.00     0.132 C 
ATOM     48  O   UNL     1      23.474 -23.802  21.400  1.00  0.00    -0.300 OA
BRANCH  47  49
ATOM     49  C   UNL     1      21.383 -23.860  22.529  1.00  0.00     0.072 C 
ATOM     50  C   UNL     1      21.423 -24.687  23.820  1.00  0.00     0.012 C 
ENDBRANCH  47  49
ENDBRANCH  46  47
ENDBRANCH  45  46
ENDBRANCH  44  45
ENDBRANCH  43  44
ENDBRANCH   1  43
TORSDOF 12
ENDMDL
MODEL 4
REMARK VINA RESULT:    -6.992      2.415      7.168
REMARK INTER + INTRA:         -16.929
REMARK INTER:                 -13.732
REMARK INTRA:                  -3.196
REMARK UNBOUND:                -2.171
REMARK SMILES CCC(=O)CCCCC[C@H]1NC(=O)[C@@H]2CCCCN2C(=O)[C@@H]([C@@H](C)CC)NC(=O)[C@H](Cc2cn(OC)c3ccccc23)NC1=O
REMARK SMILES IDX 9 1 10 2 44 3 43 4 45 6 30 7 28 8 27 9 29 11 22 12 23 14
REMARK SMILES IDX 24 15 25 16 26 17 31 18 32 19 33 20 42 21 34 22 37 23 41 24
REMARK SMILES IDX 38 25 40 26 39 27 35 28 36 29 11 30 12 31 13 33 14 34 19 35
REMARK SMILES IDX 15 36 18 37 16 38 17 39 20 40 21 41 8 43 7 44 6 45 5 46 3 47
REMARK SMILES IDX 4 48 2 49 1 50
REMARK H PARENT 43 5 27 10 11 32
REMARK Flexibility Score: 80.00
ROOT
ATOM      1  C   UNL     1      20.620 -29.307  20.966  1.00  0.00     0.035 C 
ENDROOT
BRANCH   1   2
ATOM      2  C   UNL     1      19.739 -30.268  21.801  1.00  0.00     0.171 C 
BRANCH   2   3
ATOM      3  C   UNL     1      20.620 -31.118  22.675  1.00  0.00     0.243 C 
ATOM      4  N   UNL     1      20.391 -31.187  24.088  1.00  0.00    -0.342 N 
ATOM      5  H   UNL     1      19.791 -30.450  24.539  1.00  0.00     0.164 HD
ATOM      6  O   UNL     1      21.550 -31.798  22.154  1.00  0.00    -0.273 OA
BRANCH   4   7
ATOM      7  C   UNL     1      20.805 -32.363  24.855  1.00  0.00     0.175 C 
BRANCH   7   8
ATOM      8  C   UNL     1      19.617 -33.276  25.010  1.00  0.00     0.243 C 
ATOM      9  N   UNL     1      19.467 -34.430  24.166  1.00  0.00    -0.342 N 
ATOM     10  H   UNL     1      20.231 -34.646  23.478  1.00  0.00     0.164 HD
ATOM     11  O   UNL     1      18.728 -32.986  25.861  1.00  0.00    -0.273 OA
BRANCH   9  12
ATOM     12  C   UNL     1      18.190 -35.153  24.095  1.00  0.00     0.174 CG0
ATOM     13  G   UNL     1      17.890 -35.495  22.651  1.00  0.00     0.000 G0
BRANCH  12  14
ATOM     14  C   UNL     1      18.129 -36.384  25.056  1.00  0.00     0.018 C 
ATOM     15  C   UNL     1      19.451 -36.685  25.788  1.00  0.00     0.010 C 
BRANCH  14  16
ATOM     16  C   UNL     1      16.997 -36.257  26.109  1.00  0.00     0.002 C 
ATOM     17  C   UNL     1      17.123 -37.252  27.258  1.00  0.00     0.004 C 
ENDBRANCH  14  16
ENDBRANCH  12  14
ENDBRANCH   9  12
ENDBRANCH   7   8
BRANCH   7  18
ATOM     18  C   UNL     1      21.341 -31.952  26.234  1.00  0.00     0.073 C 
BRANCH  18  19
ATOM     19  C   UNL     1      21.039 -30.510  26.523  1.00  0.00    -0.016 A 
ATOM     20  C   UNL     1      19.946 -30.014  27.238  1.00  0.00     0.134 A 
ATOM     21  C   UNL     1      21.852 -29.419  26.268  1.00  0.00     0.006 A 
ATOM     22  N   UNL     1      20.068 -28.677  27.385  1.00  0.00    -0.191 N 
ATOM     23  C   UNL     1      21.232 -28.319  26.805  1.00  0.00     0.087 A 
ATOM     24  C   UNL     1      23.106 -29.332  25.655  1.00  0.00     0.011 A 
ATOM     25  C   UNL     1      21.834 -27.058  26.783  1.00  0.00     0.030 A 
ATOM     26  C   UNL     1      23.720 -28.067  25.592  1.00  0.00     0.001 A 
ATOM     27  C   UNL     1      23.084 -26.934  26.151  1.00  0.00     0.002 A 
BRANCH  22  28
ATOM     28  O   UNL     1      19.236 -27.881  28.142  1.00  0.00    -0.417 OA
ATOM     29  C   UNL     1      18.174 -28.440  28.903  1.00  0.00     0.313 C 
ENDBRANCH  22  28
ENDBRANCH  18  19
ENDBRANCH   7  18
ENDBRANCH   4   7
ENDBRANCH   2   3
BRANCH   2  30
ATOM     30  N   UNL     1      18.895 -31.141  20.971  1.00  0.00    -0.343 N 
ATOM     31  C   UNL     1      18.128 -32.191  21.580  1.00  0.00     0.243 C 
ATOM     32  H   UNL     1      18.513 -30.804  20.070  1.00  0.00     0.164 HD
ATOM     33  O   UNL     1      17.450 -31.950  22.615  1.00  0.00    -0.273 OA
BRANCH  31  34
ATOM     34  C   UNL     1      18.148 -33.573  20.987  1.00  0.00     0.174 C 
ATOM     35  N   UNL     1      17.287 -34.483  21.775  1.00  0.00    -0.329 N 
ATOM     36  C   UNL     1      17.719 -33.567  19.499  1.00  0.00     0.035 C 
ATOM     37  C   UNL     1      15.914 -34.678  21.293  1.00  0.00     0.120 C 
ATOM     38  C   UNL     1      17.197 -34.960  19.095  1.00  0.00     0.004 C 
ATOM     39  C   UNL     1      15.946 -35.338  19.909  1.00  0.00     0.022 C 
BRANCH  35  40
ATOM     40  C   UNL     1      17.886 -35.472  22.640  1.00  0.00     0.246 CG0
ATOM     41  O   UNL     1      18.302 -36.553  22.146  1.00  0.00    -0.272 OA
ATOM     42  G   UNL     1      18.160 -35.161  24.097  1.00  0.00     0.000 G0
ENDBRANCH  35  40
ENDBRANCH  31  34
ENDBRANCH   2  30
ENDBRANCH   1   2
BRANCH   1  43
ATOM     43  C   UNL     1      20.547 -27.814  21.338  1.00  0.00     0.003 C 
BRANCH  43  44
ATOM     44  C   UNL     1      21.542 -26.894  20.609  1.00  0.00     0.001 C 
BRANCH  44  45
ATOM     45  C   UNL     1      22.842 -26.602  21.372  1.00  0.00     0.008 C 
BRANCH  45  46
ATOM     46  C   UNL     1      22.611 -25.664  22.572  1.00  0.00     0.075 C 
BRANCH  46  47
ATOM     47  C   UNL     1      22.371 -24.207  22.221  1.00  0.00     0.132 C 
ATOM     48  O   UNL     1      23.208 -23.641  21.530  1.00  0.00    -0.300 OA
BRANCH  47  49
ATOM     49  C   UNL     1      21.132 -23.459  22.674  1.00  0.00     0.072 C 
ATOM     50  C   UNL     1      19.829 -24.173  22.298  1.00  0.00     0.012 C 
ENDBRANCH  47  49
ENDBRANCH  46  47
ENDBRANCH  45  46
ENDBRANCH  44  45
ENDBRANCH  43  44
ENDBRANCH   1  43
TORSDOF 12
ENDMDL
MODEL 5
REMARK VINA RESULT:    -6.984      2.740      7.933
REMARK INTER + INTRA:         -16.912
REMARK INTER:                 -14.918
REMARK INTRA:                  -1.994
REMARK UNBOUND:                -2.171
REMARK SMILES CCC(=O)CCCCC[C@H]1NC(=O)[C@@H]2CCCCN2C(=O)[C@@H]([C@@H](C)CC)NC(=O)[C@H](Cc2cn(OC)c3ccccc23)NC1=O
REMARK SMILES IDX 9 1 10 2 44 3 43 4 45 6 30 7 28 8 27 9 29 11 22 12 23 14
REMARK SMILES IDX 24 15 25 16 26 17 31 18 32 19 33 20 42 21 34 22 37 23 41 24
REMARK SMILES IDX 38 25 40 26 39 27 35 28 36 29 11 30 12 31 13 33 14 34 19 35
REMARK SMILES IDX 15 36 18 37 16 38 17 39 20 40 21 41 8 43 7 44 6 45 5 46 3 47
REMARK SMILES IDX 4 48 2 49 1 50
REMARK H PARENT 43 5 27 10 11 32
REMARK Flexibility Score: 80.00
ROOT
ATOM      1  C   UNL     1      19.385 -28.786  20.715  1.00  0.00     0.035 C 
ENDROOT
BRANCH   1   2
ATOM      2  C   UNL     1      18.569 -29.753  21.607  1.00  0.00     0.171 C 
BRANCH   2   3
ATOM      3  C   UNL     1      19.401 -30.967  21.916  1.00  0.00     0.243 C 
ATOM      4  N   UNL     1      19.222 -31.674  23.149  1.00  0.00    -0.342 N 
ATOM      5  H   UNL     1      18.711 -31.197  23.936  1.00  0.00     0.164 HD
ATOM      6  O   UNL     1      20.243 -31.381  21.069  1.00  0.00    -0.273 OA
BRANCH   4   7
ATOM      7  C   UNL     1      19.555 -33.096  23.250  1.00  0.00     0.175 C 
BRANCH   7   8
ATOM      8  C   UNL     1      18.452 -33.893  22.603  1.00  0.00     0.243 C 
ATOM      9  N   UNL     1      17.657 -33.319  21.551  1.00  0.00    -0.342 N 
ATOM     10  H   UNL     1      17.899 -32.355  21.213  1.00  0.00     0.164 HD
ATOM     11  O   UNL     1      18.205 -35.056  23.031  1.00  0.00    -0.273 OA
BRANCH   9  12
ATOM     12  C   UNL     1      16.405 -33.956  21.120  1.00  0.00     0.174 CG0
ATOM     13  G   UNL     1      15.274 -32.956  21.233  1.00  0.00     0.000 G0
BRANCH  12  14
ATOM     14  C   UNL     1      16.512 -34.625  19.712  1.00  0.00     0.018 C 
ATOM     15  C   UNL     1      17.848 -34.374  18.988  1.00  0.00     0.010 C 
BRANCH  14  16
ATOM     16  C   UNL     1      16.253 -36.154  19.762  1.00  0.00     0.002 C 
ATOM     17  C   UNL     1      17.518 -36.987  19.583  1.00  0.00     0.004 C 
ENDBRANCH  14  16
ENDBRANCH  12  14
ENDBRANCH   9  12
ENDBRANCH   7   8
BRANCH   7  18
ATOM     18  C   UNL     1      19.719 -33.514  24.718  1.00  0.00     0.073 C 
BRANCH  18  19
ATOM     19  C   UNL     1      21.040 -33.055  25.266  1.00  0.00    -0.016 A 
ATOM     20  C   UNL     1      22.307 -33.468  24.843  1.00  0.00     0.134 A 
ATOM     21  C   UNL     1      21.257 -32.037  26.179  1.00  0.00     0.006 A 
ATOM     22  N   UNL     1      23.255 -32.759  25.492  1.00  0.00    -0.191 N 
ATOM     23  C   UNL     1      22.616 -31.883  26.294  1.00  0.00     0.087 A 
ATOM     24  C   UNL     1      20.361 -31.212  26.865  1.00  0.00     0.011 A 
ATOM     25  C   UNL     1      23.172 -30.877  27.090  1.00  0.00     0.030 A 
ATOM     26  C   UNL     1      20.895 -30.211  27.697  1.00  0.00     0.001 A 
ATOM     27  C   UNL     1      22.295 -30.048  27.813  1.00  0.00     0.002 A 
BRANCH  22  28
ATOM     28  O   UNL     1      24.607 -32.817  25.233  1.00  0.00    -0.417 OA
ATOM     29  C   UNL     1      25.099 -33.287  23.984  1.00  0.00     0.313 C 
ENDBRANCH  22  28
ENDBRANCH  18  19
ENDBRANCH   7  18
ENDBRANCH   4   7
ENDBRANCH   2   3
BRANCH   2  30
ATOM     30  N   UNL     1      17.305 -30.178  20.986  1.00  0.00    -0.343 N 
ATOM     31  C   UNL     1      16.062 -29.610  21.423  1.00  0.00     0.243 C 
ATOM     32  H   UNL     1      17.289 -30.540  20.016  1.00  0.00     0.164 HD
ATOM     33  O   UNL     1      15.962 -28.362  21.570  1.00  0.00    -0.273 OA
BRANCH  31  34
ATOM     34  C   UNL     1      14.890 -30.507  21.714  1.00  0.00     0.174 C 
ATOM     35  N   UNL     1      15.360 -31.840  22.151  1.00  0.00    -0.329 N 
ATOM     36  C   UNL     1      13.940 -29.889  22.770  1.00  0.00     0.035 C 
ATOM     37  C   UNL     1      15.446 -32.071  23.598  1.00  0.00     0.120 C 
ATOM     38  C   UNL     1      13.123 -31.000  23.459  1.00  0.00     0.004 C 
ATOM     39  C   UNL     1      14.045 -31.974  24.215  1.00  0.00     0.022 C 
BRANCH  35  40
ATOM     40  C   UNL     1      15.263 -32.968  21.254  1.00  0.00     0.246 CG0
ATOM     41  O   UNL     1      14.269 -33.060  20.485  1.00  0.00    -0.272 OA
ATOM     42  G   UNL     1      16.408 -33.950  21.118  1.00  0.00     0.000 G0
ENDBRANCH  35  40
ENDBRANCH  31  34
ENDBRANCH   2  30
ENDBRANCH   1   2
BRANCH   1  43
ATOM     43  C   UNL     1      19.049 -27.288  20.842  1.00  0.00     0.003 C 
BRANCH  43  44
ATOM     44  C   UNL     1      20.218 -26.371  21.243  1.00  0.00     0.001 C 
BRANCH  44  45
ATOM     45  C   UNL     1      20.672 -25.379  20.162  1.00  0.00     0.008 C 
BRANCH  45  46
ATOM     46  C   UNL     1      22.187 -25.467  19.896  1.00  0.00     0.075 C 
BRANCH  46  47
ATOM     47  C   UNL     1      23.018 -24.349  20.497  1.00  0.00     0.132 C 
ATOM     48  O   UNL     1      23.768 -23.731  19.752  1.00  0.00    -0.300 OA
BRANCH  47  49
ATOM     49  C   UNL     1      22.925 -23.967  21.961  1.00  0.00     0.072 C 
ATOM     50  C   UNL     1      23.368 -22.525  22.235  1.00  0.00     0.012 C 
ENDBRANCH  47  49
ENDBRANCH  46  47
ENDBRANCH  45  46
ENDBRANCH  44  45
ENDBRANCH  43  44
ENDBRANCH   1  43
TORSDOF 12
ENDMDL
MODEL 6
REMARK VINA RESULT:    -6.903      1.760      3.195
REMARK INTER + INTRA:         -16.742
REMARK INTER:                 -13.507
REMARK INTRA:                  -3.235
REMARK UNBOUND:                -2.171
REMARK SMILES CCC(=O)CCCCC[C@H]1NC(=O)[C@@H]2CCCCN2C(=O)[C@@H]([C@@H](C)CC)NC(=O)[C@H](Cc2cn(OC)c3ccccc23)NC1=O
REMARK SMILES IDX 9 1 10 2 44 3 43 4 45 6 30 7 28 8 27 9 29 11 22 12 23 14
REMARK SMILES IDX 24 15 25 16 26 17 31 18 32 19 33 20 42 21 34 22 37 23 41 24
REMARK SMILES IDX 38 25 40 26 39 27 35 28 36 29 11 30 12 31 13 33 14 34 19 35
REMARK SMILES IDX 15 36 18 37 16 38 17 39 20 40 21 41 8 43 7 44 6 45 5 46 3 47
REMARK SMILES IDX 4 48 2 49 1 50
REMARK H PARENT 43 5 27 10 11 32
REMARK Flexibility Score: 80.00
ROOT
ATOM      1  C   UNL     1      20.912 -34.801  25.125  1.00  0.00     0.035 C 
ENDROOT
BRANCH   1   2
ATOM      2  C   UNL     1      20.241 -34.274  23.833  1.00  0.00     0.171 C 
BRANCH   2   3
ATOM      3  C   UNL     1      20.252 -32.770  23.846  1.00  0.00     0.243 C 
ATOM      4  N   UNL     1      20.552 -32.036  22.652  1.00  0.00    -0.342 N 
ATOM      5  H   UNL     1      21.018 -32.539  21.853  1.00  0.00     0.164 HD
ATOM      6  O   UNL     1      19.967 -32.151  24.910  1.00  0.00    -0.273 OA
BRANCH   4   7
ATOM      7  C   UNL     1      20.040 -30.678  22.461  1.00  0.00     0.175 C 
BRANCH   7   8
ATOM      8  C   UNL     1      18.637 -30.767  21.917  1.00  0.00     0.243 C 
ATOM      9  N   UNL     1      17.681 -31.663  22.507  1.00  0.00    -0.342 N 
ATOM     10  H   UNL     1      17.969 -32.212  23.355  1.00  0.00     0.164 HD
ATOM     11  O   UNL     1      18.328 -30.078  20.904  1.00  0.00    -0.273 OA
BRANCH   9  12
ATOM     12  C   UNL     1      16.422 -31.983  21.820  1.00  0.00     0.174 CG0
ATOM     13  G   UNL     1      16.249 -33.487  21.772  1.00  0.00     0.000 G0
BRANCH  12  14
ATOM     14  C   UNL     1      15.190 -31.229  22.415  1.00  0.00     0.018 C 
ATOM     15  C   UNL     1      15.543 -30.180  23.486  1.00  0.00     0.010 C 
BRANCH  14  16
ATOM     16  C   UNL     1      14.327 -30.549  21.320  1.00  0.00     0.002 C 
ATOM     17  C   UNL     1      13.142 -31.397  20.869  1.00  0.00     0.004 C 
ENDBRANCH  14  16
ENDBRANCH  12  14
ENDBRANCH   9  12
ENDBRANCH   7   8
BRANCH   7  18
ATOM     18  C   UNL     1      20.934 -29.890  21.493  1.00  0.00     0.073 C 
BRANCH  18  19
ATOM     19  C   UNL     1      21.463 -28.643  22.142  1.00  0.00    -0.016 A 
ATOM     20  C   UNL     1      22.257 -28.574  23.290  1.00  0.00     0.134 A 
ATOM     21  C   UNL     1      21.393 -27.351  21.650  1.00  0.00     0.006 A 
ATOM     22  N   UNL     1      22.627 -27.294  23.509  1.00  0.00    -0.191 N 
ATOM     23  C   UNL     1      22.111 -26.555  22.507  1.00  0.00     0.087 A 
ATOM     24  C   UNL     1      20.798 -26.840  20.493  1.00  0.00     0.011 A 
ATOM     25  C   UNL     1      22.300 -25.193  22.252  1.00  0.00     0.030 A 
ATOM     26  C   UNL     1      20.947 -25.466  20.229  1.00  0.00     0.001 A 
ATOM     27  C   UNL     1      21.692 -24.646  21.107  1.00  0.00     0.002 A 
BRANCH  22  28
ATOM     28  O   UNL     1      23.511 -26.877  24.480  1.00  0.00    -0.417 OA
ATOM     29  C   UNL     1      23.932 -27.754  25.518  1.00  0.00     0.313 C 
ENDBRANCH  22  28
ENDBRANCH  18  19
ENDBRANCH   7  18
ENDBRANCH   4   7
ENDBRANCH   2   3
BRANCH   2  30
ATOM     30  N   UNL     1      18.858 -34.746  23.669  1.00  0.00    -0.343 N 
ATOM     31  C   UNL     1      18.570 -35.835  22.780  1.00  0.00     0.243 C 
ATOM     32  H   UNL     1      18.165 -34.623  24.428  1.00  0.00     0.164 HD
ATOM     33  O   UNL     1      19.281 -36.876  22.815  1.00  0.00    -0.273 OA
BRANCH  31  34
ATOM     34  C   UNL     1      17.432 -35.723  21.803  1.00  0.00     0.174 C 
ATOM     35  N   UNL     1      17.326 -34.336  21.295  1.00  0.00    -0.329 N 
ATOM     36  C   UNL     1      17.578 -36.724  20.630  1.00  0.00     0.035 C 
ATOM     37  C   UNL     1      17.987 -34.046  20.017  1.00  0.00     0.120 C 
ATOM     38  C   UNL     1      16.785 -36.224  19.407  1.00  0.00     0.004 C 
ATOM     39  C   UNL     1      17.338 -34.878  18.904  1.00  0.00     0.022 C 
BRANCH  35  40
ATOM     40  C   UNL     1      16.256 -33.481  21.754  1.00  0.00     0.246 CG0
ATOM     41  O   UNL     1      15.224 -34.000  22.256  1.00  0.00    -0.272 OA
ATOM     42  G   UNL     1      16.427 -31.977  21.783  1.00  0.00     0.000 G0
ENDBRANCH  35  40
ENDBRANCH  31  34
ENDBRANCH   2  30
ENDBRANCH   1   2
BRANCH   1  43
ATOM     43  C   UNL     1      21.941 -35.933  24.950  1.00  0.00     0.003 C 
BRANCH  43  44
ATOM     44  C   UNL     1      23.398 -35.486  24.741  1.00  0.00     0.001 C 
BRANCH  44  45
ATOM     45  C   UNL     1      23.998 -34.654  25.884  1.00  0.00     0.008 C 
BRANCH  45  46
ATOM     46  C   UNL     1      24.825 -33.464  25.362  1.00  0.00     0.075 C 
BRANCH  46  47
ATOM     47  C   UNL     1      24.017 -32.300  24.818  1.00  0.00     0.132 C 
ATOM     48  O   UNL     1      23.204 -31.772  25.564  1.00  0.00    -0.300 OA
BRANCH  47  49
ATOM     49  C   UNL     1      24.208 -31.770  23.410  1.00  0.00     0.072 C 
ATOM     50  C   UNL     1      24.047 -32.851  22.334  1.00  0.00     0.012 C 
ENDBRANCH  47  49
ENDBRANCH  46  47
ENDBRANCH  45  46
ENDBRANCH  44  45
ENDBRANCH  43  44
ENDBRANCH   1  43
TORSDOF 12
ENDMDL
MODEL 7
REMARK VINA RESULT:    -6.801      2.748      7.697
REMARK INTER + INTRA:         -16.527
REMARK INTER:                 -14.411
REMARK INTRA:                  -2.116
REMARK UNBOUND:                -2.171
REMARK SMILES CCC(=O)CCCCC[C@H]1NC(=O)[C@@H]2CCCCN2C(=O)[C@@H]([C@@H](C)CC)NC(=O)[C@H](Cc2cn(OC)c3ccccc23)NC1=O
REMARK SMILES IDX 9 1 10 2 44 3 43 4 45 6 30 7 28 8 27 9 29 11 22 12 23 14
REMARK SMILES IDX 24 15 25 16 26 17 31 18 32 19 33 20 42 21 34 22 37 23 41 24
REMARK SMILES IDX 38 25 40 26 39 27 35 28 36 29 11 30 12 31 13 33 14 34 19 35
REMARK SMILES IDX 15 36 18 37 16 38 17 39 20 40 21 41 8 43 7 44 6 45 5 46 3 47
REMARK SMILES IDX 4 48 2 49 1 50
REMARK H PARENT 43 5 27 10 11 32
REMARK Flexibility Score: 80.00
ROOT
ATOM      1  C   UNL     1      19.090 -28.563  20.556  1.00  0.00     0.035 C 
ENDROOT
BRANCH   1   2
ATOM      2  C   UNL     1      18.355 -29.559  21.486  1.00  0.00     0.171 C 
BRANCH   2   3
ATOM      3  C   UNL     1      19.270 -30.710  21.805  1.00  0.00     0.243 C 
ATOM      4  N   UNL     1      19.119 -31.440  23.028  1.00  0.00    -0.342 N 
ATOM      5  H   UNL     1      18.556 -31.011  23.807  1.00  0.00     0.164 HD
ATOM      6  O   UNL     1      20.159 -31.051  20.973  1.00  0.00    -0.273 OA
BRANCH   4   7
ATOM      7  C   UNL     1      19.556 -32.833  23.126  1.00  0.00     0.175 C 
BRANCH   7   8
ATOM      8  C   UNL     1      18.479 -33.715  22.548  1.00  0.00     0.243 C 
ATOM      9  N   UNL     1      17.701 -33.274  21.422  1.00  0.00    -0.342 N 
ATOM     10  H   UNL     1      17.937 -32.350  20.984  1.00  0.00     0.164 HD
ATOM     11  O   UNL     1      18.238 -34.827  23.098  1.00  0.00    -0.273 OA
BRANCH   9  12
ATOM     12  C   UNL     1      16.468 -33.974  21.038  1.00  0.00     0.174 CG0
ATOM     13  G   UNL     1      15.294 -33.027  21.173  1.00  0.00     0.000 G0
BRANCH  12  14
ATOM     14  C   UNL     1      16.562 -34.657  19.636  1.00  0.00     0.018 C 
ATOM     15  C   UNL     1      17.841 -34.316  18.847  1.00  0.00     0.010 C 
BRANCH  14  16
ATOM     16  C   UNL     1      16.427 -36.200  19.719  1.00  0.00     0.002 C 
ATOM     17  C   UNL     1      17.702 -36.942  19.329  1.00  0.00     0.004 C 
ENDBRANCH  14  16
ENDBRANCH  12  14
ENDBRANCH   9  12
ENDBRANCH   7   8
BRANCH   7  18
ATOM     18  C   UNL     1      19.828 -33.218  24.587  1.00  0.00     0.073 C 
BRANCH  18  19
ATOM     19  C   UNL     1      20.403 -32.061  25.352  1.00  0.00    -0.016 A 
ATOM     20  C   UNL     1      19.749 -31.295  26.321  1.00  0.00     0.134 A 
ATOM     21  C   UNL     1      21.719 -31.631  25.352  1.00  0.00     0.006 A 
ATOM     22  N   UNL     1      20.617 -30.414  26.865  1.00  0.00    -0.191 N 
ATOM     23  C   UNL     1      21.814 -30.628  26.283  1.00  0.00     0.087 A 
ATOM     24  C   UNL     1      22.834 -32.087  24.642  1.00  0.00     0.011 A 
ATOM     25  C   UNL     1      23.040 -30.025  26.583  1.00  0.00     0.030 A 
ATOM     26  C   UNL     1      24.074 -31.475  24.903  1.00  0.00     0.001 A 
ATOM     27  C   UNL     1      24.175 -30.445  25.867  1.00  0.00     0.002 A 
BRANCH  22  28
ATOM     28  O   UNL     1      20.346 -29.589  27.934  1.00  0.00    -0.417 OA
ATOM     29  C   UNL     1      19.085 -28.945  28.067  1.00  0.00     0.313 C 
ENDBRANCH  22  28
ENDBRANCH  18  19
ENDBRANCH   7  18
ENDBRANCH   4   7
ENDBRANCH   2   3
BRANCH   2  30
ATOM     30  N   UNL     1      17.109 -30.079  20.902  1.00  0.00    -0.343 N 
ATOM     31  C   UNL     1      15.840 -29.611  21.381  1.00  0.00     0.243 C 
ATOM     32  H   UNL     1      17.091 -30.438  19.931  1.00  0.00     0.164 HD
ATOM     33  O   UNL     1      15.649 -28.375  21.539  1.00  0.00    -0.273 OA
BRANCH  31  34
ATOM     34  C   UNL     1      14.751 -30.598  21.703  1.00  0.00     0.174 C 
ATOM     35  N   UNL     1      15.337 -31.897  22.101  1.00  0.00    -0.329 N 
ATOM     36  C   UNL     1      13.800 -30.067  22.804  1.00  0.00     0.035 C 
ATOM     37  C   UNL     1      15.497 -32.139  23.540  1.00  0.00     0.120 C 
ATOM     38  C   UNL     1      13.097 -31.245  23.506  1.00  0.00     0.004 C 
ATOM     39  C   UNL     1      14.118 -32.155  24.212  1.00  0.00     0.022 C 
BRANCH  35  40
ATOM     40  C   UNL     1      15.289 -33.018  21.192  1.00  0.00     0.246 CG0
ATOM     41  O   UNL     1      14.309 -33.136  20.411  1.00  0.00    -0.272 OA
ATOM     42  G   UNL     1      16.470 -33.958  21.059  1.00  0.00     0.000 G0
ENDBRANCH  35  40
ENDBRANCH  31  34
ENDBRANCH   2  30
ENDBRANCH   1   2
BRANCH   1  43
ATOM     43  C   UNL     1      20.120 -27.633  21.224  1.00  0.00     0.003 C 
BRANCH  43  44
ATOM     44  C   UNL     1      20.030 -26.147  20.836  1.00  0.00     0.001 C 
BRANCH  44  45
ATOM     45  C   UNL     1      21.273 -25.578  20.136  1.00  0.00     0.008 C 
BRANCH  45  46
ATOM     46  C   UNL     1      22.519 -25.626  21.040  1.00  0.00     0.075 C 
BRANCH  46  47
ATOM     47  C   UNL     1      22.926 -24.300  21.657  1.00  0.00     0.132 C 
ATOM     48  O   UNL     1      23.574 -23.524  20.966  1.00  0.00    -0.300 OA
BRANCH  47  49
ATOM     49  C   UNL     1      22.534 -23.909  23.069  1.00  0.00     0.072 C 
ATOM     50  C   UNL     1      22.227 -22.414  23.214  1.00  0.00     0.012 C 
ENDBRANCH  47  49
ENDBRANCH  46  47
ENDBRANCH  45  46
ENDBRANCH  44  45
ENDBRANCH  43  44
ENDBRANCH   1  43
TORSDOF 12
ENDMDL
MODEL 8
REMARK VINA RESULT:    -6.799      2.535      7.889
REMARK INTER + INTRA:         -16.523
REMARK INTER:                 -13.805
REMARK INTRA:                  -2.718
REMARK UNBOUND:                -2.171
REMARK SMILES CCC(=O)CCCCC[C@H]1NC(=O)[C@@H]2CCCCN2C(=O)[C@@H]([C@@H](C)CC)NC(=O)[C@H](Cc2cn(OC)c3ccccc23)NC1=O
REMARK SMILES IDX 9 1 10 2 44 3 43 4 45 6 30 7 28 8 27 9 29 11 22 12 23 14
REMARK SMILES IDX 24 15 25 16 26 17 31 18 32 19 33 20 42 21 34 22 37 23 41 24
REMARK SMILES IDX 38 25 40 26 39 27 35 28 36 29 11 30 12 31 13 33 14 34 19 35
REMARK SMILES IDX 15 36 18 37 16 38 17 39 20 40 21 41 8 43 7 44 6 45 5 46 3 47
REMARK SMILES IDX 4 48 2 49 1 50
REMARK H PARENT 43 5 27 10 11 32
REMARK Flexibility Score: 80.00
ROOT
ATOM      1  C   UNL     1      20.320 -32.424  25.241  1.00  0.00     0.035 C 
ENDROOT
BRANCH   1   2
ATOM      2  C   UNL     1      20.668 -30.977  24.815  1.00  0.00     0.171 C 
BRANCH   2   3
ATOM      3  C   UNL     1      20.753 -30.907  23.315  1.00  0.00     0.243 C 
ATOM      4  N   UNL     1      19.590 -30.603  22.536  1.00  0.00    -0.342 N 
ATOM      5  H   UNL     1      18.643 -30.693  22.984  1.00  0.00     0.164 HD
ATOM      6  O   UNL     1      21.866 -31.090  22.742  1.00  0.00    -0.273 OA
BRANCH   4   7
ATOM      7  C   UNL     1      19.717 -29.983  21.215  1.00  0.00     0.175 C 
BRANCH   7   8
ATOM      8  C   UNL     1      20.347 -28.625  21.382  1.00  0.00     0.243 C 
ATOM      9  N   UNL     1      21.761 -28.499  21.607  1.00  0.00    -0.342 N 
ATOM     10  H   UNL     1      22.347 -29.371  21.599  1.00  0.00     0.164 HD
ATOM     11  O   UNL     1      19.607 -27.600  21.369  1.00  0.00    -0.273 OA
BRANCH   9  12
ATOM     12  C   UNL     1      22.342 -27.229  22.064  1.00  0.00     0.174 CG0
ATOM     13  G   UNL     1      23.203 -27.485  23.284  1.00  0.00     0.000 G0
BRANCH  12  14
ATOM     14  C   UNL     1      23.081 -26.449  20.929  1.00  0.00     0.018 C 
ATOM     15  C   UNL     1      22.974 -27.101  19.537  1.00  0.00     0.010 C 
BRANCH  14  16
ATOM     16  C   UNL     1      22.613 -24.974  20.824  1.00  0.00     0.002 C 
ATOM     17  C   UNL     1      23.624 -24.066  20.132  1.00  0.00     0.004 C 
ENDBRANCH  14  16
ENDBRANCH  12  14
ENDBRANCH   9  12
ENDBRANCH   7   8
BRANCH   7  18
ATOM     18  C   UNL     1      18.343 -29.850  20.542  1.00  0.00     0.073 C 
BRANCH  18  19
ATOM     19  C   UNL     1      17.368 -30.843  21.107  1.00  0.00    -0.016 A 
ATOM     20  C   UNL     1      16.256 -30.557  21.904  1.00  0.00     0.134 A 
ATOM     21  C   UNL     1      17.297 -32.196  20.827  1.00  0.00     0.006 A 
ATOM     22  N   UNL     1      15.556 -31.690  22.129  1.00  0.00    -0.191 N 
ATOM     23  C   UNL     1      16.183 -32.682  21.465  1.00  0.00     0.087 A 
ATOM     24  C   UNL     1      18.097 -33.010  20.020  1.00  0.00     0.011 A 
ATOM     25  C   UNL     1      15.782 -34.013  21.322  1.00  0.00     0.030 A 
ATOM     26  C   UNL     1      17.732 -34.363  19.884  1.00  0.00     0.001 A 
ATOM     27  C   UNL     1      16.582 -34.863  20.536  1.00  0.00     0.002 A 
BRANCH  22  28
ATOM     28  O   UNL     1      14.338 -31.758  22.771  1.00  0.00    -0.417 OA
ATOM     29  C   UNL     1      13.896 -30.709  23.624  1.00  0.00     0.313 C 
ENDBRANCH  22  28
ENDBRANCH  18  19
ENDBRANCH   7  18
ENDBRANCH   4   7
ENDBRANCH   2   3
BRANCH   2  30
ATOM     30  N   UNL     1      21.932 -30.496  25.394  1.00  0.00    -0.343 N 
ATOM     31  C   UNL     1      21.989 -29.209  26.027  1.00  0.00     0.243 C 
ATOM     32  H   UNL     1      22.649 -31.165  25.726  1.00  0.00     0.164 HD
ATOM     33  O   UNL     1      21.093 -28.875  26.848  1.00  0.00    -0.273 OA
BRANCH  31  34
ATOM     34  C   UNL     1      23.111 -28.262  25.697  1.00  0.00     0.174 C 
ATOM     35  N   UNL     1      22.697 -27.329  24.625  1.00  0.00    -0.329 N 
ATOM     36  C   UNL     1      23.592 -27.482  26.945  1.00  0.00     0.035 C 
ATOM     37  C   UNL     1      22.187 -26.019  25.049  1.00  0.00     0.120 C 
ATOM     38  C   UNL     1      24.280 -26.172  26.516  1.00  0.00     0.004 C 
ATOM     39  C   UNL     1      23.296 -25.248  25.776  1.00  0.00     0.022 C 
BRANCH  35  40
ATOM     40  C   UNL     1      23.214 -27.493  23.287  1.00  0.00     0.246 CG0
ATOM     41  O   UNL     1      24.355 -28.000  23.125  1.00  0.00    -0.272 OA
ATOM     42  G   UNL     1      22.343 -27.210  22.081  1.00  0.00     0.000 G0
ENDBRANCH  35  40
ENDBRANCH  31  34
ENDBRANCH   2  30
ENDBRANCH   1   2
BRANCH   1  43
ATOM     43  C   UNL     1      18.875 -32.670  25.713  1.00  0.00     0.003 C 
BRANCH  43  44
ATOM     44  C   UNL     1      17.877 -33.093  24.621  1.00  0.00     0.001 C 
BRANCH  44  45
ATOM     45  C   UNL     1      17.389 -34.546  24.708  1.00  0.00     0.008 C 
BRANCH  45  46
ATOM     46  C   UNL     1      17.637 -35.158  26.100  1.00  0.00     0.075 C 
BRANCH  46  47
ATOM     47  C   UNL     1      17.903 -36.652  26.116  1.00  0.00     0.132 C 
ATOM     48  O   UNL     1      18.495 -37.136  25.160  1.00  0.00    -0.300 OA
BRANCH  47  49
ATOM     49  C   UNL     1      17.484 -37.537  27.273  1.00  0.00     0.072 C 
ATOM     50  C   UNL     1      15.971 -37.777  27.329  1.00  0.00     0.012 C 
ENDBRANCH  47  49
ENDBRANCH  46  47
ENDBRANCH  45  46
ENDBRANCH  44  45
ENDBRANCH  43  44
ENDBRANCH   1  43
TORSDOF 12
ENDMDL
MODEL 9
REMARK VINA RESULT:    -6.687      2.479      7.665
REMARK INTER + INTRA:         -16.286
REMARK INTER:                 -13.565
REMARK INTRA:                  -2.720
REMARK UNBOUND:                -2.171
REMARK SMILES CCC(=O)CCCCC[C@H]1NC(=O)[C@@H]2CCCCN2C(=O)[C@@H]([C@@H](C)CC)NC(=O)[C@H](Cc2cn(OC)c3ccccc23)NC1=O
REMARK SMILES IDX 9 1 10 2 44 3 43 4 45 6 30 7 28 8 27 9 29 11 22 12 23 14
REMARK SMILES IDX 24 15 25 16 26 17 31 18 32 19 33 20 42 21 34 22 37 23 41 24
REMARK SMILES IDX 38 25 40 26 39 27 35 28 36 29 11 30 12 31 13 33 14 34 19 35
REMARK SMILES IDX 15 36 18 37 16 38 17 39 20 40 21 41 8 43 7 44 6 45 5 46 3 47
REMARK SMILES IDX 4 48 2 49 1 50
REMARK H PARENT 43 5 27 10 11 32
REMARK Flexibility Score: 80.00
ROOT
ATOM      1  C   UNL     1      20.129 -32.913  25.177  1.00  0.00     0.035 C 
ENDROOT
BRANCH   1   2
ATOM      2  C   UNL     1      20.581 -31.462  24.881  1.00  0.00     0.171 C 
BRANCH   2   3
ATOM      3  C   UNL     1      20.784 -31.296  23.400  1.00  0.00     0.243 C 
ATOM      4  N   UNL     1      19.696 -30.897  22.558  1.00  0.00    -0.342 N 
ATOM      5  H   UNL     1      18.714 -30.980  22.927  1.00  0.00     0.164 HD
ATOM      6  O   UNL     1      21.931 -31.484  22.901  1.00  0.00    -0.273 OA
BRANCH   4   7
ATOM      7  C   UNL     1      19.945 -30.197  21.296  1.00  0.00     0.175 C 
BRANCH   7   8
ATOM      8  C   UNL     1      20.497 -28.830  21.608  1.00  0.00     0.243 C 
ATOM      9  N   UNL     1      21.877 -28.667  21.977  1.00  0.00    -0.342 N 
ATOM     10  H   UNL     1      22.498 -29.513  21.972  1.00  0.00     0.164 HD
ATOM     11  O   UNL     1      19.717 -27.836  21.587  1.00  0.00    -0.273 OA
BRANCH   9  12
ATOM     12  C   UNL     1      22.356 -27.409  22.567  1.00  0.00     0.174 CG0
ATOM     13  G   UNL     1      23.402 -27.718  23.617  1.00  0.00     0.000 G0
BRANCH  12  14
ATOM     14  C   UNL     1      22.828 -26.372  21.498  1.00  0.00     0.018 C 
ATOM     15  C   UNL     1      22.898 -26.925  20.062  1.00  0.00     0.010 C 
BRANCH  14  16
ATOM     16  C   UNL     1      21.957 -25.088  21.493  1.00  0.00     0.002 C 
ATOM     17  C   UNL     1      22.015 -24.312  22.805  1.00  0.00     0.004 C 
ENDBRANCH  14  16
ENDBRANCH  12  14
ENDBRANCH   9  12
ENDBRANCH   7   8
BRANCH   7  18
ATOM     18  C   UNL     1      18.652 -30.072  20.478  1.00  0.00     0.073 C 
BRANCH  18  19
ATOM     19  C   UNL     1      17.637 -31.089  20.916  1.00  0.00    -0.016 A 
ATOM     20  C   UNL     1      17.665 -32.461  20.654  1.00  0.00     0.134 A 
ATOM     21  C   UNL     1      16.571 -30.888  21.776  1.00  0.00     0.006 A 
ATOM     22  N   UNL     1      16.645 -33.067  21.298  1.00  0.00    -0.191 N 
ATOM     23  C   UNL     1      15.988 -32.112  21.988  1.00  0.00     0.087 A 
ATOM     24  C   UNL     1      16.116 -29.734  22.421  1.00  0.00     0.011 A 
ATOM     25  C   UNL     1      14.920 -32.269  22.876  1.00  0.00     0.030 A 
ATOM     26  C   UNL     1      15.022 -29.858  23.297  1.00  0.00     0.001 A 
ATOM     27  C   UNL     1      14.424 -31.120  23.520  1.00  0.00     0.002 A 
BRANCH  22  28
ATOM     28  O   UNL     1      16.442 -34.429  21.363  1.00  0.00    -0.417 OA
ATOM     29  C   UNL     1      16.036 -35.169  20.219  1.00  0.00     0.313 C 
ENDBRANCH  22  28
ENDBRANCH  18  19
ENDBRANCH   7  18
ENDBRANCH   4   7
ENDBRANCH   2   3
BRANCH   2  30
ATOM     30  N   UNL     1      21.819 -31.091  25.584  1.00  0.00    -0.343 N 
ATOM     31  C   UNL     1      22.002 -29.749  26.059  1.00  0.00     0.243 C 
ATOM     32  H   UNL     1      22.367 -31.802  26.099  1.00  0.00     0.164 HD
ATOM     33  O   UNL     1      21.072 -29.176  26.688  1.00  0.00    -0.273 OA
BRANCH  31  34
ATOM     34  C   UNL     1      23.297 -29.031  25.792  1.00  0.00     0.174 C 
ATOM     35  N   UNL     1      23.048 -27.792  25.022  1.00  0.00    -0.329 N 
ATOM     36  C   UNL     1      24.060 -28.716  27.102  1.00  0.00     0.035 C 
ATOM     37  C   UNL     1      22.924 -26.548  25.791  1.00  0.00     0.120 C 
ATOM     38  C   UNL     1      25.022 -27.532  26.881  1.00  0.00     0.004 C 
ATOM     39  C   UNL     1      24.248 -26.255  26.508  1.00  0.00     0.022 C 
BRANCH  35  40
ATOM     40  C   UNL     1      23.395 -27.732  23.622  1.00  0.00     0.246 CG0
ATOM     41  O   UNL     1      24.545 -28.093  23.256  1.00  0.00    -0.272 OA
ATOM     42  G   UNL     1      22.350 -27.392  22.579  1.00  0.00     0.000 G0
ENDBRANCH  35  40
ENDBRANCH  31  34
ENDBRANCH   2  30
ENDBRANCH   1   2
BRANCH   1  43
ATOM     43  C   UNL     1      18.753 -33.328  24.623  1.00  0.00     0.003 C 
BRANCH  43  44
ATOM     44  C   UNL     1      17.674 -33.640  25.674  1.00  0.00     0.001 C 
BRANCH  44  45
ATOM     45  C   UNL     1      16.816 -34.879  25.382  1.00  0.00     0.008 C 
BRANCH  45  46
ATOM     46  C   UNL     1      17.668 -36.156  25.250  1.00  0.00     0.075 C 
BRANCH  46  47
ATOM     47  C   UNL     1      17.831 -36.963  26.526  1.00  0.00     0.132 C 
ATOM     48  O   UNL     1      18.939 -36.991  27.045  1.00  0.00    -0.300 OA
BRANCH  47  49
ATOM     49  C   UNL     1      16.673 -37.697  27.173  1.00  0.00     0.072 C 
ATOM     50  C   UNL     1      16.151 -37.000  28.435  1.00  0.00     0.012 C 
ENDBRANCH  47  49
ENDBRANCH  46  47
ENDBRANCH  45  46
ENDBRANCH  44  45
ENDBRANCH  43  44
ENDBRANCH   1  43
TORSDOF 12
ENDMDL
