MODEL 1
REMARK VINA RESULT:    71.359      0.000      0.000
REMARK INTER + INTRA:         154.190
REMARK INTER:                 150.621
REMARK INTRA:                   3.569
REMARK UNBOUND:                 3.569
REMARK SMILES CCC(=O)CCCCC[C@@H]1NC(=O)[C@@H]2CCCCN2C(=O)[C@@H]([C@@H](C)CC)NC(=O)[C@@H](Cc2cn(OC)c3ccccc23)NC1=O
REMARK SMILES IDX 9 1 10 2 44 3 43 4 45 6 30 7 28 8 27 9 29 11 22 12 23 14
REMARK SMILES IDX 24 15 25 16 26 17 31 18 32 19 33 20 42 21 34 22 37 23 41 24
REMARK SMILES IDX 38 25 40 26 39 27 35 28 36 29 11 30 12 31 13 33 14 34 19 35
REMARK SMILES IDX 15 36 18 37 16 38 17 39 20 40 21 41 8 43 7 44 6 45 5 46 3 47
REMARK SMILES IDX 4 48 2 49 1 50
REMARK H PARENT 43 5 27 10 11 32
REMARK Flexibility Score: 80.00
ROOT
ATOM      1  C   UNL     1      -0.554 -17.236  24.762  1.00  0.00     0.035 C 
ENDROOT
BRANCH   1   2
ATOM      2  C   UNL     1      -1.333 -17.963  25.879  1.00  0.00     0.171 C 
BRANCH   2   3
ATOM      3  C   UNL     1      -2.709 -17.376  26.069  1.00  0.00     0.243 C 
ATOM      4  N   UNL     1      -3.841 -18.233  26.253  1.00  0.00    -0.342 N 
ATOM      5  H   UNL     1      -3.668 -19.176  26.674  1.00  0.00     0.164 HD
ATOM      6  O   UNL     1      -2.877 -16.129  25.985  1.00  0.00    -0.273 OA
BRANCH   4   7
ATOM      7  C   UNL     1      -5.029 -18.063  25.413  1.00  0.00     0.175 C 
BRANCH   7   8
ATOM      8  C   UNL     1      -4.733 -18.625  24.049  1.00  0.00     0.243 C 
ATOM      9  N   UNL     1      -3.545 -19.400  23.814  1.00  0.00    -0.342 N 
ATOM     10  H   UNL     1      -2.768 -19.298  24.506  1.00  0.00     0.164 HD
ATOM     11  O   UNL     1      -5.547 -18.410  23.121  1.00  0.00    -0.273 OA
BRANCH   9  12
ATOM     12  C   UNL     1      -3.465 -20.532  22.875  1.00  0.00     0.174 CG0
ATOM     13  G   UNL     1      -2.060 -21.132  22.903  1.00  0.00     0.000 G0
BRANCH  12  14
ATOM     14  C   UNL     1      -4.749 -21.441  22.977  1.00  0.00     0.018 C 
ATOM     15  C   UNL     1      -4.974 -22.304  21.713  1.00  0.00     0.010 C 
BRANCH  14  16
ATOM     16  C   UNL     1      -4.890 -22.292  24.266  1.00  0.00     0.002 C 
ATOM     17  C   UNL     1      -4.777 -23.796  23.995  1.00  0.00     0.004 C 
ENDBRANCH  14  16
ENDBRANCH  12  14
ENDBRANCH   9  12
ENDBRANCH   7   8
BRANCH   7  18
ATOM     18  C   UNL     1      -6.237 -18.771  26.052  1.00  0.00     0.073 C 
BRANCH  18  19
ATOM     19  C   UNL     1      -7.240 -17.779  26.568  1.00  0.00    -0.016 A 
ATOM     20  C   UNL     1      -7.394 -16.467  26.125  1.00  0.00     0.134 A 
ATOM     21  C   UNL     1      -8.285 -18.010  27.449  1.00  0.00     0.006 A 
ATOM     22  N   UNL     1      -8.474 -15.908  26.721  1.00  0.00    -0.191 N 
ATOM     23  C   UNL     1      -9.013 -16.847  27.518  1.00  0.00     0.087 A 
ATOM     24  C   UNL     1      -8.669 -19.157  28.147  1.00  0.00     0.011 A 
ATOM     25  C   UNL     1     -10.170 -16.749  28.291  1.00  0.00     0.030 A 
ATOM     26  C   UNL     1      -9.834 -19.088  28.933  1.00  0.00     0.001 A 
ATOM     27  C   UNL     1     -10.580 -17.890  29.005  1.00  0.00     0.002 A 
BRANCH  22  28
ATOM     28  O   UNL     1      -8.971 -14.631  26.535  1.00  0.00    -0.417 OA
ATOM     29  C   UNL     1     -10.360 -14.338  26.625  1.00  0.00     0.313 C 
ENDBRANCH  22  28
ENDBRANCH  18  19
ENDBRANCH   7  18
ENDBRANCH   4   7
ENDBRANCH   2   3
BRANCH   2  30
ATOM     30  N   UNL     1      -1.472 -19.383  25.534  1.00  0.00    -0.343 N 
ATOM     31  C   UNL     1      -0.369 -20.214  25.122  1.00  0.00     0.243 C 
ATOM     32  H   UNL     1      -2.399 -19.826  25.720  1.00  0.00     0.164 HD
ATOM     33  O   UNL     1       0.756 -19.694  24.894  1.00  0.00    -0.273 OA
BRANCH  31  34
ATOM     34  C   UNL     1      -0.533 -21.710  24.908  1.00  0.00     0.174 C 
ATOM     35  N   UNL     1      -1.494 -22.068  23.838  1.00  0.00    -0.329 N 
ATOM     36  C   UNL     1       0.826 -22.394  24.659  1.00  0.00     0.035 C 
ATOM     37  C   UNL     1      -1.671 -23.499  23.547  1.00  0.00     0.120 C 
ATOM     38  C   UNL     1       0.645 -23.901  24.467  1.00  0.00     0.004 C 
ATOM     39  C   UNL     1      -0.318 -24.174  23.307  1.00  0.00     0.022 C 
BRANCH  35  40
ATOM     40  C   UNL     1      -2.009 -21.107  22.900  1.00  0.00     0.246 CG0
ATOM     41  O   UNL     1      -1.284 -20.785  21.919  1.00  0.00    -0.272 OA
ATOM     42  G   UNL     1      -3.427 -20.539  22.941  1.00  0.00     0.000 G0
ENDBRANCH  35  40
ENDBRANCH  31  34
ENDBRANCH   2  30
ENDBRANCH   1   2
BRANCH   1  43
ATOM     43  C   UNL     1      -0.610 -17.936  23.393  1.00  0.00     0.003 C 
BRANCH  43  44
ATOM     44  C   UNL     1       0.506 -17.482  22.440  1.00  0.00     0.001 C 
BRANCH  44  45
ATOM     45  C   UNL     1       1.483 -18.635  22.156  1.00  0.00     0.008 C 
BRANCH  45  46
ATOM     46  C   UNL     1       2.319 -19.010  23.386  1.00  0.00     0.075 C 
BRANCH  46  47
ATOM     47  C   UNL     1       3.300 -20.113  23.086  1.00  0.00     0.132 C 
ATOM     48  O   UNL     1       3.217 -20.723  22.031  1.00  0.00    -0.300 OA
BRANCH  47  49
ATOM     49  C   UNL     1       4.379 -20.475  24.070  1.00  0.00     0.072 C 
ATOM     50  C   UNL     1       5.300 -21.549  23.500  1.00  0.00     0.012 C 
ENDBRANCH  47  49
ENDBRANCH  46  47
ENDBRANCH  45  46
ENDBRANCH  44  45
ENDBRANCH  43  44
ENDBRANCH   1  43
TORSDOF 12
ENDMDL
