MODEL 1
REMARK VINA RESULT:    -2.349      0.000      0.000
REMARK INTER + INTRA:          -3.474
REMARK INTER:                  -3.242
REMARK INTRA:                  -0.232
REMARK UNBOUND:                -0.232
REMARK SMILES CC[C@@H](CC[C@@H](C)[C@@H]1CC[C@@H]2[C@H]3CC=C4C[C@@H](O)CC[C@]4(C)[C@H]3CC[C@@]21C)C(C)C
REMARK SMILES IDX 5 1 4 2 3 3 2 4 1 5 28 6 29 7 30 8 6 9 7 10 8 11 9 12 26 13
REMARK SMILES IDX 10 14 11 15 25 16 27 17 12 18 24 19 23 20 13 21 21 22 14 23
REMARK SMILES IDX 15 24 20 25 22 26 16 27 19 28 17 29 18 30
REMARK H PARENT 18 31
REMARK Flexibility Score: inf
ROOT
ATOM      1  C   UNL     1      28.241  32.884  23.443  1.00  0.00     0.004 C 
ENDROOT
BRANCH   1   2
ATOM      2  C   UNL     1      29.063  34.057  22.866  1.00  0.00     0.004 C 
BRANCH   2   3
ATOM      3  C   UNL     1      28.281  35.390  22.693  1.00  0.00    -0.009 C 
BRANCH   3   4
ATOM      4  C   UNL     1      26.980  35.368  23.541  1.00  0.00     0.000 C 
ATOM      5  C   UNL     1      27.225  35.624  25.028  1.00  0.00     0.004 C 
ENDBRANCH   3   4
BRANCH   3   6
ATOM      6  C   UNL     1      28.023  35.906  21.218  1.00  0.00    -0.014 C 
ATOM      7  C   UNL     1      28.612  35.064  20.078  1.00  0.00     0.007 C 
ATOM      8  C   UNL     1      28.516  37.356  21.066  1.00  0.00     0.007 C 
ENDBRANCH   3   6
ENDBRANCH   2   3
ENDBRANCH   1   2
BRANCH   1   9
ATOM      9  C   UNL     1      28.321  31.560  22.633  1.00  0.00    -0.011 C 
ATOM     10  C   UNL     1      29.124  31.789  21.339  1.00  0.00     0.008 C 
BRANCH   9  11
ATOM     11  C   UNL     1      28.856  30.419  23.574  1.00  0.00    -0.002 C 
ATOM     12  C   UNL     1      28.825  29.014  22.981  1.00  0.00     0.005 C 
ATOM     13  C   UNL     1      28.361  30.250  25.046  1.00  0.00    -0.026 C 
ATOM     14  C   UNL     1      29.124  28.076  24.142  1.00  0.00     0.005 C 
ATOM     15  C   UNL     1      29.095  28.929  25.428  1.00  0.00    -0.001 C 
ATOM     16  C   UNL     1      26.816  30.094  25.183  1.00  0.00     0.007 C 
ATOM     17  C   UNL     1      28.843  31.459  25.882  1.00  0.00     0.012 C 
ATOM     18  C   UNL     1      28.530  28.115  26.619  1.00  0.00     0.000 C 
ATOM     19  C   UNL     1      26.352  29.375  26.457  1.00  0.00     0.005 C 
ATOM     20  C   UNL     1      26.992  27.973  26.558  1.00  0.00     0.003 C 
ATOM     21  C   UNL     1      28.976  28.677  27.981  1.00  0.00     0.031 C 
ATOM     22  C   UNL     1      26.458  27.033  27.717  1.00  0.00    -0.008 C 
ATOM     23  C   UNL     1      28.417  27.860  29.108  1.00  0.00    -0.027 C 
ATOM     24  C   UNL     1      27.243  27.189  29.035  1.00  0.00    -0.065 C 
ATOM     25  C   UNL     1      26.621  25.539  27.264  1.00  0.00     0.014 C 
ATOM     26  C   UNL     1      24.955  27.304  27.980  1.00  0.00     0.016 C 
ATOM     27  C   UNL     1      26.911  26.221  30.147  1.00  0.00     0.063 C 
ATOM     28  C   UNL     1      26.343  24.500  28.367  1.00  0.00     0.033 C 
ATOM     29  C   UNL     1      27.160  24.794  29.645  1.00  0.00     0.118 C 
BRANCH  29  30
ATOM     30  O   UNL     1      26.821  23.876  30.646  1.00  0.00    -0.393 OA
ATOM     31  H   UNL     1      25.996  23.417  30.336  1.00  0.00     0.210 HD
ENDBRANCH  29  30
ENDBRANCH   9  11
ENDBRANCH   1   9
TORSDOF 7
ENDMDL
