MODEL 1
REMARK VINA RESULT:    -5.577      0.000      0.000
REMARK INTER + INTRA:          -9.955
REMARK INTER:                  -7.697
REMARK INTRA:                  -2.258
REMARK UNBOUND:                -2.258
REMARK SMILES CC[C@H](CC[C@H](C)[C@H]1CC[C@H]2[C@H]3CC=C4C[C@@H](O)CC[C@]4(C)[C@@H]3CC[C@]12C)C(C)C
REMARK SMILES IDX 5 1 4 2 3 3 2 4 1 5 28 6 29 7 30 8 6 9 7 10 8 11 9 12 26 13
REMARK SMILES IDX 10 14 11 15 25 16 27 17 12 18 24 19 23 20 13 21 21 22 14 23
REMARK SMILES IDX 15 24 20 25 22 26 16 27 19 28 17 29 18 30
REMARK H PARENT 18 31
REMARK Flexibility Score: inf
ROOT
ATOM      1  C   UNL     1     137.596 137.855 143.382  1.00  0.00     0.004 C 
ENDROOT
BRANCH   1   2
ATOM      2  C   UNL     1     139.021 137.468 143.848  1.00  0.00     0.004 C 
BRANCH   2   3
ATOM      3  C   UNL     1     139.968 137.011 142.702  1.00  0.00    -0.009 C 
BRANCH   3   4
ATOM      4  C   UNL     1     140.789 138.236 142.208  1.00  0.00     0.000 C 
ATOM      5  C   UNL     1     142.258 138.228 142.626  1.00  0.00     0.004 C 
ENDBRANCH   3   4
BRANCH   3   6
ATOM      6  C   UNL     1     140.819 135.763 143.138  1.00  0.00    -0.014 C 
ATOM      7  C   UNL     1     140.816 134.614 142.116  1.00  0.00     0.007 C 
ATOM      8  C   UNL     1     140.442 135.243 144.539  1.00  0.00     0.007 C 
ENDBRANCH   3   6
ENDBRANCH   2   3
ENDBRANCH   1   2
BRANCH   1   9
ATOM      9  C   UNL     1     136.540 136.716 143.428  1.00  0.00    -0.011 C 
ATOM     10  C   UNL     1     135.811 136.693 144.783  1.00  0.00     0.008 C 
BRANCH   9  11
ATOM     11  C   UNL     1     137.107 135.326 142.948  1.00  0.00    -0.002 C 
ATOM     12  C   UNL     1     136.685 134.052 143.742  1.00  0.00     0.005 C 
ATOM     13  C   UNL     1     136.841 134.944 141.460  1.00  0.00    -0.026 C 
ATOM     14  C   UNL     1     136.749 132.873 142.755  1.00  0.00     0.005 C 
ATOM     15  C   UNL     1     137.322 133.485 141.483  1.00  0.00    -0.001 C 
ATOM     16  C   UNL     1     137.694 135.753 140.422  1.00  0.00     0.007 C 
ATOM     17  C   UNL     1     135.316 135.069 141.140  1.00  0.00     0.012 C 
ATOM     18  C   UNL     1     137.252 132.717 140.137  1.00  0.00     0.000 C 
ATOM     19  C   UNL     1     138.313 134.884 139.285  1.00  0.00     0.005 C 
ATOM     20  C   UNL     1     137.414 133.671 138.921  1.00  0.00     0.003 C 
ATOM     21  C   UNL     1     136.023 131.840 139.888  1.00  0.00     0.031 C 
ATOM     22  C   UNL     1     137.802 132.857 137.631  1.00  0.00    -0.008 C 
ATOM     23  C   UNL     1     136.212 131.092 138.589  1.00  0.00    -0.027 C 
ATOM     24  C   UNL     1     137.021 131.522 137.582  1.00  0.00    -0.065 C 
ATOM     25  C   UNL     1     139.329 132.535 137.597  1.00  0.00     0.014 C 
ATOM     26  C   UNL     1     137.421 133.702 136.386  1.00  0.00     0.016 C 
ATOM     27  C   UNL     1     137.375 130.555 136.476  1.00  0.00     0.063 C 
ATOM     28  C   UNL     1     139.723 131.534 136.490  1.00  0.00     0.033 C 
ATOM     29  C   UNL     1     138.876 130.246 136.553  1.00  0.00     0.118 C 
BRANCH  29  30
ATOM     30  O   UNL     1     139.253 129.354 135.534  1.00  0.00    -0.393 OA
ATOM     31  H   UNL     1     138.763 128.503 135.678  1.00  0.00     0.210 HD
ENDBRANCH  29  30
ENDBRANCH   9  11
ENDBRANCH   1   9
TORSDOF 7
ENDMDL
MODEL 2
REMARK VINA RESULT:    -5.457      4.085      9.665
REMARK INTER + INTRA:          -9.789
REMARK INTER:                  -7.839
REMARK INTRA:                  -1.950
REMARK UNBOUND:                -2.258
REMARK SMILES CC[C@H](CC[C@H](C)[C@H]1CC[C@H]2[C@H]3CC=C4C[C@@H](O)CC[C@]4(C)[C@@H]3CC[C@]12C)C(C)C
REMARK SMILES IDX 5 1 4 2 3 3 2 4 1 5 28 6 29 7 30 8 6 9 7 10 8 11 9 12 26 13
REMARK SMILES IDX 10 14 11 15 25 16 27 17 12 18 24 19 23 20 13 21 21 22 14 23
REMARK SMILES IDX 15 24 20 25 22 26 16 27 19 28 17 29 18 30
REMARK H PARENT 18 31
REMARK Flexibility Score: inf
ROOT
ATOM      1  C   UNL     1     138.611 130.073 130.371  1.00  0.00     0.004 C 
ENDROOT
BRANCH   1   2
ATOM      2  C   UNL     1     138.392 131.605 130.388  1.00  0.00     0.004 C 
BRANCH   2   3
ATOM      3  C   UNL     1     139.515 132.405 131.106  1.00  0.00    -0.009 C 
BRANCH   3   4
ATOM      4  C   UNL     1     140.796 132.379 130.225  1.00  0.00     0.000 C 
ATOM      5  C   UNL     1     141.878 131.411 130.703  1.00  0.00     0.004 C 
ENDBRANCH   3   4
BRANCH   3   6
ATOM      6  C   UNL     1     139.013 133.836 131.519  1.00  0.00    -0.014 C 
ATOM      7  C   UNL     1     137.827 133.828 132.497  1.00  0.00     0.007 C 
ATOM      8  C   UNL     1     138.706 134.734 130.304  1.00  0.00     0.007 C 
ENDBRANCH   3   6
ENDBRANCH   2   3
ENDBRANCH   1   2
BRANCH   1   9
ATOM      9  C   UNL     1     137.704 129.252 131.329  1.00  0.00    -0.011 C 
ATOM     10  C   UNL     1     136.886 128.204 130.554  1.00  0.00     0.008 C 
BRANCH   9  11
ATOM     11  C   UNL     1     136.872 130.154 132.319  1.00  0.00    -0.002 C 
ATOM     12  C   UNL     1     135.319 130.012 132.305  1.00  0.00     0.005 C 
ATOM     13  C   UNL     1     137.243 130.053 133.829  1.00  0.00    -0.026 C 
ATOM     14  C   UNL     1     134.827 130.398 133.711  1.00  0.00     0.005 C 
ATOM     15  C   UNL     1     136.086 130.866 134.430  1.00  0.00    -0.001 C 
ATOM     16  C   UNL     1     138.604 130.735 134.207  1.00  0.00     0.007 C 
ATOM     17  C   UNL     1     137.228 128.559 134.286  1.00  0.00     0.012 C 
ATOM     18  C   UNL     1     136.096 131.041 135.971  1.00  0.00     0.000 C 
ATOM     19  C   UNL     1     138.551 131.593 135.508  1.00  0.00     0.005 C 
ATOM     20  C   UNL     1     137.541 131.025 136.543  1.00  0.00     0.003 C 
ATOM     21  C   UNL     1     135.251 130.068 136.797  1.00  0.00     0.031 C 
ATOM     22  C   UNL     1     137.568 131.653 137.985  1.00  0.00    -0.008 C 
ATOM     23  C   UNL     1     135.303 130.488 138.247  1.00  0.00    -0.027 C 
ATOM     24  C   UNL     1     136.319 131.215 138.786  1.00  0.00    -0.065 C 
ATOM     25  C   UNL     1     137.595 133.213 137.929  1.00  0.00     0.014 C 
ATOM     26  C   UNL     1     138.836 131.138 138.719  1.00  0.00     0.016 C 
ATOM     27  C   UNL     1     136.119 131.838 140.149  1.00  0.00     0.063 C 
ATOM     28  C   UNL     1     137.374 133.883 139.302  1.00  0.00     0.033 C 
ATOM     29  C   UNL     1     136.096 133.364 139.994  1.00  0.00     0.118 C 
BRANCH  29  30
ATOM     30  O   UNL     1     135.920 133.987 141.242  1.00  0.00    -0.393 OA
ATOM     31  H   UNL     1     136.815 134.263 141.573  1.00  0.00     0.210 HD
ENDBRANCH  29  30
ENDBRANCH   9  11
ENDBRANCH   1   9
TORSDOF 7
ENDMDL
MODEL 3
REMARK VINA RESULT:    -5.436     10.471     14.563
REMARK INTER + INTRA:          -9.760
REMARK INTER:                  -7.414
REMARK INTRA:                  -2.346
REMARK UNBOUND:                -2.258
REMARK SMILES CC[C@H](CC[C@H](C)[C@H]1CC[C@H]2[C@H]3CC=C4C[C@@H](O)CC[C@]4(C)[C@@H]3CC[C@]12C)C(C)C
REMARK SMILES IDX 5 1 4 2 3 3 2 4 1 5 28 6 29 7 30 8 6 9 7 10 8 11 9 12 26 13
REMARK SMILES IDX 10 14 11 15 25 16 27 17 12 18 24 19 23 20 13 21 21 22 14 23
REMARK SMILES IDX 15 24 20 25 22 26 16 27 19 28 17 29 18 30
REMARK H PARENT 18 31
REMARK Flexibility Score: inf
ROOT
ATOM      1  C   UNL     1     132.190 124.828 136.629  1.00  0.00     0.004 C 
ENDROOT
BRANCH   1   2
ATOM      2  C   UNL     1     130.945 125.745 136.571  1.00  0.00     0.004 C 
BRANCH   2   3
ATOM      3  C   UNL     1     131.159 127.156 137.188  1.00  0.00    -0.009 C 
BRANCH   3   4
ATOM      4  C   UNL     1     130.025 127.437 138.213  1.00  0.00     0.000 C 
ATOM      5  C   UNL     1     128.783 126.564 138.043  1.00  0.00     0.004 C 
ENDBRANCH   3   4
BRANCH   3   6
ATOM      6  C   UNL     1     132.621 127.313 137.744  1.00  0.00    -0.014 C 
ATOM      7  C   UNL     1     132.689 127.711 139.228  1.00  0.00     0.007 C 
ATOM      8  C   UNL     1     133.487 128.259 136.889  1.00  0.00     0.007 C 
ENDBRANCH   3   6
ENDBRANCH   2   3
ENDBRANCH   1   2
BRANCH   1   9
ATOM      9  C   UNL     1     131.986 123.458 137.334  1.00  0.00    -0.011 C 
ATOM     10  C   UNL     1     132.281 122.293 136.374  1.00  0.00     0.008 C 
BRANCH   9  11
ATOM     11  C   UNL     1     130.617 123.358 138.109  1.00  0.00    -0.002 C 
ATOM     12  C   UNL     1     129.660 122.180 137.751  1.00  0.00     0.005 C 
ATOM     13  C   UNL     1     130.701 123.313 139.665  1.00  0.00    -0.026 C 
ATOM     14  C   UNL     1     128.824 121.891 139.011  1.00  0.00     0.005 C 
ATOM     15  C   UNL     1     129.235 122.984 139.989  1.00  0.00    -0.001 C 
ATOM     16  C   UNL     1     131.084 124.680 140.332  1.00  0.00     0.007 C 
ATOM     17  C   UNL     1     131.683 122.184 140.115  1.00  0.00     0.012 C 
ATOM     18  C   UNL     1     128.872 122.876 141.492  1.00  0.00     0.000 C 
ATOM     19  C   UNL     1     130.228 125.044 141.584  1.00  0.00     0.005 C 
ATOM     20  C   UNL     1     129.778 123.783 142.371  1.00  0.00     0.003 C 
ATOM     21  C   UNL     1     128.856 121.479 142.116  1.00  0.00     0.031 C 
ATOM     22  C   UNL     1     129.118 124.019 143.780  1.00  0.00    -0.008 C 
ATOM     23  C   UNL     1     128.362 121.585 143.539  1.00  0.00    -0.027 C 
ATOM     24  C   UNL     1     128.450 122.719 144.287  1.00  0.00    -0.065 C 
ATOM     25  C   UNL     1     128.033 125.139 143.723  1.00  0.00     0.014 C 
ATOM     26  C   UNL     1     130.234 124.427 144.780  1.00  0.00     0.016 C 
ATOM     27  C   UNL     1     127.652 122.805 145.567  1.00  0.00     0.063 C 
ATOM     28  C   UNL     1     127.186 125.244 145.008  1.00  0.00     0.033 C 
ATOM     29  C   UNL     1     126.572 123.884 145.402  1.00  0.00     0.118 C 
BRANCH  29  30
ATOM     30  O   UNL     1     125.809 124.005 146.577  1.00  0.00    -0.393 OA
ATOM     31  H   UNL     1     125.194 123.227 146.622  1.00  0.00     0.210 HD
ENDBRANCH  29  30
ENDBRANCH   9  11
ENDBRANCH   1   9
TORSDOF 7
ENDMDL
MODEL 4
REMARK VINA RESULT:    -5.336      2.032      4.730
REMARK INTER + INTRA:          -9.621
REMARK INTER:                  -8.311
REMARK INTRA:                  -1.310
REMARK UNBOUND:                -2.258
REMARK SMILES CC[C@H](CC[C@H](C)[C@H]1CC[C@H]2[C@H]3CC=C4C[C@@H](O)CC[C@]4(C)[C@@H]3CC[C@]12C)C(C)C
REMARK SMILES IDX 5 1 4 2 3 3 2 4 1 5 28 6 29 7 30 8 6 9 7 10 8 11 9 12 26 13
REMARK SMILES IDX 10 14 11 15 25 16 27 17 12 18 24 19 23 20 13 21 21 22 14 23
REMARK SMILES IDX 15 24 20 25 22 26 16 27 19 28 17 29 18 30
REMARK H PARENT 18 31
REMARK Flexibility Score: inf
ROOT
ATOM      1  C   UNL     1     138.688 136.026 140.861  1.00  0.00     0.004 C 
ENDROOT
BRANCH   1   2
ATOM      2  C   UNL     1     138.095 135.540 142.205  1.00  0.00     0.004 C 
BRANCH   2   3
ATOM      3  C   UNL     1     136.646 136.032 142.481  1.00  0.00    -0.009 C 
BRANCH   3   4
ATOM      4  C   UNL     1     136.700 137.497 142.999  1.00  0.00     0.000 C 
ATOM      5  C   UNL     1     137.741 137.749 144.088  1.00  0.00     0.004 C 
ENDBRANCH   3   4
BRANCH   3   6
ATOM      6  C   UNL     1     135.722 135.795 141.231  1.00  0.00    -0.014 C 
ATOM      7  C   UNL     1     134.729 136.936 140.959  1.00  0.00     0.007 C 
ATOM      8  C   UNL     1     134.989 134.439 141.278  1.00  0.00     0.007 C 
ENDBRANCH   3   6
ENDBRANCH   2   3
ENDBRANCH   1   2
BRANCH   1   9
ATOM      9  C   UNL     1     139.947 135.261 140.365  1.00  0.00    -0.011 C 
ATOM     10  C   UNL     1     141.235 136.009 140.749  1.00  0.00     0.008 C 
BRANCH   9  11
ATOM     11  C   UNL     1     139.851 134.824 138.853  1.00  0.00    -0.002 C 
ATOM     12  C   UNL     1     141.181 134.642 138.060  1.00  0.00     0.005 C 
ATOM     13  C   UNL     1     139.057 133.516 138.558  1.00  0.00    -0.026 C 
ATOM     14  C   UNL     1     140.899 133.609 136.955  1.00  0.00     0.005 C 
ATOM     15  C   UNL     1     139.405 133.338 137.071  1.00  0.00    -0.001 C 
ATOM     16  C   UNL     1     137.503 133.654 138.711  1.00  0.00     0.007 C 
ATOM     17  C   UNL     1     139.599 132.349 139.445  1.00  0.00     0.012 C 
ATOM     18  C   UNL     1     138.766 132.119 136.357  1.00  0.00     0.000 C 
ATOM     19  C   UNL     1     136.683 132.990 137.562  1.00  0.00     0.005 C 
ATOM     20  C   UNL     1     137.396 131.736 136.985  1.00  0.00     0.003 C 
ATOM     21  C   UNL     1     139.606 130.845 136.246  1.00  0.00     0.031 C 
ATOM     22  C   UNL     1     136.569 130.838 135.993  1.00  0.00    -0.008 C 
ATOM     23  C   UNL     1     138.852 129.834 135.416  1.00  0.00    -0.027 C 
ATOM     24  C   UNL     1     137.498 129.832 135.274  1.00  0.00    -0.065 C 
ATOM     25  C   UNL     1     135.845 131.699 134.911  1.00  0.00     0.014 C 
ATOM     26  C   UNL     1     135.517 130.045 136.814  1.00  0.00     0.016 C 
ATOM     27  C   UNL     1     136.886 128.982 134.185  1.00  0.00     0.063 C 
ATOM     28  C   UNL     1     135.223 130.863 133.772  1.00  0.00     0.033 C 
ATOM     29  C   UNL     1     136.252 129.906 133.136  1.00  0.00     0.118 C 
BRANCH  29  30
ATOM     30  O   UNL     1     135.661 129.155 132.105  1.00  0.00    -0.393 OA
ATOM     31  H   UNL     1     134.814 128.773 132.455  1.00  0.00     0.210 HD
ENDBRANCH  29  30
ENDBRANCH   9  11
ENDBRANCH   1   9
TORSDOF 7
ENDMDL
MODEL 5
REMARK VINA RESULT:    -5.315      1.613      2.853
REMARK INTER + INTRA:          -9.593
REMARK INTER:                  -8.228
REMARK INTRA:                  -1.365
REMARK UNBOUND:                -2.258
REMARK SMILES CC[C@H](CC[C@H](C)[C@H]1CC[C@H]2[C@H]3CC=C4C[C@@H](O)CC[C@]4(C)[C@@H]3CC[C@]12C)C(C)C
REMARK SMILES IDX 5 1 4 2 3 3 2 4 1 5 28 6 29 7 30 8 6 9 7 10 8 11 9 12 26 13
REMARK SMILES IDX 10 14 11 15 25 16 27 17 12 18 24 19 23 20 13 21 21 22 14 23
REMARK SMILES IDX 15 24 20 25 22 26 16 27 19 28 17 29 18 30
REMARK H PARENT 18 31
REMARK Flexibility Score: inf
ROOT
ATOM      1  C   UNL     1     139.334 134.474 142.770  1.00  0.00     0.004 C 
ENDROOT
BRANCH   1   2
ATOM      2  C   UNL     1     139.290 135.874 142.112  1.00  0.00     0.004 C 
BRANCH   2   3
ATOM      3  C   UNL     1     139.636 137.045 143.074  1.00  0.00    -0.009 C 
BRANCH   3   4
ATOM      4  C   UNL     1     140.450 138.116 142.293  1.00  0.00     0.000 C 
ATOM      5  C   UNL     1     141.950 138.111 142.581  1.00  0.00     0.004 C 
ENDBRANCH   3   4
BRANCH   3   6
ATOM      6  C   UNL     1     138.348 137.579 143.801  1.00  0.00    -0.014 C 
ATOM      7  C   UNL     1     138.124 136.980 145.199  1.00  0.00     0.007 C 
ATOM      8  C   UNL     1     137.077 137.438 142.941  1.00  0.00     0.007 C 
ENDBRANCH   3   6
ENDBRANCH   2   3
ENDBRANCH   1   2
BRANCH   1   9
ATOM      9  C   UNL     1     137.997 133.682 142.759  1.00  0.00    -0.011 C 
ATOM     10  C   UNL     1     137.479 133.453 144.190  1.00  0.00     0.008 C 
BRANCH   9  11
ATOM     11  C   UNL     1     138.046 132.395 141.850  1.00  0.00    -0.002 C 
ATOM     12  C   UNL     1     137.462 131.070 142.428  1.00  0.00     0.005 C 
ATOM     13  C   UNL     1     137.385 132.513 140.443  1.00  0.00    -0.026 C 
ATOM     14  C   UNL     1     136.993 130.232 141.226  1.00  0.00     0.005 C 
ATOM     15  C   UNL     1     137.438 131.039 140.013  1.00  0.00    -0.001 C 
ATOM     16  C   UNL     1     138.196 133.380 139.418  1.00  0.00     0.007 C 
ATOM     17  C   UNL     1     135.922 133.046 140.582  1.00  0.00     0.012 C 
ATOM     18  C   UNL     1     136.883 130.714 138.602  1.00  0.00     0.000 C 
ATOM     19  C   UNL     1     138.303 132.754 137.994  1.00  0.00     0.005 C 
ATOM     20  C   UNL     1     137.048 131.914 137.628  1.00  0.00     0.003 C 
ATOM     21  C   UNL     1     135.436 130.226 138.507  1.00  0.00     0.031 C 
ATOM     22  C   UNL     1     136.922 131.432 136.136  1.00  0.00    -0.008 C 
ATOM     23  C   UNL     1     135.140 129.852 137.074  1.00  0.00    -0.027 C 
ATOM     24  C   UNL     1     135.811 130.364 136.007  1.00  0.00    -0.065 C 
ATOM     25  C   UNL     1     138.260 130.815 135.620  1.00  0.00     0.014 C 
ATOM     26  C   UNL     1     136.543 132.655 135.257  1.00  0.00     0.016 C 
ATOM     27  C   UNL     1     135.648 129.695 134.662  1.00  0.00     0.063 C 
ATOM     28  C   UNL     1     138.126 130.106 134.256  1.00  0.00     0.033 C 
ATOM     29  C   UNL     1     136.988 129.064 134.260  1.00  0.00     0.118 C 
BRANCH  29  30
ATOM     30  O   UNL     1     136.885 128.435 133.006  1.00  0.00    -0.393 OA
ATOM     31  H   UNL     1     137.301 127.537 133.081  1.00  0.00     0.210 HD
ENDBRANCH  29  30
ENDBRANCH   9  11
ENDBRANCH   1   9
TORSDOF 7
ENDMDL
MODEL 6
REMARK VINA RESULT:    -5.213      2.757      4.772
REMARK INTER + INTRA:          -9.453
REMARK INTER:                  -7.352
REMARK INTRA:                  -2.101
REMARK UNBOUND:                -2.258
REMARK SMILES CC[C@H](CC[C@H](C)[C@H]1CC[C@H]2[C@H]3CC=C4C[C@@H](O)CC[C@]4(C)[C@@H]3CC[C@]12C)C(C)C
REMARK SMILES IDX 5 1 4 2 3 3 2 4 1 5 28 6 29 7 30 8 6 9 7 10 8 11 9 12 26 13
REMARK SMILES IDX 10 14 11 15 25 16 27 17 12 18 24 19 23 20 13 21 21 22 14 23
REMARK SMILES IDX 15 24 20 25 22 26 16 27 19 28 17 29 18 30
REMARK H PARENT 18 31
REMARK Flexibility Score: inf
ROOT
ATOM      1  C   UNL     1     139.956 135.923 143.832  1.00  0.00     0.004 C 
ENDROOT
BRANCH   1   2
ATOM      2  C   UNL     1     139.185 137.240 144.096  1.00  0.00     0.004 C 
BRANCH   2   3
ATOM      3  C   UNL     1     137.934 137.078 145.005  1.00  0.00    -0.009 C 
BRANCH   3   4
ATOM      4  C   UNL     1     136.655 137.231 144.135  1.00  0.00     0.000 C 
ATOM      5  C   UNL     1     136.780 138.234 142.990  1.00  0.00     0.004 C 
ENDBRANCH   3   4
BRANCH   3   6
ATOM      6  C   UNL     1     138.018 135.756 145.851  1.00  0.00    -0.014 C 
ATOM      7  C   UNL     1     136.793 134.838 145.704  1.00  0.00     0.007 C 
ATOM      8  C   UNL     1     138.323 136.017 147.340  1.00  0.00     0.007 C 
ENDBRANCH   3   6
ENDBRANCH   2   3
ENDBRANCH   1   2
BRANCH   1   9
ATOM      9  C   UNL     1     139.908 135.396 142.371  1.00  0.00    -0.011 C 
ATOM     10  C   UNL     1     140.636 136.355 141.414  1.00  0.00     0.008 C 
BRANCH   9  11
ATOM     11  C   UNL     1     138.463 134.962 141.916  1.00  0.00    -0.002 C 
ATOM     12  C   UNL     1     137.864 135.639 140.646  1.00  0.00     0.005 C 
ATOM     13  C   UNL     1     138.241 133.439 141.669  1.00  0.00    -0.026 C 
ATOM     14  C   UNL     1     136.871 134.634 140.036  1.00  0.00     0.005 C 
ATOM     15  C   UNL     1     136.841 133.486 141.037  1.00  0.00    -0.001 C 
ATOM     16  C   UNL     1     138.189 132.573 142.975  1.00  0.00     0.007 C 
ATOM     17  C   UNL     1     139.325 132.893 140.686  1.00  0.00     0.012 C 
ATOM     18  C   UNL     1     136.213 132.121 140.654  1.00  0.00     0.000 C 
ATOM     19  C   UNL     1     137.042 131.516 142.998  1.00  0.00     0.005 C 
ATOM     20  C   UNL     1     136.715 130.977 141.578  1.00  0.00     0.003 C 
ATOM     21  C   UNL     1     136.364 131.657 139.204  1.00  0.00     0.031 C 
ATOM     22  C   UNL     1     135.752 129.736 141.490  1.00  0.00    -0.008 C 
ATOM     23  C   UNL     1     135.582 130.378 139.017  1.00  0.00    -0.027 C 
ATOM     24  C   UNL     1     135.281 129.522 140.032  1.00  0.00    -0.065 C 
ATOM     25  C   UNL     1     134.492 129.926 142.391  1.00  0.00     0.014 C 
ATOM     26  C   UNL     1     136.534 128.476 141.950  1.00  0.00     0.016 C 
ATOM     27  C   UNL     1     134.241 128.452 139.791  1.00  0.00     0.063 C 
ATOM     28  C   UNL     1     133.400 128.860 142.158  1.00  0.00     0.033 C 
ATOM     29  C   UNL     1     133.017 128.748 140.668  1.00  0.00     0.118 C 
BRANCH  29  30
ATOM     30  O   UNL     1     132.025 127.770 140.482  1.00  0.00    -0.393 OA
ATOM     31  H   UNL     1     132.459 126.880 140.549  1.00  0.00     0.210 HD
ENDBRANCH  29  30
ENDBRANCH   9  11
ENDBRANCH   1   9
TORSDOF 7
ENDMDL
MODEL 7
REMARK VINA RESULT:    -5.166      3.239      8.178
REMARK INTER + INTRA:          -9.388
REMARK INTER:                  -7.547
REMARK INTRA:                  -1.841
REMARK UNBOUND:                -2.258
REMARK SMILES CC[C@H](CC[C@H](C)[C@H]1CC[C@H]2[C@H]3CC=C4C[C@@H](O)CC[C@]4(C)[C@@H]3CC[C@]12C)C(C)C
REMARK SMILES IDX 5 1 4 2 3 3 2 4 1 5 28 6 29 7 30 8 6 9 7 10 8 11 9 12 26 13
REMARK SMILES IDX 10 14 11 15 25 16 27 17 12 18 24 19 23 20 13 21 21 22 14 23
REMARK SMILES IDX 15 24 20 25 22 26 16 27 19 28 17 29 18 30
REMARK H PARENT 18 31
REMARK Flexibility Score: inf
ROOT
ATOM      1  C   UNL     1     135.559 129.924 137.329  1.00  0.00     0.004 C 
ENDROOT
BRANCH   1   2
ATOM      2  C   UNL     1     134.452 130.041 138.404  1.00  0.00     0.004 C 
BRANCH   2   3
ATOM      3  C   UNL     1     134.559 128.995 139.550  1.00  0.00    -0.009 C 
BRANCH   3   4
ATOM      4  C   UNL     1     134.765 129.743 140.897  1.00  0.00     0.000 C 
ATOM      5  C   UNL     1     136.055 129.385 141.633  1.00  0.00     0.004 C 
ENDBRANCH   3   4
BRANCH   3   6
ATOM      6  C   UNL     1     133.347 127.995 139.515  1.00  0.00    -0.014 C 
ATOM      7  C   UNL     1     132.582 127.980 138.181  1.00  0.00     0.007 C 
ATOM      8  C   UNL     1     132.374 128.195 140.695  1.00  0.00     0.007 C 
ENDBRANCH   3   6
ENDBRANCH   2   3
ENDBRANCH   1   2
BRANCH   1   9
ATOM      9  C   UNL     1     136.607 131.073 137.313  1.00  0.00    -0.011 C 
ATOM     10  C   UNL     1     137.583 130.914 136.135  1.00  0.00     0.008 C 
BRANCH   9  11
ATOM     11  C   UNL     1     137.282 131.316 138.717  1.00  0.00    -0.002 C 
ATOM     12  C   UNL     1     138.768 130.880 138.896  1.00  0.00     0.005 C 
ATOM     13  C   UNL     1     137.252 132.777 139.258  1.00  0.00    -0.026 C 
ATOM     14  C   UNL     1     139.367 131.791 139.982  1.00  0.00     0.005 C 
ATOM     15  C   UNL     1     138.185 132.618 140.469  1.00  0.00    -0.001 C 
ATOM     16  C   UNL     1     135.842 133.255 139.752  1.00  0.00     0.007 C 
ATOM     17  C   UNL     1     137.823 133.757 138.184  1.00  0.00     0.012 C 
ATOM     18  C   UNL     1     138.410 133.884 141.334  1.00  0.00     0.000 C 
ATOM     19  C   UNL     1     135.865 134.025 141.108  1.00  0.00     0.005 C 
ATOM     20  C   UNL     1     137.178 134.832 141.300  1.00  0.00     0.003 C 
ATOM     21  C   UNL     1     139.657 134.723 141.048  1.00  0.00     0.031 C 
ATOM     22  C   UNL     1     137.226 135.840 142.507  1.00  0.00    -0.008 C 
ATOM     23  C   UNL     1     139.749 135.827 142.074  1.00  0.00    -0.027 C 
ATOM     24  C   UNL     1     138.676 136.320 142.750  1.00  0.00    -0.065 C 
ATOM     25  C   UNL     1     136.698 135.183 143.821  1.00  0.00     0.014 C 
ATOM     26  C   UNL     1     136.347 137.070 142.152  1.00  0.00     0.016 C 
ATOM     27  C   UNL     1     138.922 137.190 143.961  1.00  0.00     0.063 C 
ATOM     28  C   UNL     1     136.950 136.037 145.082  1.00  0.00     0.033 C 
ATOM     29  C   UNL     1     138.432 136.446 145.211  1.00  0.00     0.118 C 
BRANCH  29  30
ATOM     30  O   UNL     1     138.633 137.225 146.364  1.00  0.00    -0.393 OA
ATOM     31  H   UNL     1     137.798 137.198 146.899  1.00  0.00     0.210 HD
ENDBRANCH  29  30
ENDBRANCH   9  11
ENDBRANCH   1   9
TORSDOF 7
ENDMDL
MODEL 8
REMARK VINA RESULT:    -5.079      3.318      6.454
REMARK INTER + INTRA:          -9.267
REMARK INTER:                  -7.342
REMARK INTRA:                  -1.925
REMARK UNBOUND:                -2.258
REMARK SMILES CC[C@H](CC[C@H](C)[C@H]1CC[C@H]2[C@H]3CC=C4C[C@@H](O)CC[C@]4(C)[C@@H]3CC[C@]12C)C(C)C
REMARK SMILES IDX 5 1 4 2 3 3 2 4 1 5 28 6 29 7 30 8 6 9 7 10 8 11 9 12 26 13
REMARK SMILES IDX 10 14 11 15 25 16 27 17 12 18 24 19 23 20 13 21 21 22 14 23
REMARK SMILES IDX 15 24 20 25 22 26 16 27 19 28 17 29 18 30
REMARK H PARENT 18 31
REMARK Flexibility Score: inf
ROOT
ATOM      1  C   UNL     1     135.262 132.450 141.889  1.00  0.00     0.004 C 
ENDROOT
BRANCH   1   2
ATOM      2  C   UNL     1     134.552 131.187 142.434  1.00  0.00     0.004 C 
BRANCH   2   3
ATOM      3  C   UNL     1     134.789 129.904 141.589  1.00  0.00    -0.009 C 
BRANCH   3   4
ATOM      4  C   UNL     1     135.589 128.879 142.440  1.00  0.00     0.000 C 
ATOM      5  C   UNL     1     136.974 128.539 141.891  1.00  0.00     0.004 C 
ENDBRANCH   3   4
BRANCH   3   6
ATOM      6  C   UNL     1     133.439 129.368 140.987  1.00  0.00    -0.014 C 
ATOM      7  C   UNL     1     132.493 128.742 142.025  1.00  0.00     0.007 C 
ATOM      8  C   UNL     1     133.654 128.406 139.802  1.00  0.00     0.007 C 
ENDBRANCH   3   6
ENDBRANCH   2   3
ENDBRANCH   1   2
BRANCH   1   9
ATOM      9  C   UNL     1     136.703 132.233 141.348  1.00  0.00    -0.011 C 
ATOM     10  C   UNL     1     137.753 132.682 142.378  1.00  0.00     0.008 C 
BRANCH   9  11
ATOM     11  C   UNL     1     136.909 132.797 139.890  1.00  0.00    -0.002 C 
ATOM     12  C   UNL     1     137.974 133.917 139.686  1.00  0.00     0.005 C 
ATOM     13  C   UNL     1     137.246 131.753 138.783  1.00  0.00    -0.026 C 
ATOM     14  C   UNL     1     138.471 133.795 138.234  1.00  0.00     0.005 C 
ATOM     15  C   UNL     1     137.591 132.709 137.630  1.00  0.00    -0.001 C 
ATOM     16  C   UNL     1     136.038 130.847 138.359  1.00  0.00     0.007 C 
ATOM     17  C   UNL     1     138.465 130.880 139.224  1.00  0.00     0.012 C 
ATOM     18  C   UNL     1     137.968 132.048 136.279  1.00  0.00     0.000 C 
ATOM     19  C   UNL     1     135.892 130.653 136.819  1.00  0.00     0.005 C 
ATOM     20  C   UNL     1     137.265 130.674 136.094  1.00  0.00     0.003 C 
ATOM     21  C   UNL     1     139.456 131.861 135.976  1.00  0.00     0.031 C 
ATOM     22  C   UNL     1     137.279 130.249 134.579  1.00  0.00    -0.008 C 
ATOM     23  C   UNL     1     139.605 131.321 134.573  1.00  0.00    -0.027 C 
ATOM     24  C   UNL     1     138.633 130.620 133.928  1.00  0.00    -0.065 C 
ATOM     25  C   UNL     1     136.139 130.953 133.777  1.00  0.00     0.014 C 
ATOM     26  C   UNL     1     137.094 128.710 134.501  1.00  0.00     0.016 C 
ATOM     27  C   UNL     1     138.765 130.404 132.438  1.00  0.00     0.063 C 
ATOM     28  C   UNL     1     136.254 130.769 132.250  1.00  0.00     0.033 C 
ATOM     29  C   UNL     1     137.647 131.177 131.726  1.00  0.00     0.118 C 
BRANCH  29  30
ATOM     30  O   UNL     1     137.727 130.996 130.334  1.00  0.00    -0.393 OA
ATOM     31  H   UNL     1     137.563 131.876 129.903  1.00  0.00     0.210 HD
ENDBRANCH  29  30
ENDBRANCH   9  11
ENDBRANCH   1   9
TORSDOF 7
ENDMDL
MODEL 9
REMARK VINA RESULT:    -5.066      3.082      8.311
REMARK INTER + INTRA:          -9.250
REMARK INTER:                  -7.408
REMARK INTRA:                  -1.842
REMARK UNBOUND:                -2.258
REMARK SMILES CC[C@H](CC[C@H](C)[C@H]1CC[C@H]2[C@H]3CC=C4C[C@@H](O)CC[C@]4(C)[C@@H]3CC[C@]12C)C(C)C
REMARK SMILES IDX 5 1 4 2 3 3 2 4 1 5 28 6 29 7 30 8 6 9 7 10 8 11 9 12 26 13
REMARK SMILES IDX 10 14 11 15 25 16 27 17 12 18 24 19 23 20 13 21 21 22 14 23
REMARK SMILES IDX 15 24 20 25 22 26 16 27 19 28 17 29 18 30
REMARK H PARENT 18 31
REMARK Flexibility Score: inf
ROOT
ATOM      1  C   UNL     1     137.927 130.453 136.044  1.00  0.00     0.004 C 
ENDROOT
BRANCH   1   2
ATOM      2  C   UNL     1     136.781 131.161 135.280  1.00  0.00     0.004 C 
BRANCH   2   3
ATOM      3  C   UNL     1     137.057 131.376 133.765  1.00  0.00    -0.009 C 
BRANCH   3   4
ATOM      4  C   UNL     1     137.550 132.834 133.544  1.00  0.00     0.000 C 
ATOM      5  C   UNL     1     137.104 133.826 134.616  1.00  0.00     0.004 C 
ENDBRANCH   3   4
BRANCH   3   6
ATOM      6  C   UNL     1     138.002 130.254 133.199  1.00  0.00    -0.014 C 
ATOM      7  C   UNL     1     139.282 130.787 132.535  1.00  0.00     0.007 C 
ATOM      8  C   UNL     1     137.270 129.276 132.258  1.00  0.00     0.007 C 
ENDBRANCH   3   6
ENDBRANCH   2   3
ENDBRANCH   1   2
BRANCH   1   9
ATOM      9  C   UNL     1     139.051 131.382 136.582  1.00  0.00    -0.011 C 
ATOM     10  C   UNL     1     140.431 130.931 136.071  1.00  0.00     0.008 C 
BRANCH   9  11
ATOM     11  C   UNL     1     138.960 131.629 138.136  1.00  0.00    -0.002 C 
ATOM     12  C   UNL     1     140.278 131.553 138.965  1.00  0.00     0.005 C 
ATOM     13  C   UNL     1     138.310 132.972 138.588  1.00  0.00    -0.026 C 
ATOM     14  C   UNL     1     140.081 132.461 140.192  1.00  0.00     0.005 C 
ATOM     15  C   UNL     1     138.631 132.916 140.090  1.00  0.00    -0.001 C 
ATOM     16  C   UNL     1     136.755 133.035 138.394  1.00  0.00     0.007 C 
ATOM     17  C   UNL     1     139.005 134.172 137.869  1.00  0.00     0.012 C 
ATOM     18  C   UNL     1     138.112 134.098 140.948  1.00  0.00     0.000 C 
ATOM     19  C   UNL     1     135.981 133.636 139.608  1.00  0.00     0.005 C 
ATOM     20  C   UNL     1     136.813 134.714 140.355  1.00  0.00     0.003 C 
ATOM     21  C   UNL     1     139.086 135.242 141.237  1.00  0.00     0.031 C 
ATOM     22  C   UNL     1     136.063 135.567 141.443  1.00  0.00    -0.008 C 
ATOM     23  C   UNL     1     138.426 136.219 142.182  1.00  0.00    -0.027 C 
ATOM     24  C   UNL     1     137.078 136.358 142.302  1.00  0.00    -0.065 C 
ATOM     25  C   UNL     1     135.214 134.664 142.392  1.00  0.00     0.014 C 
ATOM     26  C   UNL     1     135.132 136.576 140.718  1.00  0.00     0.016 C 
ATOM     27  C   UNL     1     136.533 137.127 143.483  1.00  0.00     0.063 C 
ATOM     28  C   UNL     1     134.657 135.413 143.621  1.00  0.00     0.033 C 
ATOM     29  C   UNL     1     135.768 136.156 144.393  1.00  0.00     0.118 C 
BRANCH  29  30
ATOM     30  O   UNL     1     135.235 136.831 145.504  1.00  0.00    -0.393 OA
ATOM     31  H   UNL     1     135.308 137.807 145.331  1.00  0.00     0.210 HD
ENDBRANCH  29  30
ENDBRANCH   9  11
ENDBRANCH   1   9
TORSDOF 7
ENDMDL
