MODEL 1
REMARK VINA RESULT:    -4.001      0.000      0.000
REMARK INTER + INTRA:          -6.034
REMARK INTER:                  -5.521
REMARK INTRA:                  -0.514
REMARK UNBOUND:                -0.514
REMARK SMILES CC[C@H](CC[C@@H](C)[C@@H]1CC[C@H]2[C@@H]3CC=C4C[C@@H](O)CC[C@@]4(C)[C@H]3CC[C@]21C)C(C)C
REMARK SMILES IDX 5 1 4 2 3 3 2 4 1 5 28 6 29 7 30 8 6 9 7 10 8 11 9 12 26 13
REMARK SMILES IDX 10 14 11 15 25 16 27 17 12 18 24 19 23 20 13 21 21 22 14 23
REMARK SMILES IDX 15 24 20 25 22 26 16 27 19 28 17 29 18 30
REMARK H PARENT 18 31
REMARK Flexibility Score: inf
ROOT
ATOM      1  C   UNL     1     -14.140 -31.532 -15.621  1.00  0.00     0.004 C 
ENDROOT
BRANCH   1   2
ATOM      2  C   UNL     1     -14.053 -32.722 -14.633  1.00  0.00     0.004 C 
BRANCH   2   3
ATOM      3  C   UNL     1     -13.507 -34.025 -15.289  1.00  0.00    -0.009 C 
BRANCH   3   4
ATOM      4  C   UNL     1     -12.299 -34.571 -14.474  1.00  0.00     0.000 C 
ATOM      5  C   UNL     1     -11.771 -33.566 -13.448  1.00  0.00     0.004 C 
ENDBRANCH   3   4
BRANCH   3   6
ATOM      6  C   UNL     1     -14.621 -35.110 -15.496  1.00  0.00    -0.014 C 
ATOM      7  C   UNL     1     -15.045 -35.227 -16.972  1.00  0.00     0.007 C 
ATOM      8  C   UNL     1     -14.249 -36.498 -14.942  1.00  0.00     0.007 C 
ENDBRANCH   3   6
ENDBRANCH   2   3
ENDBRANCH   1   2
BRANCH   1   9
ATOM      9  C   UNL     1     -13.746 -30.147 -15.024  1.00  0.00    -0.011 C 
ATOM     10  C   UNL     1     -14.057 -29.044 -16.061  1.00  0.00     0.008 C 
BRANCH   9  11
ATOM     11  C   UNL     1     -14.326 -29.886 -13.567  1.00  0.00    -0.002 C 
ATOM     12  C   UNL     1     -15.040 -28.525 -13.437  1.00  0.00     0.005 C 
ATOM     13  C   UNL     1     -13.258 -29.778 -12.414  1.00  0.00    -0.026 C 
ATOM     14  C   UNL     1     -13.954 -27.512 -13.099  1.00  0.00     0.005 C 
ATOM     15  C   UNL     1     -12.745 -28.314 -12.567  1.00  0.00    -0.001 C 
ATOM     16  C   UNL     1     -13.967 -30.038 -11.018  1.00  0.00     0.007 C 
ATOM     17  C   UNL     1     -12.083 -30.780 -12.548  1.00  0.00     0.012 C 
ATOM     18  C   UNL     1     -12.090 -27.652 -11.305  1.00  0.00     0.000 C 
ATOM     19  C   UNL     1     -13.808 -28.913  -9.982  1.00  0.00     0.005 C 
ATOM     20  C   UNL     1     -12.361 -28.400  -9.985  1.00  0.00     0.003 C 
ATOM     21  C   UNL     1     -10.571 -27.487 -11.434  1.00  0.00     0.031 C 
ATOM     22  C   UNL     1     -11.938 -27.530  -8.740  1.00  0.00    -0.008 C 
ATOM     23  C   UNL     1     -10.037 -26.735 -10.244  1.00  0.00    -0.027 C 
ATOM     24  C   UNL     1     -10.641 -26.745  -9.030  1.00  0.00    -0.065 C 
ATOM     25  C   UNL     1     -13.047 -26.499  -8.362  1.00  0.00     0.014 C 
ATOM     26  C   UNL     1     -11.682 -28.487  -7.547  1.00  0.00     0.016 C 
ATOM     27  C   UNL     1     -10.175 -25.762  -7.980  1.00  0.00     0.063 C 
ATOM     28  C   UNL     1     -12.599 -25.469  -7.304  1.00  0.00     0.033 C 
ATOM     29  C   UNL     1     -11.295 -24.751  -7.689  1.00  0.00     0.118 C 
BRANCH  29  30
ATOM     30  O   UNL     1     -11.519 -23.935  -8.811  1.00  0.00    -0.393 OA
ATOM     31  H   UNL     1     -12.221 -24.383  -9.353  1.00  0.00     0.210 HD
ENDBRANCH  29  30
ENDBRANCH   9  11
ENDBRANCH   1   9
TORSDOF 7
ENDMDL
MODEL 2
REMARK VINA RESULT:    -3.247      1.068      2.037
REMARK INTER + INTRA:          -4.994
REMARK INTER:                  -4.570
REMARK INTRA:                  -0.425
REMARK UNBOUND:                -0.514
REMARK SMILES CC[C@H](CC[C@@H](C)[C@@H]1CC[C@H]2[C@@H]3CC=C4C[C@@H](O)CC[C@@]4(C)[C@H]3CC[C@]21C)C(C)C
REMARK SMILES IDX 5 1 4 2 3 3 2 4 1 5 28 6 29 7 30 8 6 9 7 10 8 11 9 12 26 13
REMARK SMILES IDX 10 14 11 15 25 16 27 17 12 18 24 19 23 20 13 21 21 22 14 23
REMARK SMILES IDX 15 24 20 25 22 26 16 27 19 28 17 29 18 30
REMARK H PARENT 18 31
REMARK Flexibility Score: inf
ROOT
ATOM      1  C   UNL     1     -14.439 -30.966 -15.036  1.00  0.00     0.004 C 
ENDROOT
BRANCH   1   2
ATOM      2  C   UNL     1     -13.305 -31.995 -15.263  1.00  0.00     0.004 C 
BRANCH   2   3
ATOM      3  C   UNL     1     -13.019 -32.880 -14.013  1.00  0.00    -0.009 C 
BRANCH   3   4
ATOM      4  C   UNL     1     -13.702 -34.269 -14.170  1.00  0.00     0.000 C 
ATOM      5  C   UNL     1     -13.977 -34.634 -15.630  1.00  0.00     0.004 C 
ENDBRANCH   3   4
BRANCH   3   6
ATOM      6  C   UNL     1     -11.487 -33.004 -13.697  1.00  0.00    -0.014 C 
ATOM      7  C   UNL     1     -11.046 -32.031 -12.587  1.00  0.00     0.007 C 
ATOM      8  C   UNL     1     -11.036 -34.436 -13.354  1.00  0.00     0.007 C 
ENDBRANCH   3   6
ENDBRANCH   2   3
ENDBRANCH   1   2
BRANCH   1   9
ATOM      9  C   UNL     1     -13.962 -29.514 -14.724  1.00  0.00    -0.011 C 
ATOM     10  C   UNL     1     -14.006 -28.679 -16.024  1.00  0.00     0.008 C 
BRANCH   9  11
ATOM     11  C   UNL     1     -14.688 -28.854 -13.474  1.00  0.00    -0.002 C 
ATOM     12  C   UNL     1     -14.918 -27.338 -13.641  1.00  0.00     0.005 C 
ATOM     13  C   UNL     1     -13.886 -28.891 -12.118  1.00  0.00    -0.026 C 
ATOM     14  C   UNL     1     -13.641 -26.665 -13.154  1.00  0.00     0.005 C 
ATOM     15  C   UNL     1     -12.894 -27.700 -12.283  1.00  0.00    -0.001 C 
ATOM     16  C   UNL     1     -14.893 -28.690 -10.908  1.00  0.00     0.007 C 
ATOM     17  C   UNL     1     -13.110 -30.212 -11.882  1.00  0.00     0.012 C 
ATOM     18  C   UNL     1     -12.309 -27.073 -10.969  1.00  0.00     0.000 C 
ATOM     19  C   UNL     1     -14.568 -27.515  -9.972  1.00  0.00     0.005 C 
ATOM     20  C   UNL     1     -13.060 -27.477  -9.685  1.00  0.00     0.003 C 
ATOM     21  C   UNL     1     -10.827 -27.403 -10.755  1.00  0.00     0.031 C 
ATOM     22  C   UNL     1     -12.616 -26.587  -8.462  1.00  0.00    -0.008 C 
ATOM     23  C   UNL     1     -10.309 -26.667  -9.548  1.00  0.00    -0.027 C 
ATOM     24  C   UNL     1     -11.102 -26.294  -8.513  1.00  0.00    -0.065 C 
ATOM     25  C   UNL     1     -13.368 -25.218  -8.450  1.00  0.00     0.014 C 
ATOM     26  C   UNL     1     -12.927 -27.368  -7.159  1.00  0.00     0.016 C 
ATOM     27  C   UNL     1     -10.543 -25.342  -7.478  1.00  0.00     0.063 C 
ATOM     28  C   UNL     1     -12.812 -24.217  -7.416  1.00  0.00     0.033 C 
ATOM     29  C   UNL     1     -11.295 -24.005  -7.551  1.00  0.00     0.118 C 
BRANCH  29  30
ATOM     30  O   UNL     1     -11.015 -23.354  -8.765  1.00  0.00    -0.393 OA
ATOM     31  H   UNL     1     -10.382 -23.937  -9.261  1.00  0.00     0.210 HD
ENDBRANCH  29  30
ENDBRANCH   9  11
ENDBRANCH   1   9
TORSDOF 7
ENDMDL
MODEL 3
REMARK VINA RESULT:    -1.685      2.559      7.671
REMARK INTER + INTRA:          -2.839
REMARK INTER:                  -3.318
REMARK INTRA:                   0.479
REMARK UNBOUND:                -0.514
REMARK SMILES CC[C@H](CC[C@@H](C)[C@@H]1CC[C@H]2[C@@H]3CC=C4C[C@@H](O)CC[C@@]4(C)[C@H]3CC[C@]21C)C(C)C
REMARK SMILES IDX 5 1 4 2 3 3 2 4 1 5 28 6 29 7 30 8 6 9 7 10 8 11 9 12 26 13
REMARK SMILES IDX 10 14 11 15 25 16 27 17 12 18 24 19 23 20 13 21 21 22 14 23
REMARK SMILES IDX 15 24 20 25 22 26 16 27 19 28 17 29 18 30
REMARK H PARENT 18 31
REMARK Flexibility Score: inf
ROOT
ATOM      1  C   UNL     1     -11.956 -26.485  -9.721  1.00  0.00     0.004 C 
ENDROOT
BRANCH   1   2
ATOM      2  C   UNL     1     -10.933 -26.706  -8.580  1.00  0.00     0.004 C 
BRANCH   2   3
ATOM      3  C   UNL     1     -10.406 -28.170  -8.502  1.00  0.00    -0.009 C 
BRANCH   3   4
ATOM      4  C   UNL     1     -10.971 -28.877  -7.237  1.00  0.00     0.000 C 
ATOM      5  C   UNL     1      -9.876 -29.328  -6.268  1.00  0.00     0.004 C 
ENDBRANCH   3   4
BRANCH   3   6
ATOM      6  C   UNL     1     -10.687 -28.985  -9.813  1.00  0.00    -0.014 C 
ATOM      7  C   UNL     1      -9.876 -28.451 -11.009  1.00  0.00     0.007 C 
ATOM      8  C   UNL     1     -10.470 -30.501  -9.662  1.00  0.00     0.007 C 
ENDBRANCH   3   6
ENDBRANCH   2   3
ENDBRANCH   1   2
BRANCH   1   9
ATOM      9  C   UNL     1     -13.452 -26.550  -9.289  1.00  0.00    -0.011 C 
ATOM     10  C   UNL     1     -13.823 -25.239  -8.558  1.00  0.00     0.008 C 
BRANCH   9  11
ATOM     11  C   UNL     1     -14.442 -26.970 -10.461  1.00  0.00    -0.002 C 
ATOM     12  C   UNL     1     -15.440 -28.068 -10.042  1.00  0.00     0.005 C 
ATOM     13  C   UNL     1     -13.767 -27.639 -11.718  1.00  0.00    -0.026 C 
ATOM     14  C   UNL     1     -14.728 -29.394 -10.275  1.00  0.00     0.005 C 
ATOM     15  C   UNL     1     -13.560 -29.110 -11.246  1.00  0.00    -0.001 C 
ATOM     16  C   UNL     1     -14.748 -27.525 -12.961  1.00  0.00     0.007 C 
ATOM     17  C   UNL     1     -12.411 -27.004 -12.118  1.00  0.00     0.012 C 
ATOM     18  C   UNL     1     -13.424 -30.205 -12.361  1.00  0.00     0.000 C 
ATOM     19  C   UNL     1     -15.117 -28.858 -13.631  1.00  0.00     0.005 C 
ATOM     20  C   UNL     1     -13.867 -29.740 -13.762  1.00  0.00     0.003 C 
ATOM     21  C   UNL     1     -11.998 -30.754 -12.491  1.00  0.00     0.031 C 
ATOM     22  C   UNL     1     -13.988 -30.959 -14.755  1.00  0.00    -0.008 C 
ATOM     23  C   UNL     1     -11.974 -31.881 -13.489  1.00  0.00    -0.027 C 
ATOM     24  C   UNL     1     -12.862 -31.985 -14.508  1.00  0.00    -0.065 C 
ATOM     25  C   UNL     1     -15.354 -31.697 -14.587  1.00  0.00     0.014 C 
ATOM     26  C   UNL     1     -13.858 -30.418 -16.202  1.00  0.00     0.016 C 
ATOM     27  C   UNL     1     -12.915 -33.277 -15.294  1.00  0.00     0.063 C 
ATOM     28  C   UNL     1     -15.436 -33.029 -15.363  1.00  0.00     0.033 C 
ATOM     29  C   UNL     1     -14.264 -33.972 -15.049  1.00  0.00     0.118 C 
BRANCH  29  30
ATOM     30  O   UNL     1     -14.352 -34.408 -13.715  1.00  0.00    -0.393 OA
ATOM     31  H   UNL     1     -13.794 -33.788 -13.176  1.00  0.00     0.210 HD
ENDBRANCH  29  30
ENDBRANCH   9  11
ENDBRANCH   1   9
TORSDOF 7
ENDMDL
