MODEL 1
REMARK VINA RESULT:    -7.338      0.000      0.000
REMARK INTER + INTRA:          -8.323
REMARK INTER:                  -8.625
REMARK INTRA:                   0.302
REMARK UNBOUND:                 0.302
REMARK SMILES Oc1ccc(-c2[o+]c3cc(O)cc(O)c3cc2O)cc1
REMARK SMILES IDX 6 1 7 2 8 3 9 4 10 5 12 6 13 7 15 8 16 9 17 10 5 11 4 12
REMARK SMILES IDX 3 13 2 14 19 15 20 16 1 17 18 19 11 21 14 23
REMARK H PARENT 1 18 18 20 11 22 14 24
REMARK Flexibility Score: inf
ROOT
ATOM      1  C   UNL     1       9.724  13.126  23.149  1.00  0.00     0.401 A 
ATOM      2  O   UNL     1       9.843  11.803  23.197  1.00  0.00    -0.202 OA
ATOM      3  C   UNL     1       9.472  11.074  24.245  1.00  0.00     0.368 A 
ATOM      4  C   UNL     1       9.633   9.687  24.200  1.00  0.00     0.162 A 
ATOM      5  C   UNL     1       9.250   8.896  25.283  1.00  0.00     0.128 A 
ATOM      6  C   UNL     1       8.697   9.494  26.421  1.00  0.00     0.093 A 
ATOM      7  C   UNL     1       8.524  10.882  26.491  1.00  0.00     0.136 A 
ATOM      8  C   UNL     1       8.916  11.690  25.392  1.00  0.00     0.125 A 
ATOM      9  C   UNL     1       8.793  13.089  25.379  1.00  0.00     0.078 A 
ATOM     10  C   UNL     1       9.206  13.819  24.260  1.00  0.00     0.223 A 
ENDROOT
BRANCH   1  11
ATOM     11  C   UNL     1      10.166  13.825  21.921  1.00  0.00     0.084 A 
ATOM     12  C   UNL     1      10.091  13.162  20.684  1.00  0.00     0.022 A 
ATOM     13  C   UNL     1      10.482  13.810  19.508  1.00  0.00     0.047 A 
ATOM     14  C   UNL     1      10.937  15.131  19.551  1.00  0.00     0.115 A 
ATOM     15  C   UNL     1      10.605  15.161  21.953  1.00  0.00     0.022 A 
ATOM     16  C   UNL     1      10.995  15.807  20.775  1.00  0.00     0.047 A 
BRANCH  14  17
ATOM     17  O   UNL     1      11.324  15.764  18.371  1.00  0.00    -0.508 OA
ATOM     18  H   UNL     1      10.922  16.650  18.089  1.00  0.00     0.293 HD
ENDBRANCH  14  17
ENDBRANCH   1  11
BRANCH  10  19
ATOM     19  O   UNL     1       9.129  15.212  24.265  1.00  0.00    -0.500 OA
ATOM     20  H   UNL     1       9.747  15.781  23.699  1.00  0.00     0.294 HD
ENDBRANCH  10  19
BRANCH   5  21
ATOM     21  O   UNL     1       9.419   7.515  25.220  1.00  0.00    -0.507 OA
ATOM     22  H   UNL     1       8.965   6.957  24.507  1.00  0.00     0.293 HD
ENDBRANCH   5  21
BRANCH   7  23
ATOM     23  O   UNL     1       7.963  11.404  27.660  1.00  0.00    -0.507 OA
ATOM     24  H   UNL     1       7.028  11.204  27.983  1.00  0.00     0.293 HD
ENDBRANCH   7  23
TORSDOF 5
ENDMDL
MODEL 2
REMARK VINA RESULT:    -6.546      1.191      6.558
REMARK INTER + INTRA:          -7.392
REMARK INTER:                  -7.670
REMARK INTRA:                   0.279
REMARK UNBOUND:                 0.302
REMARK SMILES Oc1ccc(-c2[o+]c3cc(O)cc(O)c3cc2O)cc1
REMARK SMILES IDX 6 1 7 2 8 3 9 4 10 5 12 6 13 7 15 8 16 9 17 10 5 11 4 12
REMARK SMILES IDX 3 13 2 14 19 15 20 16 1 17 18 19 11 21 14 23
REMARK H PARENT 1 18 18 20 11 22 14 24
REMARK Flexibility Score: inf
ROOT
ATOM      1  C   UNL     1       9.262  12.082  24.095  1.00  0.00     0.401 A 
ATOM      2  O   UNL     1       9.618  12.102  22.815  1.00  0.00    -0.202 OA
ATOM      3  C   UNL     1       9.888  13.220  22.149  1.00  0.00     0.368 A 
ATOM      4  C   UNL     1      10.258  13.138  20.804  1.00  0.00     0.162 A 
ATOM      5  C   UNL     1      10.551  14.295  20.081  1.00  0.00     0.128 A 
ATOM      6  C   UNL     1      10.478  15.544  20.707  1.00  0.00     0.093 A 
ATOM      7  C   UNL     1      10.111  15.653  22.054  1.00  0.00     0.136 A 
ATOM      8  C   UNL     1       9.809  14.479  22.791  1.00  0.00     0.125 A 
ATOM      9  C   UNL     1       9.419  14.493  24.140  1.00  0.00     0.078 A 
ATOM     10  C   UNL     1       9.132  13.294  24.800  1.00  0.00     0.223 A 
ENDROOT
BRANCH   1  11
ATOM     11  C   UNL     1       8.995  10.770  24.729  1.00  0.00     0.084 A 
ATOM     12  C   UNL     1       9.698   9.636  24.290  1.00  0.00     0.022 A 
ATOM     13  C   UNL     1       9.478   8.391  24.888  1.00  0.00     0.047 A 
ATOM     14  C   UNL     1       8.565   8.267  25.940  1.00  0.00     0.115 A 
ATOM     15  C   UNL     1       8.092  10.642  25.800  1.00  0.00     0.022 A 
ATOM     16  C   UNL     1       7.875   9.396  26.397  1.00  0.00     0.047 A 
BRANCH  14  17
ATOM     17  O   UNL     1       8.356   7.020  26.526  1.00  0.00    -0.508 OA
ATOM     18  H   UNL     1       8.214   6.189  25.964  1.00  0.00     0.293 HD
ENDBRANCH  14  17
ENDBRANCH   1  11
BRANCH  10  19
ATOM     19  O   UNL     1       8.698  13.311  26.126  1.00  0.00    -0.500 OA
ATOM     20  H   UNL     1       9.305  13.607  26.881  1.00  0.00     0.294 HD
ENDBRANCH  10  19
BRANCH   5  21
ATOM     21  O   UNL     1      10.917  14.193  18.741  1.00  0.00    -0.507 OA
ATOM     22  H   UNL     1      11.511  13.443  18.409  1.00  0.00     0.293 HD
ENDBRANCH   5  21
BRANCH   7  23
ATOM     23  O   UNL     1      10.063  16.936  22.607  1.00  0.00    -0.507 OA
ATOM     24  H   UNL     1      10.701  17.279  23.310  1.00  0.00     0.293 HD
ENDBRANCH   7  23
TORSDOF 5
ENDMDL
MODEL 3
REMARK VINA RESULT:    -6.280      1.713      7.304
REMARK INTER + INTRA:          -7.079
REMARK INTER:                  -7.107
REMARK INTRA:                   0.028
REMARK UNBOUND:                 0.302
REMARK SMILES Oc1ccc(-c2[o+]c3cc(O)cc(O)c3cc2O)cc1
REMARK SMILES IDX 6 1 7 2 8 3 9 4 10 5 12 6 13 7 15 8 16 9 17 10 5 11 4 12
REMARK SMILES IDX 3 13 2 14 19 15 20 16 1 17 18 19 11 21 14 23
REMARK H PARENT 1 18 18 20 11 22 14 24
REMARK Flexibility Score: inf
ROOT
ATOM      1  C   UNL     1       9.605  13.612  24.142  1.00  0.00     0.401 A 
ATOM      2  O   UNL     1      10.040  14.842  24.398  1.00  0.00    -0.202 OA
ATOM      3  C   UNL     1      10.415  15.696  23.451  1.00  0.00     0.368 A 
ATOM      4  C   UNL     1      10.856  16.970  23.818  1.00  0.00     0.162 A 
ATOM      5  C   UNL     1      11.251  17.888  22.846  1.00  0.00     0.128 A 
ATOM      6  C   UNL     1      11.206  17.533  21.493  1.00  0.00     0.093 A 
ATOM      7  C   UNL     1      10.767  16.263  21.098  1.00  0.00     0.136 A 
ATOM      8  C   UNL     1      10.366  15.325  22.085  1.00  0.00     0.125 A 
ATOM      9  C   UNL     1       9.926  14.026  21.783  1.00  0.00     0.078 A 
ATOM     10  C   UNL     1       9.552  13.156  22.811  1.00  0.00     0.223 A 
ENDROOT
BRANCH   1  11
ATOM     11  C   UNL     1       9.208  12.758  25.284  1.00  0.00     0.084 A 
ATOM     12  C   UNL     1       8.297  13.253  26.233  1.00  0.00     0.022 A 
ATOM     13  C   UNL     1       7.891  12.456  27.309  1.00  0.00     0.047 A 
ATOM     14  C   UNL     1       8.377  11.152  27.440  1.00  0.00     0.115 A 
ATOM     15  C   UNL     1       9.677  11.438  25.413  1.00  0.00     0.022 A 
ATOM     16  C   UNL     1       9.268  10.643  26.488  1.00  0.00     0.047 A 
BRANCH  14  17
ATOM     17  O   UNL     1       7.964  10.370  28.517  1.00  0.00    -0.508 OA
ATOM     18  H   UNL     1       7.932  10.741  29.459  1.00  0.00     0.293 HD
ENDBRANCH  14  17
ENDBRANCH   1  11
BRANCH  10  19
ATOM     19  O   UNL     1       9.162  11.850  22.516  1.00  0.00    -0.500 OA
ATOM     20  H   UNL     1       9.840  11.125  22.314  1.00  0.00     0.294 HD
ENDBRANCH  10  19
BRANCH   5  21
ATOM     21  O   UNL     1      11.689  19.153  23.232  1.00  0.00    -0.507 OA
ATOM     22  H   UNL     1      11.525  19.969  22.656  1.00  0.00     0.293 HD
ENDBRANCH   5  21
BRANCH   7  23
ATOM     23  O   UNL     1      10.747  15.985  19.728  1.00  0.00    -0.507 OA
ATOM     24  H   UNL     1      10.746  16.687  19.003  1.00  0.00     0.293 HD
ENDBRANCH   7  23
TORSDOF 5
ENDMDL
MODEL 4
REMARK VINA RESULT:    -6.153      2.399      3.726
REMARK INTER + INTRA:          -6.931
REMARK INTER:                  -6.844
REMARK INTRA:                  -0.087
REMARK UNBOUND:                 0.302
REMARK SMILES Oc1ccc(-c2[o+]c3cc(O)cc(O)c3cc2O)cc1
REMARK SMILES IDX 6 1 7 2 8 3 9 4 10 5 12 6 13 7 15 8 16 9 17 10 5 11 4 12
REMARK SMILES IDX 3 13 2 14 19 15 20 16 1 17 18 19 11 21 14 23
REMARK H PARENT 1 18 18 20 11 22 14 24
REMARK Flexibility Score: inf
ROOT
ATOM      1  C   UNL     1      10.024  14.904  23.429  1.00  0.00     0.401 A 
ATOM      2  O   UNL     1       9.413  14.470  24.527  1.00  0.00    -0.202 OA
ATOM      3  C   UNL     1       9.313  13.184  24.847  1.00  0.00     0.368 A 
ATOM      4  C   UNL     1       8.654  12.825  26.026  1.00  0.00     0.162 A 
ATOM      5  C   UNL     1       8.537  11.484  26.389  1.00  0.00     0.128 A 
ATOM      6  C   UNL     1       9.084  10.490  25.570  1.00  0.00     0.093 A 
ATOM      7  C   UNL     1       9.750  10.822  24.384  1.00  0.00     0.136 A 
ATOM      8  C   UNL     1       9.869  12.187  24.010  1.00  0.00     0.125 A 
ATOM      9  C   UNL     1      10.507  12.612  22.833  1.00  0.00     0.078 A 
ATOM     10  C   UNL     1      10.580  13.975  22.529  1.00  0.00     0.223 A 
ENDROOT
BRANCH   1  11
ATOM     11  C   UNL     1      10.078  16.364  23.187  1.00  0.00     0.084 A 
ATOM     12  C   UNL     1       8.894  17.117  23.246  1.00  0.00     0.022 A 
ATOM     13  C   UNL     1       8.924  18.501  23.043  1.00  0.00     0.047 A 
ATOM     14  C   UNL     1      10.137  19.149  22.794  1.00  0.00     0.115 A 
ATOM     15  C   UNL     1      11.298  17.025  22.956  1.00  0.00     0.022 A 
ATOM     16  C   UNL     1      11.325  18.409  22.754  1.00  0.00     0.047 A 
BRANCH  14  17
ATOM     17  O   UNL     1      10.152  20.528  22.592  1.00  0.00    -0.508 OA
ATOM     18  H   UNL     1      10.897  20.979  22.075  1.00  0.00     0.293 HD
ENDBRANCH  14  17
ENDBRANCH   1  11
BRANCH  10  19
ATOM     19  O   UNL     1      11.170  14.395  21.337  1.00  0.00    -0.500 OA
ATOM     20  H   UNL     1      11.328  15.376  21.138  1.00  0.00     0.294 HD
ENDBRANCH  10  19
BRANCH   5  21
ATOM     21  O   UNL     1       7.875  11.146  27.568  1.00  0.00    -0.507 OA
ATOM     22  H   UNL     1       7.034  11.628  27.859  1.00  0.00     0.293 HD
ENDBRANCH   5  21
BRANCH   7  23
ATOM     23  O   UNL     1      10.272   9.773  23.622  1.00  0.00    -0.507 OA
ATOM     24  H   UNL     1      11.143   9.303  23.818  1.00  0.00     0.293 HD
ENDBRANCH   7  23
TORSDOF 5
ENDMDL
MODEL 5
REMARK VINA RESULT:    -5.945      3.220      6.793
REMARK INTER + INTRA:          -6.685
REMARK INTER:                  -6.613
REMARK INTRA:                  -0.072
REMARK UNBOUND:                 0.302
REMARK SMILES Oc1ccc(-c2[o+]c3cc(O)cc(O)c3cc2O)cc1
REMARK SMILES IDX 6 1 7 2 8 3 9 4 10 5 12 6 13 7 15 8 16 9 17 10 5 11 4 12
REMARK SMILES IDX 3 13 2 14 19 15 20 16 1 17 18 19 11 21 14 23
REMARK H PARENT 1 18 18 20 11 22 14 24
REMARK Flexibility Score: inf
ROOT
ATOM      1  C   UNL     1       9.734  16.166  24.090  1.00  0.00     0.401 A 
ATOM      2  O   UNL     1      10.213  16.552  22.912  1.00  0.00    -0.202 OA
ATOM      3  C   UNL     1      10.320  15.740  21.866  1.00  0.00     0.368 A 
ATOM      4  C   UNL     1      10.833  16.240  20.665  1.00  0.00     0.162 A 
ATOM      5  C   UNL     1      10.953  15.412  19.550  1.00  0.00     0.128 A 
ATOM      6  C   UNL     1      10.557  14.073  19.631  1.00  0.00     0.093 A 
ATOM      7  C   UNL     1      10.039  13.547  20.821  1.00  0.00     0.136 A 
ATOM      8  C   UNL     1       9.918  14.386  21.959  1.00  0.00     0.125 A 
ATOM      9  C   UNL     1       9.423  13.943  23.196  1.00  0.00     0.078 A 
ATOM     10  C   UNL     1       9.337  14.828  24.275  1.00  0.00     0.223 A 
ENDROOT
BRANCH   1  11
ATOM     11  C   UNL     1       9.656  17.168  25.178  1.00  0.00     0.084 A 
ATOM     12  C   UNL     1       8.879  18.324  24.997  1.00  0.00     0.022 A 
ATOM     13  C   UNL     1       8.773  19.274  26.018  1.00  0.00     0.047 A 
ATOM     14  C   UNL     1       9.429  19.073  27.236  1.00  0.00     0.115 A 
ATOM     15  C   UNL     1      10.297  16.963  26.413  1.00  0.00     0.022 A 
ATOM     16  C   UNL     1      10.189  17.914  27.433  1.00  0.00     0.047 A 
BRANCH  14  17
ATOM     17  O   UNL     1       9.315  20.028  28.244  1.00  0.00    -0.508 OA
ATOM     18  H   UNL     1       9.717  20.953  28.145  1.00  0.00     0.293 HD
ENDBRANCH  14  17
ENDBRANCH   1  11
BRANCH  10  19
ATOM     19  O   UNL     1       8.892  14.376  25.518  1.00  0.00    -0.500 OA
ATOM     20  H   UNL     1       8.794  15.003  26.308  1.00  0.00     0.294 HD
ENDBRANCH  10  19
BRANCH   5  21
ATOM     21  O   UNL     1      11.468  15.929  18.363  1.00  0.00    -0.507 OA
ATOM     22  H   UNL     1      12.433  16.227  18.289  1.00  0.00     0.293 HD
ENDBRANCH   5  21
BRANCH   7  23
ATOM     23  O   UNL     1       9.663  12.201  20.821  1.00  0.00    -0.507 OA
ATOM     24  H   UNL     1      10.310  11.427  20.821  1.00  0.00     0.293 HD
ENDBRANCH   7  23
TORSDOF 5
ENDMDL
MODEL 6
REMARK VINA RESULT:    -5.933      2.290      3.286
REMARK INTER + INTRA:          -6.672
REMARK INTER:                  -6.396
REMARK INTRA:                  -0.276
REMARK UNBOUND:                 0.302
REMARK SMILES Oc1ccc(-c2[o+]c3cc(O)cc(O)c3cc2O)cc1
REMARK SMILES IDX 6 1 7 2 8 3 9 4 10 5 12 6 13 7 15 8 16 9 17 10 5 11 4 12
REMARK SMILES IDX 3 13 2 14 19 15 20 16 1 17 18 19 11 21 14 23
REMARK H PARENT 1 18 18 20 11 22 14 24
REMARK Flexibility Score: inf
ROOT
ATOM      1  C   UNL     1       9.284  13.015  24.412  1.00  0.00     0.401 A 
ATOM      2  O   UNL     1       9.099  12.788  25.709  1.00  0.00    -0.202 OA
ATOM      3  C   UNL     1       8.882  11.579  26.215  1.00  0.00     0.368 A 
ATOM      4  C   UNL     1       8.703  11.440  27.594  1.00  0.00     0.162 A 
ATOM      5  C   UNL     1       8.478  10.183  28.154  1.00  0.00     0.128 A 
ATOM      6  C   UNL     1       8.432   9.052  27.331  1.00  0.00     0.093 A 
ATOM      7  C   UNL     1       8.609   9.163  25.946  1.00  0.00     0.136 A 
ATOM      8  C   UNL     1       8.836  10.442  25.373  1.00  0.00     0.125 A 
ATOM      9  C   UNL     1       9.011  10.650  23.995  1.00  0.00     0.078 A 
ATOM     10  C   UNL     1       9.226  11.942  23.503  1.00  0.00     0.223 A 
ENDROOT
BRANCH   1  11
ATOM     11  C   UNL     1       9.526  14.408  23.972  1.00  0.00     0.084 A 
ATOM     12  C   UNL     1      10.828  14.805  23.623  1.00  0.00     0.022 A 
ATOM     13  C   UNL     1      11.077  16.110  23.184  1.00  0.00     0.047 A 
ATOM     14  C   UNL     1      10.028  17.027  23.074  1.00  0.00     0.115 A 
ATOM     15  C   UNL     1       8.472  15.331  23.840  1.00  0.00     0.022 A 
ATOM     16  C   UNL     1       8.724  16.634  23.399  1.00  0.00     0.047 A 
BRANCH  14  17
ATOM     17  O   UNL     1      10.291  18.324  22.636  1.00  0.00    -0.508 OA
ATOM     18  H   UNL     1       9.783  19.119  23.003  1.00  0.00     0.293 HD
ENDBRANCH  14  17
ENDBRANCH   1  11
BRANCH  10  19
ATOM     19  O   UNL     1       9.351  12.156  22.131  1.00  0.00    -0.500 OA
ATOM     20  H   UNL     1       8.542  12.315  21.542  1.00  0.00     0.294 HD
ENDBRANCH  10  19
BRANCH   5  21
ATOM     21  O   UNL     1       8.300  10.065  29.531  1.00  0.00    -0.507 OA
ATOM     22  H   UNL     1       9.047  10.276  30.181  1.00  0.00     0.293 HD
ENDBRANCH   5  21
BRANCH   7  23
ATOM     23  O   UNL     1       8.553   7.987  25.193  1.00  0.00    -0.507 OA
ATOM     24  H   UNL     1       7.842   7.783  24.506  1.00  0.00     0.293 HD
ENDBRANCH   7  23
TORSDOF 5
ENDMDL
MODEL 7
REMARK VINA RESULT:    -5.725     15.122     16.296
REMARK INTER + INTRA:          -6.427
REMARK INTER:                  -6.168
REMARK INTRA:                  -0.259
REMARK UNBOUND:                 0.302
REMARK SMILES Oc1ccc(-c2[o+]c3cc(O)cc(O)c3cc2O)cc1
REMARK SMILES IDX 6 1 7 2 8 3 9 4 10 5 12 6 13 7 15 8 16 9 17 10 5 11 4 12
REMARK SMILES IDX 3 13 2 14 19 15 20 16 1 17 18 19 11 21 14 23
REMARK H PARENT 1 18 18 20 11 22 14 24
REMARK Flexibility Score: inf
ROOT
ATOM      1  C   UNL     1      23.702   7.784  28.882  1.00  0.00     0.401 A 
ATOM      2  O   UNL     1      22.993   7.020  29.708  1.00  0.00    -0.202 OA
ATOM      3  C   UNL     1      22.948   5.694  29.618  1.00  0.00     0.368 A 
ATOM      4  C   UNL     1      22.177   4.976  30.535  1.00  0.00     0.162 A 
ATOM      5  C   UNL     1      22.113   3.584  30.468  1.00  0.00     0.128 A 
ATOM      6  C   UNL     1      22.828   2.902  29.477  1.00  0.00     0.093 A 
ATOM      7  C   UNL     1      23.609   3.598  28.546  1.00  0.00     0.136 A 
ATOM      8  C   UNL     1      23.674   5.015  28.610  1.00  0.00     0.125 A 
ATOM      9  C   UNL     1      24.419   5.795  27.712  1.00  0.00     0.078 A 
ATOM     10  C   UNL     1      24.430   7.188  27.835  1.00  0.00     0.223 A 
ENDROOT
BRANCH   1  11
ATOM     11  C   UNL     1      23.679   9.249  29.091  1.00  0.00     0.084 A 
ATOM     12  C   UNL     1      24.460   9.814  30.113  1.00  0.00     0.022 A 
ATOM     13  C   UNL     1      24.471  11.198  30.315  1.00  0.00     0.047 A 
ATOM     14  C   UNL     1      23.714  12.035  29.490  1.00  0.00     0.115 A 
ATOM     15  C   UNL     1      22.935  10.100  28.252  1.00  0.00     0.022 A 
ATOM     16  C   UNL     1      22.949  11.483  28.456  1.00  0.00     0.047 A 
BRANCH  14  17
ATOM     17  O   UNL     1      23.734  13.412  29.703  1.00  0.00    -0.508 OA
ATOM     18  H   UNL     1      23.396  14.060  29.002  1.00  0.00     0.293 HD
ENDBRANCH  14  17
ENDBRANCH   1  11
BRANCH  10  19
ATOM     19  O   UNL     1      25.131   7.967  26.914  1.00  0.00    -0.500 OA
ATOM     20  H   UNL     1      26.137   7.899  26.816  1.00  0.00     0.294 HD
ENDBRANCH  10  19
BRANCH   5  21
ATOM     21  O   UNL     1      21.338   2.886  31.391  1.00  0.00    -0.507 OA
ATOM     22  H   UNL     1      20.520   3.303  31.818  1.00  0.00     0.293 HD
ENDBRANCH   5  21
BRANCH   7  23
ATOM     23  O   UNL     1      24.295   2.845  27.589  1.00  0.00    -0.507 OA
ATOM     24  H   UNL     1      25.255   3.002  27.319  1.00  0.00     0.293 HD
ENDBRANCH   7  23
TORSDOF 5
ENDMDL
MODEL 8
REMARK VINA RESULT:    -5.681      4.374      6.313
REMARK INTER + INTRA:          -6.376
REMARK INTER:                  -6.365
REMARK INTRA:                  -0.011
REMARK UNBOUND:                 0.302
REMARK SMILES Oc1ccc(-c2[o+]c3cc(O)cc(O)c3cc2O)cc1
REMARK SMILES IDX 6 1 7 2 8 3 9 4 10 5 12 6 13 7 15 8 16 9 17 10 5 11 4 12
REMARK SMILES IDX 3 13 2 14 19 15 20 16 1 17 18 19 11 21 14 23
REMARK H PARENT 1 18 18 20 11 22 14 24
REMARK Flexibility Score: inf
ROOT
ATOM      1  C   UNL     1       9.803  17.068  22.785  1.00  0.00     0.401 A 
ATOM      2  O   UNL     1      10.050  16.773  24.057  1.00  0.00    -0.202 OA
ATOM      3  C   UNL     1       9.807  17.608  25.061  1.00  0.00     0.368 A 
ATOM      4  C   UNL     1      10.098  17.205  26.368  1.00  0.00     0.162 A 
ATOM      5  C   UNL     1       9.849  18.060  27.442  1.00  0.00     0.128 A 
ATOM      6  C   UNL     1       9.304  19.328  27.212  1.00  0.00     0.093 A 
ATOM      7  C   UNL     1       9.003  19.755  25.913  1.00  0.00     0.136 A 
ATOM      8  C   UNL     1       9.257  18.889  24.817  1.00  0.00     0.125 A 
ATOM      9  C   UNL     1       8.999  19.238  23.481  1.00  0.00     0.078 A 
ATOM     10  C   UNL     1       9.281  18.333  22.453  1.00  0.00     0.223 A 
ENDROOT
BRANCH   1  11
ATOM     11  C   UNL     1      10.109  16.048  21.756  1.00  0.00     0.084 A 
ATOM     12  C   UNL     1      10.949  16.382  20.681  1.00  0.00     0.022 A 
ATOM     13  C   UNL     1      11.269  15.429  19.708  1.00  0.00     0.047 A 
ATOM     14  C   UNL     1      10.767  14.127  19.808  1.00  0.00     0.115 A 
ATOM     15  C   UNL     1       9.624  14.731  21.860  1.00  0.00     0.022 A 
ATOM     16  C   UNL     1       9.947  13.780  20.888  1.00  0.00     0.047 A 
BRANCH  14  17
ATOM     17  O   UNL     1      11.094  13.188  18.832  1.00  0.00    -0.508 OA
ATOM     18  H   UNL     1      10.715  12.249  18.853  1.00  0.00     0.293 HD
ENDBRANCH  14  17
ENDBRANCH   1  11
BRANCH  10  19
ATOM     19  O   UNL     1       9.072  18.697  21.123  1.00  0.00    -0.500 OA
ATOM     20  H   UNL     1       9.696  18.395  20.384  1.00  0.00     0.294 HD
ENDBRANCH  10  19
BRANCH   5  21
ATOM     21  O   UNL     1      10.147  17.640  28.737  1.00  0.00    -0.507 OA
ATOM     22  H   UNL     1       9.521  17.825  29.510  1.00  0.00     0.293 HD
ENDBRANCH   5  21
BRANCH   7  23
ATOM     23  O   UNL     1       8.458  21.034  25.765  1.00  0.00    -0.507 OA
ATOM     24  H   UNL     1       8.986  21.853  25.505  1.00  0.00     0.293 HD
ENDBRANCH   7  23
TORSDOF 5
ENDMDL
MODEL 9
REMARK VINA RESULT:    -5.574      3.674      6.872
REMARK INTER + INTRA:          -6.249
REMARK INTER:                  -5.977
REMARK INTRA:                  -0.272
REMARK UNBOUND:                 0.302
REMARK SMILES Oc1ccc(-c2[o+]c3cc(O)cc(O)c3cc2O)cc1
REMARK SMILES IDX 6 1 7 2 8 3 9 4 10 5 12 6 13 7 15 8 16 9 17 10 5 11 4 12
REMARK SMILES IDX 3 13 2 14 19 15 20 16 1 17 18 19 11 21 14 23
REMARK H PARENT 1 18 18 20 11 22 14 24
REMARK Flexibility Score: inf
ROOT
ATOM      1  C   UNL     1       9.381  16.518  25.378  1.00  0.00     0.401 A 
ATOM      2  O   UNL     1       9.855  15.317  25.062  1.00  0.00    -0.202 OA
ATOM      3  C   UNL     1       9.962  14.881  23.811  1.00  0.00     0.368 A 
ATOM      4  C   UNL     1      10.476  13.602  23.577  1.00  0.00     0.162 A 
ATOM      5  C   UNL     1      10.604  13.120  22.275  1.00  0.00     0.128 A 
ATOM      6  C   UNL     1      10.218  13.921  21.194  1.00  0.00     0.093 A 
ATOM      7  C   UNL     1       9.702  15.207  21.401  1.00  0.00     0.136 A 
ATOM      8  C   UNL     1       9.567  15.700  22.725  1.00  0.00     0.125 A 
ATOM      9  C   UNL     1       9.048  16.968  23.028  1.00  0.00     0.078 A 
ATOM     10  C   UNL     1       8.941  17.383  24.359  1.00  0.00     0.223 A 
ENDROOT
BRANCH   1  11
ATOM     11  C   UNL     1       9.319  16.891  26.810  1.00  0.00     0.084 A 
ATOM     12  C   UNL     1       8.372  16.274  27.644  1.00  0.00     0.022 A 
ATOM     13  C   UNL     1       8.310  16.595  29.004  1.00  0.00     0.047 A 
ATOM     14  C   UNL     1       9.201  17.525  29.549  1.00  0.00     0.115 A 
ATOM     15  C   UNL     1      10.226  17.810  27.369  1.00  0.00     0.022 A 
ATOM     16  C   UNL     1      10.162  18.129  28.729  1.00  0.00     0.047 A 
BRANCH  14  17
ATOM     17  O   UNL     1       9.127  17.835  30.905  1.00  0.00    -0.508 OA
ATOM     18  H   UNL     1       9.493  18.707  31.269  1.00  0.00     0.293 HD
ENDBRANCH  14  17
ENDBRANCH   1  11
BRANCH  10  19
ATOM     19  O   UNL     1       8.380  18.623  24.663  1.00  0.00    -0.500 OA
ATOM     20  H   UNL     1       8.614  19.457  24.137  1.00  0.00     0.294 HD
ENDBRANCH  10  19
BRANCH   5  21
ATOM     21  O   UNL     1      11.117  11.843  22.062  1.00  0.00    -0.507 OA
ATOM     22  H   UNL     1      11.913  11.685  21.456  1.00  0.00     0.293 HD
ENDBRANCH   5  21
BRANCH   7  23
ATOM     23  O   UNL     1       9.342  15.946  20.270  1.00  0.00    -0.507 OA
ATOM     24  H   UNL     1       9.064  15.542  19.389  1.00  0.00     0.293 HD
ENDBRANCH   7  23
TORSDOF 5
ENDMDL
