MODEL 1
REMARK VINA RESULT:    -7.865      0.000      0.000
REMARK INTER + INTRA:         -12.642
REMARK INTER:                 -10.854
REMARK INTRA:                  -1.788
REMARK UNBOUND:                -1.788
REMARK SMILES CC[C@H](CC[C@H](C)[C@@H]1CC[C@H]2[C@H]3CC=C4C[C@H](O)CC[C@]4(C)[C@@H]3CC[C@]21C)C(C)C
REMARK SMILES IDX 5 1 4 2 3 3 2 4 1 5 28 6 29 7 30 8 6 9 7 10 8 11 9 12 26 13
REMARK SMILES IDX 10 14 11 15 25 16 27 17 12 18 24 19 23 20 13 21 21 22 14 23
REMARK SMILES IDX 15 24 20 25 22 26 16 27 19 28 17 29 18 30
REMARK H PARENT 18 31
REMARK Flexibility Score: inf
ROOT
ATOM      1  C   UNL     1      -5.051 -21.970 -29.142  1.00  0.00     0.004 C 
ENDROOT
BRANCH   1   2
ATOM      2  C   UNL     1      -4.189 -22.662 -30.228  1.00  0.00     0.004 C 
BRANCH   2   3
ATOM      3  C   UNL     1      -3.579 -24.070 -29.958  1.00  0.00    -0.009 C 
BRANCH   3   4
ATOM      4  C   UNL     1      -4.169 -25.160 -30.890  1.00  0.00     0.000 C 
ATOM      5  C   UNL     1      -5.163 -24.601 -31.910  1.00  0.00     0.004 C 
ENDBRANCH   3   4
BRANCH   3   6
ATOM      6  C   UNL     1      -2.028 -24.152 -29.730  1.00  0.00    -0.014 C 
ATOM      7  C   UNL     1      -1.353 -25.211 -30.615  1.00  0.00     0.007 C 
ATOM      8  C   UNL     1      -1.565 -24.302 -28.273  1.00  0.00     0.007 C 
ENDBRANCH   3   6
ENDBRANCH   2   3
ENDBRANCH   1   2
BRANCH   1   9
ATOM      9  C   UNL     1      -6.391 -22.690 -28.771  1.00  0.00    -0.011 C 
ATOM     10  C   UNL     1      -7.509 -21.641 -28.587  1.00  0.00     0.008 C 
BRANCH   9  11
ATOM     11  C   UNL     1      -6.347 -23.599 -27.483  1.00  0.00    -0.002 C 
ATOM     12  C   UNL     1      -4.994 -23.657 -26.760  1.00  0.00     0.005 C 
ATOM     13  C   UNL     1      -6.890 -25.074 -27.554  1.00  0.00    -0.026 C 
ATOM     14  C   UNL     1      -5.088 -24.868 -25.853  1.00  0.00     0.005 C 
ATOM     15  C   UNL     1      -5.925 -25.888 -26.632  1.00  0.00    -0.001 C 
ATOM     16  C   UNL     1      -8.373 -25.140 -27.051  1.00  0.00     0.007 C 
ATOM     17  C   UNL     1      -6.864 -25.686 -28.972  1.00  0.00     0.012 C 
ATOM     18  C   UNL     1      -6.667 -26.930 -25.754  1.00  0.00     0.000 C 
ATOM     19  C   UNL     1      -8.500 -25.127 -25.519  1.00  0.00     0.005 C 
ATOM     20  C   UNL     1      -7.741 -26.301 -24.833  1.00  0.00     0.003 C 
ATOM     21  C   UNL     1      -5.722 -27.770 -24.891  1.00  0.00     0.031 C 
ATOM     22  C   UNL     1      -8.645 -27.419 -24.177  1.00  0.00    -0.008 C 
ATOM     23  C   UNL     1      -6.504 -28.805 -24.129  1.00  0.00    -0.027 C 
ATOM     24  C   UNL     1      -7.805 -28.652 -23.779  1.00  0.00    -0.065 C 
ATOM     25  C   UNL     1      -9.759 -27.914 -25.155  1.00  0.00     0.014 C 
ATOM     26  C   UNL     1      -9.289 -26.819 -22.898  1.00  0.00     0.016 C 
ATOM     27  C   UNL     1      -8.544 -29.844 -23.208  1.00  0.00     0.063 C 
ATOM     28  C   UNL     1     -10.548 -29.132 -24.631  1.00  0.00     0.033 C 
ATOM     29  C   UNL     1      -9.646 -30.301 -24.181  1.00  0.00     0.118 C 
BRANCH  29  30
ATOM     30  O   UNL     1      -9.108 -30.982 -25.288  1.00  0.00    -0.393 OA
ATOM     31  H   UNL     1      -9.748 -30.910 -26.043  1.00  0.00     0.210 HD
ENDBRANCH  29  30
ENDBRANCH   9  11
ENDBRANCH   1   9
TORSDOF 7
ENDMDL
MODEL 2
REMARK VINA RESULT:    -7.430      2.320      8.154
REMARK INTER + INTRA:         -12.041
REMARK INTER:                 -10.484
REMARK INTRA:                  -1.557
REMARK UNBOUND:                -1.788
REMARK SMILES CC[C@H](CC[C@H](C)[C@@H]1CC[C@H]2[C@H]3CC=C4C[C@H](O)CC[C@]4(C)[C@@H]3CC[C@]21C)C(C)C
REMARK SMILES IDX 5 1 4 2 3 3 2 4 1 5 28 6 29 7 30 8 6 9 7 10 8 11 9 12 26 13
REMARK SMILES IDX 10 14 11 15 25 16 27 17 12 18 24 19 23 20 13 21 21 22 14 23
REMARK SMILES IDX 15 24 20 25 22 26 16 27 19 28 17 29 18 30
REMARK H PARENT 18 31
REMARK Flexibility Score: inf
ROOT
ATOM      1  C   UNL     1     -10.001 -27.242 -25.174  1.00  0.00     0.004 C 
ENDROOT
BRANCH   1   2
ATOM      2  C   UNL     1     -10.544 -28.079 -23.990  1.00  0.00     0.004 C 
BRANCH   2   3
ATOM      3  C   UNL     1      -9.840 -29.410 -23.589  1.00  0.00    -0.009 C 
BRANCH   3   4
ATOM      4  C   UNL     1      -9.492 -30.291 -24.817  1.00  0.00     0.000 C 
ATOM      5  C   UNL     1     -10.728 -30.866 -25.511  1.00  0.00     0.004 C 
ENDBRANCH   3   4
BRANCH   3   6
ATOM      6  C   UNL     1      -8.728 -29.332 -22.484  1.00  0.00    -0.014 C 
ATOM      7  C   UNL     1      -9.090 -28.366 -21.346  1.00  0.00     0.007 C 
ATOM      8  C   UNL     1      -7.299 -29.060 -22.980  1.00  0.00     0.007 C 
ENDBRANCH   3   6
ENDBRANCH   2   3
ENDBRANCH   1   2
BRANCH   1   9
ATOM      9  C   UNL     1      -8.732 -26.374 -24.874  1.00  0.00    -0.011 C 
ATOM     10  C   UNL     1      -9.049 -25.364 -23.750  1.00  0.00     0.008 C 
BRANCH   9  11
ATOM     11  C   UNL     1      -8.138 -25.581 -26.101  1.00  0.00    -0.002 C 
ATOM     12  C   UNL     1      -9.098 -25.371 -27.281  1.00  0.00     0.005 C 
ATOM     13  C   UNL     1      -6.754 -26.016 -26.711  1.00  0.00    -0.026 C 
ATOM     14  C   UNL     1      -8.206 -24.983 -28.444  1.00  0.00     0.005 C 
ATOM     15  C   UNL     1      -6.918 -25.788 -28.249  1.00  0.00    -0.001 C 
ATOM     16  C   UNL     1      -5.592 -25.151 -26.113  1.00  0.00     0.007 C 
ATOM     17  C   UNL     1      -6.393 -27.497 -26.458  1.00  0.00     0.012 C 
ATOM     18  C   UNL     1      -5.656 -25.169 -28.904  1.00  0.00     0.000 C 
ATOM     19  C   UNL     1      -5.477 -23.757 -26.750  1.00  0.00     0.005 C 
ATOM     20  C   UNL     1      -5.253 -23.806 -28.290  1.00  0.00     0.003 C 
ATOM     21  C   UNL     1      -5.788 -24.997 -30.420  1.00  0.00     0.031 C 
ATOM     22  C   UNL     1      -3.824 -23.361 -28.795  1.00  0.00    -0.008 C 
ATOM     23  C   UNL     1      -4.503 -24.465 -30.992  1.00  0.00    -0.027 C 
ATOM     24  C   UNL     1      -3.626 -23.710 -30.286  1.00  0.00    -0.065 C 
ATOM     25  C   UNL     1      -2.680 -24.068 -27.999  1.00  0.00     0.014 C 
ATOM     26  C   UNL     1      -3.717 -21.821 -28.623  1.00  0.00     0.016 C 
ATOM     27  C   UNL     1      -2.271 -23.417 -30.896  1.00  0.00     0.063 C 
ATOM     28  C   UNL     1      -1.271 -23.811 -28.575  1.00  0.00     0.033 C 
ATOM     29  C   UNL     1      -1.162 -24.109 -30.084  1.00  0.00     0.118 C 
BRANCH  29  30
ATOM     30  O   UNL     1      -1.132 -25.494 -30.327  1.00  0.00    -0.393 OA
ATOM     31  H   UNL     1      -2.023 -25.773 -30.665  1.00  0.00     0.210 HD
ENDBRANCH  29  30
ENDBRANCH   9  11
ENDBRANCH   1   9
TORSDOF 7
ENDMDL
MODEL 3
REMARK VINA RESULT:    -7.407      2.803      8.645
REMARK INTER + INTRA:         -12.009
REMARK INTER:                  -9.929
REMARK INTRA:                  -2.080
REMARK UNBOUND:                -1.788
REMARK SMILES CC[C@H](CC[C@H](C)[C@@H]1CC[C@H]2[C@H]3CC=C4C[C@H](O)CC[C@]4(C)[C@@H]3CC[C@]21C)C(C)C
REMARK SMILES IDX 5 1 4 2 3 3 2 4 1 5 28 6 29 7 30 8 6 9 7 10 8 11 9 12 26 13
REMARK SMILES IDX 10 14 11 15 25 16 27 17 12 18 24 19 23 20 13 21 21 22 14 23
REMARK SMILES IDX 15 24 20 25 22 26 16 27 19 28 17 29 18 30
REMARK H PARENT 18 31
REMARK Flexibility Score: inf
ROOT
ATOM      1  C   UNL     1     -12.540 -29.165 -23.661  1.00  0.00     0.004 C 
ENDROOT
BRANCH   1   2
ATOM      2  C   UNL     1     -12.624 -29.357 -22.127  1.00  0.00     0.004 C 
BRANCH   2   3
ATOM      3  C   UNL     1     -11.936 -28.334 -21.174  1.00  0.00    -0.009 C 
BRANCH   3   4
ATOM      4  C   UNL     1     -12.959 -27.487 -20.374  1.00  0.00     0.000 C 
ATOM      5  C   UNL     1     -14.031 -28.335 -19.688  1.00  0.00     0.004 C 
ENDBRANCH   3   4
BRANCH   3   6
ATOM      6  C   UNL     1     -10.694 -28.836 -20.354  1.00  0.00    -0.014 C 
ATOM      7  C   UNL     1     -10.026 -27.715 -19.545  1.00  0.00     0.007 C 
ATOM      8  C   UNL     1      -9.638 -29.628 -21.141  1.00  0.00     0.007 C 
ENDBRANCH   3   6
ENDBRANCH   2   3
ENDBRANCH   1   2
BRANCH   1   9
ATOM      9  C   UNL     1     -11.876 -27.833 -24.150  1.00  0.00    -0.011 C 
ATOM     10  C   UNL     1     -12.780 -27.159 -25.204  1.00  0.00     0.008 C 
BRANCH   9  11
ATOM     11  C   UNL     1     -10.426 -27.971 -24.754  1.00  0.00    -0.002 C 
ATOM     12  C   UNL     1      -9.829 -29.385 -24.724  1.00  0.00     0.005 C 
ATOM     13  C   UNL     1      -9.292 -26.987 -24.285  1.00  0.00    -0.026 C 
ATOM     14  C   UNL     1      -8.343 -29.185 -24.954  1.00  0.00     0.005 C 
ATOM     15  C   UNL     1      -8.002 -27.869 -24.249  1.00  0.00    -0.001 C 
ATOM     16  C   UNL     1      -9.153 -25.789 -25.288  1.00  0.00     0.007 C 
ATOM     17  C   UNL     1      -9.525 -26.380 -22.884  1.00  0.00     0.012 C 
ATOM     18  C   UNL     1      -6.754 -27.136 -24.807  1.00  0.00     0.000 C 
ATOM     19  C   UNL     1      -8.369 -26.146 -26.561  1.00  0.00     0.005 C 
ATOM     20  C   UNL     1      -6.927 -26.656 -26.269  1.00  0.00     0.003 C 
ATOM     21  C   UNL     1      -5.475 -27.973 -24.721  1.00  0.00     0.031 C 
ATOM     22  C   UNL     1      -5.753 -25.686 -26.686  1.00  0.00    -0.008 C 
ATOM     23  C   UNL     1      -4.300 -27.171 -25.206  1.00  0.00    -0.027 C 
ATOM     24  C   UNL     1      -4.403 -26.161 -26.105  1.00  0.00    -0.065 C 
ATOM     25  C   UNL     1      -5.991 -24.230 -26.171  1.00  0.00     0.014 C 
ATOM     26  C   UNL     1      -5.659 -25.692 -28.237  1.00  0.00     0.016 C 
ATOM     27  C   UNL     1      -3.191 -25.287 -26.353  1.00  0.00     0.063 C 
ATOM     28  C   UNL     1      -4.788 -23.288 -26.391  1.00  0.00     0.033 C 
ATOM     29  C   UNL     1      -3.458 -23.856 -25.853  1.00  0.00     0.118 C 
BRANCH  29  30
ATOM     30  O   UNL     1      -3.405 -23.781 -24.449  1.00  0.00    -0.393 OA
ATOM     31  H   UNL     1      -4.334 -23.758 -24.101  1.00  0.00     0.210 HD
ENDBRANCH  29  30
ENDBRANCH   9  11
ENDBRANCH   1   9
TORSDOF 7
ENDMDL
MODEL 4
REMARK VINA RESULT:    -7.371      2.799      8.552
REMARK INTER + INTRA:         -11.959
REMARK INTER:                 -10.607
REMARK INTRA:                  -1.353
REMARK UNBOUND:                -1.788
REMARK SMILES CC[C@H](CC[C@H](C)[C@@H]1CC[C@H]2[C@H]3CC=C4C[C@H](O)CC[C@]4(C)[C@@H]3CC[C@]21C)C(C)C
REMARK SMILES IDX 5 1 4 2 3 3 2 4 1 5 28 6 29 7 30 8 6 9 7 10 8 11 9 12 26 13
REMARK SMILES IDX 10 14 11 15 25 16 27 17 12 18 24 19 23 20 13 21 21 22 14 23
REMARK SMILES IDX 15 24 20 25 22 26 16 27 19 28 17 29 18 30
REMARK H PARENT 18 31
REMARK Flexibility Score: inf
ROOT
ATOM      1  C   UNL     1      -9.043 -26.697 -23.303  1.00  0.00     0.004 C 
ENDROOT
BRANCH   1   2
ATOM      2  C   UNL     1     -10.353 -27.445 -22.951  1.00  0.00     0.004 C 
BRANCH   2   3
ATOM      3  C   UNL     1     -10.292 -28.886 -22.360  1.00  0.00    -0.009 C 
BRANCH   3   4
ATOM      4  C   UNL     1      -9.136 -29.726 -22.961  1.00  0.00     0.000 C 
ATOM      5  C   UNL     1      -9.429 -30.220 -24.378  1.00  0.00     0.004 C 
ENDBRANCH   3   4
BRANCH   3   6
ATOM      6  C   UNL     1     -10.496 -29.038 -20.811  1.00  0.00    -0.014 C 
ATOM      7  C   UNL     1     -11.965 -29.268 -20.426  1.00  0.00     0.007 C 
ATOM      8  C   UNL     1      -9.882 -27.934 -19.936  1.00  0.00     0.007 C 
ENDBRANCH   3   6
ENDBRANCH   2   3
ENDBRANCH   1   2
BRANCH   1   9
ATOM      9  C   UNL     1      -8.935 -26.157 -24.769  1.00  0.00    -0.011 C 
ATOM     10  C   UNL     1      -9.998 -26.843 -25.653  1.00  0.00     0.008 C 
BRANCH   9  11
ATOM     11  C   UNL     1      -7.528 -26.329 -25.460  1.00  0.00    -0.002 C 
ATOM     12  C   UNL     1      -6.554 -27.282 -24.752  1.00  0.00     0.005 C 
ATOM     13  C   UNL     1      -6.702 -25.055 -25.870  1.00  0.00    -0.026 C 
ATOM     14  C   UNL     1      -5.195 -26.961 -25.343  1.00  0.00     0.005 C 
ATOM     15  C   UNL     1      -5.215 -25.450 -25.595  1.00  0.00    -0.001 C 
ATOM     16  C   UNL     1      -6.944 -24.702 -27.378  1.00  0.00     0.007 C 
ATOM     17  C   UNL     1      -7.046 -23.792 -25.049  1.00  0.00     0.012 C 
ATOM     18  C   UNL     1      -4.247 -24.962 -26.704  1.00  0.00     0.000 C 
ATOM     19  C   UNL     1      -6.138 -25.582 -28.348  1.00  0.00     0.005 C 
ATOM     20  C   UNL     1      -4.601 -25.504 -28.111  1.00  0.00     0.003 C 
ATOM     21  C   UNL     1      -2.781 -25.295 -26.413  1.00  0.00     0.031 C 
ATOM     22  C   UNL     1      -3.766 -24.764 -29.228  1.00  0.00    -0.008 C 
ATOM     23  C   UNL     1      -1.899 -24.725 -27.490  1.00  0.00    -0.027 C 
ATOM     24  C   UNL     1      -2.317 -24.506 -28.761  1.00  0.00    -0.065 C 
ATOM     25  C   UNL     1      -4.387 -23.378 -29.596  1.00  0.00     0.014 C 
ATOM     26  C   UNL     1      -3.731 -25.681 -30.481  1.00  0.00     0.016 C 
ATOM     27  C   UNL     1      -1.411 -23.730 -29.695  1.00  0.00     0.063 C 
ATOM     28  C   UNL     1      -3.508 -22.536 -30.545  1.00  0.00     0.033 C 
ATOM     29  C   UNL     1      -2.053 -22.379 -30.056  1.00  0.00     0.118 C 
BRANCH  29  30
ATOM     30  O   UNL     1      -1.973 -21.467 -28.988  1.00  0.00    -0.393 OA
ATOM     31  H   UNL     1      -2.810 -20.935 -28.965  1.00  0.00     0.210 HD
ENDBRANCH  29  30
ENDBRANCH   9  11
ENDBRANCH   1   9
TORSDOF 7
ENDMDL
MODEL 5
REMARK VINA RESULT:    -7.345      3.758      5.985
REMARK INTER + INTRA:         -11.924
REMARK INTER:                 -10.764
REMARK INTRA:                  -1.160
REMARK UNBOUND:                -1.788
REMARK SMILES CC[C@H](CC[C@H](C)[C@@H]1CC[C@H]2[C@H]3CC=C4C[C@H](O)CC[C@]4(C)[C@@H]3CC[C@]21C)C(C)C
REMARK SMILES IDX 5 1 4 2 3 3 2 4 1 5 28 6 29 7 30 8 6 9 7 10 8 11 9 12 26 13
REMARK SMILES IDX 10 14 11 15 25 16 27 17 12 18 24 19 23 20 13 21 21 22 14 23
REMARK SMILES IDX 15 24 20 25 22 26 16 27 19 28 17 29 18 30
REMARK H PARENT 18 31
REMARK Flexibility Score: inf
ROOT
ATOM      1  C   UNL     1      -5.331 -25.162 -29.437  1.00  0.00     0.004 C 
ENDROOT
BRANCH   1   2
ATOM      2  C   UNL     1      -4.547 -24.936 -30.753  1.00  0.00     0.004 C 
BRANCH   2   3
ATOM      3  C   UNL     1      -3.596 -23.709 -30.893  1.00  0.00    -0.009 C 
BRANCH   3   4
ATOM      4  C   UNL     1      -4.208 -22.414 -30.298  1.00  0.00     0.000 C 
ATOM      5  C   UNL     1      -5.351 -21.849 -31.144  1.00  0.00     0.004 C 
ENDBRANCH   3   4
BRANCH   3   6
ATOM      6  C   UNL     1      -2.075 -23.937 -30.578  1.00  0.00    -0.014 C 
ATOM      7  C   UNL     1      -1.678 -25.420 -30.613  1.00  0.00     0.007 C 
ATOM      8  C   UNL     1      -1.541 -23.272 -29.300  1.00  0.00     0.007 C 
ENDBRANCH   3   6
ENDBRANCH   2   3
ENDBRANCH   1   2
BRANCH   1   9
ATOM      9  C   UNL     1      -4.466 -25.454 -28.165  1.00  0.00    -0.011 C 
ATOM     10  C   UNL     1      -4.947 -26.761 -27.499  1.00  0.00     0.008 C 
BRANCH   9  11
ATOM     11  C   UNL     1      -4.448 -24.317 -27.072  1.00  0.00    -0.002 C 
ATOM     12  C   UNL     1      -3.393 -24.477 -25.968  1.00  0.00     0.005 C 
ATOM     13  C   UNL     1      -5.789 -23.900 -26.363  1.00  0.00    -0.026 C 
ATOM     14  C   UNL     1      -3.840 -23.540 -24.863  1.00  0.00     0.005 C 
ATOM     15  C   UNL     1      -5.371 -23.590 -24.889  1.00  0.00    -0.001 C 
ATOM     16  C   UNL     1      -6.418 -22.647 -27.067  1.00  0.00     0.007 C 
ATOM     17  C   UNL     1      -6.869 -25.005 -26.357  1.00  0.00     0.012 C 
ATOM     18  C   UNL     1      -6.074 -22.333 -24.314  1.00  0.00     0.000 C 
ATOM     19  C   UNL     1      -5.749 -21.322 -26.667  1.00  0.00     0.005 C 
ATOM     20  C   UNL     1      -5.803 -21.049 -25.135  1.00  0.00     0.003 C 
ATOM     21  C   UNL     1      -5.713 -22.058 -22.852  1.00  0.00     0.031 C 
ATOM     22  C   UNL     1      -6.753 -19.874 -24.675  1.00  0.00    -0.008 C 
ATOM     23  C   UNL     1      -6.489 -20.874 -22.343  1.00  0.00    -0.027 C 
ATOM     24  C   UNL     1      -6.939 -19.876 -23.142  1.00  0.00    -0.065 C 
ATOM     25  C   UNL     1      -8.175 -19.993 -25.313  1.00  0.00     0.014 C 
ATOM     26  C   UNL     1      -6.091 -18.534 -25.097  1.00  0.00     0.016 C 
ATOM     27  C   UNL     1      -7.891 -18.854 -22.554  1.00  0.00     0.063 C 
ATOM     28  C   UNL     1      -9.194 -18.979 -24.752  1.00  0.00     0.033 C 
ATOM     29  C   UNL     1      -9.277 -18.980 -23.212  1.00  0.00     0.118 C 
BRANCH  29  30
ATOM     30  O   UNL     1      -9.971 -20.110 -22.741  1.00  0.00    -0.393 OA
ATOM     31  H   UNL     1      -9.490 -20.467 -21.951  1.00  0.00     0.210 HD
ENDBRANCH  29  30
ENDBRANCH   9  11
ENDBRANCH   1   9
TORSDOF 7
ENDMDL
MODEL 6
REMARK VINA RESULT:    -7.330      8.049     11.091
REMARK INTER + INTRA:         -11.902
REMARK INTER:                  -9.879
REMARK INTRA:                  -2.023
REMARK UNBOUND:                -1.788
REMARK SMILES CC[C@H](CC[C@H](C)[C@@H]1CC[C@H]2[C@H]3CC=C4C[C@H](O)CC[C@]4(C)[C@@H]3CC[C@]21C)C(C)C
REMARK SMILES IDX 5 1 4 2 3 3 2 4 1 5 28 6 29 7 30 8 6 9 7 10 8 11 9 12 26 13
REMARK SMILES IDX 10 14 11 15 25 16 27 17 12 18 24 19 23 20 13 21 21 22 14 23
REMARK SMILES IDX 15 24 20 25 22 26 16 27 19 28 17 29 18 30
REMARK H PARENT 18 31
REMARK Flexibility Score: inf
ROOT
ATOM      1  C   UNL     1     -15.543 -27.215 -19.224  1.00  0.00     0.004 C 
ENDROOT
BRANCH   1   2
ATOM      2  C   UNL     1     -15.703 -25.786 -19.800  1.00  0.00     0.004 C 
BRANCH   2   3
ATOM      3  C   UNL     1     -14.442 -24.958 -20.191  1.00  0.00    -0.009 C 
BRANCH   3   4
ATOM      4  C   UNL     1     -14.054 -23.922 -19.105  1.00  0.00     0.000 C 
ATOM      5  C   UNL     1     -14.763 -24.158 -17.770  1.00  0.00     0.004 C 
ENDBRANCH   3   4
BRANCH   3   6
ATOM      6  C   UNL     1     -13.240 -25.736 -20.835  1.00  0.00    -0.014 C 
ATOM      7  C   UNL     1     -11.983 -25.720 -19.953  1.00  0.00     0.007 C 
ATOM      8  C   UNL     1     -12.883 -25.353 -22.280  1.00  0.00     0.007 C 
ENDBRANCH   3   6
ENDBRANCH   2   3
ENDBRANCH   1   2
BRANCH   1   9
ATOM      9  C   UNL     1     -16.119 -28.376 -20.103  1.00  0.00    -0.011 C 
ATOM     10  C   UNL     1     -16.855 -29.392 -19.203  1.00  0.00     0.008 C 
BRANCH   9  11
ATOM     11  C   UNL     1     -15.068 -29.159 -20.979  1.00  0.00    -0.002 C 
ATOM     12  C   UNL     1     -13.607 -29.044 -20.521  1.00  0.00     0.005 C 
ATOM     13  C   UNL     1     -15.071 -28.980 -22.542  1.00  0.00    -0.026 C 
ATOM     14  C   UNL     1     -12.788 -29.505 -21.711  1.00  0.00     0.005 C 
ATOM     15  C   UNL     1     -13.560 -29.020 -22.942  1.00  0.00    -0.001 C 
ATOM     16  C   UNL     1     -15.887 -30.129 -23.227  1.00  0.00     0.007 C 
ATOM     17  C   UNL     1     -15.681 -27.643 -23.021  1.00  0.00     0.012 C 
ATOM     18  C   UNL     1     -13.300 -29.835 -24.236  1.00  0.00     0.000 C 
ATOM     19  C   UNL     1     -15.107 -31.449 -23.343  1.00  0.00     0.005 C 
ATOM     20  C   UNL     1     -13.778 -31.305 -24.142  1.00  0.00     0.003 C 
ATOM     21  C   UNL     1     -11.831 -29.830 -24.665  1.00  0.00     0.031 C 
ATOM     22  C   UNL     1     -13.746 -31.999 -25.560  1.00  0.00    -0.008 C 
ATOM     23  C   UNL     1     -11.670 -30.572 -25.964  1.00  0.00    -0.027 C 
ATOM     24  C   UNL     1     -12.503 -31.563 -26.367  1.00  0.00    -0.065 C 
ATOM     25  C   UNL     1     -15.003 -31.636 -26.415  1.00  0.00     0.014 C 
ATOM     26  C   UNL     1     -13.682 -33.535 -25.336  1.00  0.00     0.016 C 
ATOM     27  C   UNL     1     -12.373 -32.084 -27.783  1.00  0.00     0.063 C 
ATOM     28  C   UNL     1     -14.929 -32.137 -27.873  1.00  0.00     0.033 C 
ATOM     29  C   UNL     1     -13.630 -31.729 -28.597  1.00  0.00     0.118 C 
BRANCH  29  30
ATOM     30  O   UNL     1     -13.650 -30.366 -28.947  1.00  0.00    -0.393 OA
ATOM     31  H   UNL     1     -13.416 -30.285 -29.908  1.00  0.00     0.210 HD
ENDBRANCH  29  30
ENDBRANCH   9  11
ENDBRANCH   1   9
TORSDOF 7
ENDMDL
MODEL 7
REMARK VINA RESULT:    -7.236      4.688      8.450
REMARK INTER + INTRA:         -11.773
REMARK INTER:                  -9.512
REMARK INTRA:                  -2.260
REMARK UNBOUND:                -1.788
REMARK SMILES CC[C@H](CC[C@H](C)[C@@H]1CC[C@H]2[C@H]3CC=C4C[C@H](O)CC[C@]4(C)[C@@H]3CC[C@]21C)C(C)C
REMARK SMILES IDX 5 1 4 2 3 3 2 4 1 5 28 6 29 7 30 8 6 9 7 10 8 11 9 12 26 13
REMARK SMILES IDX 10 14 11 15 25 16 27 17 12 18 24 19 23 20 13 21 21 22 14 23
REMARK SMILES IDX 15 24 20 25 22 26 16 27 19 28 17 29 18 30
REMARK H PARENT 18 31
REMARK Flexibility Score: inf
ROOT
ATOM      1  C   UNL     1      -7.425 -18.265 -22.969  1.00  0.00     0.004 C 
ENDROOT
BRANCH   1   2
ATOM      2  C   UNL     1      -8.841 -17.721 -23.282  1.00  0.00     0.004 C 
BRANCH   2   3
ATOM      3  C   UNL     1      -9.822 -18.558 -24.156  1.00  0.00    -0.009 C 
BRANCH   3   4
ATOM      4  C   UNL     1     -10.928 -19.245 -23.315  1.00  0.00     0.000 C 
ATOM      5  C   UNL     1     -10.734 -20.758 -23.193  1.00  0.00     0.004 C 
ENDBRANCH   3   4
BRANCH   3   6
ATOM      6  C   UNL     1     -10.307 -17.919 -25.507  1.00  0.00    -0.014 C 
ATOM      7  C   UNL     1     -11.836 -17.927 -25.651  1.00  0.00     0.007 C 
ATOM      8  C   UNL     1      -9.648 -18.460 -26.786  1.00  0.00     0.007 C 
ENDBRANCH   3   6
ENDBRANCH   2   3
ENDBRANCH   1   2
BRANCH   1   9
ATOM      9  C   UNL     1      -7.129 -19.724 -23.455  1.00  0.00    -0.011 C 
ATOM     10  C   UNL     1      -6.373 -20.494 -22.351  1.00  0.00     0.008 C 
BRANCH   9  11
ATOM     11  C   UNL     1      -6.310 -19.847 -24.796  1.00  0.00    -0.002 C 
ATOM     12  C   UNL     1      -6.178 -18.553 -25.613  1.00  0.00     0.005 C 
ATOM     13  C   UNL     1      -6.655 -20.995 -25.815  1.00  0.00    -0.026 C 
ATOM     14  C   UNL     1      -5.741 -19.005 -26.992  1.00  0.00     0.005 C 
ATOM     15  C   UNL     1      -6.454 -20.342 -27.221  1.00  0.00    -0.001 C 
ATOM     16  C   UNL     1      -5.706 -22.224 -25.602  1.00  0.00     0.007 C 
ATOM     17  C   UNL     1      -8.105 -21.518 -25.707  1.00  0.00     0.012 C 
ATOM     18  C   UNL     1      -5.756 -21.288 -28.232  1.00  0.00     0.000 C 
ATOM     19  C   UNL     1      -4.314 -22.037 -26.226  1.00  0.00     0.005 C 
ATOM     20  C   UNL     1      -4.362 -21.770 -27.759  1.00  0.00     0.003 C 
ATOM     21  C   UNL     1      -5.609 -20.676 -29.627  1.00  0.00     0.031 C 
ATOM     22  C   UNL     1      -3.826 -22.934 -28.682  1.00  0.00    -0.008 C 
ATOM     23  C   UNL     1      -4.996 -21.676 -30.568  1.00  0.00    -0.027 C 
ATOM     24  C   UNL     1      -4.175 -22.677 -30.164  1.00  0.00    -0.065 C 
ATOM     25  C   UNL     1      -4.445 -24.316 -28.294  1.00  0.00     0.014 C 
ATOM     26  C   UNL     1      -2.280 -22.984 -28.534  1.00  0.00     0.016 C 
ATOM     27  C   UNL     1      -3.796 -23.748 -31.165  1.00  0.00     0.063 C 
ATOM     28  C   UNL     1      -4.097 -25.451 -29.280  1.00  0.00     0.033 C 
ATOM     29  C   UNL     1      -4.402 -25.101 -30.751  1.00  0.00     0.118 C 
BRANCH  29  30
ATOM     30  O   UNL     1      -5.784 -25.148 -31.008  1.00  0.00    -0.393 OA
ATOM     31  H   UNL     1      -6.104 -24.223 -31.176  1.00  0.00     0.210 HD
ENDBRANCH  29  30
ENDBRANCH   9  11
ENDBRANCH   1   9
TORSDOF 7
ENDMDL
MODEL 8
REMARK VINA RESULT:    -7.177      4.560      8.229
REMARK INTER + INTRA:         -11.692
REMARK INTER:                  -9.335
REMARK INTRA:                  -2.357
REMARK UNBOUND:                -1.788
REMARK SMILES CC[C@H](CC[C@H](C)[C@@H]1CC[C@H]2[C@H]3CC=C4C[C@H](O)CC[C@]4(C)[C@@H]3CC[C@]21C)C(C)C
REMARK SMILES IDX 5 1 4 2 3 3 2 4 1 5 28 6 29 7 30 8 6 9 7 10 8 11 9 12 26 13
REMARK SMILES IDX 10 14 11 15 25 16 27 17 12 18 24 19 23 20 13 21 21 22 14 23
REMARK SMILES IDX 15 24 20 25 22 26 16 27 19 28 17 29 18 30
REMARK H PARENT 18 31
REMARK Flexibility Score: inf
ROOT
ATOM      1  C   UNL     1      -8.563 -16.532 -28.471  1.00  0.00     0.004 C 
ENDROOT
BRANCH   1   2
ATOM      2  C   UNL     1      -8.453 -15.936 -27.046  1.00  0.00     0.004 C 
BRANCH   2   3
ATOM      3  C   UNL     1      -7.272 -16.349 -26.118  1.00  0.00    -0.009 C 
BRANCH   3   4
ATOM      4  C   UNL     1      -6.344 -15.156 -25.771  1.00  0.00     0.000 C 
ATOM      5  C   UNL     1      -4.910 -15.349 -26.268  1.00  0.00     0.004 C 
ENDBRANCH   3   4
BRANCH   3   6
ATOM      6  C   UNL     1      -7.599 -17.313 -24.922  1.00  0.00    -0.014 C 
ATOM      7  C   UNL     1      -6.518 -18.384 -24.711  1.00  0.00     0.007 C 
ATOM      8  C   UNL     1      -8.993 -17.958 -24.935  1.00  0.00     0.007 C 
ENDBRANCH   3   6
ENDBRANCH   2   3
ENDBRANCH   1   2
BRANCH   1   9
ATOM      9  C   UNL     1      -7.256 -17.173 -29.049  1.00  0.00    -0.011 C 
ATOM     10  C   UNL     1      -7.027 -16.672 -30.491  1.00  0.00     0.008 C 
BRANCH   9  11
ATOM     11  C   UNL     1      -7.211 -18.749 -29.058  1.00  0.00    -0.002 C 
ATOM     12  C   UNL     1      -8.298 -19.446 -28.227  1.00  0.00     0.005 C 
ATOM     13  C   UNL     1      -5.857 -19.489 -28.751  1.00  0.00    -0.026 C 
ATOM     14  C   UNL     1      -7.805 -20.870 -28.057  1.00  0.00     0.005 C 
ATOM     15  C   UNL     1      -6.282 -20.756 -27.938  1.00  0.00    -0.001 C 
ATOM     16  C   UNL     1      -5.122 -19.869 -30.083  1.00  0.00     0.007 C 
ATOM     17  C   UNL     1      -4.864 -18.660 -27.906  1.00  0.00     0.012 C 
ATOM     18  C   UNL     1      -5.498 -22.028 -28.353  1.00  0.00     0.000 C 
ATOM     19  C   UNL     1      -5.698 -21.122 -30.762  1.00  0.00     0.005 C 
ATOM     20  C   UNL     1      -5.656 -22.385 -29.852  1.00  0.00     0.003 C 
ATOM     21  C   UNL     1      -5.868 -23.260 -27.522  1.00  0.00     0.031 C 
ATOM     22  C   UNL     1      -4.629 -23.508 -30.274  1.00  0.00    -0.008 C 
ATOM     23  C   UNL     1      -5.016 -24.431 -27.928  1.00  0.00    -0.027 C 
ATOM     24  C   UNL     1      -4.475 -24.570 -29.164  1.00  0.00    -0.065 C 
ATOM     25  C   UNL     1      -3.208 -22.922 -30.554  1.00  0.00     0.014 C 
ATOM     26  C   UNL     1      -5.180 -24.198 -31.552  1.00  0.00     0.016 C 
ATOM     27  C   UNL     1      -3.462 -25.673 -29.389  1.00  0.00     0.063 C 
ATOM     28  C   UNL     1      -2.127 -23.998 -30.789  1.00  0.00     0.033 C 
ATOM     29  C   UNL     1      -2.077 -25.070 -29.679  1.00  0.00     0.118 C 
BRANCH  29  30
ATOM     30  O   UNL     1      -1.479 -24.562 -28.511  1.00  0.00    -0.393 OA
ATOM     31  H   UNL     1      -0.504 -24.469 -28.672  1.00  0.00     0.210 HD
ENDBRANCH  29  30
ENDBRANCH   9  11
ENDBRANCH   1   9
TORSDOF 7
ENDMDL
MODEL 9
REMARK VINA RESULT:    -7.127      5.005      8.634
REMARK INTER + INTRA:         -11.623
REMARK INTER:                  -9.711
REMARK INTRA:                  -1.912
REMARK UNBOUND:                -1.788
REMARK SMILES CC[C@H](CC[C@H](C)[C@@H]1CC[C@H]2[C@H]3CC=C4C[C@H](O)CC[C@]4(C)[C@@H]3CC[C@]21C)C(C)C
REMARK SMILES IDX 5 1 4 2 3 3 2 4 1 5 28 6 29 7 30 8 6 9 7 10 8 11 9 12 26 13
REMARK SMILES IDX 10 14 11 15 25 16 27 17 12 18 24 19 23 20 13 21 21 22 14 23
REMARK SMILES IDX 15 24 20 25 22 26 16 27 19 28 17 29 18 30
REMARK H PARENT 18 31
REMARK Flexibility Score: inf
ROOT
ATOM      1  C   UNL     1      -7.553 -15.919 -27.252  1.00  0.00     0.004 C 
ENDROOT
BRANCH   1   2
ATOM      2  C   UNL     1      -9.001 -16.469 -27.275  1.00  0.00     0.004 C 
BRANCH   2   3
ATOM      3  C   UNL     1      -9.773 -16.577 -28.624  1.00  0.00    -0.009 C 
BRANCH   3   4
ATOM      4  C   UNL     1     -11.006 -15.639 -28.679  1.00  0.00     0.000 C 
ATOM      5  C   UNL     1     -12.306 -16.378 -29.000  1.00  0.00     0.004 C 
ENDBRANCH   3   4
BRANCH   3   6
ATOM      6  C   UNL     1      -8.918 -16.637 -29.939  1.00  0.00    -0.014 C 
ATOM      7  C   UNL     1      -9.031 -15.356 -30.779  1.00  0.00     0.007 C 
ATOM      8  C   UNL     1      -9.125 -17.875 -30.825  1.00  0.00     0.007 C 
ENDBRANCH   3   6
ENDBRANCH   2   3
ENDBRANCH   1   2
BRANCH   1   9
ATOM      9  C   UNL     1      -6.456 -16.899 -26.716  1.00  0.00    -0.011 C 
ATOM     10  C   UNL     1      -5.367 -16.100 -25.968  1.00  0.00     0.008 C 
BRANCH   9  11
ATOM     11  C   UNL     1      -5.753 -17.801 -27.801  1.00  0.00    -0.002 C 
ATOM     12  C   UNL     1      -5.753 -17.238 -29.230  1.00  0.00     0.005 C 
ATOM     13  C   UNL     1      -6.131 -19.324 -27.910  1.00  0.00    -0.026 C 
ATOM     14  C   UNL     1      -5.418 -18.423 -30.115  1.00  0.00     0.005 C 
ATOM     15  C   UNL     1      -6.085 -19.627 -29.444  1.00  0.00    -0.001 C 
ATOM     16  C   UNL     1      -5.110 -20.204 -27.110  1.00  0.00     0.007 C 
ATOM     17  C   UNL     1      -7.540 -19.662 -27.374  1.00  0.00     0.012 C 
ATOM     18  C   UNL     1      -5.434 -20.997 -29.767  1.00  0.00     0.000 C 
ATOM     19  C   UNL     1      -3.788 -20.440 -27.858  1.00  0.00     0.005 C 
ATOM     20  C   UNL     1      -3.983 -21.127 -29.242  1.00  0.00     0.003 C 
ATOM     21  C   UNL     1      -5.438 -21.327 -31.263  1.00  0.00     0.031 C 
ATOM     22  C   UNL     1      -3.475 -22.618 -29.351  1.00  0.00    -0.008 C 
ATOM     23  C   UNL     1      -4.863 -22.698 -31.490  1.00  0.00    -0.027 C 
ATOM     24  C   UNL     1      -3.965 -23.279 -30.658  1.00  0.00    -0.065 C 
ATOM     25  C   UNL     1      -3.992 -23.497 -28.167  1.00  0.00     0.014 C 
ATOM     26  C   UNL     1      -1.922 -22.592 -29.355  1.00  0.00     0.016 C 
ATOM     27  C   UNL     1      -3.624 -24.740 -30.870  1.00  0.00     0.063 C 
ATOM     28  C   UNL     1      -3.679 -25.000 -28.326  1.00  0.00     0.033 C 
ATOM     29  C   UNL     1      -4.128 -25.580 -29.683  1.00  0.00     0.118 C 
BRANCH  29  30
ATOM     30  O   UNL     1      -5.524 -25.750 -29.726  1.00  0.00    -0.393 OA
ATOM     31  H   UNL     1      -5.948 -24.855 -29.785  1.00  0.00     0.210 HD
ENDBRANCH  29  30
ENDBRANCH   9  11
ENDBRANCH   1   9
TORSDOF 7
ENDMDL
