MODEL 1
REMARK VINA RESULT:    -3.931      0.000      0.000
REMARK INTER + INTRA:          -6.449
REMARK INTER:                  -5.425
REMARK INTRA:                  -1.025
REMARK UNBOUND:                -1.025
REMARK SMILES CC[C@H](CC[C@H](C)[C@H]1CC[C@@H]2[C@H]3CC=C4C[C@@H](O)CC[C@@]4(C)[C@@H]3CC[C@@]21C)C(C)C
REMARK SMILES IDX 5 1 4 2 3 3 2 4 1 5 28 6 29 7 30 8 6 9 7 10 8 11 9 12 26 13
REMARK SMILES IDX 10 14 11 15 25 16 27 17 12 18 24 19 23 20 13 21 21 22 14 23
REMARK SMILES IDX 15 24 20 25 22 26 16 27 19 28 17 29 18 30
REMARK H PARENT 18 31
REMARK Flexibility Score: inf
ROOT
ATOM      1  C   UNL     1      36.700  19.789   6.311  1.00  0.00     0.004 C 
ENDROOT
BRANCH   1   2
ATOM      2  C   UNL     1      37.969  20.332   5.607  1.00  0.00     0.004 C 
BRANCH   2   3
ATOM      3  C   UNL     1      38.004  21.888   5.567  1.00  0.00    -0.009 C 
BRANCH   3   4
ATOM      4  C   UNL     1      37.802  22.401   4.101  1.00  0.00     0.000 C 
ATOM      5  C   UNL     1      38.072  21.307   3.066  1.00  0.00     0.004 C 
ENDBRANCH   3   4
BRANCH   3   6
ATOM      6  C   UNL     1      36.962  22.558   6.528  1.00  0.00    -0.014 C 
ATOM      7  C   UNL     1      37.604  23.252   7.752  1.00  0.00     0.007 C 
ATOM      8  C   UNL     1      36.120  23.604   5.768  1.00  0.00     0.007 C 
ENDBRANCH   3   6
ENDBRANCH   2   3
ENDBRANCH   1   2
BRANCH   1   9
ATOM      9  C   UNL     1      35.759  18.934   5.403  1.00  0.00    -0.011 C 
ATOM     10  C   UNL     1      36.611  18.198   4.339  1.00  0.00     0.008 C 
BRANCH   9  11
ATOM     11  C   UNL     1      34.417  19.684   4.914  1.00  0.00    -0.002 C 
ATOM     12  C   UNL     1      34.721  21.005   4.183  1.00  0.00     0.005 C 
ATOM     13  C   UNL     1      33.302  19.013   4.029  1.00  0.00    -0.026 C 
ATOM     14  C   UNL     1      33.457  21.457   3.487  1.00  0.00     0.005 C 
ATOM     15  C   UNL     1      32.527  20.236   3.380  1.00  0.00    -0.001 C 
ATOM     16  C   UNL     1      32.351  18.050   4.823  1.00  0.00     0.007 C 
ATOM     17  C   UNL     1      33.948  18.190   2.878  1.00  0.00     0.012 C 
ATOM     18  C   UNL     1      31.110  20.630   3.939  1.00  0.00     0.000 C 
ATOM     19  C   UNL     1      31.131  18.692   5.460  1.00  0.00     0.005 C 
ATOM     20  C   UNL     1      30.289  19.414   4.398  1.00  0.00     0.003 C 
ATOM     21  C   UNL     1      30.348  21.451   2.876  1.00  0.00     0.031 C 
ATOM     22  C   UNL     1      28.846  19.811   4.911  1.00  0.00    -0.008 C 
ATOM     23  C   UNL     1      28.868  21.563   3.096  1.00  0.00    -0.027 C 
ATOM     24  C   UNL     1      28.165  20.750   3.912  1.00  0.00    -0.065 C 
ATOM     25  C   UNL     1      27.968  18.527   5.003  1.00  0.00     0.014 C 
ATOM     26  C   UNL     1      28.912  20.508   6.298  1.00  0.00     0.016 C 
ATOM     27  C   UNL     1      26.665  20.676   3.685  1.00  0.00     0.063 C 
ATOM     28  C   UNL     1      26.517  18.786   5.446  1.00  0.00     0.033 C 
ATOM     29  C   UNL     1      25.894  20.085   4.877  1.00  0.00     0.118 C 
BRANCH  29  30
ATOM     30  O   UNL     1      24.545  19.879   4.535  1.00  0.00    -0.393 OA
ATOM     31  H   UNL     1      24.254  19.030   4.959  1.00  0.00     0.210 HD
ENDBRANCH  29  30
ENDBRANCH   9  11
ENDBRANCH   1   9
TORSDOF 7
ENDMDL
MODEL 2
REMARK VINA RESULT:    -3.853      3.619      7.476
REMARK INTER + INTRA:          -6.342
REMARK INTER:                  -5.086
REMARK INTRA:                  -1.256
REMARK UNBOUND:                -1.025
REMARK SMILES CC[C@H](CC[C@H](C)[C@H]1CC[C@@H]2[C@H]3CC=C4C[C@@H](O)CC[C@@]4(C)[C@@H]3CC[C@@]21C)C(C)C
REMARK SMILES IDX 5 1 4 2 3 3 2 4 1 5 28 6 29 7 30 8 6 9 7 10 8 11 9 12 26 13
REMARK SMILES IDX 10 14 11 15 25 16 27 17 12 18 24 19 23 20 13 21 21 22 14 23
REMARK SMILES IDX 15 24 20 25 22 26 16 27 19 28 17 29 18 30
REMARK H PARENT 18 31
REMARK Flexibility Score: inf
ROOT
ATOM      1  C   UNL     1      28.103  23.756   4.900  1.00  0.00     0.004 C 
ENDROOT
BRANCH   1   2
ATOM      2  C   UNL     1      29.088  24.324   5.952  1.00  0.00     0.004 C 
BRANCH   2   3
ATOM      3  C   UNL     1      29.993  25.449   5.369  1.00  0.00    -0.009 C 
BRANCH   3   4
ATOM      4  C   UNL     1      30.707  24.957   4.064  1.00  0.00     0.000 C 
ATOM      5  C   UNL     1      31.815  23.946   4.362  1.00  0.00     0.004 C 
ENDBRANCH   3   4
BRANCH   3   6
ATOM      6  C   UNL     1      29.222  26.787   5.098  1.00  0.00    -0.014 C 
ATOM      7  C   UNL     1      28.507  27.355   6.346  1.00  0.00     0.007 C 
ATOM      8  C   UNL     1      30.184  27.867   4.562  1.00  0.00     0.007 C 
ENDBRANCH   3   6
ENDBRANCH   2   3
ENDBRANCH   1   2
BRANCH   1   9
ATOM      9  C   UNL     1      27.332  22.472   5.345  1.00  0.00    -0.011 C 
ATOM     10  C   UNL     1      26.443  22.811   6.568  1.00  0.00     0.008 C 
BRANCH   9  11
ATOM     11  C   UNL     1      28.223  21.129   5.404  1.00  0.00    -0.002 C 
ATOM     12  C   UNL     1      27.549  20.019   6.233  1.00  0.00     0.005 C 
ATOM     13  C   UNL     1      28.766  20.372   4.135  1.00  0.00    -0.026 C 
ATOM     14  C   UNL     1      28.279  18.723   5.960  1.00  0.00     0.005 C 
ATOM     15  C   UNL     1      29.070  18.904   4.654  1.00  0.00    -0.001 C 
ATOM     16  C   UNL     1      30.019  21.051   3.476  1.00  0.00     0.007 C 
ATOM     17  C   UNL     1      27.659  20.276   3.047  1.00  0.00     0.012 C 
ATOM     18  C   UNL     1      30.563  18.472   4.904  1.00  0.00     0.000 C 
ATOM     19  C   UNL     1      31.372  20.626   4.021  1.00  0.00     0.005 C 
ATOM     20  C   UNL     1      31.543  19.104   3.902  1.00  0.00     0.003 C 
ATOM     21  C   UNL     1      30.661  16.932   4.887  1.00  0.00     0.031 C 
ATOM     22  C   UNL     1      33.035  18.627   4.126  1.00  0.00    -0.008 C 
ATOM     23  C   UNL     1      32.048  16.383   4.720  1.00  0.00    -0.027 C 
ATOM     24  C   UNL     1      33.092  17.102   4.260  1.00  0.00    -0.065 C 
ATOM     25  C   UNL     1      33.883  19.008   2.875  1.00  0.00     0.014 C 
ATOM     26  C   UNL     1      33.650  19.271   5.399  1.00  0.00     0.016 C 
ATOM     27  C   UNL     1      34.277  16.325   3.715  1.00  0.00     0.063 C 
ATOM     28  C   UNL     1      35.352  18.551   2.947  1.00  0.00     0.033 C 
ATOM     29  C   UNL     1      35.561  17.165   3.606  1.00  0.00     0.118 C 
BRANCH  29  30
ATOM     30  O   UNL     1      36.563  16.443   2.932  1.00  0.00    -0.393 OA
ATOM     31  H   UNL     1      36.839  15.692   3.519  1.00  0.00     0.210 HD
ENDBRANCH  29  30
ENDBRANCH   9  11
ENDBRANCH   1   9
TORSDOF 7
ENDMDL
MODEL 3
REMARK VINA RESULT:    -3.125      1.427      3.450
REMARK INTER + INTRA:          -5.337
REMARK INTER:                  -4.177
REMARK INTRA:                  -1.160
REMARK UNBOUND:                -1.025
REMARK SMILES CC[C@H](CC[C@H](C)[C@H]1CC[C@@H]2[C@H]3CC=C4C[C@@H](O)CC[C@@]4(C)[C@@H]3CC[C@@]21C)C(C)C
REMARK SMILES IDX 5 1 4 2 3 3 2 4 1 5 28 6 29 7 30 8 6 9 7 10 8 11 9 12 26 13
REMARK SMILES IDX 10 14 11 15 25 16 27 17 12 18 24 19 23 20 13 21 21 22 14 23
REMARK SMILES IDX 15 24 20 25 22 26 16 27 19 28 17 29 18 30
REMARK H PARENT 18 31
REMARK Flexibility Score: inf
ROOT
ATOM      1  C   UNL     1      35.983  19.332   3.237  1.00  0.00     0.004 C 
ENDROOT
BRANCH   1   2
ATOM      2  C   UNL     1      37.231  19.995   3.871  1.00  0.00     0.004 C 
BRANCH   2   3
ATOM      3  C   UNL     1      37.847  19.130   5.010  1.00  0.00    -0.009 C 
BRANCH   3   4
ATOM      4  C   UNL     1      37.772  19.892   6.377  1.00  0.00     0.000 C 
ATOM      5  C   UNL     1      37.718  21.409   6.187  1.00  0.00     0.004 C 
ENDBRANCH   3   4
BRANCH   3   6
ATOM      6  C   UNL     1      37.188  17.713   5.139  1.00  0.00    -0.014 C 
ATOM      7  C   UNL     1      37.761  16.671   4.150  1.00  0.00     0.007 C 
ATOM      8  C   UNL     1      37.362  17.164   6.570  1.00  0.00     0.007 C 
ENDBRANCH   3   6
ENDBRANCH   2   3
ENDBRANCH   1   2
BRANCH   1   9
ATOM      9  C   UNL     1      34.826  20.318   2.875  1.00  0.00    -0.011 C 
ATOM     10  C   UNL     1      35.191  21.736   3.380  1.00  0.00     0.008 C 
BRANCH   9  11
ATOM     11  C   UNL     1      33.340  19.764   3.173  1.00  0.00    -0.002 C 
ATOM     12  C   UNL     1      33.209  18.259   2.875  1.00  0.00     0.005 C 
ATOM     13  C   UNL     1      32.590  19.943   4.545  1.00  0.00    -0.026 C 
ATOM     14  C   UNL     1      31.914  17.773   3.485  1.00  0.00     0.005 C 
ATOM     15  C   UNL     1      31.479  18.810   4.534  1.00  0.00    -0.001 C 
ATOM     16  C   UNL     1      31.989  21.376   4.761  1.00  0.00     0.007 C 
ATOM     17  C   UNL     1      33.555  19.656   5.731  1.00  0.00     0.012 C 
ATOM     18  C   UNL     1      29.981  19.208   4.261  1.00  0.00     0.000 C 
ATOM     19  C   UNL     1      30.582  21.597   4.230  1.00  0.00     0.005 C 
ATOM     20  C   UNL     1      29.611  20.580   4.847  1.00  0.00     0.003 C 
ATOM     21  C   UNL     1      29.049  18.100   4.799  1.00  0.00     0.031 C 
ATOM     22  C   UNL     1      28.091  20.952   4.614  1.00  0.00    -0.008 C 
ATOM     23  C   UNL     1      27.613  18.501   4.967  1.00  0.00    -0.027 C 
ATOM     24  C   UNL     1      27.189  19.780   5.011  1.00  0.00    -0.065 C 
ATOM     25  C   UNL     1      27.714  22.152   5.534  1.00  0.00     0.014 C 
ATOM     26  C   UNL     1      27.819  21.319   3.128  1.00  0.00     0.016 C 
ATOM     27  C   UNL     1      25.827  20.034   5.635  1.00  0.00     0.063 C 
ATOM     28  C   UNL     1      26.238  22.582   5.438  1.00  0.00     0.033 C 
ATOM     29  C   UNL     1      25.238  21.410   5.281  1.00  0.00     0.118 C 
BRANCH  29  30
ATOM     30  O   UNL     1      24.072  21.651   6.029  1.00  0.00    -0.393 OA
ATOM     31  H   UNL     1      23.530  20.819   6.018  1.00  0.00     0.210 HD
ENDBRANCH  29  30
ENDBRANCH   9  11
ENDBRANCH   1   9
TORSDOF 7
ENDMDL
MODEL 4
REMARK VINA RESULT:    -2.382      1.597      3.628
REMARK INTER + INTRA:          -4.312
REMARK INTER:                  -3.663
REMARK INTRA:                  -0.649
REMARK UNBOUND:                -1.025
REMARK SMILES CC[C@H](CC[C@H](C)[C@H]1CC[C@@H]2[C@H]3CC=C4C[C@@H](O)CC[C@@]4(C)[C@@H]3CC[C@@]21C)C(C)C
REMARK SMILES IDX 5 1 4 2 3 3 2 4 1 5 28 6 29 7 30 8 6 9 7 10 8 11 9 12 26 13
REMARK SMILES IDX 10 14 11 15 25 16 27 17 12 18 24 19 23 20 13 21 21 22 14 23
REMARK SMILES IDX 15 24 20 25 22 26 16 27 19 28 17 29 18 30
REMARK H PARENT 18 31
REMARK Flexibility Score: inf
ROOT
ATOM      1  C   UNL     1      37.272  19.561   5.821  1.00  0.00     0.004 C 
ENDROOT
BRANCH   1   2
ATOM      2  C   UNL     1      37.734  19.019   4.445  1.00  0.00     0.004 C 
BRANCH   2   3
ATOM      3  C   UNL     1      37.856  17.467   4.430  1.00  0.00    -0.009 C 
BRANCH   3   4
ATOM      4  C   UNL     1      37.139  16.850   5.679  1.00  0.00     0.000 C 
ATOM      5  C   UNL     1      38.110  16.080   6.577  1.00  0.00     0.004 C 
ENDBRANCH   3   4
BRANCH   3   6
ATOM      6  C   UNL     1      37.312  16.814   3.112  1.00  0.00    -0.014 C 
ATOM      7  C   UNL     1      37.474  15.276   3.070  1.00  0.00     0.007 C 
ATOM      8  C   UNL     1      35.818  17.145   2.921  1.00  0.00     0.007 C 
ENDBRANCH   3   6
ENDBRANCH   2   3
ENDBRANCH   1   2
BRANCH   1   9
ATOM      9  C   UNL     1      37.012  21.101   5.867  1.00  0.00    -0.011 C 
ATOM     10  C   UNL     1      37.529  21.663   7.216  1.00  0.00     0.008 C 
BRANCH   9  11
ATOM     11  C   UNL     1      35.551  21.562   5.363  1.00  0.00    -0.002 C 
ATOM     12  C   UNL     1      35.457  23.087   5.165  1.00  0.00     0.005 C 
ATOM     13  C   UNL     1      34.827  20.973   4.095  1.00  0.00    -0.026 C 
ATOM     14  C   UNL     1      34.192  23.381   4.393  1.00  0.00     0.005 C 
ATOM     15  C   UNL     1      33.750  22.074   3.712  1.00  0.00    -0.001 C 
ATOM     16  C   UNL     1      34.189  19.559   4.325  1.00  0.00     0.007 C 
ATOM     17  C   UNL     1      35.828  20.849   2.910  1.00  0.00     0.012 C 
ATOM     18  C   UNL     1      32.235  21.815   4.050  1.00  0.00     0.000 C 
ATOM     19  C   UNL     1      32.765  19.547   4.855  1.00  0.00     0.005 C 
ATOM     20  C   UNL     1      31.838  20.336   3.917  1.00  0.00     0.003 C 
ATOM     21  C   UNL     1      31.350  22.714   3.160  1.00  0.00     0.031 C 
ATOM     22  C   UNL     1      30.303  20.089   4.208  1.00  0.00    -0.008 C 
ATOM     23  C   UNL     1      29.907  22.311   3.082  1.00  0.00    -0.027 C 
ATOM     24  C   UNL     1      29.446  21.093   3.432  1.00  0.00    -0.065 C 
ATOM     25  C   UNL     1      29.912  18.667   3.703  1.00  0.00     0.014 C 
ATOM     26  C   UNL     1      29.986  20.218   5.724  1.00  0.00     0.016 C 
ATOM     27  C   UNL     1      28.092  20.683   2.878  1.00  0.00     0.063 C 
ATOM     28  C   UNL     1      28.422  18.322   3.884  1.00  0.00     0.033 C 
ATOM     29  C   UNL     1      27.454  19.503   3.631  1.00  0.00     0.118 C 
BRANCH  29  30
ATOM     30  O   UNL     1      26.299  19.062   2.961  1.00  0.00    -0.393 OA
ATOM     31  H   UNL     1      26.046  19.761   2.304  1.00  0.00     0.210 HD
ENDBRANCH  29  30
ENDBRANCH   9  11
ENDBRANCH   1   9
TORSDOF 7
ENDMDL
MODEL 5
REMARK VINA RESULT:    -2.032      2.077      4.203
REMARK INTER + INTRA:          -3.829
REMARK INTER:                  -2.606
REMARK INTRA:                  -1.223
REMARK UNBOUND:                -1.025
REMARK SMILES CC[C@H](CC[C@H](C)[C@H]1CC[C@@H]2[C@H]3CC=C4C[C@@H](O)CC[C@@]4(C)[C@@H]3CC[C@@]21C)C(C)C
REMARK SMILES IDX 5 1 4 2 3 3 2 4 1 5 28 6 29 7 30 8 6 9 7 10 8 11 9 12 26 13
REMARK SMILES IDX 10 14 11 15 25 16 27 17 12 18 24 19 23 20 13 21 21 22 14 23
REMARK SMILES IDX 15 24 20 25 22 26 16 27 19 28 17 29 18 30
REMARK H PARENT 18 31
REMARK Flexibility Score: inf
ROOT
ATOM      1  C   UNL     1      34.606  24.855   3.717  1.00  0.00     0.004 C 
ENDROOT
BRANCH   1   2
ATOM      2  C   UNL     1      35.813  24.171   3.028  1.00  0.00     0.004 C 
BRANCH   2   3
ATOM      3  C   UNL     1      36.516  23.137   3.956  1.00  0.00    -0.009 C 
BRANCH   3   4
ATOM      4  C   UNL     1      36.063  23.337   5.442  1.00  0.00     0.000 C 
ATOM      5  C   UNL     1      37.216  23.790   6.339  1.00  0.00     0.004 C 
ENDBRANCH   3   4
BRANCH   3   6
ATOM      6  C   UNL     1      36.289  21.650   3.512  1.00  0.00    -0.014 C 
ATOM      7  C   UNL     1      37.552  20.979   2.922  1.00  0.00     0.007 C 
ATOM      8  C   UNL     1      35.803  20.798   4.702  1.00  0.00     0.007 C 
ENDBRANCH   3   6
ENDBRANCH   2   3
ENDBRANCH   1   2
BRANCH   1   9
ATOM      9  C   UNL     1      33.280  24.834   2.892  1.00  0.00    -0.011 C 
ATOM     10  C   UNL     1      32.627  26.239   2.942  1.00  0.00     0.008 C 
BRANCH   9  11
ATOM     11  C   UNL     1      32.337  23.550   3.148  1.00  0.00    -0.002 C 
ATOM     12  C   UNL     1      33.072  22.225   2.875  1.00  0.00     0.005 C 
ATOM     13  C   UNL     1      31.558  23.279   4.489  1.00  0.00    -0.026 C 
ATOM     14  C   UNL     1      32.239  21.101   3.448  1.00  0.00     0.005 C 
ATOM     15  C   UNL     1      31.261  21.721   4.461  1.00  0.00    -0.001 C 
ATOM     16  C   UNL     1      30.257  24.139   4.655  1.00  0.00     0.007 C 
ATOM     17  C   UNL     1      32.472  23.571   5.714  1.00  0.00     0.012 C 
ATOM     18  C   UNL     1      29.805  21.223   4.127  1.00  0.00     0.000 C 
ATOM     19  C   UNL     1      28.986  23.547   4.070  1.00  0.00     0.005 C 
ATOM     20  C   UNL     1      28.715  22.160   4.672  1.00  0.00     0.003 C 
ATOM     21  C   UNL     1      29.622  19.784   4.653  1.00  0.00     0.031 C 
ATOM     22  C   UNL     1      27.254  21.629   4.378  1.00  0.00    -0.008 C 
ATOM     23  C   UNL     1      28.198  19.321   4.762  1.00  0.00    -0.027 C 
ATOM     24  C   UNL     1      27.136  20.152   4.766  1.00  0.00    -0.065 C 
ATOM     25  C   UNL     1      26.239  22.416   5.261  1.00  0.00     0.014 C 
ATOM     26  C   UNL     1      26.885  21.789   2.876  1.00  0.00     0.016 C 
ATOM     27  C   UNL     1      25.837  19.608   5.336  1.00  0.00     0.063 C 
ATOM     28  C   UNL     1      24.778  21.958   5.103  1.00  0.00     0.033 C 
ATOM     29  C   UNL     1      24.600  20.429   4.934  1.00  0.00     0.118 C 
BRANCH  29  30
ATOM     30  O   UNL     1      23.466  19.981   5.635  1.00  0.00    -0.393 OA
ATOM     31  H   UNL     1      23.770  19.317   6.307  1.00  0.00     0.210 HD
ENDBRANCH  29  30
ENDBRANCH   9  11
ENDBRANCH   1   9
TORSDOF 7
ENDMDL
MODEL 6
REMARK VINA RESULT:    -1.828      2.534      4.361
REMARK INTER + INTRA:          -3.547
REMARK INTER:                  -2.809
REMARK INTRA:                  -0.739
REMARK UNBOUND:                -1.025
REMARK SMILES CC[C@H](CC[C@H](C)[C@H]1CC[C@@H]2[C@H]3CC=C4C[C@@H](O)CC[C@@]4(C)[C@@H]3CC[C@@]21C)C(C)C
REMARK SMILES IDX 5 1 4 2 3 3 2 4 1 5 28 6 29 7 30 8 6 9 7 10 8 11 9 12 26 13
REMARK SMILES IDX 10 14 11 15 25 16 27 17 12 18 24 19 23 20 13 21 21 22 14 23
REMARK SMILES IDX 15 24 20 25 22 26 16 27 19 28 17 29 18 30
REMARK H PARENT 18 31
REMARK Flexibility Score: inf
ROOT
ATOM      1  C   UNL     1      34.799  24.370   3.210  1.00  0.00     0.004 C 
ENDROOT
BRANCH   1   2
ATOM      2  C   UNL     1      35.697  25.623   3.060  1.00  0.00     0.004 C 
BRANCH   2   3
ATOM      3  C   UNL     1      36.380  26.026   4.400  1.00  0.00    -0.009 C 
BRANCH   3   4
ATOM      4  C   UNL     1      37.494  24.992   4.779  1.00  0.00     0.000 C 
ATOM      5  C   UNL     1      37.023  24.007   5.850  1.00  0.00     0.004 C 
ENDBRANCH   3   4
BRANCH   3   6
ATOM      6  C   UNL     1      36.967  27.480   4.385  1.00  0.00    -0.014 C 
ATOM      7  C   UNL     1      37.490  27.952   5.762  1.00  0.00     0.007 C 
ATOM      8  C   UNL     1      38.123  27.586   3.369  1.00  0.00     0.007 C 
ENDBRANCH   3   6
ENDBRANCH   2   3
ENDBRANCH   1   2
BRANCH   1   9
ATOM      9  C   UNL     1      33.290  24.598   2.876  1.00  0.00    -0.011 C 
ATOM     10  C   UNL     1      32.853  25.982   3.420  1.00  0.00     0.008 C 
BRANCH   9  11
ATOM     11  C   UNL     1      32.330  23.333   3.160  1.00  0.00    -0.002 C 
ATOM     12  C   UNL     1      33.041  21.992   2.900  1.00  0.00     0.005 C 
ATOM     13  C   UNL     1      31.559  23.095   4.512  1.00  0.00    -0.026 C 
ATOM     14  C   UNL     1      32.195  20.891   3.497  1.00  0.00     0.005 C 
ATOM     15  C   UNL     1      31.236  21.541   4.509  1.00  0.00    -0.001 C 
ATOM     16  C   UNL     1      30.273  23.978   4.676  1.00  0.00     0.007 C 
ATOM     17  C   UNL     1      32.489  23.390   5.724  1.00  0.00     0.012 C 
ATOM     18  C   UNL     1      29.770  21.062   4.196  1.00  0.00     0.000 C 
ATOM     19  C   UNL     1      28.987  23.397   4.112  1.00  0.00     0.005 C 
ATOM     20  C   UNL     1      28.700  22.024   4.737  1.00  0.00     0.003 C 
ATOM     21  C   UNL     1      29.569  19.634   4.746  1.00  0.00     0.031 C 
ATOM     22  C   UNL     1      27.228  21.512   4.464  1.00  0.00    -0.008 C 
ATOM     23  C   UNL     1      28.139  19.196   4.875  1.00  0.00    -0.027 C 
ATOM     24  C   UNL     1      27.090  20.044   4.875  1.00  0.00    -0.065 C 
ATOM     25  C   UNL     1      26.234  22.329   5.344  1.00  0.00     0.014 C 
ATOM     26  C   UNL     1      26.848  21.656   2.964  1.00  0.00     0.016 C 
ATOM     27  C   UNL     1      25.789  19.529   5.465  1.00  0.00     0.063 C 
ATOM     28  C   UNL     1      24.764  21.892   5.207  1.00  0.00     0.033 C 
ATOM     29  C   UNL     1      24.561  20.363   5.062  1.00  0.00     0.118 C 
BRANCH  29  30
ATOM     30  O   UNL     1      23.426  19.945   5.780  1.00  0.00    -0.393 OA
ATOM     31  H   UNL     1      23.305  20.569   6.542  1.00  0.00     0.210 HD
ENDBRANCH  29  30
ENDBRANCH   9  11
ENDBRANCH   1   9
TORSDOF 7
ENDMDL
MODEL 7
REMARK VINA RESULT:    -1.773      3.356      8.507
REMARK INTER + INTRA:          -3.471
REMARK INTER:                  -2.512
REMARK INTRA:                  -0.959
REMARK UNBOUND:                -1.025
REMARK SMILES CC[C@H](CC[C@H](C)[C@H]1CC[C@@H]2[C@H]3CC=C4C[C@@H](O)CC[C@@]4(C)[C@@H]3CC[C@@]21C)C(C)C
REMARK SMILES IDX 5 1 4 2 3 3 2 4 1 5 28 6 29 7 30 8 6 9 7 10 8 11 9 12 26 13
REMARK SMILES IDX 10 14 11 15 25 16 27 17 12 18 24 19 23 20 13 21 21 22 14 23
REMARK SMILES IDX 15 24 20 25 22 26 16 27 19 28 17 29 18 30
REMARK H PARENT 18 31
REMARK Flexibility Score: inf
ROOT
ATOM      1  C   UNL     1      27.249  20.273   6.812  1.00  0.00     0.004 C 
ENDROOT
BRANCH   1   2
ATOM      2  C   UNL     1      25.752  20.614   6.601  1.00  0.00     0.004 C 
BRANCH   2   3
ATOM      3  C   UNL     1      25.547  21.779   5.587  1.00  0.00    -0.009 C 
BRANCH   3   4
ATOM      4  C   UNL     1      26.901  22.522   5.328  1.00  0.00     0.000 C 
ATOM      5  C   UNL     1      27.208  23.553   6.416  1.00  0.00     0.004 C 
ENDBRANCH   3   4
BRANCH   3   6
ATOM      6  C   UNL     1      24.910  21.316   4.231  1.00  0.00    -0.014 C 
ATOM      7  C   UNL     1      25.831  20.398   3.394  1.00  0.00     0.007 C 
ATOM      8  C   UNL     1      23.585  20.567   4.484  1.00  0.00     0.007 C 
ENDBRANCH   3   6
ENDBRANCH   2   3
ENDBRANCH   1   2
BRANCH   1   9
ATOM      9  C   UNL     1      27.825  19.206   5.827  1.00  0.00    -0.011 C 
ATOM     10  C   UNL     1      27.411  17.793   6.308  1.00  0.00     0.008 C 
BRANCH   9  11
ATOM     11  C   UNL     1      29.361  19.440   5.391  1.00  0.00    -0.002 C 
ATOM     12  C   UNL     1      30.161  18.125   5.349  1.00  0.00     0.005 C 
ATOM     13  C   UNL     1      29.804  20.191   4.080  1.00  0.00    -0.026 C 
ATOM     14  C   UNL     1      31.463  18.392   4.627  1.00  0.00     0.005 C 
ATOM     15  C   UNL     1      31.288  19.692   3.825  1.00  0.00    -0.001 C 
ATOM     16  C   UNL     1      29.700  21.754   4.175  1.00  0.00     0.007 C 
ATOM     17  C   UNL     1      28.931  19.736   2.875  1.00  0.00     0.012 C 
ATOM     18  C   UNL     1      32.488  20.655   4.155  1.00  0.00     0.000 C 
ATOM     19  C   UNL     1      30.923  22.472   4.720  1.00  0.00     0.005 C 
ATOM     20  C   UNL     1      32.162  22.132   3.880  1.00  0.00     0.003 C 
ATOM     21  C   UNL     1      33.740  20.202   3.373  1.00  0.00     0.031 C 
ATOM     22  C   UNL     1      33.389  23.089   4.165  1.00  0.00    -0.008 C 
ATOM     23  C   UNL     1      34.835  21.224   3.274  1.00  0.00    -0.027 C 
ATOM     24  C   UNL     1      34.658  22.541   3.506  1.00  0.00    -0.065 C 
ATOM     25  C   UNL     1      33.107  24.482   3.525  1.00  0.00     0.014 C 
ATOM     26  C   UNL     1      33.640  23.249   5.691  1.00  0.00     0.016 C 
ATOM     27  C   UNL     1      35.698  23.487   2.931  1.00  0.00     0.063 C 
ATOM     28  C   UNL     1      34.253  25.496   3.690  1.00  0.00     0.033 C 
ATOM     29  C   UNL     1      35.672  24.886   3.570  1.00  0.00     0.118 C 
BRANCH  29  30
ATOM     30  O   UNL     1      36.529  25.758   2.875  1.00  0.00    -0.393 OA
ATOM     31  H   UNL     1      37.277  25.992   3.483  1.00  0.00     0.210 HD
ENDBRANCH  29  30
ENDBRANCH   9  11
ENDBRANCH   1   9
TORSDOF 7
ENDMDL
MODEL 8
REMARK VINA RESULT:    -1.213      1.307      2.353
REMARK INTER + INTRA:          -2.699
REMARK INTER:                  -3.355
REMARK INTRA:                   0.656
REMARK UNBOUND:                -1.025
REMARK SMILES CC[C@H](CC[C@H](C)[C@H]1CC[C@@H]2[C@H]3CC=C4C[C@@H](O)CC[C@@]4(C)[C@@H]3CC[C@@]21C)C(C)C
REMARK SMILES IDX 5 1 4 2 3 3 2 4 1 5 28 6 29 7 30 8 6 9 7 10 8 11 9 12 26 13
REMARK SMILES IDX 10 14 11 15 25 16 27 17 12 18 24 19 23 20 13 21 21 22 14 23
REMARK SMILES IDX 15 24 20 25 22 26 16 27 19 28 17 29 18 30
REMARK H PARENT 18 31
REMARK Flexibility Score: inf
ROOT
ATOM      1  C   UNL     1      35.288  19.779   5.735  1.00  0.00     0.004 C 
ENDROOT
BRANCH   1   2
ATOM      2  C   UNL     1      36.357  18.992   6.534  1.00  0.00     0.004 C 
BRANCH   2   3
ATOM      3  C   UNL     1      37.774  19.106   5.898  1.00  0.00    -0.009 C 
BRANCH   3   4
ATOM      4  C   UNL     1      37.998  17.960   4.854  1.00  0.00     0.000 C 
ATOM      5  C   UNL     1      37.674  16.582   5.435  1.00  0.00     0.004 C 
ENDBRANCH   3   4
BRANCH   3   6
ATOM      6  C   UNL     1      38.049  20.503   5.241  1.00  0.00    -0.014 C 
ATOM      7  C   UNL     1      37.214  20.765   3.966  1.00  0.00     0.007 C 
ATOM      8  C   UNL     1      37.763  21.638   6.246  1.00  0.00     0.007 C 
ENDBRANCH   3   6
ENDBRANCH   2   3
ENDBRANCH   1   2
BRANCH   1   9
ATOM      9  C   UNL     1      34.094  18.918   5.210  1.00  0.00    -0.011 C 
ATOM     10  C   UNL     1      34.635  17.834   4.244  1.00  0.00     0.008 C 
BRANCH   9  11
ATOM     11  C   UNL     1      32.795  19.760   4.756  1.00  0.00    -0.002 C 
ATOM     12  C   UNL     1      33.163  20.971   3.878  1.00  0.00     0.005 C 
ATOM     13  C   UNL     1      31.547  19.134   4.028  1.00  0.00    -0.026 C 
ATOM     14  C   UNL     1      31.893  21.490   3.241  1.00  0.00     0.005 C 
ATOM     15  C   UNL     1      30.842  20.370   3.326  1.00  0.00    -0.001 C 
ATOM     16  C   UNL     1      30.579  18.351   4.984  1.00  0.00     0.007 C 
ATOM     17  C   UNL     1      32.006  18.148   2.916  1.00  0.00     0.012 C 
ATOM     18  C   UNL     1      29.524  20.960   3.951  1.00  0.00     0.000 C 
ATOM     19  C   UNL     1      29.487  19.173   5.648  1.00  0.00     0.005 C 
ATOM     20  C   UNL     1      28.631  19.883   4.587  1.00  0.00     0.003 C 
ATOM     21  C   UNL     1      28.758  21.758   2.875  1.00  0.00     0.031 C 
ATOM     22  C   UNL     1      27.284  20.474   5.170  1.00  0.00    -0.008 C 
ATOM     23  C   UNL     1      27.321  22.046   3.197  1.00  0.00    -0.027 C 
ATOM     24  C   UNL     1      26.615  21.388   4.139  1.00  0.00    -0.065 C 
ATOM     25  C   UNL     1      26.296  19.303   5.454  1.00  0.00     0.014 C 
ATOM     26  C   UNL     1      27.538  21.281   6.473  1.00  0.00     0.016 C 
ATOM     27  C   UNL     1      25.101  21.453   4.037  1.00  0.00     0.063 C 
ATOM     28  C   UNL     1      24.920  19.753   5.980  1.00  0.00     0.033 C 
ATOM     29  C   UNL     1      24.382  21.055   5.337  1.00  0.00     0.118 C 
BRANCH  29  30
ATOM     30  O   UNL     1      22.994  20.963   5.121  1.00  0.00    -0.393 OA
ATOM     31  H   UNL     1      22.575  21.770   5.517  1.00  0.00     0.210 HD
ENDBRANCH  29  30
ENDBRANCH   9  11
ENDBRANCH   1   9
TORSDOF 7
ENDMDL
MODEL 9
REMARK VINA RESULT:    -1.144      1.679      3.308
REMARK INTER + INTRA:          -2.604
REMARK INTER:                  -1.398
REMARK INTRA:                  -1.206
REMARK UNBOUND:                -1.025
REMARK SMILES CC[C@H](CC[C@H](C)[C@H]1CC[C@@H]2[C@H]3CC=C4C[C@@H](O)CC[C@@]4(C)[C@@H]3CC[C@@]21C)C(C)C
REMARK SMILES IDX 5 1 4 2 3 3 2 4 1 5 28 6 29 7 30 8 6 9 7 10 8 11 9 12 26 13
REMARK SMILES IDX 10 14 11 15 25 16 27 17 12 18 24 19 23 20 13 21 21 22 14 23
REMARK SMILES IDX 15 24 20 25 22 26 16 27 19 28 17 29 18 30
REMARK H PARENT 18 31
REMARK Flexibility Score: inf
ROOT
ATOM      1  C   UNL     1      34.676  21.143   2.875  1.00  0.00     0.004 C 
ENDROOT
BRANCH   1   2
ATOM      2  C   UNL     1      34.124  22.380   3.627  1.00  0.00     0.004 C 
BRANCH   2   3
ATOM      3  C   UNL     1      35.126  23.572   3.621  1.00  0.00    -0.009 C 
BRANCH   3   4
ATOM      4  C   UNL     1      34.359  24.930   3.473  1.00  0.00     0.000 C 
ATOM      5  C   UNL     1      32.844  24.751   3.595  1.00  0.00     0.004 C 
ENDBRANCH   3   4
BRANCH   3   6
ATOM      6  C   UNL     1      36.057  23.606   4.882  1.00  0.00    -0.014 C 
ATOM      7  C   UNL     1      37.310  22.709   4.752  1.00  0.00     0.007 C 
ATOM      8  C   UNL     1      36.525  25.048   5.169  1.00  0.00     0.007 C 
ENDBRANCH   3   6
ENDBRANCH   2   3
ENDBRANCH   1   2
BRANCH   1   9
ATOM      9  C   UNL     1      34.326  19.767   3.527  1.00  0.00    -0.011 C 
ATOM     10  C   UNL     1      35.346  18.703   3.050  1.00  0.00     0.008 C 
BRANCH   9  11
ATOM     11  C   UNL     1      32.760  19.380   3.504  1.00  0.00    -0.002 C 
ATOM     12  C   UNL     1      32.511  17.996   2.876  1.00  0.00     0.005 C 
ATOM     13  C   UNL     1      31.828  19.390   4.773  1.00  0.00    -0.026 C 
ATOM     14  C   UNL     1      31.090  17.587   3.194  1.00  0.00     0.005 C 
ATOM     15  C   UNL     1      30.614  18.449   4.375  1.00  0.00    -0.001 C 
ATOM     16  C   UNL     1      31.362  20.823   5.210  1.00  0.00     0.007 C 
ATOM     17  C   UNL     1      32.558  18.744   5.985  1.00  0.00     0.012 C 
ATOM     18  C   UNL     1      29.230  19.098   4.001  1.00  0.00     0.000 C 
ATOM     19  C   UNL     1      30.089  21.339   4.561  1.00  0.00     0.005 C 
ATOM     20  C   UNL     1      28.927  20.367   4.814  1.00  0.00     0.003 C 
ATOM     21  C   UNL     1      28.110  18.049   4.164  1.00  0.00     0.031 C 
ATOM     22  C   UNL     1      27.513  20.987   4.470  1.00  0.00    -0.008 C 
ATOM     23  C   UNL     1      26.718  18.606   4.225  1.00  0.00    -0.027 C 
ATOM     24  C   UNL     1      26.436  19.899   4.487  1.00  0.00    -0.065 C 
ATOM     25  C   UNL     1      27.131  22.024   5.569  1.00  0.00     0.014 C 
ATOM     26  C   UNL     1      27.519  21.672   3.075  1.00  0.00     0.016 C 
ATOM     27  C   UNL     1      25.030  20.213   4.968  1.00  0.00     0.063 C 
ATOM     28  C   UNL     1      25.746  22.667   5.376  1.00  0.00     0.033 C 
ATOM     29  C   UNL     1      24.659  21.701   4.843  1.00  0.00     0.118 C 
BRANCH  29  30
ATOM     30  O   UNL     1      23.424  21.952   5.467  1.00  0.00    -0.393 OA
ATOM     31  H   UNL     1      23.390  21.409   6.296  1.00  0.00     0.210 HD
ENDBRANCH  29  30
ENDBRANCH   9  11
ENDBRANCH   1   9
TORSDOF 7
ENDMDL
