MODEL 1
REMARK VINA RESULT:    12.416      0.000      0.000
REMARK INTER + INTRA:          16.304
REMARK INTER:                  17.134
REMARK INTRA:                  -0.830
REMARK UNBOUND:                -0.830
REMARK SMILES CC[C@H](CC[C@H](C)[C@H]1CC[C@H]2[C@H]3CC=C4C[C@@H](O)CC[C@]4(C)[C@@H]3CC[C@@]12C)C(C)C
REMARK SMILES IDX 5 1 4 2 3 3 2 4 1 5 28 6 29 7 30 8 6 9 7 10 8 11 9 12 26 13
REMARK SMILES IDX 10 14 11 15 25 16 27 17 12 18 24 19 23 20 13 21 21 22 14 23
REMARK SMILES IDX 15 24 20 25 22 26 16 27 19 28 17 29 18 30
REMARK H PARENT 18 31
REMARK Flexibility Score: inf
ROOT
ATOM      1  C   UNL     1      11.098  16.691  24.205  1.00  0.00     0.004 C 
ENDROOT
BRANCH   1   2
ATOM      2  C   UNL     1      11.607  17.923  23.415  1.00  0.00     0.004 C 
BRANCH   2   3
ATOM      3  C   UNL     1      12.706  17.581  22.365  1.00  0.00    -0.009 C 
BRANCH   3   4
ATOM      4  C   UNL     1      12.258  18.099  20.965  1.00  0.00     0.000 C 
ATOM      5  C   UNL     1      10.746  18.105  20.743  1.00  0.00     0.004 C 
ENDBRANCH   3   4
BRANCH   3   6
ATOM      6  C   UNL     1      14.104  18.106  22.852  1.00  0.00    -0.014 C 
ATOM      7  C   UNL     1      14.564  17.468  24.172  1.00  0.00     0.007 C 
ATOM      8  C   UNL     1      15.205  18.015  21.784  1.00  0.00     0.007 C 
ENDBRANCH   3   6
ENDBRANCH   2   3
ENDBRANCH   1   2
BRANCH   1   9
ATOM      9  C   UNL     1      10.940  16.937  25.733  1.00  0.00    -0.011 C 
ATOM     10  C   UNL     1       9.986  18.125  25.980  1.00  0.00     0.008 C 
BRANCH   9  11
ATOM     11  C   UNL     1      12.359  17.077  26.404  1.00  0.00    -0.002 C 
ATOM     12  C   UNL     1      12.499  18.116  27.525  1.00  0.00     0.005 C 
ATOM     13  C   UNL     1      13.041  15.793  26.952  1.00  0.00    -0.026 C 
ATOM     14  C   UNL     1      13.764  17.728  28.299  1.00  0.00     0.005 C 
ATOM     15  C   UNL     1      14.258  16.399  27.695  1.00  0.00    -0.001 C 
ATOM     16  C   UNL     1      12.121  15.004  27.936  1.00  0.00     0.007 C 
ATOM     17  C   UNL     1      13.499  14.873  25.793  1.00  0.00     0.012 C 
ATOM     18  C   UNL     1      14.945  15.417  28.681  1.00  0.00     0.000 C 
ATOM     19  C   UNL     1      12.879  14.003  28.824  1.00  0.00     0.005 C 
ATOM     20  C   UNL     1      13.958  14.733  29.659  1.00  0.00     0.003 C 
ATOM     21  C   UNL     1      16.095  16.058  29.467  1.00  0.00     0.031 C 
ATOM     22  C   UNL     1      14.700  13.881  30.802  1.00  0.00    -0.008 C 
ATOM     23  C   UNL     1      16.871  14.948  30.107  1.00  0.00    -0.027 C 
ATOM     24  C   UNL     1      16.234  13.875  30.626  1.00  0.00    -0.065 C 
ATOM     25  C   UNL     1      14.210  12.403  30.860  1.00  0.00     0.014 C 
ATOM     26  C   UNL     1      14.395  14.563  32.163  1.00  0.00     0.016 C 
ATOM     27  C   UNL     1      17.025  12.589  30.762  1.00  0.00     0.063 C 
ATOM     28  C   UNL     1      14.937  11.555  31.920  1.00  0.00     0.033 C 
ATOM     29  C   UNL     1      16.482  11.636  31.848  1.00  0.00     0.118 C 
BRANCH  29  30
ATOM     30  O   UNL     1      17.024  11.944  33.109  1.00  0.00    -0.393 OA
ATOM     31  H   UNL     1      16.297  12.318  33.669  1.00  0.00     0.210 HD
ENDBRANCH  29  30
ENDBRANCH   9  11
ENDBRANCH   1   9
TORSDOF 7
ENDMDL
MODEL 2
REMARK VINA RESULT:    14.498      2.943      8.103
REMARK INTER + INTRA:          19.177
REMARK INTER:                  17.575
REMARK INTRA:                   1.602
REMARK UNBOUND:                -0.830
REMARK SMILES CC[C@H](CC[C@H](C)[C@H]1CC[C@H]2[C@H]3CC=C4C[C@@H](O)CC[C@]4(C)[C@@H]3CC[C@@]12C)C(C)C
REMARK SMILES IDX 5 1 4 2 3 3 2 4 1 5 28 6 29 7 30 8 6 9 7 10 8 11 9 12 26 13
REMARK SMILES IDX 10 14 11 15 25 16 27 17 12 18 24 19 23 20 13 21 21 22 14 23
REMARK SMILES IDX 15 24 20 25 22 26 16 27 19 28 17 29 18 30
REMARK H PARENT 18 31
REMARK Flexibility Score: inf
ROOT
ATOM      1  C   UNL     1      15.467  13.066  31.920  1.00  0.00     0.004 C 
ENDROOT
BRANCH   1   2
ATOM      2  C   UNL     1      15.989  12.439  30.603  1.00  0.00     0.004 C 
BRANCH   2   3
ATOM      3  C   UNL     1      15.517  10.970  30.381  1.00  0.00    -0.009 C 
BRANCH   3   4
ATOM      4  C   UNL     1      14.094  10.790  30.989  1.00  0.00     0.000 C 
ATOM      5  C   UNL     1      13.936   9.561  31.884  1.00  0.00     0.004 C 
ENDBRANCH   3   4
BRANCH   3   6
ATOM      6  C   UNL     1      15.646  10.583  28.864  1.00  0.00    -0.014 C 
ATOM      7  C   UNL     1      15.667  11.801  27.928  1.00  0.00     0.007 C 
ATOM      8  C   UNL     1      16.820   9.638  28.565  1.00  0.00     0.007 C 
ENDBRANCH   3   6
ENDBRANCH   2   3
ENDBRANCH   1   2
BRANCH   1   9
ATOM      9  C   UNL     1      14.837  14.478  31.746  1.00  0.00    -0.011 C 
ATOM     10  C   UNL     1      13.297  14.372  31.745  1.00  0.00     0.008 C 
BRANCH   9  11
ATOM     11  C   UNL     1      15.452  15.188  30.482  1.00  0.00    -0.002 C 
ATOM     12  C   UNL     1      16.398  14.354  29.607  1.00  0.00     0.005 C 
ATOM     13  C   UNL     1      14.483  15.882  29.485  1.00  0.00    -0.026 C 
ATOM     14  C   UNL     1      16.462  15.074  28.254  1.00  0.00     0.005 C 
ATOM     15  C   UNL     1      15.450  16.235  28.328  1.00  0.00    -0.001 C 
ATOM     16  C   UNL     1      13.350  14.926  28.995  1.00  0.00     0.007 C 
ATOM     17  C   UNL     1      13.871  17.161  30.110  1.00  0.00     0.012 C 
ATOM     18  C   UNL     1      14.735  16.600  27.001  1.00  0.00     0.000 C 
ATOM     19  C   UNL     1      12.650  15.404  27.712  1.00  0.00     0.005 C 
ATOM     20  C   UNL     1      13.675  15.559  26.564  1.00  0.00     0.003 C 
ATOM     21  C   UNL     1      15.708  16.866  25.845  1.00  0.00     0.031 C 
ATOM     22  C   UNL     1      13.091  15.840  25.094  1.00  0.00    -0.008 C 
ATOM     23  C   UNL     1      14.929  17.525  24.749  1.00  0.00    -0.027 C 
ATOM     24  C   UNL     1      13.666  17.131  24.472  1.00  0.00    -0.065 C 
ATOM     25  C   UNL     1      11.536  15.941  25.076  1.00  0.00     0.014 C 
ATOM     26  C   UNL     1      13.526  14.658  24.185  1.00  0.00     0.016 C 
ATOM     27  C   UNL     1      12.760  18.125  23.770  1.00  0.00     0.063 C 
ATOM     28  C   UNL     1      10.956  16.252  23.684  1.00  0.00     0.033 C 
ATOM     29  C   UNL     1      11.609  17.467  22.981  1.00  0.00     0.118 C 
BRANCH  29  30
ATOM     30  O   UNL     1      12.018  17.128  21.678  1.00  0.00    -0.393 OA
ATOM     31  H   UNL     1      13.008  17.094  21.670  1.00  0.00     0.210 HD
ENDBRANCH  29  30
ENDBRANCH   9  11
ENDBRANCH   1   9
TORSDOF 7
ENDMDL
