MODEL 1
REMARK VINA RESULT:    43.496      0.000      0.000
REMARK INTER + INTRA:          66.618
REMARK INTER:                  60.024
REMARK INTRA:                   6.594
REMARK UNBOUND:                 6.594
REMARK SMILES CC[C@H](CC[C@H](C)[C@H]1CC[C@@H]2[C@H]3CC=C4C[C@@H](O)CC[C@@]4(C)[C@H]3CC[C@@]21C)C(C)C
REMARK SMILES IDX 5 1 4 2 3 3 2 4 1 5 28 6 29 7 30 8 6 9 7 10 8 11 9 12 26 13
REMARK SMILES IDX 10 14 11 15 25 16 27 17 12 18 24 19 23 20 13 21 21 22 14 23
REMARK SMILES IDX 15 24 20 25 22 26 16 27 19 28 17 29 18 30
REMARK H PARENT 18 31
REMARK Flexibility Score: inf
ROOT
ATOM      1  C   UNL     1     -16.960 -37.313  22.787  1.00  0.00     0.004 C 
ENDROOT
BRANCH   1   2
ATOM      2  C   UNL     1     -17.944 -37.083  23.948  1.00  0.00     0.004 C 
BRANCH   2   3
ATOM      3  C   UNL     1     -17.322 -36.381  25.195  1.00  0.00    -0.009 C 
BRANCH   3   4
ATOM      4  C   UNL     1     -17.827 -34.909  25.264  1.00  0.00     0.000 C 
ATOM      5  C   UNL     1     -17.800 -34.289  26.668  1.00  0.00     0.004 C 
ENDBRANCH   3   4
BRANCH   3   6
ATOM      6  C   UNL     1     -17.511 -37.228  26.516  1.00  0.00    -0.014 C 
ATOM      7  C   UNL     1     -18.865 -37.062  27.238  1.00  0.00     0.007 C 
ATOM      8  C   UNL     1     -16.399 -36.912  27.543  1.00  0.00     0.007 C 
ENDBRANCH   3   6
ENDBRANCH   2   3
ENDBRANCH   1   2
BRANCH   1   9
ATOM      9  C   UNL     1     -15.602 -37.918  23.247  1.00  0.00    -0.011 C 
ATOM     10  C   UNL     1     -15.867 -39.028  24.294  1.00  0.00     0.008 C 
BRANCH   9  11
ATOM     11  C   UNL     1     -14.658 -36.783  23.802  1.00  0.00    -0.002 C 
ATOM     12  C   UNL     1     -15.305 -35.389  23.820  1.00  0.00     0.005 C 
ATOM     13  C   UNL     1     -14.022 -36.965  25.252  1.00  0.00    -0.026 C 
ATOM     14  C   UNL     1     -14.506 -34.592  24.826  1.00  0.00     0.005 C 
ATOM     15  C   UNL     1     -14.271 -35.583  25.955  1.00  0.00    -0.001 C 
ATOM     16  C   UNL     1     -12.502 -37.281  25.109  1.00  0.00     0.007 C 
ATOM     17  C   UNL     1     -14.702 -38.089  26.085  1.00  0.00     0.012 C 
ATOM     18  C   UNL     1     -13.224 -35.065  26.993  1.00  0.00     0.000 C 
ATOM     19  C   UNL     1     -11.663 -36.941  26.344  1.00  0.00     0.005 C 
ATOM     20  C   UNL     1     -11.757 -35.432  26.660  1.00  0.00     0.003 C 
ATOM     21  C   UNL     1     -13.598 -35.518  28.415  1.00  0.00     0.031 C 
ATOM     22  C   UNL     1     -10.740 -34.867  27.754  1.00  0.00    -0.008 C 
ATOM     23  C   UNL     1     -12.622 -35.039  29.439  1.00  0.00    -0.027 C 
ATOM     24  C   UNL     1     -11.317 -34.850  29.180  1.00  0.00    -0.065 C 
ATOM     25  C   UNL     1      -9.409 -35.686  27.792  1.00  0.00     0.014 C 
ATOM     26  C   UNL     1     -10.415 -33.398  27.357  1.00  0.00     0.016 C 
ATOM     27  C   UNL     1     -10.394 -34.492  30.333  1.00  0.00     0.063 C 
ATOM     28  C   UNL     1      -8.436 -35.254  28.905  1.00  0.00     0.033 C 
ATOM     29  C   UNL     1      -9.095 -35.326  30.292  1.00  0.00     0.118 C 
BRANCH  29  30
ATOM     30  O   UNL     1      -9.293 -36.675  30.662  1.00  0.00    -0.393 OA
ATOM     31  H   UNL     1      -9.768 -37.155  29.931  1.00  0.00     0.210 HD
ENDBRANCH  29  30
ENDBRANCH   9  11
ENDBRANCH   1   9
TORSDOF 7
ENDMDL
MODEL 2
REMARK VINA RESULT:    45.071      2.463      3.577
REMARK INTER + INTRA:          68.792
REMARK INTER:                  67.475
REMARK INTRA:                   1.317
REMARK UNBOUND:                 6.594
REMARK SMILES CC[C@H](CC[C@H](C)[C@H]1CC[C@@H]2[C@H]3CC=C4C[C@@H](O)CC[C@@]4(C)[C@H]3CC[C@@]21C)C(C)C
REMARK SMILES IDX 5 1 4 2 3 3 2 4 1 5 28 6 29 7 30 8 6 9 7 10 8 11 9 12 26 13
REMARK SMILES IDX 10 14 11 15 25 16 27 17 12 18 24 19 23 20 13 21 21 22 14 23
REMARK SMILES IDX 15 24 20 25 22 26 16 27 19 28 17 29 18 30
REMARK H PARENT 18 31
REMARK Flexibility Score: inf
ROOT
ATOM      1  C   UNL     1     -17.550 -38.646  22.539  1.00  0.00     0.004 C 
ENDROOT
BRANCH   1   2
ATOM      2  C   UNL     1     -18.093 -39.711  21.570  1.00  0.00     0.004 C 
BRANCH   2   3
ATOM      3  C   UNL     1     -19.519 -40.238  21.920  1.00  0.00    -0.009 C 
BRANCH   3   4
ATOM      4  C   UNL     1     -20.468 -39.028  22.176  1.00  0.00     0.000 C 
ATOM      5  C   UNL     1     -21.649 -39.328  23.110  1.00  0.00     0.004 C 
ENDBRANCH   3   4
BRANCH   3   6
ATOM      6  C   UNL     1     -20.040 -41.301  20.873  1.00  0.00    -0.014 C 
ATOM      7  C   UNL     1     -19.511 -41.146  19.432  1.00  0.00     0.007 C 
ATOM      8  C   UNL     1     -21.584 -41.300  20.801  1.00  0.00     0.007 C 
ENDBRANCH   3   6
ENDBRANCH   2   3
ENDBRANCH   1   2
BRANCH   1   9
ATOM      9  C   UNL     1     -16.225 -39.071  23.236  1.00  0.00    -0.011 C 
ATOM     10  C   UNL     1     -16.554 -39.982  24.444  1.00  0.00     0.008 C 
BRANCH   9  11
ATOM     11  C   UNL     1     -15.394 -37.798  23.652  1.00  0.00    -0.002 C 
ATOM     12  C   UNL     1     -16.161 -36.475  23.498  1.00  0.00     0.005 C 
ATOM     13  C   UNL     1     -14.767 -37.745  25.117  1.00  0.00    -0.026 C 
ATOM     14  C   UNL     1     -15.451 -35.494  24.403  1.00  0.00     0.005 C 
ATOM     15  C   UNL     1     -15.147 -36.316  25.645  1.00  0.00    -0.001 C 
ATOM     16  C   UNL     1     -13.222 -37.939  25.020  1.00  0.00     0.007 C 
ATOM     17  C   UNL     1     -15.357 -38.817  26.077  1.00  0.00     0.012 C 
ATOM     18  C   UNL     1     -14.166 -35.585  26.617  1.00  0.00     0.000 C 
ATOM     19  C   UNL     1     -12.436 -37.379  26.208  1.00  0.00     0.005 C 
ATOM     20  C   UNL     1     -12.667 -35.857  26.337  1.00  0.00     0.003 C 
ATOM     21  C   UNL     1     -14.521 -35.894  28.081  1.00  0.00     0.031 C 
ATOM     22  C   UNL     1     -11.721 -35.075  27.359  1.00  0.00    -0.008 C 
ATOM     23  C   UNL     1     -13.606 -35.210  29.044  1.00  0.00    -0.027 C 
ATOM     24  C   UNL     1     -12.319 -34.938  28.770  1.00  0.00    -0.065 C 
ATOM     25  C   UNL     1     -10.323 -35.761  27.503  1.00  0.00     0.014 C 
ATOM     26  C   UNL     1     -11.521 -33.642  26.787  1.00  0.00     0.016 C 
ATOM     27  C   UNL     1     -11.448 -34.362  29.875  1.00  0.00     0.063 C 
ATOM     28  C   UNL     1      -9.409 -35.113  28.559  1.00  0.00     0.033 C 
ATOM     29  C   UNL     1     -10.081 -35.075  29.942  1.00  0.00     0.118 C 
BRANCH  29  30
ATOM     30  O   UNL     1     -10.165 -36.381  30.472  1.00  0.00    -0.393 OA
ATOM     31  H   UNL     1     -10.111 -36.342  31.465  1.00  0.00     0.210 HD
ENDBRANCH  29  30
ENDBRANCH   9  11
ENDBRANCH   1   9
TORSDOF 7
ENDMDL
MODEL 3
REMARK VINA RESULT:    45.904      2.660      4.201
REMARK INTER + INTRA:          69.941
REMARK INTER:                  69.882
REMARK INTRA:                   0.059
REMARK UNBOUND:                 6.594
REMARK SMILES CC[C@H](CC[C@H](C)[C@H]1CC[C@@H]2[C@H]3CC=C4C[C@@H](O)CC[C@@]4(C)[C@H]3CC[C@@]21C)C(C)C
REMARK SMILES IDX 5 1 4 2 3 3 2 4 1 5 28 6 29 7 30 8 6 9 7 10 8 11 9 12 26 13
REMARK SMILES IDX 10 14 11 15 25 16 27 17 12 18 24 19 23 20 13 21 21 22 14 23
REMARK SMILES IDX 15 24 20 25 22 26 16 27 19 28 17 29 18 30
REMARK H PARENT 18 31
REMARK Flexibility Score: inf
ROOT
ATOM      1  C   UNL     1     -17.594 -39.183  22.431  1.00  0.00     0.004 C 
ENDROOT
BRANCH   1   2
ATOM      2  C   UNL     1     -18.245 -40.155  21.432  1.00  0.00     0.004 C 
BRANCH   2   3
ATOM      3  C   UNL     1     -19.734 -40.503  21.742  1.00  0.00    -0.009 C 
BRANCH   3   4
ATOM      4  C   UNL     1     -20.525 -39.188  22.015  1.00  0.00     0.000 C 
ATOM      5  C   UNL     1     -21.536 -39.279  23.166  1.00  0.00     0.004 C 
ENDBRANCH   3   4
BRANCH   3   6
ATOM      6  C   UNL     1     -20.364 -41.463  20.657  1.00  0.00    -0.014 C 
ATOM      7  C   UNL     1     -19.786 -41.344  19.231  1.00  0.00     0.007 C 
ATOM      8  C   UNL     1     -21.893 -41.258  20.554  1.00  0.00     0.007 C 
ENDBRANCH   3   6
ENDBRANCH   2   3
ENDBRANCH   1   2
BRANCH   1   9
ATOM      9  C   UNL     1     -16.882 -37.983  21.742  1.00  0.00    -0.011 C 
ATOM     10  C   UNL     1     -15.591 -38.485  21.049  1.00  0.00     0.008 C 
BRANCH   9  11
ATOM     11  C   UNL     1     -16.594 -36.842  22.792  1.00  0.00    -0.002 C 
ATOM     12  C   UNL     1     -17.855 -36.303  23.487  1.00  0.00     0.005 C 
ATOM     13  C   UNL     1     -15.564 -37.138  23.973  1.00  0.00    -0.026 C 
ATOM     14  C   UNL     1     -17.362 -35.659  24.762  1.00  0.00     0.005 C 
ATOM     15  C   UNL     1     -16.303 -36.628  25.261  1.00  0.00    -0.001 C 
ATOM     16  C   UNL     1     -14.242 -36.354  23.708  1.00  0.00     0.007 C 
ATOM     17  C   UNL     1     -15.237 -38.650  24.138  1.00  0.00     0.012 C 
ATOM     18  C   UNL     1     -15.454 -36.032  26.431  1.00  0.00     0.000 C 
ATOM     19  C   UNL     1     -13.402 -36.085  24.959  1.00  0.00     0.005 C 
ATOM     20  C   UNL     1     -14.203 -35.240  25.975  1.00  0.00     0.003 C 
ATOM     21  C   UNL     1     -15.078 -37.127  27.442  1.00  0.00     0.031 C 
ATOM     22  C   UNL     1     -13.387 -34.653  27.216  1.00  0.00    -0.008 C 
ATOM     23  C   UNL     1     -14.267 -36.597  28.579  1.00  0.00    -0.027 C 
ATOM     24  C   UNL     1     -13.424 -35.557  28.460  1.00  0.00    -0.065 C 
ATOM     25  C   UNL     1     -11.886 -34.399  26.860  1.00  0.00     0.014 C 
ATOM     26  C   UNL     1     -14.050 -33.298  27.594  1.00  0.00     0.016 C 
ATOM     27  C   UNL     1     -12.551 -35.192  29.650  1.00  0.00     0.063 C 
ATOM     28  C   UNL     1     -11.026 -33.937  28.051  1.00  0.00     0.033 C 
ATOM     29  C   UNL     1     -11.091 -34.937  29.217  1.00  0.00     0.118 C 
BRANCH  29  30
ATOM     30  O   UNL     1     -10.402 -36.121  28.875  1.00  0.00    -0.393 OA
ATOM     31  H   UNL     1     -11.047 -36.876  28.812  1.00  0.00     0.210 HD
ENDBRANCH  29  30
ENDBRANCH   9  11
ENDBRANCH   1   9
TORSDOF 7
ENDMDL
MODEL 4
REMARK VINA RESULT:    45.910      2.965      4.450
REMARK INTER + INTRA:          69.949
REMARK INTER:                  68.969
REMARK INTRA:                   0.980
REMARK UNBOUND:                 6.594
REMARK SMILES CC[C@H](CC[C@H](C)[C@H]1CC[C@@H]2[C@H]3CC=C4C[C@@H](O)CC[C@@]4(C)[C@H]3CC[C@@]21C)C(C)C
REMARK SMILES IDX 5 1 4 2 3 3 2 4 1 5 28 6 29 7 30 8 6 9 7 10 8 11 9 12 26 13
REMARK SMILES IDX 10 14 11 15 25 16 27 17 12 18 24 19 23 20 13 21 21 22 14 23
REMARK SMILES IDX 15 24 20 25 22 26 16 27 19 28 17 29 18 30
REMARK H PARENT 18 31
REMARK Flexibility Score: inf
ROOT
ATOM      1  C   UNL     1     -17.673 -39.614  21.602  1.00  0.00     0.004 C 
ENDROOT
BRANCH   1   2
ATOM      2  C   UNL     1     -18.763 -40.695  21.710  1.00  0.00     0.004 C 
BRANCH   2   3
ATOM      3  C   UNL     1     -19.879 -40.600  20.624  1.00  0.00    -0.009 C 
BRANCH   3   4
ATOM      4  C   UNL     1     -19.884 -41.905  19.773  1.00  0.00     0.000 C 
ATOM      5  C   UNL     1     -20.536 -43.113  20.460  1.00  0.00     0.004 C 
ENDBRANCH   3   4
BRANCH   3   6
ATOM      6  C   UNL     1     -21.276 -40.180  21.234  1.00  0.00    -0.014 C 
ATOM      7  C   UNL     1     -21.226 -39.401  22.565  1.00  0.00     0.007 C 
ATOM      8  C   UNL     1     -22.178 -41.416  21.456  1.00  0.00     0.007 C 
ENDBRANCH   3   6
ENDBRANCH   2   3
ENDBRANCH   1   2
BRANCH   1   9
ATOM      9  C   UNL     1     -17.674 -38.622  22.801  1.00  0.00    -0.011 C 
ATOM     10  C   UNL     1     -18.756 -37.540  22.567  1.00  0.00     0.008 C 
BRANCH   9  11
ATOM     11  C   UNL     1     -16.237 -38.002  22.998  1.00  0.00    -0.002 C 
ATOM     12  C   UNL     1     -15.870 -36.937  21.952  1.00  0.00     0.005 C 
ATOM     13  C   UNL     1     -15.880 -37.343  24.405  1.00  0.00    -0.026 C 
ATOM     14  C   UNL     1     -14.766 -36.121  22.585  1.00  0.00     0.005 C 
ATOM     15  C   UNL     1     -15.223 -35.969  24.027  1.00  0.00    -0.001 C 
ATOM     16  C   UNL     1     -14.890 -38.274  25.170  1.00  0.00     0.007 C 
ATOM     17  C   UNL     1     -17.128 -37.083  25.296  1.00  0.00     0.012 C 
ATOM     18  C   UNL     1     -14.100 -35.391  24.949  1.00  0.00     0.000 C 
ATOM     19  C   UNL     1     -14.044 -37.565  26.231  1.00  0.00     0.005 C 
ATOM     20  C   UNL     1     -13.179 -36.462  25.583  1.00  0.00     0.003 C 
ATOM     21  C   UNL     1     -14.700 -34.469  26.024  1.00  0.00     0.031 C 
ATOM     22  C   UNL     1     -12.052 -35.806  26.505  1.00  0.00    -0.008 C 
ATOM     23  C   UNL     1     -13.657 -33.893  26.925  1.00  0.00    -0.027 C 
ATOM     24  C   UNL     1     -12.516 -34.533  27.234  1.00  0.00    -0.065 C 
ATOM     25  C   UNL     1     -11.526 -36.805  27.586  1.00  0.00     0.014 C 
ATOM     26  C   UNL     1     -10.872 -35.413  25.569  1.00  0.00     0.016 C 
ATOM     27  C   UNL     1     -11.592 -33.910  28.267  1.00  0.00     0.063 C 
ATOM     28  C   UNL     1     -10.516 -36.191  28.573  1.00  0.00     0.033 C 
ATOM     29  C   UNL     1     -11.100 -34.960  29.286  1.00  0.00     0.118 C 
BRANCH  29  30
ATOM     30  O   UNL     1     -12.104 -35.360  30.195  1.00  0.00    -0.393 OA
ATOM     31  H   UNL     1     -12.981 -34.987  29.908  1.00  0.00     0.210 HD
ENDBRANCH  29  30
ENDBRANCH   9  11
ENDBRANCH   1   9
TORSDOF 7
ENDMDL
