MODEL 1
REMARK VINA RESULT:    -4.867      0.000      0.000
REMARK INTER + INTRA:          -5.152
REMARK INTER:                  -5.152
REMARK INTRA:                   0.000
REMARK UNBOUND:                 0.000
REMARK SMILES C[C@H]1CC[C@@H]2[N@H+](C1)C[C@@H]1[C@@H]3C[C@H]4[C@H](CC(=O)[C@@H]5C[C@H](O)CC[C@@]54C)[C@@H]3CC[C@H]1[C@]2(C)O
REMARK SMILES IDX 5 1 6 2 8 3 7 4 4 5 29 6 3 7 28 8 30 9 2 10 27 11 9 12 1 13
REMARK SMILES IDX 26 14 10 15 25 16 11 17 13 18 12 19 14 20 23 21 15 22 17 23
REMARK SMILES IDX 22 24 24 25 16 26 18 27 21 28 19 29 31 31 20 33
REMARK H PARENT 6 30 31 32 20 34
REMARK Flexibility Score: inf
ROOT
ATOM      1  C   UNL     1      22.067  28.485  19.765  1.00  0.00     0.216 C 
ATOM      2  N   UNL     1      21.168  29.633  20.147  1.00  0.00    -0.330 N 
ATOM      3  C   UNL     1      21.162  29.955  21.596  1.00  0.00     0.266 C 
ATOM      4  C   UNL     1      21.442  30.859  19.364  1.00  0.00     0.265 C 
ATOM      5  C   UNL     1      22.482  28.546  18.264  1.00  0.00     0.069 C 
ATOM      6  C   UNL     1      23.308  28.307  20.722  1.00  0.00     0.117 C 
ATOM      7  C   UNL     1      21.396  29.199  17.412  1.00  0.00     0.015 C 
ATOM      8  C   UNL     1      22.854  28.232  22.245  1.00  0.00     0.036 C 
ATOM      9  C   UNL     1      24.125  27.057  20.291  1.00  0.00     0.049 C 
ATOM     10  C   UNL     1      21.131  30.653  17.861  1.00  0.00     0.041 C 
ATOM     11  C   UNL     1      23.002  26.877  22.974  1.00  0.00     0.007 C 
ATOM     12  C   UNL     1      21.399  28.701  22.438  1.00  0.00     0.054 C 
ATOM     13  C   UNL     1      21.922  31.657  17.011  1.00  0.00     0.013 C 
ATOM     14  C   UNL     1      22.753  27.065  24.478  1.00  0.00     0.004 C 
ATOM     15  C   UNL     1      21.014  28.881  23.928  1.00  0.00     0.002 C 
ATOM     16  C   UNL     1      21.358  27.662  24.802  1.00  0.00    -0.004 C 
ATOM     17  C   UNL     1      21.613  30.091  24.649  1.00  0.00     0.009 C 
ATOM     18  C   UNL     1      21.233  28.227  26.237  1.00  0.00     0.003 C 
ATOM     19  C   UNL     1      21.535  29.745  26.150  1.00  0.00    -0.000 C 
ATOM     20  C   UNL     1      21.962  27.469  27.362  1.00  0.00     0.080 C 
ATOM     21  C   UNL     1      22.696  30.303  27.064  1.00  0.00    -0.020 C 
ATOM     22  C   UNL     1      22.057  28.317  28.601  1.00  0.00     0.136 C 
ATOM     23  C   UNL     1      22.499  29.770  28.537  1.00  0.00     0.065 C 
ATOM     24  C   UNL     1      22.622  31.873  27.025  1.00  0.00     0.010 C 
ATOM     25  C   UNL     1      24.125  29.890  26.596  1.00  0.00     0.012 C 
ATOM     26  O   UNL     1      21.860  27.797  29.690  1.00  0.00    -0.299 OA
ATOM     27  C   UNL     1      21.537  30.678  29.333  1.00  0.00     0.043 C 
ATOM     28  C   UNL     1      23.047  32.519  28.347  1.00  0.00     0.032 C 
ATOM     29  C   UNL     1      22.115  32.101  29.509  1.00  0.00     0.115 C 
ATOM     30  H   UNL     1      20.184  29.343  19.920  1.00  0.00     0.348 HD
ENDROOT
BRANCH   6  31
ATOM     31  O   UNL     1      24.125  29.445  20.553  1.00  0.00    -0.384 OA
ATOM     32  H   UNL     1      24.356  29.803  21.452  1.00  0.00     0.211 HD
ENDBRANCH   6  31
BRANCH  29  33
ATOM     33  O   UNL     1      21.051  33.011  29.625  1.00  0.00    -0.393 OA
ATOM     34  H   UNL     1      21.023  33.528  28.776  1.00  0.00     0.210 HD
ENDBRANCH  29  33
TORSDOF 2
ENDMDL
MODEL 2
REMARK VINA RESULT:    -4.489      2.385      8.588
REMARK INTER + INTRA:          -4.751
REMARK INTER:                  -4.751
REMARK INTRA:                   0.000
REMARK UNBOUND:                 0.000
REMARK SMILES C[C@H]1CC[C@@H]2[N@H+](C1)C[C@@H]1[C@@H]3C[C@H]4[C@H](CC(=O)[C@@H]5C[C@H](O)CC[C@@]54C)[C@@H]3CC[C@H]1[C@]2(C)O
REMARK SMILES IDX 5 1 6 2 8 3 7 4 4 5 29 6 3 7 28 8 30 9 2 10 27 11 9 12 1 13
REMARK SMILES IDX 26 14 10 15 25 16 11 17 13 18 12 19 14 20 23 21 15 22 17 23
REMARK SMILES IDX 22 24 24 25 16 26 18 27 21 28 19 29 31 31 20 33
REMARK H PARENT 6 30 31 32 20 34
REMARK Flexibility Score: inf
ROOT
ATOM      1  C   UNL     1      22.991  29.665  25.920  1.00  0.00     0.216 C 
ATOM      2  N   UNL     1      23.679  30.834  25.262  1.00  0.00    -0.330 N 
ATOM      3  C   UNL     1      23.686  30.791  23.779  1.00  0.00     0.266 C 
ATOM      4  C   UNL     1      23.153  32.139  25.722  1.00  0.00     0.265 C 
ATOM      5  C   UNL     1      22.510  30.009  27.362  1.00  0.00     0.069 C 
ATOM      6  C   UNL     1      21.844  29.031  25.042  1.00  0.00     0.117 C 
ATOM      7  C   UNL     1      23.422  31.042  28.022  1.00  0.00     0.015 C 
ATOM      8  C   UNL     1      22.367  28.675  23.582  1.00  0.00     0.036 C 
ATOM      9  C   UNL     1      21.253  27.793  25.772  1.00  0.00     0.049 C 
ATOM     10  C   UNL     1      23.435  32.367  27.227  1.00  0.00     0.041 C 
ATOM     11  C   UNL     1      22.500  27.182  23.210  1.00  0.00     0.007 C 
ATOM     12  C   UNL     1      23.718  29.348  23.272  1.00  0.00     0.054 C 
ATOM     13  C   UNL     1      22.438  33.380  27.808  1.00  0.00     0.013 C 
ATOM     14  C   UNL     1      22.772  27.042  21.705  1.00  0.00     0.004 C 
ATOM     15  C   UNL     1      24.125  29.230  21.782  1.00  0.00     0.002 C 
ATOM     16  C   UNL     1      24.046  27.793  21.236  1.00  0.00    -0.004 C 
ATOM     17  C   UNL     1      23.344  30.095  20.789  1.00  0.00     0.009 C 
ATOM     18  C   UNL     1      24.124  28.006  19.706  1.00  0.00     0.003 C 
ATOM     19  C   UNL     1      23.546  29.417  19.419  1.00  0.00    -0.000 C 
ATOM     20  C   UNL     1      23.594  26.875  18.806  1.00  0.00     0.080 C 
ATOM     21  C   UNL     1      22.341  29.508  18.402  1.00  0.00    -0.020 C 
ATOM     22  C   UNL     1      23.397  27.365  17.397  1.00  0.00     0.136 C 
ATOM     23  C   UNL     1      22.693  28.680  17.103  1.00  0.00     0.065 C 
ATOM     24  C   UNL     1      22.125  31.025  18.053  1.00  0.00     0.010 C 
ATOM     25  C   UNL     1      20.994  28.960  18.964  1.00  0.00     0.012 C 
ATOM     26  O   UNL     1      23.730  26.642  16.469  1.00  0.00    -0.299 OA
ATOM     27  C   UNL     1      23.505  29.532  16.104  1.00  0.00     0.043 C 
ATOM     28  C   UNL     1      21.643  31.239  16.615  1.00  0.00     0.032 C 
ATOM     29  C   UNL     1      22.683  30.735  15.587  1.00  0.00     0.115 C 
ATOM     30  H   UNL     1      24.689  30.798  25.549  1.00  0.00     0.348 HD
ENDROOT
BRANCH   6  31
ATOM     31  O   UNL     1      20.826  30.002  24.930  1.00  0.00    -0.384 OA
ATOM     32  H   UNL     1      20.990  30.710  25.609  1.00  0.00     0.211 HD
ENDBRANCH   6  31
BRANCH  29  33
ATOM     33  O   UNL     1      23.566  31.773  15.244  1.00  0.00    -0.393 OA
ATOM     34  H   UNL     1      24.486  31.422  15.381  1.00  0.00     0.210 HD
ENDBRANCH  29  33
TORSDOF 2
ENDMDL
MODEL 3
REMARK VINA RESULT:    -4.054      2.202      4.393
REMARK INTER + INTRA:          -4.291
REMARK INTER:                  -4.291
REMARK INTRA:                   0.000
REMARK UNBOUND:                 0.000
REMARK SMILES C[C@H]1CC[C@@H]2[N@H+](C1)C[C@@H]1[C@@H]3C[C@H]4[C@H](CC(=O)[C@@H]5C[C@H](O)CC[C@@]54C)[C@@H]3CC[C@H]1[C@]2(C)O
REMARK SMILES IDX 5 1 6 2 8 3 7 4 4 5 29 6 3 7 28 8 30 9 2 10 27 11 9 12 1 13
REMARK SMILES IDX 26 14 10 15 25 16 11 17 13 18 12 19 14 20 23 21 15 22 17 23
REMARK SMILES IDX 22 24 24 25 16 26 18 27 21 28 19 29 31 31 20 33
REMARK H PARENT 6 30 31 32 20 34
REMARK Flexibility Score: inf
ROOT
ATOM      1  C   UNL     1      23.107  29.764  17.774  1.00  0.00     0.216 C 
ATOM      2  N   UNL     1      24.029  28.634  18.156  1.00  0.00    -0.330 N 
ATOM      3  C   UNL     1      24.027  28.298  19.601  1.00  0.00     0.266 C 
ATOM      4  C   UNL     1      23.794  27.410  17.358  1.00  0.00     0.265 C 
ATOM      5  C   UNL     1      22.710  29.708  16.268  1.00  0.00     0.069 C 
ATOM      6  C   UNL     1      21.852  29.902  18.719  1.00  0.00     0.117 C 
ATOM      7  C   UNL     1      23.821  29.089  15.422  1.00  0.00     0.015 C 
ATOM      8  C   UNL     1      22.288  29.974  20.247  1.00  0.00     0.036 C 
ATOM      9  C   UNL     1      21.010  31.137  18.290  1.00  0.00     0.049 C 
ATOM     10  C   UNL     1      24.117  27.637  15.860  1.00  0.00     0.041 C 
ATOM     11  C   UNL     1      22.099  31.318  20.987  1.00  0.00     0.007 C 
ATOM     12  C   UNL     1      23.751  29.539  20.452  1.00  0.00     0.054 C 
ATOM     13  C   UNL     1      23.359  26.623  14.992  1.00  0.00     0.013 C 
ATOM     14  C   UNL     1      22.335  31.122  22.491  1.00  0.00     0.004 C 
ATOM     15  C   UNL     1      24.124  29.354  21.944  1.00  0.00     0.002 C 
ATOM     16  C   UNL     1      23.741  30.556  22.826  1.00  0.00    -0.004 C 
ATOM     17  C   UNL     1      23.546  28.122  22.647  1.00  0.00     0.009 C 
ATOM     18  C   UNL     1      23.863  29.980  24.257  1.00  0.00     0.003 C 
ATOM     19  C   UNL     1      23.600  28.456  24.152  1.00  0.00    -0.000 C 
ATOM     20  C   UNL     1      23.104  30.710  25.381  1.00  0.00     0.080 C 
ATOM     21  C   UNL     1      22.442  27.862  25.048  1.00  0.00    -0.020 C 
ATOM     22  C   UNL     1      23.017  29.847  26.610  1.00  0.00     0.136 C 
ATOM     23  C   UNL     1      22.610  28.385  26.528  1.00  0.00     0.065 C 
ATOM     24  C   UNL     1      22.555  26.295  24.995  1.00  0.00     0.010 C 
ATOM     25  C   UNL     1      21.009  28.244  24.568  1.00  0.00     0.012 C 
ATOM     26  O   UNL     1      23.189  30.362  27.706  1.00  0.00    -0.299 OA
ATOM     27  C   UNL     1      23.585  27.493  27.327  1.00  0.00     0.043 C 
ATOM     28  C   UNL     1      22.130  25.626  26.306  1.00  0.00     0.032 C 
ATOM     29  C   UNL     1      23.039  26.055  27.482  1.00  0.00     0.115 C 
ATOM     30  H   UNL     1      25.008  28.950  17.942  1.00  0.00     0.348 HD
ENDROOT
BRANCH   6  31
ATOM     31  O   UNL     1      21.065  28.747  18.530  1.00  0.00    -0.384 OA
ATOM     32  H   UNL     1      21.500  28.178  17.841  1.00  0.00     0.211 HD
ENDBRANCH   6  31
BRANCH  29  33
ATOM     33  O   UNL     1      24.124  25.169  27.602  1.00  0.00    -0.393 OA
ATOM     34  H   UNL     1      23.777  24.262  27.390  1.00  0.00     0.210 HD
ENDBRANCH  29  33
TORSDOF 2
ENDMDL
MODEL 4
REMARK VINA RESULT:    -3.573      2.342      8.318
REMARK INTER + INTRA:          -3.782
REMARK INTER:                  -3.782
REMARK INTRA:                   0.000
REMARK UNBOUND:                 0.000
REMARK SMILES C[C@H]1CC[C@@H]2[N@H+](C1)C[C@@H]1[C@@H]3C[C@H]4[C@H](CC(=O)[C@@H]5C[C@H](O)CC[C@@]54C)[C@@H]3CC[C@H]1[C@]2(C)O
REMARK SMILES IDX 5 1 6 2 8 3 7 4 4 5 29 6 3 7 28 8 30 9 2 10 27 11 9 12 1 13
REMARK SMILES IDX 26 14 10 15 25 16 11 17 13 18 12 19 14 20 23 21 15 22 17 23
REMARK SMILES IDX 22 24 24 25 16 26 18 27 21 28 19 29 31 31 20 33
REMARK H PARENT 6 30 31 32 20 34
REMARK Flexibility Score: inf
ROOT
ATOM      1  C   UNL     1      23.103  31.479  29.524  1.00  0.00     0.216 C 
ATOM      2  N   UNL     1      24.024  32.197  28.570  1.00  0.00    -0.330 N 
ATOM      3  C   UNL     1      24.023  31.656  27.188  1.00  0.00     0.266 C 
ATOM      4  C   UNL     1      23.784  33.657  28.536  1.00  0.00     0.265 C 
ATOM      5  C   UNL     1      22.704  32.377  30.734  1.00  0.00     0.069 C 
ATOM      6  C   UNL     1      21.849  30.828  28.824  1.00  0.00     0.117 C 
ATOM      7  C   UNL     1      23.813  33.368  31.082  1.00  0.00     0.015 C 
ATOM      8  C   UNL     1      22.287  29.904  27.604  1.00  0.00     0.036 C 
ATOM      9  C   UNL     1      21.009  30.051  29.875  1.00  0.00     0.049 C 
ATOM     10  C   UNL     1      24.106  34.318  29.898  1.00  0.00     0.041 C 
ATOM     11  C   UNL     1      22.102  28.378  27.754  1.00  0.00     0.007 C 
ATOM     12  C   UNL     1      23.750  30.151  27.188  1.00  0.00     0.054 C 
ATOM     13  C   UNL     1      23.345  35.644  30.041  1.00  0.00     0.013 C 
ATOM     14  C   UNL     1      22.340  27.689  26.403  1.00  0.00     0.004 C 
ATOM     15  C   UNL     1      24.125  29.460  25.854  1.00  0.00     0.002 C 
ATOM     16  C   UNL     1      23.745  27.969  25.806  1.00  0.00    -0.004 C 
ATOM     17  C   UNL     1      23.545  30.077  24.577  1.00  0.00     0.009 C 
ATOM     18  C   UNL     1      23.868  27.635  24.301  1.00  0.00     0.003 C 
ATOM     19  C   UNL     1      23.602  28.951  23.525  1.00  0.00    -0.000 C 
ATOM     20  C   UNL     1      23.112  26.395  23.787  1.00  0.00     0.080 C 
ATOM     21  C   UNL     1      22.444  28.931  22.450  1.00  0.00    -0.020 C 
ATOM     22  C   UNL     1      23.025  26.411  22.285  1.00  0.00     0.136 C 
ATOM     23  C   UNL     1      22.615  27.662  21.525  1.00  0.00     0.065 C 
ATOM     24  C   UNL     1      22.554  30.253  21.607  1.00  0.00     0.010 C 
ATOM     25  C   UNL     1      21.011  28.883  23.062  1.00  0.00     0.012 C 
ATOM     26  O   UNL     1      23.199  25.367  21.673  1.00  0.00    -0.299 OA
ATOM     27  C   UNL     1      23.589  27.948  20.362  1.00  0.00     0.043 C 
ATOM     28  C   UNL     1      22.130  30.061  20.148  1.00  0.00     0.032 C 
ATOM     29  C   UNL     1      23.041  29.045  19.421  1.00  0.00     0.115 C 
ATOM     30  H   UNL     1      25.003  32.060  28.926  1.00  0.00     0.348 HD
ENDROOT
BRANCH   6  31
ATOM     31  O   UNL     1      21.059  31.885  28.325  1.00  0.00    -0.384 OA
ATOM     32  H   UNL     1      20.236  31.951  28.879  1.00  0.00     0.211 HD
ENDBRANCH   6  31
BRANCH  29  33
ATOM     33  O   UNL     1      24.124  29.709  18.820  1.00  0.00    -0.393 OA
ATOM     34  H   UNL     1      24.270  29.278  17.937  1.00  0.00     0.210 HD
ENDBRANCH  29  33
TORSDOF 2
ENDMDL
MODEL 5
REMARK VINA RESULT:    -2.148      1.834      3.880
REMARK INTER + INTRA:          -2.273
REMARK INTER:                  -2.273
REMARK INTRA:                   0.000
REMARK UNBOUND:                 0.000
REMARK SMILES C[C@H]1CC[C@@H]2[N@H+](C1)C[C@@H]1[C@@H]3C[C@H]4[C@H](CC(=O)[C@@H]5C[C@H](O)CC[C@@]54C)[C@@H]3CC[C@H]1[C@]2(C)O
REMARK SMILES IDX 5 1 6 2 8 3 7 4 4 5 29 6 3 7 28 8 30 9 2 10 27 11 9 12 1 13
REMARK SMILES IDX 26 14 10 15 25 16 11 17 13 18 12 19 14 20 23 21 15 22 17 23
REMARK SMILES IDX 22 24 24 25 16 26 18 27 21 28 19 29 31 31 20 33
REMARK H PARENT 6 30 31 32 20 34
REMARK Flexibility Score: inf
ROOT
ATOM      1  C   UNL     1      23.255  29.750  19.072  1.00  0.00     0.216 C 
ATOM      2  N   UNL     1      24.047  28.558  19.547  1.00  0.00    -0.330 N 
ATOM      3  C   UNL     1      23.975  28.313  21.010  1.00  0.00     0.266 C 
ATOM      4  C   UNL     1      23.706  27.317  18.815  1.00  0.00     0.265 C 
ATOM      5  C   UNL     1      22.891  29.641  17.560  1.00  0.00     0.069 C 
ATOM      6  C   UNL     1      21.998  30.072  19.968  1.00  0.00     0.117 C 
ATOM      7  C   UNL     1      23.953  28.862  16.786  1.00  0.00     0.015 C 
ATOM      8  C   UNL     1      22.401  30.193  21.503  1.00  0.00     0.036 C 
ATOM      9  C   UNL     1      21.298  31.356  19.442  1.00  0.00     0.049 C 
ATOM     10  C   UNL     1      24.087  27.418  17.318  1.00  0.00     0.041 C 
ATOM     11  C   UNL     1      22.333  31.591  22.156  1.00  0.00     0.007 C 
ATOM     12  C   UNL     1      23.807  29.625  21.777  1.00  0.00     0.054 C 
ATOM     13  C   UNL     1      23.251  26.434  16.488  1.00  0.00     0.013 C 
ATOM     14  C   UNL     1      22.511  31.465  23.676  1.00  0.00     0.004 C 
ATOM     15  C   UNL     1      24.122  29.495  23.288  1.00  0.00     0.002 C 
ATOM     16  C   UNL     1      23.842  30.782  24.086  1.00  0.00    -0.004 C 
ATOM     17  C   UNL     1      23.403  28.374  24.044  1.00  0.00     0.009 C 
ATOM     18  C   UNL     1      23.870  30.286  25.551  1.00  0.00     0.003 C 
ATOM     19  C   UNL     1      23.454  28.792  25.528  1.00  0.00    -0.000 C 
ATOM     20  C   UNL     1      23.163  31.156  26.607  1.00  0.00     0.080 C 
ATOM     21  C   UNL     1      22.220  28.374  26.421  1.00  0.00    -0.020 C 
ATOM     22  C   UNL     1      22.957  30.384  27.881  1.00  0.00     0.136 C 
ATOM     23  C   UNL     1      22.405  28.967  27.873  1.00  0.00     0.065 C 
ATOM     24  C   UNL     1      22.173  26.803  26.464  1.00  0.00     0.010 C 
ATOM     25  C   UNL     1      20.846  28.869  25.876  1.00  0.00     0.012 C 
ATOM     26  O   UNL     1      23.154  30.944  28.950  1.00  0.00    -0.299 OA
ATOM     27  C   UNL     1      23.263  28.032  28.751  1.00  0.00     0.043 C 
ATOM     28  C   UNL     1      21.650  26.263  27.798  1.00  0.00     0.032 C 
ATOM     29  C   UNL     1      22.569  26.669  28.974  1.00  0.00     0.115 C 
ATOM     30  H   UNL     1      25.058  28.759  19.345  1.00  0.00     0.348 HD
ENDROOT
BRANCH   6  31
ATOM     31  O   UNL     1      21.101  28.992  19.823  1.00  0.00    -0.384 OA
ATOM     32  H   UNL     1      21.497  28.336  19.190  1.00  0.00     0.211 HD
ENDBRANCH   6  31
BRANCH  29  33
ATOM     33  O   UNL     1      23.553  25.687  29.179  1.00  0.00    -0.393 OA
ATOM     34  H   UNL     1      24.122  26.005  29.930  1.00  0.00     0.210 HD
ENDBRANCH  29  33
TORSDOF 2
ENDMDL
