MODEL 1
REMARK VINA RESULT:    -5.990      0.000      0.000
REMARK INTER + INTRA:          -7.110
REMARK INTER:                  -7.041
REMARK INTRA:                  -0.069
REMARK UNBOUND:                -0.069
REMARK SMILES Oc1ccc(-c2[o+]c3cc(O)cc(O)c3cc2O)cc1.[Cl-]
REMARK SMILES IDX 6 1 7 2 8 3 9 4 10 5 12 6 13 7 15 8 16 9 17 10 5 11 4 12
REMARK SMILES IDX 3 13 2 14 19 15 20 16 1 17 18 19 11 21 14 23
REMARK H PARENT 1 18 18 20 11 22 14 24
REMARK Flexibility Score: inf
ROOT
ATOM      1  C   UNL     1      14.926 -51.554   7.335  1.00  0.00     0.401 A 
ATOM      2  O   UNL     1      14.065 -50.821   6.630  1.00  0.00    -0.202 OA
ATOM      3  C   UNL     1      14.429 -49.773   5.900  1.00  0.00     0.368 A 
ATOM      4  C   UNL     1      13.462 -49.052   5.192  1.00  0.00     0.162 A 
ATOM      5  C   UNL     1      13.833 -47.943   4.421  1.00  0.00     0.128 A 
ATOM      6  C   UNL     1      15.175 -47.555   4.359  1.00  0.00     0.093 A 
ATOM      7  C   UNL     1      16.157 -48.268   5.061  1.00  0.00     0.136 A 
ATOM      8  C   UNL     1      15.784 -49.382   5.836  1.00  0.00     0.125 A 
ATOM      9  C   UNL     1      16.721 -50.136   6.552  1.00  0.00     0.078 A 
ATOM     10  C   UNL     1      16.300 -51.239   7.301  1.00  0.00     0.223 A 
ENDROOT
BRANCH   1  11
ATOM     11  C   UNL     1      14.398 -52.694   8.118  1.00  0.00     0.084 A 
ATOM     12  C   UNL     1      14.875 -53.990   7.860  1.00  0.00     0.022 A 
ATOM     13  C   UNL     1      14.375 -55.084   8.572  1.00  0.00     0.047 A 
ATOM     14  C   UNL     1      13.380 -54.897   9.541  1.00  0.00     0.115 A 
ATOM     15  C   UNL     1      13.386 -52.517   9.078  1.00  0.00     0.022 A 
ATOM     16  C   UNL     1      12.886 -53.614   9.789  1.00  0.00     0.047 A 
BRANCH  14  17
ATOM     17  O   UNL     1      12.875 -55.980  10.257  1.00  0.00    -0.508 OA
ATOM     18  H   UNL     1      11.970 -56.381  10.043  1.00  0.00     0.293 HD
ENDBRANCH  14  17
ENDBRANCH   1  11
BRANCH  10  19
ATOM     19  O   UNL     1      17.234 -52.025   7.975  1.00  0.00    -0.500 OA
ATOM     20  H   UNL     1      18.128 -51.650   8.274  1.00  0.00     0.294 HD
ENDBRANCH  10  19
BRANCH   5  21
ATOM     21  O   UNL     1      12.875 -47.219   3.714  1.00  0.00    -0.507 OA
ATOM     22  H   UNL     1      12.197 -47.679   3.120  1.00  0.00     0.293 HD
ENDBRANCH   5  21
BRANCH   7  23
ATOM     23  O   UNL     1      17.493 -47.871   4.990  1.00  0.00    -0.507 OA
ATOM     24  H   UNL     1      18.203 -48.466   4.577  1.00  0.00     0.293 HD
ENDBRANCH   7  23
TORSDOF 5
ENDMDL
MODEL 2
REMARK VINA RESULT:    -5.849     11.488     12.642
REMARK INTER + INTRA:          -6.944
REMARK INTER:                  -6.647
REMARK INTRA:                  -0.297
REMARK UNBOUND:                -0.069
REMARK SMILES Oc1ccc(-c2[o+]c3cc(O)cc(O)c3cc2O)cc1.[Cl-]
REMARK SMILES IDX 6 1 7 2 8 3 9 4 10 5 12 6 13 7 15 8 16 9 17 10 5 11 4 12
REMARK SMILES IDX 3 13 2 14 19 15 20 16 1 17 18 19 11 21 14 23
REMARK H PARENT 1 18 18 20 11 22 14 24
REMARK Flexibility Score: inf
ROOT
ATOM      1  C   UNL     1      15.635 -54.683  -3.322  1.00  0.00     0.401 A 
ATOM      2  O   UNL     1      16.551 -54.576  -4.284  1.00  0.00    -0.202 OA
ATOM      3  C   UNL     1      16.753 -55.513  -5.204  1.00  0.00     0.368 A 
ATOM      4  C   UNL     1      17.739 -55.327  -6.178  1.00  0.00     0.162 A 
ATOM      5  C   UNL     1      17.963 -56.308  -7.152  1.00  0.00     0.128 A 
ATOM      6  C   UNL     1      17.197 -57.479  -7.151  1.00  0.00     0.093 A 
ATOM      7  C   UNL     1      16.203 -57.679  -6.181  1.00  0.00     0.136 A 
ATOM      8  C   UNL     1      15.979 -56.693  -5.203  1.00  0.00     0.125 A 
ATOM      9  C   UNL     1      14.996 -56.836  -4.217  1.00  0.00     0.078 A 
ATOM     10  C   UNL     1      14.808 -55.824  -3.272  1.00  0.00     0.223 A 
ENDROOT
BRANCH   1  11
ATOM     11  C   UNL     1      15.511 -53.576  -2.348  1.00  0.00     0.084 A 
ATOM     12  C   UNL     1      16.360 -53.541  -1.229  1.00  0.00     0.022 A 
ATOM     13  C   UNL     1      16.246 -52.516  -0.285  1.00  0.00     0.047 A 
ATOM     14  C   UNL     1      15.271 -51.522  -0.439  1.00  0.00     0.115 A 
ATOM     15  C   UNL     1      14.523 -52.584  -2.486  1.00  0.00     0.022 A 
ATOM     16  C   UNL     1      14.410 -51.561  -1.539  1.00  0.00     0.047 A 
BRANCH  14  17
ATOM     17  O   UNL     1      15.149 -50.496   0.495  1.00  0.00    -0.508 OA
ATOM     18  H   UNL     1      14.255 -50.259   0.908  1.00  0.00     0.293 HD
ENDBRANCH  14  17
ENDBRANCH   1  11
BRANCH  10  19
ATOM     19  O   UNL     1      13.797 -55.936  -2.317  1.00  0.00    -0.500 OA
ATOM     20  H   UNL     1      13.189 -55.157  -2.093  1.00  0.00     0.294 HD
ENDBRANCH  10  19
BRANCH   5  21
ATOM     21  O   UNL     1      18.944 -56.131  -8.125  1.00  0.00    -0.507 OA
ATOM     22  H   UNL     1      19.552 -55.320  -8.122  1.00  0.00     0.293 HD
ENDBRANCH   5  21
BRANCH   7  23
ATOM     23  O   UNL     1      15.446 -58.852  -6.192  1.00  0.00    -0.507 OA
ATOM     24  H   UNL     1      14.496 -58.868  -6.547  1.00  0.00     0.293 HD
ENDBRANCH   7  23
TORSDOF 5
ENDMDL
MODEL 3
REMARK VINA RESULT:    -5.844      1.272      1.659
REMARK INTER + INTRA:          -6.937
REMARK INTER:                  -6.658
REMARK INTRA:                  -0.279
REMARK UNBOUND:                -0.069
REMARK SMILES Oc1ccc(-c2[o+]c3cc(O)cc(O)c3cc2O)cc1.[Cl-]
REMARK SMILES IDX 6 1 7 2 8 3 9 4 10 5 12 6 13 7 15 8 16 9 17 10 5 11 4 12
REMARK SMILES IDX 3 13 2 14 19 15 20 16 1 17 18 19 11 21 14 23
REMARK H PARENT 1 18 18 20 11 22 14 24
REMARK Flexibility Score: inf
ROOT
ATOM      1  C   UNL     1      14.747 -51.252   7.675  1.00  0.00     0.401 A 
ATOM      2  O   UNL     1      14.111 -50.806   6.592  1.00  0.00    -0.202 OA
ATOM      3  C   UNL     1      14.220 -49.560   6.146  1.00  0.00     0.368 A 
ATOM      4  C   UNL     1      13.515 -49.169   5.004  1.00  0.00     0.162 A 
ATOM      5  C   UNL     1      13.619 -47.857   4.525  1.00  0.00     0.128 A 
ATOM      6  C   UNL     1      14.432 -46.934   5.191  1.00  0.00     0.093 A 
ATOM      7  C   UNL     1      15.148 -47.312   6.337  1.00  0.00     0.136 A 
ATOM      8  C   UNL     1      15.043 -48.630   6.818  1.00  0.00     0.125 A 
ATOM      9  C   UNL     1      15.739 -49.065   7.952  1.00  0.00     0.078 A 
ATOM     10  C   UNL     1      15.606 -50.387   8.385  1.00  0.00     0.223 A 
ENDROOT
BRANCH   1  11
ATOM     11  C   UNL     1      14.538 -52.661   8.079  1.00  0.00     0.084 A 
ATOM     12  C   UNL     1      13.394 -53.006   8.818  1.00  0.00     0.022 A 
ATOM     13  C   UNL     1      13.187 -54.326   9.228  1.00  0.00     0.047 A 
ATOM     14  C   UNL     1      14.130 -55.315   8.920  1.00  0.00     0.115 A 
ATOM     15  C   UNL     1      15.489 -53.656   7.789  1.00  0.00     0.022 A 
ATOM     16  C   UNL     1      15.281 -54.976   8.203  1.00  0.00     0.047 A 
BRANCH  14  17
ATOM     17  O   UNL     1      13.934 -56.634   9.323  1.00  0.00    -0.508 OA
ATOM     18  H   UNL     1      13.058 -57.114   9.155  1.00  0.00     0.293 HD
ENDBRANCH  14  17
ENDBRANCH   1  11
BRANCH  10  19
ATOM     19  O   UNL     1      16.336 -50.841   9.483  1.00  0.00    -0.500 OA
ATOM     20  H   UNL     1      17.141 -50.334   9.832  1.00  0.00     0.294 HD
ENDBRANCH  10  19
BRANCH   5  21
ATOM     21  O   UNL     1      12.918 -47.459   3.389  1.00  0.00    -0.507 OA
ATOM     22  H   UNL     1      12.682 -48.116   2.655  1.00  0.00     0.293 HD
ENDBRANCH   5  21
BRANCH   7  23
ATOM     23  O   UNL     1      15.957 -46.382   6.992  1.00  0.00    -0.507 OA
ATOM     24  H   UNL     1      16.920 -46.589   7.230  1.00  0.00     0.293 HD
ENDBRANCH   7  23
TORSDOF 5
ENDMDL
MODEL 4
REMARK VINA RESULT:    -5.501      1.298      1.950
REMARK INTER + INTRA:          -6.534
REMARK INTER:                  -6.294
REMARK INTRA:                  -0.240
REMARK UNBOUND:                -0.069
REMARK SMILES Oc1ccc(-c2[o+]c3cc(O)cc(O)c3cc2O)cc1.[Cl-]
REMARK SMILES IDX 6 1 7 2 8 3 9 4 10 5 12 6 13 7 15 8 16 9 17 10 5 11 4 12
REMARK SMILES IDX 3 13 2 14 19 15 20 16 1 17 18 19 11 21 14 23
REMARK H PARENT 1 18 18 20 11 22 14 24
REMARK Flexibility Score: inf
ROOT
ATOM      1  C   UNL     1      15.015 -52.907   7.648  1.00  0.00     0.401 A 
ATOM      2  O   UNL     1      14.178 -52.033   7.091  1.00  0.00    -0.202 OA
ATOM      3  C   UNL     1      14.543 -50.812   6.716  1.00  0.00     0.368 A 
ATOM      4  C   UNL     1      13.601 -49.952   6.143  1.00  0.00     0.162 A 
ATOM      5  C   UNL     1      13.974 -48.661   5.746  1.00  0.00     0.128 A 
ATOM      6  C   UNL     1      15.293 -48.231   5.924  1.00  0.00     0.093 A 
ATOM      7  C   UNL     1      16.250 -49.083   6.496  1.00  0.00     0.136 A 
ATOM      8  C   UNL     1      15.875 -50.379   6.895  1.00  0.00     0.125 A 
ATOM      9  C   UNL     1      16.788 -51.274   7.464  1.00  0.00     0.078 A 
ATOM     10  C   UNL     1      16.367 -52.554   7.836  1.00  0.00     0.223 A 
ENDROOT
BRANCH   1  11
ATOM     11  C   UNL     1      14.486 -54.236   8.032  1.00  0.00     0.084 A 
ATOM     12  C   UNL     1      13.692 -54.357   9.184  1.00  0.00     0.022 A 
ATOM     13  C   UNL     1      13.200 -55.605   9.577  1.00  0.00     0.047 A 
ATOM     14  C   UNL     1      13.510 -56.750   8.832  1.00  0.00     0.115 A 
ATOM     15  C   UNL     1      14.809 -55.393   7.300  1.00  0.00     0.022 A 
ATOM     16  C   UNL     1      14.317 -56.641   7.696  1.00  0.00     0.047 A 
BRANCH  14  17
ATOM     17  O   UNL     1      13.025 -57.999   9.214  1.00  0.00    -0.508 OA
ATOM     18  H   UNL     1      13.136 -58.344  10.159  1.00  0.00     0.293 HD
ENDBRANCH  14  17
ENDBRANCH   1  11
BRANCH  10  19
ATOM     19  O   UNL     1      17.282 -53.468   8.356  1.00  0.00    -0.500 OA
ATOM     20  H   UNL     1      17.095 -54.464   8.362  1.00  0.00     0.294 HD
ENDBRANCH  10  19
BRANCH   5  21
ATOM     21  O   UNL     1      13.041 -47.798   5.175  1.00  0.00    -0.507 OA
ATOM     22  H   UNL     1      12.660 -47.966   4.252  1.00  0.00     0.293 HD
ENDBRANCH   5  21
BRANCH   7  23
ATOM     23  O   UNL     1      17.562 -48.641   6.667  1.00  0.00    -0.507 OA
ATOM     24  H   UNL     1      17.780 -47.829   7.234  1.00  0.00     0.293 HD
ENDBRANCH   7  23
TORSDOF 5
ENDMDL
MODEL 5
REMARK VINA RESULT:    -5.496      3.070      4.251
REMARK INTER + INTRA:          -6.528
REMARK INTER:                  -6.213
REMARK INTRA:                  -0.315
REMARK UNBOUND:                -0.069
REMARK SMILES Oc1ccc(-c2[o+]c3cc(O)cc(O)c3cc2O)cc1.[Cl-]
REMARK SMILES IDX 6 1 7 2 8 3 9 4 10 5 12 6 13 7 15 8 16 9 17 10 5 11 4 12
REMARK SMILES IDX 3 13 2 14 19 15 20 16 1 17 18 19 11 21 14 23
REMARK H PARENT 1 18 18 20 11 22 14 24
REMARK Flexibility Score: inf
ROOT
ATOM      1  C   UNL     1      15.074 -53.653   8.021  1.00  0.00     0.401 A 
ATOM      2  O   UNL     1      16.288 -53.205   7.700  1.00  0.00    -0.202 OA
ATOM      3  C   UNL     1      16.662 -51.940   7.859  1.00  0.00     0.368 A 
ATOM      4  C   UNL     1      17.953 -51.548   7.493  1.00  0.00     0.162 A 
ATOM      5  C   UNL     1      18.358 -50.217   7.653  1.00  0.00     0.128 A 
ATOM      6  C   UNL     1      17.468 -49.276   8.182  1.00  0.00     0.093 A 
ATOM      7  C   UNL     1      16.170 -49.655   8.556  1.00  0.00     0.136 A 
ATOM      8  C   UNL     1      15.763 -50.992   8.394  1.00  0.00     0.125 A 
ATOM      9  C   UNL     1      14.484 -51.428   8.757  1.00  0.00     0.078 A 
ATOM     10  C   UNL     1      14.131 -52.769   8.583  1.00  0.00     0.223 A 
ENDROOT
BRANCH   1  11
ATOM     11  C   UNL     1      14.773 -55.084   7.788  1.00  0.00     0.084 A 
ATOM     12  C   UNL     1      14.120 -55.469   6.606  1.00  0.00     0.022 A 
ATOM     13  C   UNL     1      13.806 -56.812   6.375  1.00  0.00     0.047 A 
ATOM     14  C   UNL     1      14.127 -57.784   7.330  1.00  0.00     0.115 A 
ATOM     15  C   UNL     1      15.075 -56.063   8.751  1.00  0.00     0.022 A 
ATOM     16  C   UNL     1      14.759 -57.406   8.518  1.00  0.00     0.047 A 
BRANCH  14  17
ATOM     17  O   UNL     1      13.820 -59.125   7.111  1.00  0.00    -0.508 OA
ATOM     18  H   UNL     1      13.646 -59.482   6.179  1.00  0.00     0.293 HD
ENDBRANCH  14  17
ENDBRANCH   1  11
BRANCH  10  19
ATOM     19  O   UNL     1      12.876 -53.221   8.989  1.00  0.00    -0.500 OA
ATOM     20  H   UNL     1      12.477 -54.080   8.628  1.00  0.00     0.294 HD
ENDBRANCH  10  19
BRANCH   5  21
ATOM     21  O   UNL     1      19.642 -49.818   7.289  1.00  0.00    -0.507 OA
ATOM     22  H   UNL     1      20.331 -49.555   7.983  1.00  0.00     0.293 HD
ENDBRANCH   5  21
BRANCH   7  23
ATOM     23  O   UNL     1      15.292 -48.706   9.083  1.00  0.00    -0.507 OA
ATOM     24  H   UNL     1      14.379 -48.967   9.438  1.00  0.00     0.293 HD
ENDBRANCH   7  23
TORSDOF 5
ENDMDL
MODEL 6
REMARK VINA RESULT:    -5.488     10.698     12.055
REMARK INTER + INTRA:          -6.520
REMARK INTER:                  -6.537
REMARK INTRA:                   0.017
REMARK UNBOUND:                -0.069
REMARK SMILES Oc1ccc(-c2[o+]c3cc(O)cc(O)c3cc2O)cc1.[Cl-]
REMARK SMILES IDX 6 1 7 2 8 3 9 4 10 5 12 6 13 7 15 8 16 9 17 10 5 11 4 12
REMARK SMILES IDX 3 13 2 14 19 15 20 16 1 17 18 19 11 21 14 23
REMARK H PARENT 1 18 18 20 11 22 14 24
REMARK Flexibility Score: inf
ROOT
ATOM      1  C   UNL     1      15.646 -54.323  -4.020  1.00  0.00     0.401 A 
ATOM      2  O   UNL     1      16.501 -53.669  -3.234  1.00  0.00    -0.202 OA
ATOM      3  C   UNL     1      16.121 -52.754  -2.348  1.00  0.00     0.368 A 
ATOM      4  C   UNL     1      17.082 -52.108  -1.565  1.00  0.00     0.162 A 
ATOM      5  C   UNL     1      16.695 -51.140  -0.629  1.00  0.00     0.128 A 
ATOM      6  C   UNL     1      15.342 -50.818  -0.479  1.00  0.00     0.093 A 
ATOM      7  C   UNL     1      14.366 -51.458  -1.257  1.00  0.00     0.136 A 
ATOM      8  C   UNL     1      14.755 -52.431  -2.196  1.00  0.00     0.125 A 
ATOM      9  C   UNL     1      13.825 -53.107  -2.994  1.00  0.00     0.078 A 
ATOM     10  C   UNL     1      14.263 -54.070  -3.907  1.00  0.00     0.223 A 
ENDROOT
BRANCH   1  11
ATOM     11  C   UNL     1      16.191 -55.314  -4.975  1.00  0.00     0.084 A 
ATOM     12  C   UNL     1      17.223 -54.936  -5.850  1.00  0.00     0.022 A 
ATOM     13  C   UNL     1      17.738 -55.849  -6.775  1.00  0.00     0.047 A 
ATOM     14  C   UNL     1      17.217 -57.147  -6.847  1.00  0.00     0.115 A 
ATOM     15  C   UNL     1      15.660 -56.613  -5.066  1.00  0.00     0.022 A 
ATOM     16  C   UNL     1      16.177 -57.525  -5.994  1.00  0.00     0.047 A 
BRANCH  14  17
ATOM     17  O   UNL     1      17.723 -58.065  -7.764  1.00  0.00    -0.508 OA
ATOM     18  H   UNL     1      18.333 -58.820  -7.475  1.00  0.00     0.293 HD
ENDBRANCH  14  17
ENDBRANCH   1  11
BRANCH  10  19
ATOM     19  O   UNL     1      13.339 -54.784  -4.669  1.00  0.00    -0.500 OA
ATOM     20  H   UNL     1      13.369 -54.782  -5.682  1.00  0.00     0.294 HD
ENDBRANCH  10  19
BRANCH   5  21
ATOM     21  O   UNL     1      17.646 -50.491   0.155  1.00  0.00    -0.507 OA
ATOM     22  H   UNL     1      18.412 -49.975  -0.261  1.00  0.00     0.293 HD
ENDBRANCH   5  21
BRANCH   7  23
ATOM     23  O   UNL     1      13.020 -51.129  -1.096  1.00  0.00    -0.507 OA
ATOM     24  H   UNL     1      12.544 -51.255  -0.209  1.00  0.00     0.293 HD
ENDBRANCH   7  23
TORSDOF 5
ENDMDL
MODEL 7
REMARK VINA RESULT:    -5.440      2.429      3.135
REMARK INTER + INTRA:          -6.462
REMARK INTER:                  -6.256
REMARK INTRA:                  -0.206
REMARK UNBOUND:                -0.069
REMARK SMILES Oc1ccc(-c2[o+]c3cc(O)cc(O)c3cc2O)cc1.[Cl-]
REMARK SMILES IDX 6 1 7 2 8 3 9 4 10 5 12 6 13 7 15 8 16 9 17 10 5 11 4 12
REMARK SMILES IDX 3 13 2 14 19 15 20 16 1 17 18 19 11 21 14 23
REMARK H PARENT 1 18 18 20 11 22 14 24
REMARK Flexibility Score: inf
ROOT
ATOM      1  C   UNL     1      14.235 -50.725   7.655  1.00  0.00     0.401 A 
ATOM      2  O   UNL     1      14.823 -49.950   6.745  1.00  0.00    -0.202 OA
ATOM      3  C   UNL     1      14.697 -48.628   6.724  1.00  0.00     0.368 A 
ATOM      4  C   UNL     1      15.344 -47.885   5.731  1.00  0.00     0.162 A 
ATOM      5  C   UNL     1      15.216 -46.491   5.697  1.00  0.00     0.128 A 
ATOM      6  C   UNL     1      14.439 -45.838   6.659  1.00  0.00     0.093 A 
ATOM      7  C   UNL     1      13.786 -46.569   7.663  1.00  0.00     0.136 A 
ATOM      8  C   UNL     1      13.914 -47.970   7.697  1.00  0.00     0.125 A 
ATOM      9  C   UNL     1      13.291 -48.749   8.679  1.00  0.00     0.078 A 
ATOM     10  C   UNL     1      13.456 -50.137   8.673  1.00  0.00     0.223 A 
ENDROOT
BRANCH   1  11
ATOM     11  C   UNL     1      14.443 -52.188   7.568  1.00  0.00     0.084 A 
ATOM     12  C   UNL     1      13.358 -53.024   7.255  1.00  0.00     0.022 A 
ATOM     13  C   UNL     1      13.527 -54.410   7.189  1.00  0.00     0.047 A 
ATOM     14  C   UNL     1      14.780 -54.979   7.451  1.00  0.00     0.115 A 
ATOM     15  C   UNL     1      15.693 -52.769   7.848  1.00  0.00     0.022 A 
ATOM     16  C   UNL     1      15.860 -54.156   7.782  1.00  0.00     0.047 A 
BRANCH  14  17
ATOM     17  O   UNL     1      14.960 -56.359   7.387  1.00  0.00    -0.508 OA
ATOM     18  H   UNL     1      15.611 -56.837   7.999  1.00  0.00     0.293 HD
ENDBRANCH  14  17
ENDBRANCH   1  11
BRANCH  10  19
ATOM     19  O   UNL     1      12.880 -50.914   9.677  1.00  0.00    -0.500 OA
ATOM     20  H   UNL     1      12.769 -50.565  10.622  1.00  0.00     0.294 HD
ENDBRANCH  10  19
BRANCH   5  21
ATOM     21  O   UNL     1      15.856 -45.744   4.710  1.00  0.00    -0.507 OA
ATOM     22  H   UNL     1      16.846 -45.536   4.763  1.00  0.00     0.293 HD
ENDBRANCH   5  21
BRANCH   7  23
ATOM     23  O   UNL     1      13.014 -45.905   8.618  1.00  0.00    -0.507 OA
ATOM     24  H   UNL     1      13.438 -45.439   9.413  1.00  0.00     0.293 HD
ENDBRANCH   7  23
TORSDOF 5
ENDMDL
MODEL 8
REMARK VINA RESULT:    -5.315     11.138     12.030
REMARK INTER + INTRA:          -6.316
REMARK INTER:                  -5.994
REMARK INTRA:                  -0.321
REMARK UNBOUND:                -0.069
REMARK SMILES Oc1ccc(-c2[o+]c3cc(O)cc(O)c3cc2O)cc1.[Cl-]
REMARK SMILES IDX 6 1 7 2 8 3 9 4 10 5 12 6 13 7 15 8 16 9 17 10 5 11 4 12
REMARK SMILES IDX 3 13 2 14 19 15 20 16 1 17 18 19 11 21 14 23
REMARK H PARENT 1 18 18 20 11 22 14 24
REMARK Flexibility Score: inf
ROOT
ATOM      1  C   UNL     1      15.692 -55.164  -4.014  1.00  0.00     0.401 A 
ATOM      2  O   UNL     1      14.786 -54.980  -3.055  1.00  0.00    -0.202 OA
ATOM      3  C   UNL     1      14.933 -54.095  -2.075  1.00  0.00     0.368 A 
ATOM      4  C   UNL     1      13.937 -53.967  -1.102  1.00  0.00     0.162 A 
ATOM      5  C   UNL     1      14.082 -53.040  -0.061  1.00  0.00     0.128 A 
ATOM      6  C   UNL     1      15.228 -52.240   0.004  1.00  0.00     0.093 A 
ATOM      7  C   UNL     1      16.235 -52.356  -0.965  1.00  0.00     0.136 A 
ATOM      8  C   UNL     1      16.089 -53.287  -2.009  1.00  0.00     0.125 A 
ATOM      9  C   UNL     1      17.058 -53.441  -3.008  1.00  0.00     0.078 A 
ATOM     10  C   UNL     1      16.862 -54.376  -4.029  1.00  0.00     0.223 A 
ENDROOT
BRANCH   1  11
ATOM     11  C   UNL     1      15.419 -56.187  -5.048  1.00  0.00     0.084 A 
ATOM     12  C   UNL     1      14.624 -55.854  -6.157  1.00  0.00     0.022 A 
ATOM     13  C   UNL     1      14.335 -56.811  -7.135  1.00  0.00     0.047 A 
ATOM     14  C   UNL     1      14.825 -58.117  -7.008  1.00  0.00     0.115 A 
ATOM     15  C   UNL     1      15.891 -57.506  -4.918  1.00  0.00     0.022 A 
ATOM     16  C   UNL     1      15.600 -58.462  -5.897  1.00  0.00     0.047 A 
BRANCH  14  17
ATOM     17  O   UNL     1      14.544 -59.078  -7.976  1.00  0.00    -0.508 OA
ATOM     18  H   UNL     1      14.385 -60.048  -7.730  1.00  0.00     0.293 HD
ENDBRANCH  14  17
ENDBRANCH   1  11
BRANCH  10  19
ATOM     19  O   UNL     1      17.798 -54.499  -5.055  1.00  0.00    -0.500 OA
ATOM     20  H   UNL     1      17.626 -54.120  -5.979  1.00  0.00     0.294 HD
ENDBRANCH  10  19
BRANCH   5  21
ATOM     21  O   UNL     1      13.095 -52.907   0.913  1.00  0.00    -0.507 OA
ATOM     22  H   UNL     1      12.128 -52.738   0.665  1.00  0.00     0.293 HD
ENDBRANCH   5  21
BRANCH   7  23
ATOM     23  O   UNL     1      17.372 -51.551  -0.888  1.00  0.00    -0.507 OA
ATOM     24  H   UNL     1      17.306 -50.550  -0.741  1.00  0.00     0.293 HD
ENDBRANCH   7  23
TORSDOF 5
ENDMDL
MODEL 9
REMARK VINA RESULT:    -5.130      2.000      6.505
REMARK INTER + INTRA:          -6.098
REMARK INTER:                  -5.851
REMARK INTRA:                  -0.247
REMARK UNBOUND:                -0.069
REMARK SMILES Oc1ccc(-c2[o+]c3cc(O)cc(O)c3cc2O)cc1.[Cl-]
REMARK SMILES IDX 6 1 7 2 8 3 9 4 10 5 12 6 13 7 15 8 16 9 17 10 5 11 4 12
REMARK SMILES IDX 3 13 2 14 19 15 20 16 1 17 18 19 11 21 14 23
REMARK H PARENT 1 18 18 20 11 22 14 24
REMARK Flexibility Score: inf
ROOT
ATOM      1  C   UNL     1      15.622 -49.546   7.091  1.00  0.00     0.401 A 
ATOM      2  O   UNL     1      14.648 -50.453   7.053  1.00  0.00    -0.202 OA
ATOM      3  C   UNL     1      14.833 -51.733   7.357  1.00  0.00     0.368 A 
ATOM      4  C   UNL     1      13.758 -52.625   7.287  1.00  0.00     0.162 A 
ATOM      5  C   UNL     1      13.940 -53.977   7.601  1.00  0.00     0.128 A 
ATOM      6  C   UNL     1      15.204 -54.438   7.987  1.00  0.00     0.093 A 
ATOM      7  C   UNL     1      16.292 -53.556   8.064  1.00  0.00     0.136 A 
ATOM      8  C   UNL     1      16.107 -52.198   7.747  1.00  0.00     0.125 A 
ATOM      9  C   UNL     1      17.154 -51.271   7.814  1.00  0.00     0.078 A 
ATOM     10  C   UNL     1      16.917 -49.931   7.496  1.00  0.00     0.223 A 
ENDROOT
BRANCH   1  11
ATOM     11  C   UNL     1      15.294 -48.150   6.721  1.00  0.00     0.084 A 
ATOM     12  C   UNL     1      15.763 -47.629   5.504  1.00  0.00     0.022 A 
ATOM     13  C   UNL     1      15.483 -46.307   5.145  1.00  0.00     0.047 A 
ATOM     14  C   UNL     1      14.745 -45.485   6.006  1.00  0.00     0.115 A 
ATOM     15  C   UNL     1      14.570 -47.313   7.589  1.00  0.00     0.022 A 
ATOM     16  C   UNL     1      14.293 -45.990   7.227  1.00  0.00     0.047 A 
BRANCH  14  17
ATOM     17  O   UNL     1      14.459 -44.167   5.657  1.00  0.00    -0.508 OA
ATOM     18  H   UNL     1      14.959 -43.696   4.913  1.00  0.00     0.293 HD
ENDBRANCH  14  17
ENDBRANCH   1  11
BRANCH  10  19
ATOM     19  O   UNL     1      17.943 -48.993   7.608  1.00  0.00    -0.500 OA
ATOM     20  H   UNL     1      18.152 -48.537   8.489  1.00  0.00     0.294 HD
ENDBRANCH  10  19
BRANCH   5  21
ATOM     21  O   UNL     1      12.875 -54.872   7.533  1.00  0.00    -0.507 OA
ATOM     22  H   UNL     1      12.355 -55.010   6.675  1.00  0.00     0.293 HD
ENDBRANCH   5  21
BRANCH   7  23
ATOM     23  O   UNL     1      17.546 -54.029   8.451  1.00  0.00    -0.507 OA
ATOM     24  H   UNL     1      17.646 -54.807   9.094  1.00  0.00     0.293 HD
ENDBRANCH   7  23
TORSDOF 5
ENDMDL
