MODEL 1
REMARK VINA RESULT:    -8.017      0.000      0.000
REMARK INTER + INTRA:         -12.299
REMARK INTER:                 -11.063
REMARK INTRA:                  -1.236
REMARK UNBOUND:                -1.236
REMARK SMILES CC[C@@H](CC[C@H](C)[C@H]1CC[C@H]2[C@@H]3CC=C4C[C@H](O)CC[C@]4(C)[C@H]3CC[C@@]12C)C(C)C
REMARK SMILES IDX 5 1 4 2 3 3 2 4 1 5 28 6 29 7 30 8 6 9 7 10 8 11 9 12 26 13
REMARK SMILES IDX 10 14 11 15 25 16 27 17 12 18 24 19 23 20 13 21 21 22 14 23
REMARK SMILES IDX 15 24 20 25 22 26 16 27 19 28 17 29 18 30
REMARK H PARENT 18 31
REMARK Flexibility Score: inf
ROOT
ATOM      1  C   UNL     1      -3.817  20.826  48.886  1.00  0.00     0.004 C 
ENDROOT
BRANCH   1   2
ATOM      2  C   UNL     1      -4.257  19.799  47.819  1.00  0.00     0.004 C 
BRANCH   2   3
ATOM      3  C   UNL     1      -3.116  19.281  46.898  1.00  0.00    -0.009 C 
BRANCH   3   4
ATOM      4  C   UNL     1      -3.089  17.737  46.732  1.00  0.00     0.000 C 
ATOM      5  C   UNL     1      -3.236  17.281  45.279  1.00  0.00     0.004 C 
ENDBRANCH   3   4
BRANCH   3   6
ATOM      6  C   UNL     1      -1.718  19.896  47.264  1.00  0.00    -0.014 C 
ATOM      7  C   UNL     1      -0.570  18.869  47.342  1.00  0.00     0.007 C 
ATOM      8  C   UNL     1      -1.331  21.012  46.281  1.00  0.00     0.007 C 
ENDBRANCH   3   6
ENDBRANCH   2   3
ENDBRANCH   1   2
BRANCH   1   9
ATOM      9  C   UNL     1      -4.558  22.198  48.838  1.00  0.00    -0.011 C 
ATOM     10  C   UNL     1      -4.977  22.523  47.388  1.00  0.00     0.008 C 
BRANCH   9  11
ATOM     11  C   UNL     1      -3.742  23.357  49.514  1.00  0.00    -0.002 C 
ATOM     12  C   UNL     1      -2.761  24.073  48.585  1.00  0.00     0.005 C 
ATOM     13  C   UNL     1      -4.525  24.520  50.256  1.00  0.00    -0.026 C 
ATOM     14  C   UNL     1      -2.433  25.365  49.303  1.00  0.00     0.005 C 
ATOM     15  C   UNL     1      -3.780  25.851  49.845  1.00  0.00    -0.001 C 
ATOM     16  C   UNL     1      -6.067  24.599  50.009  1.00  0.00     0.007 C 
ATOM     17  C   UNL     1      -4.339  24.308  51.785  1.00  0.00     0.012 C 
ATOM     18  C   UNL     1      -4.453  26.778  48.757  1.00  0.00     0.000 C 
ATOM     19  C   UNL     1      -6.457  25.304  48.720  1.00  0.00     0.005 C 
ATOM     20  C   UNL     1      -5.994  26.770  48.777  1.00  0.00     0.003 C 
ATOM     21  C   UNL     1      -3.922  28.221  48.897  1.00  0.00     0.031 C 
ATOM     22  C   UNL     1      -6.602  27.676  47.632  1.00  0.00    -0.008 C 
ATOM     23  C   UNL     1      -4.704  29.256  48.139  1.00  0.00    -0.027 C 
ATOM     24  C   UNL     1      -5.958  29.066  47.679  1.00  0.00    -0.065 C 
ATOM     25  C   UNL     1      -8.133  27.858  47.868  1.00  0.00     0.014 C 
ATOM     26  C   UNL     1      -6.363  27.053  46.228  1.00  0.00     0.016 C 
ATOM     27  C   UNL     1      -6.763  30.303  47.328  1.00  0.00     0.063 C 
ATOM     28  C   UNL     1      -8.829  28.847  46.908  1.00  0.00     0.033 C 
ATOM     29  C   UNL     1      -7.941  30.006  46.400  1.00  0.00     0.118 C 
BRANCH  29  30
ATOM     30  O   UNL     1      -8.712  31.171  46.257  1.00  0.00    -0.393 OA
ATOM     31  H   UNL     1      -9.661  30.882  46.189  1.00  0.00     0.210 HD
ENDBRANCH  29  30
ENDBRANCH   9  11
ENDBRANCH   1   9
TORSDOF 7
ENDMDL
MODEL 2
REMARK VINA RESULT:    -7.791      1.307      2.773
REMARK INTER + INTRA:         -11.987
REMARK INTER:                 -10.240
REMARK INTRA:                  -1.747
REMARK UNBOUND:                -1.236
REMARK SMILES CC[C@@H](CC[C@H](C)[C@H]1CC[C@H]2[C@@H]3CC=C4C[C@H](O)CC[C@]4(C)[C@H]3CC[C@@]12C)C(C)C
REMARK SMILES IDX 5 1 4 2 3 3 2 4 1 5 28 6 29 7 30 8 6 9 7 10 8 11 9 12 26 13
REMARK SMILES IDX 10 14 11 15 25 16 27 17 12 18 24 19 23 20 13 21 21 22 14 23
REMARK SMILES IDX 15 24 20 25 22 26 16 27 19 28 17 29 18 30
REMARK H PARENT 18 31
REMARK Flexibility Score: inf
ROOT
ATOM      1  C   UNL     1      -1.329  21.602  47.734  1.00  0.00     0.004 C 
ENDROOT
BRANCH   1   2
ATOM      2  C   UNL     1      -1.939  20.924  46.486  1.00  0.00     0.004 C 
BRANCH   2   3
ATOM      3  C   UNL     1      -2.609  19.546  46.750  1.00  0.00    -0.009 C 
BRANCH   3   4
ATOM      4  C   UNL     1      -2.642  19.134  48.248  1.00  0.00     0.000 C 
ATOM      5  C   UNL     1      -4.031  18.711  48.729  1.00  0.00     0.004 C 
ENDBRANCH   3   4
BRANCH   3   6
ATOM      6  C   UNL     1      -2.064  18.419  45.803  1.00  0.00    -0.014 C 
ATOM      7  C   UNL     1      -0.854  17.644  46.363  1.00  0.00     0.007 C 
ATOM      8  C   UNL     1      -3.175  17.423  45.434  1.00  0.00     0.007 C 
ENDBRANCH   3   6
ENDBRANCH   2   3
ENDBRANCH   1   2
BRANCH   1   9
ATOM      9  C   UNL     1      -1.957  22.977  48.120  1.00  0.00    -0.011 C 
ATOM     10  C   UNL     1      -0.948  23.807  48.943  1.00  0.00     0.008 C 
BRANCH   9  11
ATOM     11  C   UNL     1      -3.353  22.835  48.825  1.00  0.00    -0.002 C 
ATOM     12  C   UNL     1      -3.485  23.607  50.139  1.00  0.00     0.005 C 
ATOM     13  C   UNL     1      -4.668  23.184  48.010  1.00  0.00    -0.026 C 
ATOM     14  C   UNL     1      -4.977  23.672  50.391  1.00  0.00     0.005 C 
ATOM     15  C   UNL     1      -5.581  23.986  49.019  1.00  0.00    -0.001 C 
ATOM     16  C   UNL     1      -4.475  23.937  46.653  1.00  0.00     0.007 C 
ATOM     17  C   UNL     1      -5.377  21.844  47.669  1.00  0.00     0.012 C 
ATOM     18  C   UNL     1      -5.671  25.556  48.860  1.00  0.00     0.000 C 
ATOM     19  C   UNL     1      -4.290  25.439  46.794  1.00  0.00     0.005 C 
ATOM     20  C   UNL     1      -5.559  26.057  47.406  1.00  0.00     0.003 C 
ATOM     21  C   UNL     1      -6.974  26.074  49.507  1.00  0.00     0.031 C 
ATOM     22  C   UNL     1      -5.605  27.636  47.323  1.00  0.00    -0.008 C 
ATOM     23  C   UNL     1      -7.331  27.490  49.155  1.00  0.00    -0.027 C 
ATOM     24  C   UNL     1      -6.819  28.157  48.100  1.00  0.00    -0.065 C 
ATOM     25  C   UNL     1      -5.772  28.075  45.836  1.00  0.00     0.014 C 
ATOM     26  C   UNL     1      -4.315  28.273  47.912  1.00  0.00     0.016 C 
ATOM     27  C   UNL     1      -7.572  29.385  47.622  1.00  0.00     0.063 C 
ATOM     28  C   UNL     1      -5.983  29.590  45.623  1.00  0.00     0.033 C 
ATOM     29  C   UNL     1      -6.712  30.321  46.773  1.00  0.00     0.118 C 
BRANCH  29  30
ATOM     30  O   UNL     1      -7.527  31.339  46.252  1.00  0.00    -0.393 OA
ATOM     31  H   UNL     1      -7.021  31.760  45.507  1.00  0.00     0.210 HD
ENDBRANCH  29  30
ENDBRANCH   9  11
ENDBRANCH   1   9
TORSDOF 7
ENDMDL
MODEL 3
REMARK VINA RESULT:    -7.657      3.326      8.896
REMARK INTER + INTRA:         -11.802
REMARK INTER:                  -9.721
REMARK INTRA:                  -2.081
REMARK UNBOUND:                -1.236
REMARK SMILES CC[C@@H](CC[C@H](C)[C@H]1CC[C@H]2[C@@H]3CC=C4C[C@H](O)CC[C@]4(C)[C@H]3CC[C@@]12C)C(C)C
REMARK SMILES IDX 5 1 4 2 3 3 2 4 1 5 28 6 29 7 30 8 6 9 7 10 8 11 9 12 26 13
REMARK SMILES IDX 10 14 11 15 25 16 27 17 12 18 24 19 23 20 13 21 21 22 14 23
REMARK SMILES IDX 15 24 20 25 22 26 16 27 19 28 17 29 18 30
REMARK H PARENT 18 31
REMARK Flexibility Score: inf
ROOT
ATOM      1  C   UNL     1      -3.764  27.906  48.949  1.00  0.00     0.004 C 
ENDROOT
BRANCH   1   2
ATOM      2  C   UNL     1      -5.125  28.059  49.663  1.00  0.00     0.004 C 
BRANCH   2   3
ATOM      3  C   UNL     1      -6.200  28.848  48.865  1.00  0.00    -0.009 C 
BRANCH   3   4
ATOM      4  C   UNL     1      -7.250  27.949  48.157  1.00  0.00     0.000 C 
ATOM      5  C   UNL     1      -7.944  26.968  49.104  1.00  0.00     0.004 C 
ENDBRANCH   3   4
BRANCH   3   6
ATOM      6  C   UNL     1      -5.574  29.938  47.924  1.00  0.00    -0.014 C 
ATOM      7  C   UNL     1      -5.828  29.706  46.420  1.00  0.00     0.007 C 
ATOM      8  C   UNL     1      -6.060  31.345  48.307  1.00  0.00     0.007 C 
ENDBRANCH   3   6
ENDBRANCH   2   3
ENDBRANCH   1   2
BRANCH   1   9
ATOM      9  C   UNL     1      -3.482  26.496  48.345  1.00  0.00    -0.011 C 
ATOM     10  C   UNL     1      -3.510  26.565  46.802  1.00  0.00     0.008 C 
BRANCH   9  11
ATOM     11  C   UNL     1      -4.426  25.382  48.924  1.00  0.00    -0.002 C 
ATOM     12  C   UNL     1      -5.331  24.712  47.890  1.00  0.00     0.005 C 
ATOM     13  C   UNL     1      -3.792  24.186  49.750  1.00  0.00    -0.026 C 
ATOM     14  C   UNL     1      -5.803  23.442  48.567  1.00  0.00     0.005 C 
ATOM     15  C   UNL     1      -4.552  22.893  49.257  1.00  0.00    -0.001 C 
ATOM     16  C   UNL     1      -2.238  24.028  49.678  1.00  0.00     0.007 C 
ATOM     17  C   UNL     1      -4.138  24.417  51.248  1.00  0.00     0.012 C 
ATOM     18  C   UNL     1      -3.809  21.926  48.252  1.00  0.00     0.000 C 
ATOM     19  C   UNL     1      -1.741  23.297  48.441  1.00  0.00     0.005 C 
ATOM     20  C   UNL     1      -2.281  21.857  48.446  1.00  0.00     0.003 C 
ATOM     21  C   UNL     1      -4.424  20.513  48.332  1.00  0.00     0.031 C 
ATOM     22  C   UNL     1      -1.594  20.915  47.377  1.00  0.00    -0.008 C 
ATOM     23  C   UNL     1      -3.615  19.436  47.667  1.00  0.00    -0.027 C 
ATOM     24  C   UNL     1      -2.309  19.559  47.351  1.00  0.00    -0.065 C 
ATOM     25  C   UNL     1      -0.111  20.657  47.785  1.00  0.00     0.014 C 
ATOM     26  C   UNL     1      -1.642  21.541  45.955  1.00  0.00     0.016 C 
ATOM     27  C   UNL     1      -1.533  18.281  47.094  1.00  0.00     0.063 C 
ATOM     28  C   UNL     1       0.638  19.630  46.909  1.00  0.00     0.033 C 
ATOM     29  C   UNL     1      -0.245  18.514  46.304  1.00  0.00     0.118 C 
BRANCH  29  30
ATOM     30  O   UNL     1       0.478  17.311  46.250  1.00  0.00    -0.393 OA
ATOM     31  H   UNL     1       1.016  17.335  45.414  1.00  0.00     0.210 HD
ENDBRANCH  29  30
ENDBRANCH   9  11
ENDBRANCH   1   9
TORSDOF 7
ENDMDL
MODEL 4
REMARK VINA RESULT:    -7.496      1.572      2.978
REMARK INTER + INTRA:         -11.580
REMARK INTER:                  -9.974
REMARK INTRA:                  -1.606
REMARK UNBOUND:                -1.236
REMARK SMILES CC[C@@H](CC[C@H](C)[C@H]1CC[C@H]2[C@@H]3CC=C4C[C@H](O)CC[C@]4(C)[C@H]3CC[C@@]12C)C(C)C
REMARK SMILES IDX 5 1 4 2 3 3 2 4 1 5 28 6 29 7 30 8 6 9 7 10 8 11 9 12 26 13
REMARK SMILES IDX 10 14 11 15 25 16 27 17 12 18 24 19 23 20 13 21 21 22 14 23
REMARK SMILES IDX 15 24 20 25 22 26 16 27 19 28 17 29 18 30
REMARK H PARENT 18 31
REMARK Flexibility Score: inf
ROOT
ATOM      1  C   UNL     1      -2.028  21.942  49.253  1.00  0.00     0.004 C 
ENDROOT
BRANCH   1   2
ATOM      2  C   UNL     1      -2.057  21.357  47.824  1.00  0.00     0.004 C 
BRANCH   2   3
ATOM      3  C   UNL     1      -2.240  19.815  47.750  1.00  0.00    -0.009 C 
BRANCH   3   4
ATOM      4  C   UNL     1      -2.482  19.274  46.314  1.00  0.00     0.000 C 
ATOM      5  C   UNL     1      -1.715  17.984  46.016  1.00  0.00     0.004 C 
ENDBRANCH   3   4
BRANCH   3   6
ATOM      6  C   UNL     1      -3.274  19.279  48.804  1.00  0.00    -0.014 C 
ATOM      7  C   UNL     1      -4.643  18.887  48.211  1.00  0.00     0.007 C 
ATOM      8  C   UNL     1      -2.700  18.085  49.583  1.00  0.00     0.007 C 
ENDBRANCH   3   6
ENDBRANCH   2   3
ENDBRANCH   1   2
BRANCH   1   9
ATOM      9  C   UNL     1      -2.585  23.392  49.392  1.00  0.00    -0.011 C 
ATOM     10  C   UNL     1      -1.849  24.136  50.528  1.00  0.00     0.008 C 
BRANCH   9  11
ATOM     11  C   UNL     1      -4.148  23.434  49.545  1.00  0.00    -0.002 C 
ATOM     12  C   UNL     1      -4.655  24.350  50.660  1.00  0.00     0.005 C 
ATOM     13  C   UNL     1      -5.037  23.795  48.282  1.00  0.00    -0.026 C 
ATOM     14  C   UNL     1      -6.122  24.556  50.343  1.00  0.00     0.005 C 
ATOM     15  C   UNL     1      -6.156  24.768  48.827  1.00  0.00    -0.001 C 
ATOM     16  C   UNL     1      -4.289  24.383  47.041  1.00  0.00     0.007 C 
ATOM     17  C   UNL     1      -5.720  22.485  47.801  1.00  0.00     0.012 C 
ATOM     18  C   UNL     1      -6.009  26.314  48.534  1.00  0.00     0.000 C 
ATOM     19  C   UNL     1      -4.002  25.872  47.132  1.00  0.00     0.005 C 
ATOM     20  C   UNL     1      -5.330  26.647  47.191  1.00  0.00     0.003 C 
ATOM     21  C   UNL     1      -7.391  26.997  48.621  1.00  0.00     0.031 C 
ATOM     22  C   UNL     1      -5.168  28.207  46.985  1.00  0.00    -0.008 C 
ATOM     23  C   UNL     1      -7.440  28.390  48.062  1.00  0.00    -0.027 C 
ATOM     24  C   UNL     1      -6.514  28.900  47.223  1.00  0.00    -0.065 C 
ATOM     25  C   UNL     1      -4.743  28.497  45.513  1.00  0.00     0.014 C 
ATOM     26  C   UNL     1      -4.112  28.802  47.959  1.00  0.00     0.016 C 
ATOM     27  C   UNL     1      -6.906  30.124  46.417  1.00  0.00     0.063 C 
ATOM     28  C   UNL     1      -4.695  29.992  45.130  1.00  0.00     0.033 C 
ATOM     29  C   UNL     1      -5.701  30.896  45.878  1.00  0.00     0.118 C 
BRANCH  29  30
ATOM     30  O   UNL     1      -6.158  31.912  45.023  1.00  0.00    -0.393 OA
ATOM     31  H   UNL     1      -5.452  32.611  45.003  1.00  0.00     0.210 HD
ENDBRANCH  29  30
ENDBRANCH   9  11
ENDBRANCH   1   9
TORSDOF 7
ENDMDL
MODEL 5
REMARK VINA RESULT:    -7.438      3.230      8.619
REMARK INTER + INTRA:         -11.500
REMARK INTER:                  -9.418
REMARK INTRA:                  -2.082
REMARK UNBOUND:                -1.236
REMARK SMILES CC[C@@H](CC[C@H](C)[C@H]1CC[C@H]2[C@@H]3CC=C4C[C@H](O)CC[C@]4(C)[C@H]3CC[C@@]12C)C(C)C
REMARK SMILES IDX 5 1 4 2 3 3 2 4 1 5 28 6 29 7 30 8 6 9 7 10 8 11 9 12 26 13
REMARK SMILES IDX 10 14 11 15 25 16 27 17 12 18 24 19 23 20 13 21 21 22 14 23
REMARK SMILES IDX 15 24 20 25 22 26 16 27 19 28 17 29 18 30
REMARK H PARENT 18 31
REMARK Flexibility Score: inf
ROOT
ATOM      1  C   UNL     1      -6.164  27.555  49.814  1.00  0.00     0.004 C 
ENDROOT
BRANCH   1   2
ATOM      2  C   UNL     1      -5.858  28.740  48.872  1.00  0.00     0.004 C 
BRANCH   2   3
ATOM      3  C   UNL     1      -6.968  29.053  47.829  1.00  0.00    -0.009 C 
BRANCH   3   4
ATOM      4  C   UNL     1      -8.101  27.992  47.772  1.00  0.00     0.000 C 
ATOM      5  C   UNL     1      -9.333  28.462  46.997  1.00  0.00     0.004 C 
ENDBRANCH   3   4
BRANCH   3   6
ATOM      6  C   UNL     1      -6.384  29.421  46.418  1.00  0.00    -0.014 C 
ATOM      7  C   UNL     1      -6.753  30.835  45.924  1.00  0.00     0.007 C 
ATOM      8  C   UNL     1      -4.855  29.261  46.394  1.00  0.00     0.007 C 
ENDBRANCH   3   6
ENDBRANCH   2   3
ENDBRANCH   1   2
BRANCH   1   9
ATOM      9  C   UNL     1      -5.324  26.266  49.559  1.00  0.00    -0.011 C 
ATOM     10  C   UNL     1      -4.357  26.023  50.738  1.00  0.00     0.008 C 
BRANCH   9  11
ATOM     11  C   UNL     1      -4.600  26.274  48.165  1.00  0.00    -0.002 C 
ATOM     12  C   UNL     1      -3.073  26.330  48.240  1.00  0.00     0.005 C 
ATOM     13  C   UNL     1      -4.917  25.120  47.125  1.00  0.00    -0.026 C 
ATOM     14  C   UNL     1      -2.611  25.904  46.862  1.00  0.00     0.005 C 
ATOM     15  C   UNL     1      -3.519  24.724  46.505  1.00  0.00    -0.001 C 
ATOM     16  C   UNL     1      -5.701  23.880  47.667  1.00  0.00     0.007 C 
ATOM     17  C   UNL     1      -5.795  25.734  45.999  1.00  0.00     0.012 C 
ATOM     18  C   UNL     1      -2.830  23.393  47.006  1.00  0.00     0.000 C 
ATOM     19  C   UNL     1      -4.834  22.855  48.379  1.00  0.00     0.005 C 
ATOM     20  C   UNL     1      -3.815  22.269  47.387  1.00  0.00     0.003 C 
ATOM     21  C   UNL     1      -1.828  22.890  45.944  1.00  0.00     0.031 C 
ATOM     22  C   UNL     1      -3.063  20.986  47.927  1.00  0.00    -0.008 C 
ATOM     23  C   UNL     1      -1.342  21.484  46.153  1.00  0.00    -0.027 C 
ATOM     24  C   UNL     1      -1.963  20.581  46.940  1.00  0.00    -0.065 C 
ATOM     25  C   UNL     1      -4.067  19.798  48.028  1.00  0.00     0.014 C 
ATOM     26  C   UNL     1      -2.423  21.248  49.320  1.00  0.00     0.016 C 
ATOM     27  C   UNL     1      -1.623  19.119  46.720  1.00  0.00     0.063 C 
ATOM     28  C   UNL     1      -3.435  18.439  48.400  1.00  0.00     0.033 C 
ATOM     29  C   UNL     1      -1.980  18.236  47.917  1.00  0.00     0.118 C 
BRANCH  29  30
ATOM     30  O   UNL     1      -1.777  16.892  47.566  1.00  0.00    -0.393 OA
ATOM     31  H   UNL     1      -1.338  16.453  48.343  1.00  0.00     0.210 HD
ENDBRANCH  29  30
ENDBRANCH   9  11
ENDBRANCH   1   9
TORSDOF 7
ENDMDL
MODEL 6
REMARK VINA RESULT:    -7.404      3.398      7.615
REMARK INTER + INTRA:         -11.453
REMARK INTER:                 -10.076
REMARK INTRA:                  -1.377
REMARK UNBOUND:                -1.236
REMARK SMILES CC[C@@H](CC[C@H](C)[C@H]1CC[C@H]2[C@@H]3CC=C4C[C@H](O)CC[C@]4(C)[C@H]3CC[C@@]12C)C(C)C
REMARK SMILES IDX 5 1 4 2 3 3 2 4 1 5 28 6 29 7 30 8 6 9 7 10 8 11 9 12 26 13
REMARK SMILES IDX 10 14 11 15 25 16 27 17 12 18 24 19 23 20 13 21 21 22 14 23
REMARK SMILES IDX 15 24 20 25 22 26 16 27 19 28 17 29 18 30
REMARK H PARENT 18 31
REMARK Flexibility Score: inf
ROOT
ATOM      1  C   UNL     1      -4.560  25.200  51.082  1.00  0.00     0.004 C 
ENDROOT
BRANCH   1   2
ATOM      2  C   UNL     1      -4.065  25.380  52.534  1.00  0.00     0.004 C 
BRANCH   2   3
ATOM      3  C   UNL     1      -2.528  25.237  52.725  1.00  0.00    -0.009 C 
BRANCH   3   4
ATOM      4  C   UNL     1      -1.719  26.499  52.317  1.00  0.00     0.000 C 
ATOM      5  C   UNL     1      -2.326  27.803  52.839  1.00  0.00     0.004 C 
ENDBRANCH   3   4
BRANCH   3   6
ATOM      6  C   UNL     1      -1.965  23.907  52.110  1.00  0.00    -0.014 C 
ATOM      7  C   UNL     1      -1.004  24.110  50.921  1.00  0.00     0.007 C 
ATOM      8  C   UNL     1      -1.268  23.054  53.182  1.00  0.00     0.007 C 
ENDBRANCH   3   6
ENDBRANCH   2   3
ENDBRANCH   1   2
BRANCH   1   9
ATOM      9  C   UNL     1      -4.970  26.514  50.349  1.00  0.00    -0.011 C 
ATOM     10  C   UNL     1      -6.503  26.689  50.390  1.00  0.00     0.008 C 
BRANCH   9  11
ATOM     11  C   UNL     1      -4.382  26.611  48.895  1.00  0.00    -0.002 C 
ATOM     12  C   UNL     1      -2.860  26.481  48.812  1.00  0.00     0.005 C 
ATOM     13  C   UNL     1      -4.938  25.640  47.772  1.00  0.00    -0.026 C 
ATOM     14  C   UNL     1      -2.585  26.178  47.354  1.00  0.00     0.005 C 
ATOM     15  C   UNL     1      -3.665  25.164  46.966  1.00  0.00    -0.001 C 
ATOM     16  C   UNL     1      -5.821  24.442  48.253  1.00  0.00     0.007 C 
ATOM     17  C   UNL     1      -5.831  26.486  46.821  1.00  0.00     0.012 C 
ATOM     18  C   UNL     1      -3.108  23.711  47.239  1.00  0.00     0.000 C 
ATOM     19  C   UNL     1      -5.030  23.243  48.749  1.00  0.00     0.005 C 
ATOM     20  C   UNL     1      -4.189  22.670  47.594  1.00  0.00     0.003 C 
ATOM     21  C   UNL     1      -2.281  23.232  46.026  1.00  0.00     0.031 C 
ATOM     22  C   UNL     1      -3.560  21.252  47.905  1.00  0.00    -0.008 C 
ATOM     23  C   UNL     1      -1.962  21.764  46.024  1.00  0.00    -0.027 C 
ATOM     24  C   UNL     1      -2.617  20.848  46.767  1.00  0.00    -0.065 C 
ATOM     25  C   UNL     1      -4.694  20.185  47.979  1.00  0.00     0.014 C 
ATOM     26  C   UNL     1      -2.767  21.263  49.242  1.00  0.00     0.016 C 
ATOM     27  C   UNL     1      -2.488  19.395  46.350  1.00  0.00     0.063 C 
ATOM     28  C   UNL     1      -4.209  18.726  48.127  1.00  0.00     0.033 C 
ATOM     29  C   UNL     1      -2.843  18.418  47.471  1.00  0.00     0.118 C 
BRANCH  29  30
ATOM     30  O   UNL     1      -2.846  17.113  46.953  1.00  0.00    -0.393 OA
ATOM     31  H   UNL     1      -2.128  16.613  47.424  1.00  0.00     0.210 HD
ENDBRANCH  29  30
ENDBRANCH   9  11
ENDBRANCH   1   9
TORSDOF 7
ENDMDL
MODEL 7
REMARK VINA RESULT:    -7.086      1.475      3.060
REMARK INTER + INTRA:         -11.014
REMARK INTER:                  -8.624
REMARK INTRA:                  -2.390
REMARK UNBOUND:                -1.236
REMARK SMILES CC[C@@H](CC[C@H](C)[C@H]1CC[C@H]2[C@@H]3CC=C4C[C@H](O)CC[C@]4(C)[C@H]3CC[C@@]12C)C(C)C
REMARK SMILES IDX 5 1 4 2 3 3 2 4 1 5 28 6 29 7 30 8 6 9 7 10 8 11 9 12 26 13
REMARK SMILES IDX 10 14 11 15 25 16 27 17 12 18 24 19 23 20 13 21 21 22 14 23
REMARK SMILES IDX 15 24 20 25 22 26 16 27 19 28 17 29 18 30
REMARK H PARENT 18 31
REMARK Flexibility Score: inf
ROOT
ATOM      1  C   UNL     1      -1.395  22.538  49.208  1.00  0.00     0.004 C 
ENDROOT
BRANCH   1   2
ATOM      2  C   UNL     1      -1.078  21.670  47.970  1.00  0.00     0.004 C 
BRANCH   2   3
ATOM      3  C   UNL     1      -1.771  22.125  46.655  1.00  0.00    -0.009 C 
BRANCH   3   4
ATOM      4  C   UNL     1      -2.607  21.014  45.962  1.00  0.00     0.000 C 
ATOM      5  C   UNL     1      -2.878  19.809  46.864  1.00  0.00     0.004 C 
ENDBRANCH   3   4
BRANCH   3   6
ATOM      6  C   UNL     1      -0.789  22.868  45.681  1.00  0.00    -0.014 C 
ATOM      7  C   UNL     1      -1.011  24.392  45.590  1.00  0.00     0.007 C 
ATOM      8  C   UNL     1       0.676  22.593  46.057  1.00  0.00     0.007 C 
ENDBRANCH   3   6
ENDBRANCH   2   3
ENDBRANCH   1   2
BRANCH   1   9
ATOM      9  C   UNL     1      -2.296  23.782  48.938  1.00  0.00    -0.011 C 
ATOM     10  C   UNL     1      -1.681  25.035  49.600  1.00  0.00     0.008 C 
BRANCH   9  11
ATOM     11  C   UNL     1      -3.796  23.550  49.343  1.00  0.00    -0.002 C 
ATOM     12  C   UNL     1      -4.254  24.337  50.571  1.00  0.00     0.005 C 
ATOM     13  C   UNL     1      -4.931  23.783  48.260  1.00  0.00    -0.026 C 
ATOM     14  C   UNL     1      -5.766  24.295  50.505  1.00  0.00     0.005 C 
ATOM     15  C   UNL     1      -6.089  24.535  49.028  1.00  0.00    -0.001 C 
ATOM     16  C   UNL     1      -4.510  24.520  46.947  1.00  0.00     0.007 C 
ATOM     17  C   UNL     1      -5.458  22.386  47.827  1.00  0.00     0.012 C 
ATOM     18  C   UNL     1      -6.252  26.090  48.797  1.00  0.00     0.000 C 
ATOM     19  C   UNL     1      -4.464  26.035  47.068  1.00  0.00     0.005 C 
ATOM     20  C   UNL     1      -5.872  26.567  47.381  1.00  0.00     0.003 C 
ATOM     21  C   UNL     1      -7.694  26.521  49.140  1.00  0.00     0.031 C 
ATOM     22  C   UNL     1      -6.009  28.137  47.234  1.00  0.00    -0.008 C 
ATOM     23  C   UNL     1      -8.067  27.899  48.671  1.00  0.00    -0.027 C 
ATOM     24  C   UNL     1      -7.392  28.580  47.722  1.00  0.00    -0.065 C 
ATOM     25  C   UNL     1      -5.890  28.531  45.730  1.00  0.00     0.014 C 
ATOM     26  C   UNL     1      -4.918  28.881  48.055  1.00  0.00     0.016 C 
ATOM     27  C   UNL     1      -8.112  29.738  47.054  1.00  0.00     0.063 C 
ATOM     28  C   UNL     1      -6.156  30.021  45.423  1.00  0.00     0.033 C 
ATOM     29  C   UNL     1      -7.159  30.719  46.370  1.00  0.00     0.118 C 
BRANCH  29  30
ATOM     30  O   UNL     1      -7.914  31.661  45.654  1.00  0.00    -0.393 OA
ATOM     31  H   UNL     1      -8.624  31.157  45.174  1.00  0.00     0.210 HD
ENDBRANCH  29  30
ENDBRANCH   9  11
ENDBRANCH   1   9
TORSDOF 7
ENDMDL
MODEL 8
REMARK VINA RESULT:    -7.081      1.762      2.525
REMARK INTER + INTRA:         -11.008
REMARK INTER:                  -9.297
REMARK INTRA:                  -1.711
REMARK UNBOUND:                -1.236
REMARK SMILES CC[C@@H](CC[C@H](C)[C@H]1CC[C@H]2[C@@H]3CC=C4C[C@H](O)CC[C@]4(C)[C@H]3CC[C@@]12C)C(C)C
REMARK SMILES IDX 5 1 4 2 3 3 2 4 1 5 28 6 29 7 30 8 6 9 7 10 8 11 9 12 26 13
REMARK SMILES IDX 10 14 11 15 25 16 27 17 12 18 24 19 23 20 13 21 21 22 14 23
REMARK SMILES IDX 15 24 20 25 22 26 16 27 19 28 17 29 18 30
REMARK H PARENT 18 31
REMARK Flexibility Score: inf
ROOT
ATOM      1  C   UNL     1      -5.245  21.732  47.734  1.00  0.00     0.004 C 
ENDROOT
BRANCH   1   2
ATOM      2  C   UNL     1      -4.164  20.947  48.509  1.00  0.00     0.004 C 
BRANCH   2   3
ATOM      3  C   UNL     1      -2.992  20.410  47.638  1.00  0.00    -0.009 C 
BRANCH   3   4
ATOM      4  C   UNL     1      -2.986  20.949  46.182  1.00  0.00     0.000 C 
ATOM      5  C   UNL     1      -1.845  21.929  45.904  1.00  0.00     0.004 C 
ENDBRANCH   3   4
BRANCH   3   6
ATOM      6  C   UNL     1      -2.840  18.849  47.728  1.00  0.00    -0.014 C 
ATOM      7  C   UNL     1      -1.384  18.345  47.654  1.00  0.00     0.007 C 
ATOM      8  C   UNL     1      -3.500  18.302  49.004  1.00  0.00     0.007 C 
ENDBRANCH   3   6
ENDBRANCH   2   3
ENDBRANCH   1   2
BRANCH   1   9
ATOM      9  C   UNL     1      -5.237  23.276  47.956  1.00  0.00    -0.011 C 
ATOM     10  C   UNL     1      -5.006  24.003  46.614  1.00  0.00     0.008 C 
BRANCH   9  11
ATOM     11  C   UNL     1      -4.232  23.726  49.077  1.00  0.00    -0.002 C 
ATOM     12  C   UNL     1      -2.879  24.216  48.560  1.00  0.00     0.005 C 
ATOM     13  C   UNL     1      -4.690  24.822  50.128  1.00  0.00    -0.026 C 
ATOM     14  C   UNL     1      -2.278  24.970  49.728  1.00  0.00     0.005 C 
ATOM     15  C   UNL     1      -3.446  25.780  50.298  1.00  0.00    -0.001 C 
ATOM     16  C   UNL     1      -6.004  25.605  49.801  1.00  0.00     0.007 C 
ATOM     17  C   UNL     1      -4.939  24.097  51.480  1.00  0.00     0.012 C 
ATOM     18  C   UNL     1      -3.480  27.185  49.577  1.00  0.00     0.000 C 
ATOM     19  C   UNL     1      -5.817  26.763  48.835  1.00  0.00     0.005 C 
ATOM     20  C   UNL     1      -4.885  27.811  49.466  1.00  0.00     0.003 C 
ATOM     21  C   UNL     1      -2.512  28.160  50.282  1.00  0.00     0.031 C 
ATOM     22  C   UNL     1      -4.855  29.189  48.689  1.00  0.00    -0.008 C 
ATOM     23  C   UNL     1      -2.681  29.602  49.897  1.00  0.00    -0.027 C 
ATOM     24  C   UNL     1      -3.782  30.099  49.298  1.00  0.00    -0.065 C 
ATOM     25  C   UNL     1      -6.229  29.907  48.849  1.00  0.00     0.014 C 
ATOM     26  C   UNL     1      -4.548  28.983  47.179  1.00  0.00     0.016 C 
ATOM     27  C   UNL     1      -3.990  31.601  49.363  1.00  0.00     0.063 C 
ATOM     28  C   UNL     1      -6.291  31.336  48.267  1.00  0.00     0.033 C 
ATOM     29  C   UNL     1      -4.957  32.117  48.296  1.00  0.00     0.118 C 
BRANCH  29  30
ATOM     30  O   UNL     1      -5.206  33.479  48.530  1.00  0.00    -0.393 OA
ATOM     31  H   UNL     1      -5.678  33.828  47.728  1.00  0.00     0.210 HD
ENDBRANCH  29  30
ENDBRANCH   9  11
ENDBRANCH   1   9
TORSDOF 7
ENDMDL
MODEL 9
REMARK VINA RESULT:    -7.048      2.056      4.679
REMARK INTER + INTRA:         -10.962
REMARK INTER:                  -9.417
REMARK INTRA:                  -1.545
REMARK UNBOUND:                -1.236
REMARK SMILES CC[C@@H](CC[C@H](C)[C@H]1CC[C@H]2[C@@H]3CC=C4C[C@H](O)CC[C@]4(C)[C@H]3CC[C@@]12C)C(C)C
REMARK SMILES IDX 5 1 4 2 3 3 2 4 1 5 28 6 29 7 30 8 6 9 7 10 8 11 9 12 26 13
REMARK SMILES IDX 10 14 11 15 25 16 27 17 12 18 24 19 23 20 13 21 21 22 14 23
REMARK SMILES IDX 15 24 20 25 22 26 16 27 19 28 17 29 18 30
REMARK H PARENT 18 31
REMARK Flexibility Score: inf
ROOT
ATOM      1  C   UNL     1      -4.287  24.923  47.172  1.00  0.00     0.004 C 
ENDROOT
BRANCH   1   2
ATOM      2  C   UNL     1      -5.115  23.686  47.585  1.00  0.00     0.004 C 
BRANCH   2   3
ATOM      3  C   UNL     1      -4.796  23.126  49.000  1.00  0.00    -0.009 C 
BRANCH   3   4
ATOM      4  C   UNL     1      -4.111  24.149  49.947  1.00  0.00     0.000 C 
ATOM      5  C   UNL     1      -4.840  24.323  51.281  1.00  0.00     0.004 C 
ENDBRANCH   3   4
BRANCH   3   6
ATOM      6  C   UNL     1      -4.067  21.735  48.948  1.00  0.00    -0.014 C 
ATOM      7  C   UNL     1      -4.540  20.809  47.809  1.00  0.00     0.007 C 
ATOM      8  C   UNL     1      -2.543  21.914  48.854  1.00  0.00     0.007 C 
ENDBRANCH   3   6
ENDBRANCH   2   3
ENDBRANCH   1   2
BRANCH   1   9
ATOM      9  C   UNL     1      -5.107  26.229  46.940  1.00  0.00    -0.011 C 
ATOM     10  C   UNL     1      -4.655  26.912  45.631  1.00  0.00     0.008 C 
BRANCH   9  11
ATOM     11  C   UNL     1      -5.079  27.197  48.177  1.00  0.00    -0.002 C 
ATOM     12  C   UNL     1      -4.049  28.323  48.082  1.00  0.00     0.005 C 
ATOM     13  C   UNL     1      -6.422  27.907  48.631  1.00  0.00    -0.026 C 
ATOM     14  C   UNL     1      -4.489  29.327  49.127  1.00  0.00     0.005 C 
ATOM     15  C   UNL     1      -6.011  29.393  48.972  1.00  0.00    -0.001 C 
ATOM     16  C   UNL     1      -7.626  27.837  47.635  1.00  0.00     0.007 C 
ATOM     17  C   UNL     1      -6.897  27.218  49.940  1.00  0.00     0.012 C 
ATOM     18  C   UNL     1      -6.359  30.525  47.926  1.00  0.00     0.000 C 
ATOM     19  C   UNL     1      -7.579  28.872  46.523  1.00  0.00     0.005 C 
ATOM     20  C   UNL     1      -7.658  30.282  47.133  1.00  0.00     0.003 C 
ATOM     21  C   UNL     1      -6.411  31.896  48.635  1.00  0.00     0.031 C 
ATOM     22  C   UNL     1      -7.920  31.423  46.068  1.00  0.00    -0.008 C 
ATOM     23  C   UNL     1      -7.033  32.998  47.826  1.00  0.00    -0.027 C 
ATOM     24  C   UNL     1      -7.819  32.793  46.748  1.00  0.00    -0.065 C 
ATOM     25  C   UNL     1      -9.365  31.284  45.500  1.00  0.00     0.014 C 
ATOM     26  C   UNL     1      -6.894  31.358  44.902  1.00  0.00     0.016 C 
ATOM     27  C   UNL     1      -8.706  33.942  46.307  1.00  0.00     0.063 C 
ATOM     28  C   UNL     1      -9.809  32.426  44.560  1.00  0.00     0.033 C 
ATOM     29  C   UNL     1      -9.183  33.807  44.860  1.00  0.00     0.118 C 
BRANCH  29  30
ATOM     30  O   UNL     1     -10.115  34.822  44.592  1.00  0.00    -0.393 OA
ATOM     31  H   UNL     1     -10.963  34.374  44.332  1.00  0.00     0.210 HD
ENDBRANCH  29  30
ENDBRANCH   9  11
ENDBRANCH   1   9
TORSDOF 7
ENDMDL
