MODEL 1
REMARK VINA RESULT:    -7.626      0.000      0.000
REMARK INTER + INTRA:         -11.510
REMARK INTER:                 -10.524
REMARK INTRA:                  -0.985
REMARK UNBOUND:                -0.985
REMARK SMILES CC[C@H](CC[C@@H](C)[C@@H]1CC[C@@H]2[C@@H]3CC=C4C[C@@H](O)CC[C@@]4(C)[C@H]3CC[C@]21C)C(C)C
REMARK SMILES IDX 5 1 4 2 3 3 2 4 1 5 28 6 29 7 30 8 6 9 7 10 8 11 9 12 26 13
REMARK SMILES IDX 10 14 11 15 25 16 27 17 12 18 24 19 23 20 13 21 21 22 14 23
REMARK SMILES IDX 15 24 20 25 22 26 16 27 19 28 17 29 18 30
REMARK H PARENT 18 31
REMARK Flexibility Score: inf
ROOT
ATOM      1  C   UNL     1       1.334  24.128  46.445  1.00  0.00     0.004 C 
ENDROOT
BRANCH   1   2
ATOM      2  C   UNL     1       2.343  23.222  45.694  1.00  0.00     0.004 C 
BRANCH   2   3
ATOM      3  C   UNL     1       2.459  23.546  44.166  1.00  0.00    -0.009 C 
BRANCH   3   4
ATOM      4  C   UNL     1       3.564  24.595  43.867  1.00  0.00     0.000 C 
ATOM      5  C   UNL     1       3.033  25.940  43.371  1.00  0.00     0.004 C 
ENDBRANCH   3   4
BRANCH   3   6
ATOM      6  C   UNL     1       2.646  22.262  43.266  1.00  0.00    -0.014 C 
ATOM      7  C   UNL     1       1.447  21.299  43.339  1.00  0.00     0.007 C 
ATOM      8  C   UNL     1       2.892  22.634  41.784  1.00  0.00     0.007 C 
ENDBRANCH   3   6
ENDBRANCH   2   3
ENDBRANCH   1   2
BRANCH   1   9
ATOM      9  C   UNL     1       1.999  25.051  47.509  1.00  0.00    -0.011 C 
ATOM     10  C   UNL     1       2.485  26.363  46.870  1.00  0.00     0.008 C 
BRANCH   9  11
ATOM     11  C   UNL     1       1.213  25.306  48.849  1.00  0.00    -0.002 C 
ATOM     12  C   UNL     1       0.695  26.762  49.035  1.00  0.00     0.005 C 
ATOM     13  C   UNL     1       1.794  24.942  50.265  1.00  0.00    -0.026 C 
ATOM     14  C   UNL     1       0.392  26.942  50.538  1.00  0.00     0.005 C 
ATOM     15  C   UNL     1       0.675  25.569  51.141  1.00  0.00    -0.001 C 
ATOM     16  C   UNL     1       1.854  23.431  50.622  1.00  0.00     0.007 C 
ATOM     17  C   UNL     1       3.204  25.589  50.425  1.00  0.00     0.012 C 
ATOM     18  C   UNL     1       0.712  25.353  52.686  1.00  0.00     0.000 C 
ATOM     19  C   UNL     1       1.885  23.134  52.152  1.00  0.00     0.005 C 
ATOM     20  C   UNL     1       1.809  24.363  53.122  1.00  0.00     0.003 C 
ATOM     21  C   UNL     1       0.834  26.625  53.529  1.00  0.00     0.031 C 
ATOM     22  C   UNL     1       1.775  24.058  54.694  1.00  0.00    -0.008 C 
ATOM     23  C   UNL     1       0.573  26.271  54.970  1.00  0.00    -0.027 C 
ATOM     24  C   UNL     1       0.898  25.057  55.475  1.00  0.00    -0.065 C 
ATOM     25  C   UNL     1       1.277  22.602  54.997  1.00  0.00     0.014 C 
ATOM     26  C   UNL     1       3.223  24.217  55.251  1.00  0.00     0.016 C 
ATOM     27  C   UNL     1       0.548  24.763  56.925  1.00  0.00     0.063 C 
ATOM     28  C   UNL     1       1.040  22.330  56.495  1.00  0.00     0.033 C 
ATOM     29  C   UNL     1       0.041  23.327  57.094  1.00  0.00     0.118 C 
BRANCH  29  30
ATOM     30  O   UNL     1      -1.216  23.178  56.471  1.00  0.00    -0.393 OA
ATOM     31  H   UNL     1      -1.826  22.791  57.156  1.00  0.00     0.210 HD
ENDBRANCH  29  30
ENDBRANCH   9  11
ENDBRANCH   1   9
TORSDOF 7
ENDMDL
MODEL 2
REMARK VINA RESULT:    -7.421      2.994      6.113
REMARK INTER + INTRA:         -11.227
REMARK INTER:                  -9.569
REMARK INTRA:                  -1.658
REMARK UNBOUND:                -0.985
REMARK SMILES CC[C@H](CC[C@@H](C)[C@@H]1CC[C@@H]2[C@@H]3CC=C4C[C@@H](O)CC[C@@]4(C)[C@H]3CC[C@]21C)C(C)C
REMARK SMILES IDX 5 1 4 2 3 3 2 4 1 5 28 6 29 7 30 8 6 9 7 10 8 11 9 12 26 13
REMARK SMILES IDX 10 14 11 15 25 16 27 17 12 18 24 19 23 20 13 21 21 22 14 23
REMARK SMILES IDX 15 24 20 25 22 26 16 27 19 28 17 29 18 30
REMARK H PARENT 18 31
REMARK Flexibility Score: inf
ROOT
ATOM      1  C   UNL     1       0.840  25.331  51.676  1.00  0.00     0.004 C 
ENDROOT
BRANCH   1   2
ATOM      2  C   UNL     1       0.892  23.798  51.451  1.00  0.00     0.004 C 
BRANCH   2   3
ATOM      3  C   UNL     1       1.796  23.372  50.246  1.00  0.00    -0.009 C 
BRANCH   3   4
ATOM      4  C   UNL     1       2.114  24.561  49.297  1.00  0.00     0.000 C 
ATOM      5  C   UNL     1       1.408  24.487  47.942  1.00  0.00     0.004 C 
ENDBRANCH   3   4
BRANCH   3   6
ATOM      6  C   UNL     1       3.122  22.637  50.685  1.00  0.00    -0.014 C 
ATOM      7  C   UNL     1       4.183  23.601  51.249  1.00  0.00     0.007 C 
ATOM      8  C   UNL     1       2.844  21.537  51.738  1.00  0.00     0.007 C 
ENDBRANCH   3   6
ENDBRANCH   2   3
ENDBRANCH   1   2
BRANCH   1   9
ATOM      9  C   UNL     1       0.734  25.738  53.176  1.00  0.00    -0.011 C 
ATOM     10  C   UNL     1      -0.281  26.877  53.365  1.00  0.00     0.008 C 
BRANCH   9  11
ATOM     11  C   UNL     1       0.532  24.588  54.232  1.00  0.00    -0.002 C 
ATOM     12  C   UNL     1      -0.775  24.694  55.070  1.00  0.00     0.005 C 
ATOM     13  C   UNL     1       1.621  24.207  55.302  1.00  0.00    -0.026 C 
ATOM     14  C   UNL     1      -0.581  23.810  56.320  1.00  0.00     0.005 C 
ATOM     15  C   UNL     1       0.792  23.175  56.116  1.00  0.00    -0.001 C 
ATOM     16  C   UNL     1       2.878  23.461  54.776  1.00  0.00     0.007 C 
ATOM     17  C   UNL     1       2.043  25.487  56.086  1.00  0.00     0.012 C 
ATOM     18  C   UNL     1       1.492  22.372  57.255  1.00  0.00     0.000 C 
ATOM     19  C   UNL     1       3.629  22.626  55.857  1.00  0.00     0.005 C 
ATOM     20  C   UNL     1       3.015  22.605  57.299  1.00  0.00     0.003 C 
ATOM     21  C   UNL     1       0.922  22.581  58.660  1.00  0.00     0.031 C 
ATOM     22  C   UNL     1       3.746  21.696  58.397  1.00  0.00    -0.008 C 
ATOM     23  C   UNL     1       1.510  21.540  59.577  1.00  0.00    -0.027 C 
ATOM     24  C   UNL     1       2.759  21.051  59.389  1.00  0.00    -0.065 C 
ATOM     25  C   UNL     1       4.613  20.567  57.738  1.00  0.00     0.014 C 
ATOM     26  C   UNL     1       4.681  22.614  59.242  1.00  0.00     0.016 C 
ATOM     27  C   UNL     1       3.253  19.961  60.326  1.00  0.00     0.063 C 
ATOM     28  C   UNL     1       5.175  19.551  58.750  1.00  0.00     0.033 C 
ATOM     29  C   UNL     1       4.056  18.897  59.568  1.00  0.00     0.118 C 
BRANCH  29  30
ATOM     30  O   UNL     1       3.204  18.163  58.714  1.00  0.00    -0.393 OA
ATOM     31  H   UNL     1       3.793  17.570  58.173  1.00  0.00     0.210 HD
ENDBRANCH  29  30
ENDBRANCH   9  11
ENDBRANCH   1   9
TORSDOF 7
ENDMDL
MODEL 3
REMARK VINA RESULT:    -7.414      4.230      6.410
REMARK INTER + INTRA:         -11.216
REMARK INTER:                  -9.335
REMARK INTRA:                  -1.882
REMARK UNBOUND:                -0.985
REMARK SMILES CC[C@H](CC[C@@H](C)[C@@H]1CC[C@@H]2[C@@H]3CC=C4C[C@@H](O)CC[C@@]4(C)[C@H]3CC[C@]21C)C(C)C
REMARK SMILES IDX 5 1 4 2 3 3 2 4 1 5 28 6 29 7 30 8 6 9 7 10 8 11 9 12 26 13
REMARK SMILES IDX 10 14 11 15 25 16 27 17 12 18 24 19 23 20 13 21 21 22 14 23
REMARK SMILES IDX 15 24 20 25 22 26 16 27 19 28 17 29 18 30
REMARK H PARENT 18 31
REMARK Flexibility Score: inf
ROOT
ATOM      1  C   UNL     1       3.199  25.285  52.101  1.00  0.00     0.004 C 
ENDROOT
BRANCH   1   2
ATOM      2  C   UNL     1       2.796  24.412  50.886  1.00  0.00     0.004 C 
BRANCH   2   3
ATOM      3  C   UNL     1       3.574  23.054  50.806  1.00  0.00    -0.009 C 
BRANCH   3   4
ATOM      4  C   UNL     1       4.870  23.065  51.661  1.00  0.00     0.000 C 
ATOM      5  C   UNL     1       6.126  23.475  50.890  1.00  0.00     0.004 C 
ENDBRANCH   3   4
BRANCH   3   6
ATOM      6  C   UNL     1       2.682  21.799  51.156  1.00  0.00    -0.014 C 
ATOM      7  C   UNL     1       3.306  20.908  52.247  1.00  0.00     0.007 C 
ATOM      8  C   UNL     1       1.262  22.215  51.610  1.00  0.00     0.007 C 
ENDBRANCH   3   6
ENDBRANCH   2   3
ENDBRANCH   1   2
BRANCH   1   9
ATOM      9  C   UNL     1       2.014  25.602  53.061  1.00  0.00    -0.011 C 
ATOM     10  C   UNL     1       0.816  26.172  52.284  1.00  0.00     0.008 C 
BRANCH   9  11
ATOM     11  C   UNL     1       1.578  24.481  54.077  1.00  0.00    -0.002 C 
ATOM     12  C   UNL     1       0.187  24.708  54.740  1.00  0.00     0.005 C 
ATOM     13  C   UNL     1       2.481  24.013  55.276  1.00  0.00    -0.026 C 
ATOM     14  C   UNL     1       0.141  23.818  56.001  1.00  0.00     0.005 C 
ATOM     15  C   UNL     1       1.467  23.064  55.972  1.00  0.00    -0.001 C 
ATOM     16  C   UNL     1       3.726  23.156  54.913  1.00  0.00     0.007 C 
ATOM     17  C   UNL     1       2.910  25.256  56.114  1.00  0.00     0.012 C 
ATOM     18  C   UNL     1       1.941  22.209  57.189  1.00  0.00     0.000 C 
ATOM     19  C   UNL     1       4.254  22.266  56.079  1.00  0.00     0.005 C 
ATOM     20  C   UNL     1       3.460  22.308  57.429  1.00  0.00     0.003 C 
ATOM     21  C   UNL     1       1.216  22.477  58.509  1.00  0.00     0.031 C 
ATOM     22  C   UNL     1       3.961  21.346  58.608  1.00  0.00    -0.008 C 
ATOM     23  C   UNL     1       1.587  21.395  59.489  1.00  0.00    -0.027 C 
ATOM     24  C   UNL     1       2.802  20.797  59.462  1.00  0.00    -0.065 C 
ATOM     25  C   UNL     1       4.803  20.140  58.060  1.00  0.00     0.014 C 
ATOM     26  C   UNL     1       4.857  22.184  59.570  1.00  0.00     0.016 C 
ATOM     27  C   UNL     1       3.073  19.673  60.449  1.00  0.00     0.063 C 
ATOM     28  C   UNL     1       5.139  19.086  59.132  1.00  0.00     0.033 C 
ATOM     29  C   UNL     1       3.870  18.539  59.796  1.00  0.00     0.118 C 
BRANCH  29  30
ATOM     30  O   UNL     1       3.074  17.876  58.836  1.00  0.00    -0.393 OA
ATOM     31  H   UNL     1       2.631  17.121  59.311  1.00  0.00     0.210 HD
ENDBRANCH  29  30
ENDBRANCH   9  11
ENDBRANCH   1   9
TORSDOF 7
ENDMDL
MODEL 4
REMARK VINA RESULT:    -7.409      3.690      7.578
REMARK INTER + INTRA:         -11.210
REMARK INTER:                  -9.792
REMARK INTRA:                  -1.418
REMARK UNBOUND:                -0.985
REMARK SMILES CC[C@H](CC[C@@H](C)[C@@H]1CC[C@@H]2[C@@H]3CC=C4C[C@@H](O)CC[C@@]4(C)[C@H]3CC[C@]21C)C(C)C
REMARK SMILES IDX 5 1 4 2 3 3 2 4 1 5 28 6 29 7 30 8 6 9 7 10 8 11 9 12 26 13
REMARK SMILES IDX 10 14 11 15 25 16 27 17 12 18 24 19 23 20 13 21 21 22 14 23
REMARK SMILES IDX 15 24 20 25 22 26 16 27 19 28 17 29 18 30
REMARK H PARENT 18 31
REMARK Flexibility Score: inf
ROOT
ATOM      1  C   UNL     1      -0.585  24.410  53.763  1.00  0.00     0.004 C 
ENDROOT
BRANCH   1   2
ATOM      2  C   UNL     1       0.658  25.100  53.146  1.00  0.00     0.004 C 
BRANCH   2   3
ATOM      3  C   UNL     1       1.249  24.337  51.912  1.00  0.00    -0.009 C 
BRANCH   3   4
ATOM      4  C   UNL     1       0.903  22.823  51.932  1.00  0.00     0.000 C 
ATOM      5  C   UNL     1       2.124  21.902  51.945  1.00  0.00     0.004 C 
ENDBRANCH   3   4
BRANCH   3   6
ATOM      6  C   UNL     1       0.853  24.984  50.527  1.00  0.00    -0.014 C 
ATOM      7  C   UNL     1       0.954  26.521  50.534  1.00  0.00     0.007 C 
ATOM      8  C   UNL     1       1.724  24.436  49.371  1.00  0.00     0.007 C 
ENDBRANCH   3   6
ENDBRANCH   2   3
ENDBRANCH   1   2
BRANCH   1   9
ATOM      9  C   UNL     1      -0.695  24.589  55.306  1.00  0.00    -0.011 C 
ATOM     10  C   UNL     1      -2.149  24.862  55.725  1.00  0.00     0.008 C 
BRANCH   9  11
ATOM     11  C   UNL     1      -0.014  23.501  56.219  1.00  0.00    -0.002 C 
ATOM     12  C   UNL     1      -0.656  23.336  57.627  1.00  0.00     0.005 C 
ATOM     13  C   UNL     1       1.530  23.478  56.517  1.00  0.00    -0.026 C 
ATOM     14  C   UNL     1       0.383  22.617  58.513  1.00  0.00     0.005 C 
ATOM     15  C   UNL     1       1.544  22.332  57.566  1.00  0.00    -0.001 C 
ATOM     16  C   UNL     1       2.455  23.034  55.350  1.00  0.00     0.007 C 
ATOM     17  C   UNL     1       1.972  24.874  57.053  1.00  0.00     0.012 C 
ATOM     18  C   UNL     1       2.916  21.809  58.097  1.00  0.00     0.000 C 
ATOM     19  C   UNL     1       3.844  22.490  55.804  1.00  0.00     0.005 C 
ATOM     20  C   UNL     1       4.116  22.417  57.345  1.00  0.00     0.003 C 
ATOM     21  C   UNL     1       3.147  21.967  59.601  1.00  0.00     0.031 C 
ATOM     22  C   UNL     1       5.516  21.797  57.816  1.00  0.00    -0.008 C 
ATOM     23  C   UNL     1       4.367  21.171  59.986  1.00  0.00    -0.027 C 
ATOM     24  C   UNL     1       5.401  20.997  59.129  1.00  0.00    -0.065 C 
ATOM     25  C   UNL     1       6.149  20.876  56.715  1.00  0.00     0.014 C 
ATOM     26  C   UNL     1       6.495  22.976  58.105  1.00  0.00     0.016 C 
ATOM     27  C   UNL     1       6.569  20.132  59.576  1.00  0.00     0.063 C 
ATOM     28  C   UNL     1       7.392  20.105  57.195  1.00  0.00     0.033 C 
ATOM     29  C   UNL     1       7.080  19.252  58.430  1.00  0.00     0.118 C 
BRANCH  29  30
ATOM     30  O   UNL     1       6.118  18.271  58.104  1.00  0.00    -0.393 OA
ATOM     31  H   UNL     1       5.415  18.733  57.572  1.00  0.00     0.210 HD
ENDBRANCH  29  30
ENDBRANCH   9  11
ENDBRANCH   1   9
TORSDOF 7
ENDMDL
MODEL 5
REMARK VINA RESULT:    -7.270      2.273      3.279
REMARK INTER + INTRA:         -11.018
REMARK INTER:                 -10.246
REMARK INTRA:                  -0.772
REMARK UNBOUND:                -0.985
REMARK SMILES CC[C@H](CC[C@@H](C)[C@@H]1CC[C@@H]2[C@@H]3CC=C4C[C@@H](O)CC[C@@]4(C)[C@H]3CC[C@]21C)C(C)C
REMARK SMILES IDX 5 1 4 2 3 3 2 4 1 5 28 6 29 7 30 8 6 9 7 10 8 11 9 12 26 13
REMARK SMILES IDX 10 14 11 15 25 16 27 17 12 18 24 19 23 20 13 21 21 22 14 23
REMARK SMILES IDX 15 24 20 25 22 26 16 27 19 28 17 29 18 30
REMARK H PARENT 18 31
REMARK Flexibility Score: inf
ROOT
ATOM      1  C   UNL     1       2.196  23.774  47.578  1.00  0.00     0.004 C 
ENDROOT
BRANCH   1   2
ATOM      2  C   UNL     1       1.213  24.388  46.548  1.00  0.00     0.004 C 
BRANCH   2   3
ATOM      3  C   UNL     1       1.710  24.280  45.067  1.00  0.00    -0.009 C 
BRANCH   3   4
ATOM      4  C   UNL     1       2.375  25.593  44.570  1.00  0.00     0.000 C 
ATOM      5  C   UNL     1       3.074  26.395  45.668  1.00  0.00     0.004 C 
ENDBRANCH   3   4
BRANCH   3   6
ATOM      6  C   UNL     1       2.658  23.042  44.812  1.00  0.00    -0.014 C 
ATOM      7  C   UNL     1       1.899  21.805  44.295  1.00  0.00     0.007 C 
ATOM      8  C   UNL     1       3.788  23.383  43.811  1.00  0.00     0.007 C 
ENDBRANCH   3   6
ENDBRANCH   2   3
ENDBRANCH   1   2
BRANCH   1   9
ATOM      9  C   UNL     1       2.197  24.508  48.951  1.00  0.00    -0.011 C 
ATOM     10  C   UNL     1       1.295  25.753  48.909  1.00  0.00     0.008 C 
BRANCH   9  11
ATOM     11  C   UNL     1       1.946  23.643  50.243  1.00  0.00    -0.002 C 
ATOM     12  C   UNL     1       0.456  23.551  50.686  1.00  0.00     0.005 C 
ATOM     13  C   UNL     1       2.715  23.879  51.594  1.00  0.00    -0.026 C 
ATOM     14  C   UNL     1       0.455  23.097  52.162  1.00  0.00     0.005 C 
ATOM     15  C   UNL     1       1.930  22.876  52.483  1.00  0.00    -0.001 C 
ATOM     16  C   UNL     1       4.206  23.443  51.629  1.00  0.00     0.007 C 
ATOM     17  C   UNL     1       2.583  25.377  52.007  1.00  0.00     0.012 C 
ATOM     18  C   UNL     1       2.412  22.622  53.946  1.00  0.00     0.000 C 
ATOM     19  C   UNL     1       4.759  23.161  53.059  1.00  0.00     0.005 C 
ATOM     20  C   UNL     1       3.757  23.306  54.256  1.00  0.00     0.003 C 
ATOM     21  C   UNL     1       1.411  22.984  55.046  1.00  0.00     0.031 C 
ATOM     22  C   UNL     1       4.305  22.955  55.720  1.00  0.00    -0.008 C 
ATOM     23  C   UNL     1       1.910  22.424  56.352  1.00  0.00    -0.027 C 
ATOM     24  C   UNL     1       3.233  22.303  56.616  1.00  0.00    -0.065 C 
ATOM     25  C   UNL     1       5.560  22.015  55.665  1.00  0.00     0.014 C 
ATOM     26  C   UNL     1       4.710  24.289  56.419  1.00  0.00     0.016 C 
ATOM     27  C   UNL     1       3.650  21.674  57.935  1.00  0.00     0.063 C 
ATOM     28  C   UNL     1       6.000  21.493  57.046  1.00  0.00     0.033 C 
ATOM     29  C   UNL     1       4.860  20.751  57.754  1.00  0.00     0.118 C 
BRANCH  29  30
ATOM     30  O   UNL     1       4.494  19.611  57.007  1.00  0.00    -0.393 OA
ATOM     31  H   UNL     1       5.285  19.373  56.452  1.00  0.00     0.210 HD
ENDBRANCH  29  30
ENDBRANCH   9  11
ENDBRANCH   1   9
TORSDOF 7
ENDMDL
MODEL 6
REMARK VINA RESULT:    -6.984      2.523      4.281
REMARK INTER + INTRA:         -10.623
REMARK INTER:                  -9.613
REMARK INTRA:                  -1.010
REMARK UNBOUND:                -0.985
REMARK SMILES CC[C@H](CC[C@@H](C)[C@@H]1CC[C@@H]2[C@@H]3CC=C4C[C@@H](O)CC[C@@]4(C)[C@H]3CC[C@]21C)C(C)C
REMARK SMILES IDX 5 1 4 2 3 3 2 4 1 5 28 6 29 7 30 8 6 9 7 10 8 11 9 12 26 13
REMARK SMILES IDX 10 14 11 15 25 16 27 17 12 18 24 19 23 20 13 21 21 22 14 23
REMARK SMILES IDX 15 24 20 25 22 26 16 27 19 28 17 29 18 30
REMARK H PARENT 18 31
REMARK Flexibility Score: inf
ROOT
ATOM      1  C   UNL     1       2.098  24.004  49.313  1.00  0.00     0.004 C 
ENDROOT
BRANCH   1   2
ATOM      2  C   UNL     1       1.320  24.505  48.069  1.00  0.00     0.004 C 
BRANCH   2   3
ATOM      3  C   UNL     1       2.207  24.623  46.783  1.00  0.00    -0.009 C 
BRANCH   3   4
ATOM      4  C   UNL     1       1.665  23.758  45.612  1.00  0.00     0.000 C 
ATOM      5  C   UNL     1       2.574  22.591  45.223  1.00  0.00     0.004 C 
ENDBRANCH   3   4
BRANCH   3   6
ATOM      6  C   UNL     1       2.441  26.113  46.317  1.00  0.00    -0.014 C 
ATOM      7  C   UNL     1       3.114  26.980  47.398  1.00  0.00     0.007 C 
ATOM      8  C   UNL     1       3.292  26.182  45.026  1.00  0.00     0.007 C 
ENDBRANCH   3   6
ENDBRANCH   2   3
ENDBRANCH   1   2
BRANCH   1   9
ATOM      9  C   UNL     1       1.858  24.868  50.587  1.00  0.00    -0.011 C 
ATOM     10  C   UNL     1       0.860  26.002  50.301  1.00  0.00     0.008 C 
BRANCH   9  11
ATOM     11  C   UNL     1       1.525  24.115  51.929  1.00  0.00    -0.002 C 
ATOM     12  C   UNL     1       0.283  24.660  52.692  1.00  0.00     0.005 C 
ATOM     13  C   UNL     1       2.584  23.889  53.070  1.00  0.00    -0.026 C 
ATOM     14  C   UNL     1       0.390  24.151  54.145  1.00  0.00     0.005 C 
ATOM     15  C   UNL     1       1.641  23.277  54.141  1.00  0.00    -0.001 C 
ATOM     16  C   UNL     1       3.692  22.836  52.790  1.00  0.00     0.007 C 
ATOM     17  C   UNL     1       3.226  25.257  53.454  1.00  0.00     0.012 C 
ATOM     18  C   UNL     1       2.255  22.734  55.469  1.00  0.00     0.000 C 
ATOM     19  C   UNL     1       4.349  22.239  54.071  1.00  0.00     0.005 C 
ATOM     20  C   UNL     1       3.796  22.728  55.453  1.00  0.00     0.003 C 
ATOM     21  C   UNL     1       1.778  23.423  56.750  1.00  0.00     0.031 C 
ATOM     22  C   UNL     1       4.423  22.067  56.772  1.00  0.00    -0.008 C 
ATOM     23  C   UNL     1       2.236  22.609  57.932  1.00  0.00    -0.027 C 
ATOM     24  C   UNL     1       3.389  21.896  57.902  1.00  0.00    -0.065 C 
ATOM     25  C   UNL     1       5.081  20.676  56.472  1.00  0.00     0.014 C 
ATOM     26  C   UNL     1       5.519  23.031  57.322  1.00  0.00     0.016 C 
ATOM     27  C   UNL     1       3.747  21.056  59.117  1.00  0.00     0.063 C 
ATOM     28  C   UNL     1       5.522  19.917  57.738  1.00  0.00     0.033 C 
ATOM     29  C   UNL     1       4.348  19.708  58.703  1.00  0.00     0.118 C 
BRANCH  29  30
ATOM     30  O   UNL     1       3.363  18.904  58.092  1.00  0.00    -0.393 OA
ATOM     31  H   UNL     1       2.540  18.999  58.644  1.00  0.00     0.210 HD
ENDBRANCH  29  30
ENDBRANCH   9  11
ENDBRANCH   1   9
TORSDOF 7
ENDMDL
MODEL 7
REMARK VINA RESULT:    -6.906      3.727      9.614
REMARK INTER + INTRA:         -10.516
REMARK INTER:                  -8.659
REMARK INTRA:                  -1.857
REMARK UNBOUND:                -0.985
REMARK SMILES CC[C@H](CC[C@@H](C)[C@@H]1CC[C@@H]2[C@@H]3CC=C4C[C@@H](O)CC[C@@]4(C)[C@H]3CC[C@]21C)C(C)C
REMARK SMILES IDX 5 1 4 2 3 3 2 4 1 5 28 6 29 7 30 8 6 9 7 10 8 11 9 12 26 13
REMARK SMILES IDX 10 14 11 15 25 16 27 17 12 18 24 19 23 20 13 21 21 22 14 23
REMARK SMILES IDX 15 24 20 25 22 26 16 27 19 28 17 29 18 30
REMARK H PARENT 18 31
REMARK Flexibility Score: inf
ROOT
ATOM      1  C   UNL     1       1.779  21.820  59.399  1.00  0.00     0.004 C 
ENDROOT
BRANCH   1   2
ATOM      2  C   UNL     1       3.249  21.543  59.807  1.00  0.00     0.004 C 
BRANCH   2   3
ATOM      3  C   UNL     1       4.284  21.874  58.679  1.00  0.00    -0.009 C 
BRANCH   3   4
ATOM      4  C   UNL     1       5.304  22.962  59.115  1.00  0.00     0.000 C 
ATOM      5  C   UNL     1       5.185  24.276  58.341  1.00  0.00     0.004 C 
ENDBRANCH   3   4
BRANCH   3   6
ATOM      6  C   UNL     1       5.030  20.600  58.119  1.00  0.00    -0.014 C 
ATOM      7  C   UNL     1       4.227  19.300  58.317  1.00  0.00     0.007 C 
ATOM      8  C   UNL     1       5.367  20.749  56.616  1.00  0.00     0.007 C 
ENDBRANCH   3   6
ENDBRANCH   2   3
ENDBRANCH   1   2
BRANCH   1   9
ATOM      9  C   UNL     1       1.381  23.323  59.490  1.00  0.00    -0.011 C 
ATOM     10  C   UNL     1       2.000  23.981  60.735  1.00  0.00     0.008 C 
BRANCH   9  11
ATOM     11  C   UNL     1       1.568  24.208  58.202  1.00  0.00    -0.002 C 
ATOM     12  C   UNL     1       0.901  25.613  58.273  1.00  0.00     0.005 C 
ATOM     13  C   UNL     1       1.206  23.705  56.756  1.00  0.00    -0.026 C 
ATOM     14  C   UNL     1       0.775  26.124  56.821  1.00  0.00     0.005 C 
ATOM     15  C   UNL     1       1.438  25.033  55.985  1.00  0.00    -0.001 C 
ATOM     16  C   UNL     1       2.158  22.647  56.131  1.00  0.00     0.007 C 
ATOM     17  C   UNL     1      -0.262  23.179  56.747  1.00  0.00     0.012 C 
ATOM     18  C   UNL     1       1.339  25.032  54.428  1.00  0.00     0.000 C 
ATOM     19  C   UNL     1       2.121  22.592  54.574  1.00  0.00     0.005 C 
ATOM     20  C   UNL     1       1.185  23.615  53.843  1.00  0.00     0.003 C 
ATOM     21  C   UNL     1       0.253  25.930  53.832  1.00  0.00     0.031 C 
ATOM     22  C   UNL     1       1.195  23.605  52.241  1.00  0.00    -0.008 C 
ATOM     23  C   UNL     1       0.475  26.032  52.346  1.00  0.00    -0.027 C 
ATOM     24  C   UNL     1       1.012  25.011  51.636  1.00  0.00    -0.065 C 
ATOM     25  C   UNL     1       2.511  22.973  51.667  1.00  0.00     0.014 C 
ATOM     26  C   UNL     1      -0.019  22.756  51.754  1.00  0.00     0.016 C 
ATOM     27  C   UNL     1       1.255  25.218  50.150  1.00  0.00     0.063 C 
ATOM     28  C   UNL     1       2.652  23.121  50.141  1.00  0.00     0.033 C 
ATOM     29  C   UNL     1       2.584  24.591  49.711  1.00  0.00     0.118 C 
BRANCH  29  30
ATOM     30  O   UNL     1       3.666  25.304  50.270  1.00  0.00    -0.393 OA
ATOM     31  H   UNL     1       4.353  24.627  50.513  1.00  0.00     0.210 HD
ENDBRANCH  29  30
ENDBRANCH   9  11
ENDBRANCH   1   9
TORSDOF 7
ENDMDL
MODEL 8
REMARK VINA RESULT:    -6.857      3.883      6.518
REMARK INTER + INTRA:         -10.448
REMARK INTER:                  -8.148
REMARK INTRA:                  -2.300
REMARK UNBOUND:                -0.985
REMARK SMILES CC[C@H](CC[C@@H](C)[C@@H]1CC[C@@H]2[C@@H]3CC=C4C[C@@H](O)CC[C@@]4(C)[C@H]3CC[C@]21C)C(C)C
REMARK SMILES IDX 5 1 4 2 3 3 2 4 1 5 28 6 29 7 30 8 6 9 7 10 8 11 9 12 26 13
REMARK SMILES IDX 10 14 11 15 25 16 27 17 12 18 24 19 23 20 13 21 21 22 14 23
REMARK SMILES IDX 15 24 20 25 22 26 16 27 19 28 17 29 18 30
REMARK H PARENT 18 31
REMARK Flexibility Score: inf
ROOT
ATOM      1  C   UNL     1       1.668  23.443  51.067  1.00  0.00     0.004 C 
ENDROOT
BRANCH   1   2
ATOM      2  C   UNL     1       2.945  23.627  50.208  1.00  0.00     0.004 C 
BRANCH   2   3
ATOM      3  C   UNL     1       4.132  24.292  50.984  1.00  0.00    -0.009 C 
BRANCH   3   4
ATOM      4  C   UNL     1       5.430  23.441  50.920  1.00  0.00     0.000 C 
ATOM      5  C   UNL     1       6.486  23.831  51.955  1.00  0.00     0.004 C 
ENDBRANCH   3   4
BRANCH   3   6
ATOM      6  C   UNL     1       4.416  25.781  50.541  1.00  0.00    -0.014 C 
ATOM      7  C   UNL     1       3.421  26.289  49.480  1.00  0.00     0.007 C 
ATOM      8  C   UNL     1       4.392  26.751  51.746  1.00  0.00     0.007 C 
ENDBRANCH   3   6
ENDBRANCH   2   3
ENDBRANCH   1   2
BRANCH   1   9
ATOM      9  C   UNL     1       1.632  24.351  52.331  1.00  0.00    -0.011 C 
ATOM     10  C   UNL     1       0.505  25.393  52.226  1.00  0.00     0.008 C 
BRANCH   9  11
ATOM     11  C   UNL     1       1.652  23.647  53.739  1.00  0.00    -0.002 C 
ATOM     12  C   UNL     1       0.717  24.290  54.804  1.00  0.00     0.005 C 
ATOM     13  C   UNL     1       2.978  23.369  54.538  1.00  0.00    -0.026 C 
ATOM     14  C   UNL     1       1.205  23.801  56.184  1.00  0.00     0.005 C 
ATOM     15  C   UNL     1       2.346  22.842  55.856  1.00  0.00    -0.001 C 
ATOM     16  C   UNL     1       3.893  22.237  53.993  1.00  0.00     0.007 C 
ATOM     17  C   UNL     1       3.786  24.696  54.673  1.00  0.00     0.012 C 
ATOM     18  C   UNL     1       3.281  22.281  56.973  1.00  0.00     0.000 C 
ATOM     19  C   UNL     1       4.851  21.618  55.055  1.00  0.00     0.005 C 
ATOM     20  C   UNL     1       4.749  22.168  56.519  1.00  0.00     0.003 C 
ATOM     21  C   UNL     1       3.235  23.024  58.310  1.00  0.00     0.031 C 
ATOM     22  C   UNL     1       5.686  21.489  57.627  1.00  0.00    -0.008 C 
ATOM     23  C   UNL     1       3.962  22.201  59.341  1.00  0.00    -0.027 C 
ATOM     24  C   UNL     1       5.011  21.410  59.010  1.00  0.00    -0.065 C 
ATOM     25  C   UNL     1       6.145  20.050  57.203  1.00  0.00     0.014 C 
ATOM     26  C   UNL     1       6.951  22.384  57.806  1.00  0.00     0.016 C 
ATOM     27  C   UNL     1       5.651  20.569  60.102  1.00  0.00     0.063 C 
ATOM     28  C   UNL     1       6.882  19.285  58.318  1.00  0.00     0.033 C 
ATOM     29  C   UNL     1       6.024  19.175  59.584  1.00  0.00     0.118 C 
BRANCH  29  30
ATOM     30  O   UNL     1       4.857  18.430  59.309  1.00  0.00    -0.393 OA
ATOM     31  H   UNL     1       4.757  18.419  58.319  1.00  0.00     0.210 HD
ENDBRANCH  29  30
ENDBRANCH   9  11
ENDBRANCH   1   9
TORSDOF 7
ENDMDL
MODEL 9
REMARK VINA RESULT:    -6.332      3.795      9.954
REMARK INTER + INTRA:          -9.724
REMARK INTER:                  -8.448
REMARK INTRA:                  -1.276
REMARK UNBOUND:                -0.985
REMARK SMILES CC[C@H](CC[C@@H](C)[C@@H]1CC[C@@H]2[C@@H]3CC=C4C[C@@H](O)CC[C@@]4(C)[C@H]3CC[C@]21C)C(C)C
REMARK SMILES IDX 5 1 4 2 3 3 2 4 1 5 28 6 29 7 30 8 6 9 7 10 8 11 9 12 26 13
REMARK SMILES IDX 10 14 11 15 25 16 27 17 12 18 24 19 23 20 13 21 21 22 14 23
REMARK SMILES IDX 15 24 20 25 22 26 16 27 19 28 17 29 18 30
REMARK H PARENT 18 31
REMARK Flexibility Score: inf
ROOT
ATOM      1  C   UNL     1       5.203  21.787  58.520  1.00  0.00     0.004 C 
ENDROOT
BRANCH   1   2
ATOM      2  C   UNL     1       5.412  20.644  57.493  1.00  0.00     0.004 C 
BRANCH   2   3
ATOM      3  C   UNL     1       5.550  19.229  58.151  1.00  0.00    -0.009 C 
BRANCH   3   4
ATOM      4  C   UNL     1       7.031  18.782  58.285  1.00  0.00     0.000 C 
ATOM      5  C   UNL     1       8.002  19.556  57.393  1.00  0.00     0.004 C 
ENDBRANCH   3   4
BRANCH   3   6
ATOM      6  C   UNL     1       4.800  19.106  59.535  1.00  0.00    -0.014 C 
ATOM      7  C   UNL     1       3.294  18.822  59.377  1.00  0.00     0.007 C 
ATOM      8  C   UNL     1       5.420  18.002  60.425  1.00  0.00     0.007 C 
ENDBRANCH   3   6
ENDBRANCH   2   3
ENDBRANCH   1   2
BRANCH   1   9
ATOM      9  C   UNL     1       3.797  22.451  58.434  1.00  0.00    -0.011 C 
ATOM     10  C   UNL     1       3.339  22.948  59.815  1.00  0.00     0.008 C 
BRANCH   9  11
ATOM     11  C   UNL     1       3.567  23.533  57.313  1.00  0.00    -0.002 C 
ATOM     12  C   UNL     1       2.891  24.847  57.803  1.00  0.00     0.005 C 
ATOM     13  C   UNL     1       2.822  23.222  55.963  1.00  0.00    -0.026 C 
ATOM     14  C   UNL     1       2.329  25.557  56.553  1.00  0.00     0.005 C 
ATOM     15  C   UNL     1       2.767  24.667  55.393  1.00  0.00    -0.001 C 
ATOM     16  C   UNL     1       3.595  22.359  54.927  1.00  0.00     0.007 C 
ATOM     17  C   UNL     1       1.438  22.578  56.275  1.00  0.00     0.012 C 
ATOM     18  C   UNL     1       2.221  24.891  53.948  1.00  0.00     0.000 C 
ATOM     19  C   UNL     1       3.112  22.535  53.456  1.00  0.00     0.005 C 
ATOM     20  C   UNL     1       1.963  23.569  53.199  1.00  0.00     0.003 C 
ATOM     21  C   UNL     1       0.973  25.769  53.841  1.00  0.00     0.031 C 
ATOM     22  C   UNL     1       1.509  23.802  51.680  1.00  0.00    -0.008 C 
ATOM     23  C   UNL     1       0.751  26.112  52.391  1.00  0.00    -0.027 C 
ATOM     24  C   UNL     1       1.101  25.261  51.397  1.00  0.00    -0.065 C 
ATOM     25  C   UNL     1       2.628  23.382  50.664  1.00  0.00     0.014 C 
ATOM     26  C   UNL     1       0.242  22.932  51.415  1.00  0.00     0.016 C 
ATOM     27  C   UNL     1       0.895  25.709  49.959  1.00  0.00     0.063 C 
ATOM     28  C   UNL     1       2.314  23.768  49.206  1.00  0.00     0.033 C 
ATOM     29  C   UNL     1       2.064  25.275  49.068  1.00  0.00     0.118 C 
BRANCH  29  30
ATOM     30  O   UNL     1       3.232  25.988  49.415  1.00  0.00    -0.393 OA
ATOM     31  H   UNL     1       3.132  26.241  50.373  1.00  0.00     0.210 HD
ENDBRANCH  29  30
ENDBRANCH   9  11
ENDBRANCH   1   9
TORSDOF 7
ENDMDL
