MODEL 1
REMARK VINA RESULT:    -7.459      0.000      0.000
REMARK INTER + INTRA:          -9.079
REMARK INTER:                  -8.767
REMARK INTRA:                  -0.312
REMARK UNBOUND:                -0.312
REMARK SMILES Oc1ccc(-c2[o+]c3cc(O)cc(O)c3cc2O)cc1
REMARK SMILES IDX 6 1 7 2 8 3 9 4 10 5 12 6 13 7 15 8 16 9 17 10 5 11 4 12
REMARK SMILES IDX 3 13 2 14 19 15 20 16 1 17 18 19 11 21 14 23
REMARK H PARENT 1 18 18 20 11 22 14 24
REMARK Flexibility Score: inf
ROOT
ATOM      1  C   UNL     1     -17.900  12.139 -35.171  1.00  0.00     0.401 A 
ATOM      2  O   UNL     1     -18.937  11.311 -35.064  1.00  0.00    -0.202 OA
ATOM      3  C   UNL     1     -19.641  10.885 -36.108  1.00  0.00     0.368 A 
ATOM      4  C   UNL     1     -20.713  10.014 -35.895  1.00  0.00     0.162 A 
ATOM      5  C   UNL     1     -21.468   9.548 -36.976  1.00  0.00     0.128 A 
ATOM      6  C   UNL     1     -21.149   9.955 -38.273  1.00  0.00     0.093 A 
ATOM      7  C   UNL     1     -20.080  10.827 -38.513  1.00  0.00     0.136 A 
ATOM      8  C   UNL     1     -19.312  11.304 -37.419  1.00  0.00     0.125 A 
ATOM      9  C   UNL     1     -18.232  12.191 -37.564  1.00  0.00     0.078 A 
ATOM     10  C   UNL     1     -17.524  12.622 -36.437  1.00  0.00     0.223 A 
ENDROOT
BRANCH   1  11
ATOM     11  C   UNL     1     -17.189  12.533 -33.933  1.00  0.00     0.084 A 
ATOM     12  C   UNL     1     -16.023  11.846 -33.558  1.00  0.00     0.022 A 
ATOM     13  C   UNL     1     -15.323  12.215 -32.406  1.00  0.00     0.047 A 
ATOM     14  C   UNL     1     -15.772  13.286 -31.622  1.00  0.00     0.115 A 
ATOM     15  C   UNL     1     -17.623  13.620 -33.152  1.00  0.00     0.022 A 
ATOM     16  C   UNL     1     -16.920  13.987 -32.000  1.00  0.00     0.047 A 
BRANCH  14  17
ATOM     17  O   UNL     1     -15.083  13.662 -30.471  1.00  0.00    -0.508 OA
ATOM     18  H   UNL     1     -15.232  14.565 -30.035  1.00  0.00     0.293 HD
ENDBRANCH  14  17
ENDBRANCH   1  11
BRANCH  10  19
ATOM     19  O   UNL     1     -16.483  13.541 -36.575  1.00  0.00    -0.500 OA
ATOM     20  H   UNL     1     -16.461  14.211 -37.335  1.00  0.00     0.294 HD
ENDBRANCH  10  19
BRANCH   5  21
ATOM     21  O   UNL     1     -22.538   8.680 -36.771  1.00  0.00    -0.507 OA
ATOM     22  H   UNL     1     -22.889   8.481 -35.842  1.00  0.00     0.293 HD
ENDBRANCH   5  21
BRANCH   7  23
ATOM     23  O   UNL     1     -19.825  11.182 -39.841  1.00  0.00    -0.507 OA
ATOM     24  H   UNL     1     -18.975  11.626 -40.159  1.00  0.00     0.293 HD
ENDBRANCH   7  23
TORSDOF 5
ENDMDL
MODEL 2
REMARK VINA RESULT:    -6.960      9.161     10.724
REMARK INTER + INTRA:          -8.492
REMARK INTER:                  -8.384
REMARK INTRA:                  -0.108
REMARK UNBOUND:                -0.312
REMARK SMILES Oc1ccc(-c2[o+]c3cc(O)cc(O)c3cc2O)cc1
REMARK SMILES IDX 6 1 7 2 8 3 9 4 10 5 12 6 13 7 15 8 16 9 17 10 5 11 4 12
REMARK SMILES IDX 3 13 2 14 19 15 20 16 1 17 18 19 11 21 14 23
REMARK H PARENT 1 18 18 20 11 22 14 24
REMARK Flexibility Score: inf
ROOT
ATOM      1  C   UNL     1     -24.976  18.147 -38.537  1.00  0.00     0.401 A 
ATOM      2  O   UNL     1     -25.608  17.012 -38.824  1.00  0.00    -0.202 OA
ATOM      3  C   UNL     1     -26.024  16.154 -37.898  1.00  0.00     0.368 A 
ATOM      4  C   UNL     1     -26.682  14.988 -38.299  1.00  0.00     0.162 A 
ATOM      5  C   UNL     1     -27.133  14.070 -37.345  1.00  0.00     0.128 A 
ATOM      6  C   UNL     1     -26.926  14.320 -35.988  1.00  0.00     0.093 A 
ATOM      7  C   UNL     1     -26.269  15.481 -35.560  1.00  0.00     0.136 A 
ATOM      8  C   UNL     1     -25.808  16.415 -36.524  1.00  0.00     0.125 A 
ATOM      9  C   UNL     1     -25.129  17.597 -36.189  1.00  0.00     0.078 A 
ATOM     10  C   UNL     1     -24.699  18.468 -37.195  1.00  0.00     0.223 A 
ENDROOT
BRANCH   1  11
ATOM     11  C   UNL     1     -24.571  19.027 -39.657  1.00  0.00     0.084 A 
ATOM     12  C   UNL     1     -23.815  18.494 -40.714  1.00  0.00     0.022 A 
ATOM     13  C   UNL     1     -23.440  19.300 -41.793  1.00  0.00     0.047 A 
ATOM     14  C   UNL     1     -23.829  20.645 -41.836  1.00  0.00     0.115 A 
ATOM     15  C   UNL     1     -24.976  20.373 -39.716  1.00  0.00     0.022 A 
ATOM     16  C   UNL     1     -24.599  21.177 -40.798  1.00  0.00     0.047 A 
BRANCH  14  17
ATOM     17  O   UNL     1     -23.461  21.458 -42.905  1.00  0.00    -0.508 OA
ATOM     18  H   UNL     1     -23.051  22.374 -42.759  1.00  0.00     0.293 HD
ENDBRANCH  14  17
ENDBRANCH   1  11
BRANCH  10  19
ATOM     19  O   UNL     1     -23.981  19.618 -36.865  1.00  0.00    -0.500 OA
ATOM     20  H   UNL     1     -23.913  19.948 -35.909  1.00  0.00     0.294 HD
ENDBRANCH  10  19
BRANCH   5  21
ATOM     21  O   UNL     1     -27.790  12.905 -37.738  1.00  0.00    -0.507 OA
ATOM     22  H   UNL     1     -28.761  12.916 -38.025  1.00  0.00     0.293 HD
ENDBRANCH   5  21
BRANCH   7  23
ATOM     23  O   UNL     1     -26.106  15.658 -34.183  1.00  0.00    -0.507 OA
ATOM     24  H   UNL     1     -26.384  16.486 -33.678  1.00  0.00     0.293 HD
ENDBRANCH   7  23
TORSDOF 5
ENDMDL
MODEL 3
REMARK VINA RESULT:    -6.746      1.542      2.755
REMARK INTER + INTRA:          -8.241
REMARK INTER:                  -8.036
REMARK INTRA:                  -0.205
REMARK UNBOUND:                -0.312
REMARK SMILES Oc1ccc(-c2[o+]c3cc(O)cc(O)c3cc2O)cc1
REMARK SMILES IDX 6 1 7 2 8 3 9 4 10 5 12 6 13 7 15 8 16 9 17 10 5 11 4 12
REMARK SMILES IDX 3 13 2 14 19 15 20 16 1 17 18 19 11 21 14 23
REMARK H PARENT 1 18 18 20 11 22 14 24
REMARK Flexibility Score: inf
ROOT
ATOM      1  C   UNL     1     -19.041  12.430 -34.252  1.00  0.00     0.401 A 
ATOM      2  O   UNL     1     -18.692  12.242 -35.523  1.00  0.00    -0.202 OA
ATOM      3  C   UNL     1     -19.558  11.924 -36.478  1.00  0.00     0.368 A 
ATOM      4  C   UNL     1     -19.095  11.750 -37.785  1.00  0.00     0.162 A 
ATOM      5  C   UNL     1     -19.986  11.417 -38.811  1.00  0.00     0.128 A 
ATOM      6  C   UNL     1     -21.344  11.259 -38.527  1.00  0.00     0.093 A 
ATOM      7  C   UNL     1     -21.834  11.429 -37.226  1.00  0.00     0.136 A 
ATOM      8  C   UNL     1     -20.933  11.764 -36.182  1.00  0.00     0.125 A 
ATOM      9  C   UNL     1     -21.332  11.939 -34.846  1.00  0.00     0.078 A 
ATOM     10  C   UNL     1     -20.385  12.265 -33.870  1.00  0.00     0.223 A 
ENDROOT
BRANCH   1  11
ATOM     11  C   UNL     1     -17.984  12.793 -33.281  1.00  0.00     0.084 A 
ATOM     12  C   UNL     1     -16.930  11.896 -33.041  1.00  0.00     0.022 A 
ATOM     13  C   UNL     1     -15.909  12.226 -32.145  1.00  0.00     0.047 A 
ATOM     14  C   UNL     1     -15.922  13.464 -31.488  1.00  0.00     0.115 A 
ATOM     15  C   UNL     1     -17.980  14.041 -32.633  1.00  0.00     0.022 A 
ATOM     16  C   UNL     1     -16.957  14.370 -31.738  1.00  0.00     0.047 A 
BRANCH  14  17
ATOM     17  O   UNL     1     -14.910  13.803 -30.593  1.00  0.00    -0.508 OA
ATOM     18  H   UNL     1     -14.228  13.121 -30.280  1.00  0.00     0.293 HD
ENDBRANCH  14  17
ENDBRANCH   1  11
BRANCH  10  19
ATOM     19  O   UNL     1     -20.773  12.391 -32.535  1.00  0.00    -0.500 OA
ATOM     20  H   UNL     1     -20.148  12.769 -31.833  1.00  0.00     0.294 HD
ENDBRANCH  10  19
BRANCH   5  21
ATOM     21  O   UNL     1     -19.531  11.242 -40.116  1.00  0.00    -0.507 OA
ATOM     22  H   UNL     1     -20.115  10.822 -40.829  1.00  0.00     0.293 HD
ENDBRANCH   5  21
BRANCH   7  23
ATOM     23  O   UNL     1     -23.206  11.257 -37.028  1.00  0.00    -0.507 OA
ATOM     24  H   UNL     1     -23.717  11.615 -36.233  1.00  0.00     0.293 HD
ENDBRANCH   7  23
TORSDOF 5
ENDMDL
MODEL 4
REMARK VINA RESULT:    -6.542      9.057     11.325
REMARK INTER + INTRA:          -8.002
REMARK INTER:                  -7.769
REMARK INTRA:                  -0.233
REMARK UNBOUND:                -0.312
REMARK SMILES Oc1ccc(-c2[o+]c3cc(O)cc(O)c3cc2O)cc1
REMARK SMILES IDX 6 1 7 2 8 3 9 4 10 5 12 6 13 7 15 8 16 9 17 10 5 11 4 12
REMARK SMILES IDX 3 13 2 14 19 15 20 16 1 17 18 19 11 21 14 23
REMARK H PARENT 1 18 18 20 11 22 14 24
REMARK Flexibility Score: inf
ROOT
ATOM      1  C   UNL     1     -24.791  17.777 -38.376  1.00  0.00     0.401 A 
ATOM      2  O   UNL     1     -24.751  18.333 -39.585  1.00  0.00    -0.202 OA
ATOM      3  C   UNL     1     -24.090  19.454 -39.851  1.00  0.00     0.368 A 
ATOM      4  C   UNL     1     -24.106  19.960 -41.154  1.00  0.00     0.162 A 
ATOM      5  C   UNL     1     -23.416  21.137 -41.462  1.00  0.00     0.128 A 
ATOM      6  C   UNL     1     -22.708  21.809 -40.464  1.00  0.00     0.093 A 
ATOM      7  C   UNL     1     -22.677  21.323 -39.151  1.00  0.00     0.136 A 
ATOM      8  C   UNL     1     -23.377  20.130 -38.832  1.00  0.00     0.125 A 
ATOM      9  C   UNL     1     -23.412  19.578 -37.542  1.00  0.00     0.078 A 
ATOM     10  C   UNL     1     -24.129  18.401 -37.303  1.00  0.00     0.223 A 
ENDROOT
BRANCH   1  11
ATOM     11  C   UNL     1     -25.554  16.519 -38.208  1.00  0.00     0.084 A 
ATOM     12  C   UNL     1     -26.800  16.549 -37.560  1.00  0.00     0.022 A 
ATOM     13  C   UNL     1     -27.548  15.378 -37.409  1.00  0.00     0.047 A 
ATOM     14  C   UNL     1     -27.066  14.164 -37.918  1.00  0.00     0.115 A 
ATOM     15  C   UNL     1     -25.085  15.301 -38.733  1.00  0.00     0.022 A 
ATOM     16  C   UNL     1     -25.836  14.131 -38.581  1.00  0.00     0.047 A 
BRANCH  14  17
ATOM     17  O   UNL     1     -27.802  12.991 -37.772  1.00  0.00    -0.508 OA
ATOM     18  H   UNL     1     -27.362  12.119 -37.500  1.00  0.00     0.293 HD
ENDBRANCH  14  17
ENDBRANCH   1  11
BRANCH  10  19
ATOM     19  O   UNL     1     -24.205  17.879 -36.011  1.00  0.00    -0.500 OA
ATOM     20  H   UNL     1     -23.977  16.911 -35.813  1.00  0.00     0.294 HD
ENDBRANCH  10  19
BRANCH   5  21
ATOM     21  O   UNL     1     -23.428  21.646 -42.759  1.00  0.00    -0.507 OA
ATOM     22  H   UNL     1     -23.113  21.095 -43.548  1.00  0.00     0.293 HD
ENDBRANCH   5  21
BRANCH   7  23
ATOM     23  O   UNL     1     -21.941  22.053 -38.212  1.00  0.00    -0.507 OA
ATOM     24  H   UNL     1     -20.942  22.192 -38.255  1.00  0.00     0.293 HD
ENDBRANCH   7  23
TORSDOF 5
ENDMDL
MODEL 5
REMARK VINA RESULT:    -6.465      2.033      3.108
REMARK INTER + INTRA:          -7.910
REMARK INTER:                  -7.634
REMARK INTRA:                  -0.276
REMARK UNBOUND:                -0.312
REMARK SMILES Oc1ccc(-c2[o+]c3cc(O)cc(O)c3cc2O)cc1
REMARK SMILES IDX 6 1 7 2 8 3 9 4 10 5 12 6 13 7 15 8 16 9 17 10 5 11 4 12
REMARK SMILES IDX 3 13 2 14 19 15 20 16 1 17 18 19 11 21 14 23
REMARK H PARENT 1 18 18 20 11 22 14 24
REMARK Flexibility Score: inf
ROOT
ATOM      1  C   UNL     1     -19.388  11.060 -35.958  1.00  0.00     0.401 A 
ATOM      2  O   UNL     1     -20.034  12.058 -36.557  1.00  0.00    -0.202 OA
ATOM      3  C   UNL     1     -20.930  11.873 -37.520  1.00  0.00     0.368 A 
ATOM      4  C   UNL     1     -21.558  12.985 -38.087  1.00  0.00     0.162 A 
ATOM      5  C   UNL     1     -22.508  12.818 -39.100  1.00  0.00     0.128 A 
ATOM      6  C   UNL     1     -22.831  11.535 -39.545  1.00  0.00     0.093 A 
ATOM      7  C   UNL     1     -22.216  10.404 -38.993  1.00  0.00     0.136 A 
ATOM      8  C   UNL     1     -21.250  10.568 -37.967  1.00  0.00     0.125 A 
ATOM      9  C   UNL     1     -20.573   9.494 -37.366  1.00  0.00     0.078 A 
ATOM     10  C   UNL     1     -19.629   9.734 -36.363  1.00  0.00     0.223 A 
ENDROOT
BRANCH   1  11
ATOM     11  C   UNL     1     -18.418  11.394 -34.890  1.00  0.00     0.084 A 
ATOM     12  C   UNL     1     -17.045  11.414 -35.186  1.00  0.00     0.022 A 
ATOM     13  C   UNL     1     -16.112  11.747 -34.199  1.00  0.00     0.047 A 
ATOM     14  C   UNL     1     -16.543  12.081 -32.908  1.00  0.00     0.115 A 
ATOM     15  C   UNL     1     -18.844  11.750 -33.597  1.00  0.00     0.022 A 
ATOM     16  C   UNL     1     -17.909  12.084 -32.612  1.00  0.00     0.047 A 
BRANCH  14  17
ATOM     17  O   UNL     1     -15.623  12.415 -31.917  1.00  0.00    -0.508 OA
ATOM     18  H   UNL     1     -15.674  13.298 -31.421  1.00  0.00     0.293 HD
ENDBRANCH  14  17
ENDBRANCH   1  11
BRANCH  10  19
ATOM     19  O   UNL     1     -18.921   8.672 -35.800  1.00  0.00    -0.500 OA
ATOM     20  H   UNL     1     -18.140   8.239 -36.278  1.00  0.00     0.294 HD
ENDBRANCH  10  19
BRANCH   5  21
ATOM     21  O   UNL     1     -23.138  13.923 -39.669  1.00  0.00    -0.507 OA
ATOM     22  H   UNL     1     -22.740  14.409 -40.463  1.00  0.00     0.293 HD
ENDBRANCH   5  21
BRANCH   7  23
ATOM     23  O   UNL     1     -22.598   9.156 -39.493  1.00  0.00    -0.507 OA
ATOM     24  H   UNL     1     -22.989   9.005 -40.412  1.00  0.00     0.293 HD
ENDBRANCH   7  23
TORSDOF 5
ENDMDL
MODEL 6
REMARK VINA RESULT:    -6.430      8.587     10.246
REMARK INTER + INTRA:          -7.870
REMARK INTER:                  -7.642
REMARK INTRA:                  -0.228
REMARK UNBOUND:                -0.312
REMARK SMILES Oc1ccc(-c2[o+]c3cc(O)cc(O)c3cc2O)cc1
REMARK SMILES IDX 6 1 7 2 8 3 9 4 10 5 12 6 13 7 15 8 16 9 17 10 5 11 4 12
REMARK SMILES IDX 3 13 2 14 19 15 20 16 1 17 18 19 11 21 14 23
REMARK H PARENT 1 18 18 20 11 22 14 24
REMARK Flexibility Score: inf
ROOT
ATOM      1  C   UNL     1     -25.155  17.272 -37.510  1.00  0.00     0.401 A 
ATOM      2  O   UNL     1     -23.886  17.605 -37.739  1.00  0.00    -0.202 OA
ATOM      3  C   UNL     1     -23.514  18.450 -38.694  1.00  0.00     0.368 A 
ATOM      4  C   UNL     1     -22.156  18.738 -38.854  1.00  0.00     0.162 A 
ATOM      5  C   UNL     1     -21.737  19.627 -39.850  1.00  0.00     0.128 A 
ATOM      6  C   UNL     1     -22.679  20.228 -40.686  1.00  0.00     0.093 A 
ATOM      7  C   UNL     1     -24.046  19.956 -40.545  1.00  0.00     0.136 A 
ATOM      8  C   UNL     1     -24.476  19.053 -39.538  1.00  0.00     0.125 A 
ATOM      9  C   UNL     1     -25.823  18.711 -39.334  1.00  0.00     0.078 A 
ATOM     10  C   UNL     1     -26.170  17.809 -38.323  1.00  0.00     0.223 A 
ENDROOT
BRANCH   1  11
ATOM     11  C   UNL     1     -25.444  16.327 -36.408  1.00  0.00     0.084 A 
ATOM     12  C   UNL     1     -25.358  16.770 -35.078  1.00  0.00     0.022 A 
ATOM     13  C   UNL     1     -25.647  15.901 -34.022  1.00  0.00     0.047 A 
ATOM     14  C   UNL     1     -26.041  14.581 -34.283  1.00  0.00     0.115 A 
ATOM     15  C   UNL     1     -25.859  15.007 -36.664  1.00  0.00     0.022 A 
ATOM     16  C   UNL     1     -26.149  14.140 -35.605  1.00  0.00     0.047 A 
BRANCH  14  17
ATOM     17  O   UNL     1     -26.332  13.707 -33.239  1.00  0.00    -0.508 OA
ATOM     18  H   UNL     1     -27.285  13.443 -33.018  1.00  0.00     0.293 HD
ENDBRANCH  14  17
ENDBRANCH   1  11
BRANCH  10  19
ATOM     19  O   UNL     1     -27.503  17.431 -38.151  1.00  0.00    -0.500 OA
ATOM     20  H   UNL     1     -27.879  16.594 -38.582  1.00  0.00     0.294 HD
ENDBRANCH  10  19
BRANCH   5  21
ATOM     21  O   UNL     1     -20.385  19.919 -40.015  1.00  0.00    -0.507 OA
ATOM     22  H   UNL     1     -20.074  20.829 -40.333  1.00  0.00     0.293 HD
ENDBRANCH   5  21
BRANCH   7  23
ATOM     23  O   UNL     1     -24.924  20.603 -41.420  1.00  0.00    -0.507 OA
ATOM     24  H   UNL     1     -25.692  21.189 -41.126  1.00  0.00     0.293 HD
ENDBRANCH   7  23
TORSDOF 5
ENDMDL
MODEL 7
REMARK VINA RESULT:    -6.385      1.929      6.699
REMARK INTER + INTRA:          -7.816
REMARK INTER:                  -7.505
REMARK INTRA:                  -0.311
REMARK UNBOUND:                -0.312
REMARK SMILES Oc1ccc(-c2[o+]c3cc(O)cc(O)c3cc2O)cc1
REMARK SMILES IDX 6 1 7 2 8 3 9 4 10 5 12 6 13 7 15 8 16 9 17 10 5 11 4 12
REMARK SMILES IDX 3 13 2 14 19 15 20 16 1 17 18 19 11 21 14 23
REMARK H PARENT 1 18 18 20 11 22 14 24
REMARK Flexibility Score: inf
ROOT
ATOM      1  C   UNL     1     -18.925  12.062 -35.742  1.00  0.00     0.401 A 
ATOM      2  O   UNL     1     -18.912  12.719 -34.585  1.00  0.00    -0.202 OA
ATOM      3  C   UNL     1     -17.834  12.820 -33.815  1.00  0.00     0.368 A 
ATOM      4  C   UNL     1     -17.919  13.534 -32.617  1.00  0.00     0.162 A 
ATOM      5  C   UNL     1     -16.799  13.658 -31.788  1.00  0.00     0.128 A 
ATOM      6  C   UNL     1     -15.590  13.066 -32.161  1.00  0.00     0.093 A 
ATOM      7  C   UNL     1     -15.479  12.345 -33.357  1.00  0.00     0.136 A 
ATOM      8  C   UNL     1     -16.614  12.215 -34.199  1.00  0.00     0.125 A 
ATOM      9  C   UNL     1     -16.598  11.500 -35.408  1.00  0.00     0.078 A 
ATOM     10  C   UNL     1     -17.758  11.410 -36.184  1.00  0.00     0.223 A 
ENDROOT
BRANCH   1  11
ATOM     11  C   UNL     1     -20.187  12.030 -36.516  1.00  0.00     0.084 A 
ATOM     12  C   UNL     1     -21.213  11.153 -36.128  1.00  0.00     0.022 A 
ATOM     13  C   UNL     1     -22.421  11.121 -36.831  1.00  0.00     0.047 A 
ATOM     14  C   UNL     1     -22.624  11.977 -37.921  1.00  0.00     0.115 A 
ATOM     15  C   UNL     1     -20.405  12.901 -37.599  1.00  0.00     0.022 A 
ATOM     16  C   UNL     1     -21.616  12.868 -38.300  1.00  0.00     0.047 A 
BRANCH  14  17
ATOM     17  O   UNL     1     -23.824  11.954 -38.629  1.00  0.00    -0.508 OA
ATOM     18  H   UNL     1     -24.719  11.946 -38.154  1.00  0.00     0.293 HD
ENDBRANCH  14  17
ENDBRANCH   1  11
BRANCH  10  19
ATOM     19  O   UNL     1     -17.757  10.659 -37.360  1.00  0.00    -0.500 OA
ATOM     20  H   UNL     1     -16.899  10.300 -37.762  1.00  0.00     0.294 HD
ENDBRANCH  10  19
BRANCH   5  21
ATOM     21  O   UNL     1     -16.877  14.368 -30.593  1.00  0.00    -0.507 OA
ATOM     22  H   UNL     1     -17.695  14.317 -29.998  1.00  0.00     0.293 HD
ENDBRANCH   5  21
BRANCH   7  23
ATOM     23  O   UNL     1     -14.233  11.788 -33.659  1.00  0.00    -0.507 OA
ATOM     24  H   UNL     1     -13.699  12.001 -34.489  1.00  0.00     0.293 HD
ENDBRANCH   7  23
TORSDOF 5
ENDMDL
MODEL 8
REMARK VINA RESULT:    -6.374      7.246      9.846
REMARK INTER + INTRA:          -7.803
REMARK INTER:                  -7.483
REMARK INTRA:                  -0.320
REMARK UNBOUND:                -0.312
REMARK SMILES Oc1ccc(-c2[o+]c3cc(O)cc(O)c3cc2O)cc1
REMARK SMILES IDX 6 1 7 2 8 3 9 4 10 5 12 6 13 7 15 8 16 9 17 10 5 11 4 12
REMARK SMILES IDX 3 13 2 14 19 15 20 16 1 17 18 19 11 21 14 23
REMARK H PARENT 1 18 18 20 11 22 14 24
REMARK Flexibility Score: inf
ROOT
ATOM      1  C   UNL     1     -24.024  15.157 -38.834  1.00  0.00     0.401 A 
ATOM      2  O   UNL     1     -24.076  16.049 -39.820  1.00  0.00    -0.202 OA
ATOM      3  C   UNL     1     -24.369  17.331 -39.629  1.00  0.00     0.368 A 
ATOM      4  C   UNL     1     -24.397  18.193 -40.729  1.00  0.00     0.162 A 
ATOM      5  C   UNL     1     -24.700  19.547 -40.556  1.00  0.00     0.128 A 
ATOM      6  C   UNL     1     -24.974  20.040 -39.279  1.00  0.00     0.093 A 
ATOM      7  C   UNL     1     -24.953  19.197 -38.160  1.00  0.00     0.136 A 
ATOM      8  C   UNL     1     -24.649  17.821 -38.331  1.00  0.00     0.125 A 
ATOM      9  C   UNL     1     -24.618  16.901 -37.271  1.00  0.00     0.078 A 
ATOM     10  C   UNL     1     -24.314  15.558 -37.517  1.00  0.00     0.223 A 
ENDROOT
BRANCH   1  11
ATOM     11  C   UNL     1     -23.676  13.758 -39.173  1.00  0.00     0.084 A 
ATOM     12  C   UNL     1     -24.670  12.901 -39.673  1.00  0.00     0.022 A 
ATOM     13  C   UNL     1     -24.359  11.582 -40.020  1.00  0.00     0.047 A 
ATOM     14  C   UNL     1     -23.047  11.109 -39.886  1.00  0.00     0.115 A 
ATOM     15  C   UNL     1     -22.357  13.282 -39.059  1.00  0.00     0.022 A 
ATOM     16  C   UNL     1     -22.048  11.963 -39.408  1.00  0.00     0.047 A 
BRANCH  14  17
ATOM     17  O   UNL     1     -22.726   9.798 -40.228  1.00  0.00    -0.508 OA
ATOM     18  H   UNL     1     -22.163   9.214 -39.620  1.00  0.00     0.293 HD
ENDBRANCH  14  17
ENDBRANCH   1  11
BRANCH  10  19
ATOM     19  O   UNL     1     -24.332  14.634 -36.472  1.00  0.00    -0.500 OA
ATOM     20  H   UNL     1     -24.430  14.924 -35.506  1.00  0.00     0.294 HD
ENDBRANCH  10  19
BRANCH   5  21
ATOM     21  O   UNL     1     -24.729  20.412 -41.648  1.00  0.00    -0.507 OA
ATOM     22  H   UNL     1     -24.543  20.085 -42.588  1.00  0.00     0.293 HD
ENDBRANCH   5  21
BRANCH   7  23
ATOM     23  O   UNL     1     -25.235  19.770 -36.917  1.00  0.00    -0.507 OA
ATOM     24  H   UNL     1     -26.041  20.348 -36.725  1.00  0.00     0.293 HD
ENDBRANCH   7  23
TORSDOF 5
ENDMDL
MODEL 9
REMARK VINA RESULT:    -6.290      1.641      6.994
REMARK INTER + INTRA:          -7.705
REMARK INTER:                  -7.384
REMARK INTRA:                  -0.321
REMARK UNBOUND:                -0.312
REMARK SMILES Oc1ccc(-c2[o+]c3cc(O)cc(O)c3cc2O)cc1
REMARK SMILES IDX 6 1 7 2 8 3 9 4 10 5 12 6 13 7 15 8 16 9 17 10 5 11 4 12
REMARK SMILES IDX 3 13 2 14 19 15 20 16 1 17 18 19 11 21 14 23
REMARK H PARENT 1 18 18 20 11 22 14 24
REMARK Flexibility Score: inf
ROOT
ATOM      1  C   UNL     1     -19.408  11.911 -35.236  1.00  0.00     0.401 A 
ATOM      2  O   UNL     1     -18.102  11.659 -35.177  1.00  0.00    -0.202 OA
ATOM      3  C   UNL     1     -17.309  12.137 -34.225  1.00  0.00     0.368 A 
ATOM      4  C   UNL     1     -15.950  11.812 -34.246  1.00  0.00     0.162 A 
ATOM      5  C   UNL     1     -15.092  12.300 -33.254  1.00  0.00     0.128 A 
ATOM      6  C   UNL     1     -15.598  13.113 -32.238  1.00  0.00     0.093 A 
ATOM      7  C   UNL     1     -16.956  13.452 -32.193  1.00  0.00     0.136 A 
ATOM      8  C   UNL     1     -17.829  12.962 -33.199  1.00  0.00     0.125 A 
ATOM      9  C   UNL     1     -19.201  13.261 -33.242  1.00  0.00     0.078 A 
ATOM     10  C   UNL     1     -19.998  12.745 -34.269  1.00  0.00     0.223 A 
ENDROOT
BRANCH   1  11
ATOM     11  C   UNL     1     -20.188  11.311 -36.342  1.00  0.00     0.084 A 
ATOM     12  C   UNL     1     -20.242  11.966 -37.584  1.00  0.00     0.022 A 
ATOM     13  C   UNL     1     -20.956  11.408 -38.649  1.00  0.00     0.047 A 
ATOM     14  C   UNL     1     -21.611  10.179 -38.490  1.00  0.00     0.115 A 
ATOM     15  C   UNL     1     -20.832  10.069 -36.196  1.00  0.00     0.022 A 
ATOM     16  C   UNL     1     -21.544   9.512 -37.263  1.00  0.00     0.047 A 
BRANCH  14  17
ATOM     17  O   UNL     1     -22.325   9.614 -39.543  1.00  0.00    -0.508 OA
ATOM     18  H   UNL     1     -23.061  10.123 -40.019  1.00  0.00     0.293 HD
ENDBRANCH  14  17
ENDBRANCH   1  11
BRANCH  10  19
ATOM     19  O   UNL     1     -21.351  13.082 -34.340  1.00  0.00    -0.500 OA
ATOM     20  H   UNL     1     -21.779  13.708 -33.669  1.00  0.00     0.294 HD
ENDBRANCH  10  19
BRANCH   5  21
ATOM     21  O   UNL     1     -13.737  11.981 -33.270  1.00  0.00    -0.507 OA
ATOM     22  H   UNL     1     -13.055  12.538 -32.769  1.00  0.00     0.293 HD
ENDBRANCH   5  21
BRANCH   7  23
ATOM     23  O   UNL     1     -17.381  14.267 -31.140  1.00  0.00    -0.507 OA
ATOM     24  H   UNL     1     -18.154  14.915 -31.197  1.00  0.00     0.293 HD
ENDBRANCH   7  23
TORSDOF 5
ENDMDL
