MODEL 1
REMARK VINA RESULT:    -5.424      0.000      0.000
REMARK INTER + INTRA:          -9.488
REMARK INTER:                  -7.485
REMARK INTRA:                  -2.003
REMARK UNBOUND:                -2.003
REMARK SMILES CC[C@@H](CC[C@@H](C)[C@H]1CC[C@@H]2[C@@H]3CC=C4C[C@H](O)CC[C@@]4(C)[C@@H]3CC[C@@]21C)C(C)C
REMARK SMILES IDX 5 1 4 2 3 3 2 4 1 5 28 6 29 7 30 8 6 9 7 10 8 11 9 12 26 13
REMARK SMILES IDX 10 14 11 15 25 16 27 17 12 18 24 19 23 20 13 21 21 22 14 23
REMARK SMILES IDX 15 24 20 25 22 26 16 27 19 28 17 29 18 30
REMARK H PARENT 18 31
REMARK Flexibility Score: inf
ROOT
ATOM      1  C   UNL     1      42.088  12.117  29.172  1.00  0.00     0.004 C 
ENDROOT
BRANCH   1   2
ATOM      2  C   UNL     1      43.595  11.776  29.137  1.00  0.00     0.004 C 
BRANCH   2   3
ATOM      3  C   UNL     1      43.942  10.346  29.656  1.00  0.00    -0.009 C 
BRANCH   3   4
ATOM      4  C   UNL     1      44.982  10.376  30.815  1.00  0.00     0.000 C 
ATOM      5  C   UNL     1      44.715  11.453  31.870  1.00  0.00     0.004 C 
ENDBRANCH   3   4
BRANCH   3   6
ATOM      6  C   UNL     1      44.385   9.362  28.515  1.00  0.00    -0.014 C 
ATOM      7  C   UNL     1      44.273  10.007  27.119  1.00  0.00     0.007 C 
ATOM      8  C   UNL     1      45.827   8.854  28.709  1.00  0.00     0.007 C 
ENDBRANCH   3   6
ENDBRANCH   2   3
ENDBRANCH   1   2
BRANCH   1   9
ATOM      9  C   UNL     1      41.189  10.915  29.598  1.00  0.00    -0.011 C 
ATOM     10  C   UNL     1      40.445  11.284  30.902  1.00  0.00     0.008 C 
BRANCH   9  11
ATOM     11  C   UNL     1      40.168  10.516  28.465  1.00  0.00    -0.002 C 
ATOM     12  C   UNL     1      40.576  11.019  27.076  1.00  0.00     0.005 C 
ATOM     13  C   UNL     1      39.843   8.980  28.255  1.00  0.00    -0.026 C 
ATOM     14  C   UNL     1      39.787  10.182  26.096  1.00  0.00     0.005 C 
ATOM     15  C   UNL     1      39.799   8.783  26.698  1.00  0.00    -0.001 C 
ATOM     16  C   UNL     1      38.473   8.629  28.921  1.00  0.00     0.007 C 
ATOM     17  C   UNL     1      40.937   8.030  28.813  1.00  0.00     0.012 C 
ATOM     18  C   UNL     1      38.690   7.810  26.177  1.00  0.00     0.000 C 
ATOM     19  C   UNL     1      37.278   8.957  28.019  1.00  0.00     0.005 C 
ATOM     20  C   UNL     1      37.260   8.007  26.803  1.00  0.00     0.003 C 
ATOM     21  C   UNL     1      38.695   7.682  24.634  1.00  0.00     0.031 C 
ATOM     22  C   UNL     1      36.096   8.263  25.767  1.00  0.00    -0.008 C 
ATOM     23  C   UNL     1      37.474   6.962  24.139  1.00  0.00    -0.027 C 
ATOM     24  C   UNL     1      36.252   7.248  24.629  1.00  0.00    -0.065 C 
ATOM     25  C   UNL     1      34.717   8.030  26.461  1.00  0.00     0.014 C 
ATOM     26  C   UNL     1      36.116   9.700  25.189  1.00  0.00     0.016 C 
ATOM     27  C   UNL     1      35.072   6.402  24.199  1.00  0.00     0.063 C 
ATOM     28  C   UNL     1      33.518   7.987  25.490  1.00  0.00     0.033 C 
ATOM     29  C   UNL     1      33.783   7.233  24.164  1.00  0.00     0.118 C 
BRANCH  29  30
ATOM     30  O   UNL     1      33.854   8.153  23.102  1.00  0.00    -0.393 OA
ATOM     31  H   UNL     1      33.182   7.879  22.425  1.00  0.00     0.210 HD
ENDBRANCH  29  30
ENDBRANCH   9  11
ENDBRANCH   1   9
TORSDOF 7
ENDMDL
MODEL 2
REMARK VINA RESULT:    -5.393     16.872     19.680
REMARK INTER + INTRA:          -9.444
REMARK INTER:                  -7.256
REMARK INTRA:                  -2.189
REMARK UNBOUND:                -2.003
REMARK SMILES CC[C@@H](CC[C@@H](C)[C@H]1CC[C@@H]2[C@@H]3CC=C4C[C@H](O)CC[C@@]4(C)[C@@H]3CC[C@@]21C)C(C)C
REMARK SMILES IDX 5 1 4 2 3 3 2 4 1 5 28 6 29 7 30 8 6 9 7 10 8 11 9 12 26 13
REMARK SMILES IDX 10 14 11 15 25 16 27 17 12 18 24 19 23 20 13 21 21 22 14 23
REMARK SMILES IDX 15 24 20 25 22 26 16 27 19 28 17 29 18 30
REMARK H PARENT 18 31
REMARK Flexibility Score: inf
ROOT
ATOM      1  C   UNL     1      29.782  13.468  40.765  1.00  0.00     0.004 C 
ENDROOT
BRANCH   1   2
ATOM      2  C   UNL     1      28.349  13.101  40.315  1.00  0.00     0.004 C 
BRANCH   2   3
ATOM      3  C   UNL     1      27.308  14.250  40.486  1.00  0.00    -0.009 C 
BRANCH   3   4
ATOM      4  C   UNL     1      26.193  13.887  41.511  1.00  0.00     0.000 C 
ATOM      5  C   UNL     1      26.226  14.721  42.795  1.00  0.00     0.004 C 
ENDBRANCH   3   4
BRANCH   3   6
ATOM      6  C   UNL     1      26.696  14.742  39.126  1.00  0.00    -0.014 C 
ATOM      7  C   UNL     1      27.724  15.516  38.276  1.00  0.00     0.007 C 
ATOM      8  C   UNL     1      26.137  13.579  38.283  1.00  0.00     0.007 C 
ENDBRANCH   3   6
ENDBRANCH   2   3
ENDBRANCH   1   2
BRANCH   1   9
ATOM      9  C   UNL     1      29.833  14.675  41.751  1.00  0.00    -0.011 C 
ATOM     10  C   UNL     1      30.343  14.179  43.123  1.00  0.00     0.008 C 
BRANCH   9  11
ATOM     11  C   UNL     1      30.741  15.842  41.204  1.00  0.00    -0.002 C 
ATOM     12  C   UNL     1      31.198  15.627  39.757  1.00  0.00     0.005 C 
ATOM     13  C   UNL     1      30.164  17.317  41.228  1.00  0.00    -0.026 C 
ATOM     14  C   UNL     1      31.629  16.989  39.264  1.00  0.00     0.005 C 
ATOM     15  C   UNL     1      30.607  17.949  39.860  1.00  0.00    -0.001 C 
ATOM     16  C   UNL     1      30.752  18.101  42.445  1.00  0.00     0.007 C 
ATOM     17  C   UNL     1      28.612  17.378  41.286  1.00  0.00     0.012 C 
ATOM     18  C   UNL     1      31.042  19.450  39.926  1.00  0.00     0.000 C 
ATOM     19  C   UNL     1      32.132  18.697  42.150  1.00  0.00     0.005 C 
ATOM     20  C   UNL     1      32.006  19.830  41.109  1.00  0.00     0.003 C 
ATOM     21  C   UNL     1      31.484  19.997  38.546  1.00  0.00     0.031 C 
ATOM     22  C   UNL     1      33.367  20.508  40.684  1.00  0.00    -0.008 C 
ATOM     23  C   UNL     1      32.140  21.342  38.674  1.00  0.00    -0.027 C 
ATOM     24  C   UNL     1      33.047  21.584  39.640  1.00  0.00    -0.065 C 
ATOM     25  C   UNL     1      34.021  21.193  41.925  1.00  0.00     0.014 C 
ATOM     26  C   UNL     1      34.380  19.495  40.093  1.00  0.00     0.016 C 
ATOM     27  C   UNL     1      33.577  22.991  39.813  1.00  0.00     0.063 C 
ATOM     28  C   UNL     1      35.214  22.112  41.586  1.00  0.00     0.033 C 
ATOM     29  C   UNL     1      35.027  22.975  40.314  1.00  0.00     0.118 C 
BRANCH  29  30
ATOM     30  O   UNL     1      35.866  22.496  39.290  1.00  0.00    -0.393 OA
ATOM     31  H   UNL     1      36.007  23.241  38.649  1.00  0.00     0.210 HD
ENDBRANCH  29  30
ENDBRANCH   9  11
ENDBRANCH   1   9
TORSDOF 7
ENDMDL
MODEL 3
REMARK VINA RESULT:    -5.377     10.296     13.624
REMARK INTER + INTRA:          -9.423
REMARK INTER:                  -7.811
REMARK INTRA:                  -1.613
REMARK UNBOUND:                -2.003
REMARK SMILES CC[C@@H](CC[C@@H](C)[C@H]1CC[C@@H]2[C@@H]3CC=C4C[C@H](O)CC[C@@]4(C)[C@@H]3CC[C@@]21C)C(C)C
REMARK SMILES IDX 5 1 4 2 3 3 2 4 1 5 28 6 29 7 30 8 6 9 7 10 8 11 9 12 26 13
REMARK SMILES IDX 10 14 11 15 25 16 27 17 12 18 24 19 23 20 13 21 21 22 14 23
REMARK SMILES IDX 15 24 20 25 22 26 16 27 19 28 17 29 18 30
REMARK H PARENT 18 31
REMARK Flexibility Score: inf
ROOT
ATOM      1  C   UNL     1      38.616   8.959  41.030  1.00  0.00     0.004 C 
ENDROOT
BRANCH   1   2
ATOM      2  C   UNL     1      38.720   7.593  41.745  1.00  0.00     0.004 C 
BRANCH   2   3
ATOM      3  C   UNL     1      38.839   6.372  40.781  1.00  0.00    -0.009 C 
BRANCH   3   4
ATOM      4  C   UNL     1      37.452   5.750  40.443  1.00  0.00     0.000 C 
ATOM      5  C   UNL     1      36.326   6.178  41.388  1.00  0.00     0.004 C 
ENDBRANCH   3   4
BRANCH   3   6
ATOM      6  C   UNL     1      39.849   5.279  41.285  1.00  0.00    -0.014 C 
ATOM      7  C   UNL     1      41.247   5.868  41.563  1.00  0.00     0.007 C 
ATOM      8  C   UNL     1      39.352   4.569  42.559  1.00  0.00     0.007 C 
ENDBRANCH   3   6
ENDBRANCH   2   3
ENDBRANCH   1   2
BRANCH   1   9
ATOM      9  C   UNL     1      38.938   8.889  39.506  1.00  0.00    -0.011 C 
ATOM     10  C   UNL     1      37.623   9.048  38.708  1.00  0.00     0.008 C 
BRANCH   9  11
ATOM     11  C   UNL     1      39.989   9.984  39.078  1.00  0.00    -0.002 C 
ATOM     12  C   UNL     1      40.520  10.809  40.255  1.00  0.00     0.005 C 
ATOM     13  C   UNL     1      41.286   9.515  38.299  1.00  0.00    -0.026 C 
ATOM     14  C   UNL     1      41.798  11.443  39.759  1.00  0.00     0.005 C 
ATOM     15  C   UNL     1      42.458  10.357  38.918  1.00  0.00    -0.001 C 
ATOM     16  C   UNL     1      41.120   9.792  36.770  1.00  0.00     0.007 C 
ATOM     17  C   UNL     1      41.630   8.015  38.509  1.00  0.00     0.012 C 
ATOM     18  C   UNL     1      43.539  10.849  37.900  1.00  0.00     0.000 C 
ATOM     19  C   UNL     1      41.472  11.234  36.391  1.00  0.00     0.005 C 
ATOM     20  C   UNL     1      42.987  11.470  36.565  1.00  0.00     0.003 C 
ATOM     21  C   UNL     1      44.649  11.689  38.579  1.00  0.00     0.031 C 
ATOM     22  C   UNL     1      43.481  12.936  36.243  1.00  0.00    -0.008 C 
ATOM     23  C   UNL     1      45.523  12.366  37.563  1.00  0.00    -0.027 C 
ATOM     24  C   UNL     1      44.992  12.984  36.490  1.00  0.00    -0.065 C 
ATOM     25  C   UNL     1      43.207  13.263  34.741  1.00  0.00     0.014 C 
ATOM     26  C   UNL     1      42.777  14.007  37.114  1.00  0.00     0.016 C 
ATOM     27  C   UNL     1      45.918  13.532  35.425  1.00  0.00     0.063 C 
ATOM     28  C   UNL     1      43.883  14.557  34.242  1.00  0.00     0.033 C 
ATOM     29  C   UNL     1      45.322  14.783  34.768  1.00  0.00     0.118 C 
BRANCH  29  30
ATOM     30  O   UNL     1      45.325  15.840  35.697  1.00  0.00    -0.393 OA
ATOM     31  H   UNL     1      44.540  16.414  35.498  1.00  0.00     0.210 HD
ENDBRANCH  29  30
ENDBRANCH   9  11
ENDBRANCH   1   9
TORSDOF 7
ENDMDL
MODEL 4
REMARK VINA RESULT:    -5.319      1.408      3.626
REMARK INTER + INTRA:          -9.343
REMARK INTER:                  -7.629
REMARK INTRA:                  -1.714
REMARK UNBOUND:                -2.003
REMARK SMILES CC[C@@H](CC[C@@H](C)[C@H]1CC[C@@H]2[C@@H]3CC=C4C[C@H](O)CC[C@@]4(C)[C@@H]3CC[C@@]21C)C(C)C
REMARK SMILES IDX 5 1 4 2 3 3 2 4 1 5 28 6 29 7 30 8 6 9 7 10 8 11 9 12 26 13
REMARK SMILES IDX 10 14 11 15 25 16 27 17 12 18 24 19 23 20 13 21 21 22 14 23
REMARK SMILES IDX 15 24 20 25 22 26 16 27 19 28 17 29 18 30
REMARK H PARENT 18 31
REMARK Flexibility Score: inf
ROOT
ATOM      1  C   UNL     1      44.920   9.122  29.442  1.00  0.00     0.004 C 
ENDROOT
BRANCH   1   2
ATOM      2  C   UNL     1      45.481   9.815  30.705  1.00  0.00     0.004 C 
BRANCH   2   3
ATOM      3  C   UNL     1      44.973  11.275  30.915  1.00  0.00    -0.009 C 
BRANCH   3   4
ATOM      4  C   UNL     1      46.125  12.319  30.824  1.00  0.00     0.000 C 
ATOM      5  C   UNL     1      46.036  13.246  29.609  1.00  0.00     0.004 C 
ENDBRANCH   3   4
BRANCH   3   6
ATOM      6  C   UNL     1      44.137  11.459  32.232  1.00  0.00    -0.014 C 
ATOM      7  C   UNL     1      44.778  12.489  33.184  1.00  0.00     0.007 C 
ATOM      8  C   UNL     1      42.685  11.890  31.948  1.00  0.00     0.007 C 
ENDBRANCH   3   6
ENDBRANCH   2   3
ENDBRANCH   1   2
BRANCH   1   9
ATOM      9  C   UNL     1      44.107  10.079  28.518  1.00  0.00    -0.011 C 
ATOM     10  C   UNL     1      45.011  10.530  27.346  1.00  0.00     0.008 C 
BRANCH   9  11
ATOM     11  C   UNL     1      42.791   9.398  27.980  1.00  0.00    -0.002 C 
ATOM     12  C   UNL     1      42.303   8.242  28.859  1.00  0.00     0.005 C 
ATOM     13  C   UNL     1      41.512  10.305  27.762  1.00  0.00    -0.026 C 
ATOM     14  C   UNL     1      40.854   8.034  28.484  1.00  0.00     0.005 C 
ATOM     15  C   UNL     1      40.308   9.442  28.287  1.00  0.00    -0.001 C 
ATOM     16  C   UNL     1      41.355  10.655  26.247  1.00  0.00     0.007 C 
ATOM     17  C   UNL     1      41.534  11.621  28.587  1.00  0.00     0.012 C 
ATOM     18  C   UNL     1      38.992   9.550  27.449  1.00  0.00     0.000 C 
ATOM     19  C   UNL     1      40.646   9.549  25.458  1.00  0.00     0.005 C 
ATOM     20  C   UNL     1      39.167   9.459  25.888  1.00  0.00     0.003 C 
ATOM     21  C   UNL     1      37.859   8.657  28.014  1.00  0.00     0.031 C 
ATOM     22  C   UNL     1      38.326   8.327  25.176  1.00  0.00    -0.008 C 
ATOM     23  C   UNL     1      36.703   8.570  27.059  1.00  0.00    -0.027 C 
ATOM     24  C   UNL     1      36.902   8.378  25.741  1.00  0.00    -0.065 C 
ATOM     25  C   UNL     1      38.267   8.606  23.642  1.00  0.00     0.014 C 
ATOM     26  C   UNL     1      38.923   6.914  25.395  1.00  0.00     0.016 C 
ATOM     27  C   UNL     1      35.715   8.433  24.803  1.00  0.00     0.063 C 
ATOM     28  C   UNL     1      37.257   7.725  22.876  1.00  0.00     0.033 C 
ATOM     29  C   UNL     1      35.914   7.492  23.609  1.00  0.00     0.118 C 
BRANCH  29  30
ATOM     30  O   UNL     1      35.842   6.158  24.053  1.00  0.00    -0.393 OA
ATOM     31  H   UNL     1      35.629   6.179  25.023  1.00  0.00     0.210 HD
ENDBRANCH  29  30
ENDBRANCH   9  11
ENDBRANCH   1   9
TORSDOF 7
ENDMDL
MODEL 5
REMARK VINA RESULT:    -5.278     15.291     17.592
REMARK INTER + INTRA:          -9.286
REMARK INTER:                  -7.116
REMARK INTRA:                  -2.171
REMARK UNBOUND:                -2.003
REMARK SMILES CC[C@@H](CC[C@@H](C)[C@H]1CC[C@@H]2[C@@H]3CC=C4C[C@H](O)CC[C@@]4(C)[C@@H]3CC[C@@]21C)C(C)C
REMARK SMILES IDX 5 1 4 2 3 3 2 4 1 5 28 6 29 7 30 8 6 9 7 10 8 11 9 12 26 13
REMARK SMILES IDX 10 14 11 15 25 16 27 17 12 18 24 19 23 20 13 21 21 22 14 23
REMARK SMILES IDX 15 24 20 25 22 26 16 27 19 28 17 29 18 30
REMARK H PARENT 18 31
REMARK Flexibility Score: inf
ROOT
ATOM      1  C   UNL     1      36.521  20.153  39.317  1.00  0.00     0.004 C 
ENDROOT
BRANCH   1   2
ATOM      2  C   UNL     1      36.744  21.550  39.940  1.00  0.00     0.004 C 
BRANCH   2   3
ATOM      3  C   UNL     1      35.739  22.638  39.452  1.00  0.00    -0.009 C 
BRANCH   3   4
ATOM      4  C   UNL     1      36.433  23.743  38.602  1.00  0.00     0.000 C 
ATOM      5  C   UNL     1      37.695  23.273  37.873  1.00  0.00     0.004 C 
ENDBRANCH   3   4
BRANCH   3   6
ATOM      6  C   UNL     1      34.886  23.262  40.614  1.00  0.00    -0.014 C 
ATOM      7  C   UNL     1      33.724  24.124  40.080  1.00  0.00     0.007 C 
ATOM      8  C   UNL     1      34.307  22.187  41.555  1.00  0.00     0.007 C 
ENDBRANCH   3   6
ENDBRANCH   2   3
ENDBRANCH   1   2
BRANCH   1   9
ATOM      9  C   UNL     1      35.268  20.078  38.393  1.00  0.00    -0.011 C 
ATOM     10  C   UNL     1      35.718  19.675  36.969  1.00  0.00     0.008 C 
BRANCH   9  11
ATOM     11  C   UNL     1      34.191  19.068  38.946  1.00  0.00    -0.002 C 
ATOM     12  C   UNL     1      34.353  18.766  40.440  1.00  0.00     0.005 C 
ATOM     13  C   UNL     1      32.660  19.437  38.776  1.00  0.00    -0.026 C 
ATOM     14  C   UNL     1      33.026  18.196  40.883  1.00  0.00     0.005 C 
ATOM     15  C   UNL     1      31.989  19.026  40.136  1.00  0.00    -0.001 C 
ATOM     16  C   UNL     1      32.051  18.649  37.571  1.00  0.00     0.007 C 
ATOM     17  C   UNL     1      32.403  20.955  38.572  1.00  0.00     0.012 C 
ATOM     18  C   UNL     1      30.567  18.388  40.016  1.00  0.00     0.000 C 
ATOM     19  C   UNL     1      31.618  17.230  37.954  1.00  0.00     0.005 C 
ATOM     20  C   UNL     1      30.404  17.287  38.904  1.00  0.00     0.003 C 
ATOM     21  C   UNL     1      29.980  17.991  41.393  1.00  0.00     0.031 C 
ATOM     22  C   UNL     1      29.877  15.886  39.409  1.00  0.00    -0.008 C 
ATOM     23  C   UNL     1      28.744  17.151  41.241  1.00  0.00    -0.027 C 
ATOM     24  C   UNL     1      28.694  16.143  40.349  1.00  0.00    -0.065 C 
ATOM     25  C   UNL     1      29.378  15.045  38.193  1.00  0.00     0.014 C 
ATOM     26  C   UNL     1      30.966  15.073  40.153  1.00  0.00     0.016 C 
ATOM     27  C   UNL     1      27.385  15.414  40.137  1.00  0.00     0.063 C 
ATOM     28  C   UNL     1      28.598  13.771  38.581  1.00  0.00     0.033 C 
ATOM     29  C   UNL     1      27.626  13.944  39.773  1.00  0.00     0.118 C 
BRANCH  29  30
ATOM     30  O   UNL     1      28.131  13.265  40.898  1.00  0.00    -0.393 OA
ATOM     31  H   UNL     1      28.677  12.506  40.567  1.00  0.00     0.210 HD
ENDBRANCH  29  30
ENDBRANCH   9  11
ENDBRANCH   1   9
TORSDOF 7
ENDMDL
MODEL 6
REMARK VINA RESULT:    -5.249     10.545     13.471
REMARK INTER + INTRA:          -9.246
REMARK INTER:                  -7.690
REMARK INTRA:                  -1.557
REMARK UNBOUND:                -2.003
REMARK SMILES CC[C@@H](CC[C@@H](C)[C@H]1CC[C@@H]2[C@@H]3CC=C4C[C@H](O)CC[C@@]4(C)[C@@H]3CC[C@@]21C)C(C)C
REMARK SMILES IDX 5 1 4 2 3 3 2 4 1 5 28 6 29 7 30 8 6 9 7 10 8 11 9 12 26 13
REMARK SMILES IDX 10 14 11 15 25 16 27 17 12 18 24 19 23 20 13 21 21 22 14 23
REMARK SMILES IDX 15 24 20 25 22 26 16 27 19 28 17 29 18 30
REMARK H PARENT 18 31
REMARK Flexibility Score: inf
ROOT
ATOM      1  C   UNL     1      43.846  13.684  37.917  1.00  0.00     0.004 C 
ENDROOT
BRANCH   1   2
ATOM      2  C   UNL     1      45.162  13.925  38.693  1.00  0.00     0.004 C 
BRANCH   2   3
ATOM      3  C   UNL     1      44.981  14.690  40.040  1.00  0.00    -0.009 C 
BRANCH   3   4
ATOM      4  C   UNL     1      44.695  13.728  41.231  1.00  0.00     0.000 C 
ATOM      5  C   UNL     1      45.551  13.994  42.472  1.00  0.00     0.004 C 
ENDBRANCH   3   4
BRANCH   3   6
ATOM      6  C   UNL     1      43.913  15.839  39.964  1.00  0.00    -0.014 C 
ATOM      7  C   UNL     1      42.649  15.509  40.782  1.00  0.00     0.007 C 
ATOM      8  C   UNL     1      44.474  17.190  40.449  1.00  0.00     0.007 C 
ENDBRANCH   3   6
ENDBRANCH   2   3
ENDBRANCH   1   2
BRANCH   1   9
ATOM      9  C   UNL     1      43.693  12.224  37.392  1.00  0.00    -0.011 C 
ATOM     10  C   UNL     1      45.094  11.577  37.296  1.00  0.00     0.008 C 
BRANCH   9  11
ATOM     11  C   UNL     1      42.742  11.367  38.313  1.00  0.00    -0.002 C 
ATOM     12  C   UNL     1      41.857  12.217  39.230  1.00  0.00     0.005 C 
ATOM     13  C   UNL     1      41.744  10.350  37.621  1.00  0.00    -0.026 C 
ATOM     14  C   UNL     1      40.734  11.305  39.665  1.00  0.00     0.005 C 
ATOM     15  C   UNL     1      40.399  10.495  38.418  1.00  0.00    -0.001 C 
ATOM     16  C   UNL     1      42.315   8.898  37.708  1.00  0.00     0.007 C 
ATOM     17  C   UNL     1      41.441  10.689  36.135  1.00  0.00     0.012 C 
ATOM     18  C   UNL     1      39.619   9.162  38.663  1.00  0.00     0.000 C 
ATOM     19  C   UNL     1      42.000   8.221  39.046  1.00  0.00     0.005 C 
ATOM     20  C   UNL     1      40.486   7.944  39.154  1.00  0.00     0.003 C 
ATOM     21  C   UNL     1      38.317   9.381  39.473  1.00  0.00     0.031 C 
ATOM     22  C   UNL     1      40.018   7.280  40.508  1.00  0.00    -0.008 C 
ATOM     23  C   UNL     1      37.724   8.076  39.920  1.00  0.00    -0.027 C 
ATOM     24  C   UNL     1      38.497   7.103  40.441  1.00  0.00    -0.065 C 
ATOM     25  C   UNL     1      40.680   5.875  40.659  1.00  0.00     0.014 C 
ATOM     26  C   UNL     1      40.387   8.132  41.749  1.00  0.00     0.016 C 
ATOM     27  C   UNL     1      37.875   5.758  40.750  1.00  0.00     0.063 C 
ATOM     28  C   UNL     1      40.098   5.019  41.804  1.00  0.00     0.033 C 
ATOM     29  C   UNL     1      38.559   5.100  41.955  1.00  0.00     0.118 C 
BRANCH  29  30
ATOM     30  O   UNL     1      38.235   5.819  43.121  1.00  0.00    -0.393 OA
ATOM     31  H   UNL     1      37.501   5.331  43.578  1.00  0.00     0.210 HD
ENDBRANCH  29  30
ENDBRANCH   9  11
ENDBRANCH   1   9
TORSDOF 7
ENDMDL
MODEL 7
REMARK VINA RESULT:    -5.228      8.760     12.309
REMARK INTER + INTRA:          -9.218
REMARK INTER:                  -7.448
REMARK INTRA:                  -1.770
REMARK UNBOUND:                -2.003
REMARK SMILES CC[C@@H](CC[C@@H](C)[C@H]1CC[C@@H]2[C@@H]3CC=C4C[C@H](O)CC[C@@]4(C)[C@@H]3CC[C@@]21C)C(C)C
REMARK SMILES IDX 5 1 4 2 3 3 2 4 1 5 28 6 29 7 30 8 6 9 7 10 8 11 9 12 26 13
REMARK SMILES IDX 10 14 11 15 25 16 27 17 12 18 24 19 23 20 13 21 21 22 14 23
REMARK SMILES IDX 15 24 20 25 22 26 16 27 19 28 17 29 18 30
REMARK H PARENT 18 31
REMARK Flexibility Score: inf
ROOT
ATOM      1  C   UNL     1      43.117  13.865  37.036  1.00  0.00     0.004 C 
ENDROOT
BRANCH   1   2
ATOM      2  C   UNL     1      42.950  14.548  35.660  1.00  0.00     0.004 C 
BRANCH   2   3
ATOM      3  C   UNL     1      43.554  13.744  34.467  1.00  0.00    -0.009 C 
BRANCH   3   4
ATOM      4  C   UNL     1      44.830  14.421  33.886  1.00  0.00     0.000 C 
ATOM      5  C   UNL     1      46.121  13.630  34.118  1.00  0.00     0.004 C 
ENDBRANCH   3   4
BRANCH   3   6
ATOM      6  C   UNL     1      42.509  13.428  33.338  1.00  0.00    -0.014 C 
ATOM      7  C   UNL     1      42.697  12.012  32.756  1.00  0.00     0.007 C 
ATOM      8  C   UNL     1      41.056  13.567  33.831  1.00  0.00     0.007 C 
ENDBRANCH   3   6
ENDBRANCH   2   3
ENDBRANCH   1   2
BRANCH   1   9
ATOM      9  C   UNL     1      43.442  12.343  36.940  1.00  0.00    -0.011 C 
ATOM     10  C   UNL     1      44.944  12.132  37.241  1.00  0.00     0.008 C 
BRANCH   9  11
ATOM     11  C   UNL     1      42.549  11.490  37.919  1.00  0.00    -0.002 C 
ATOM     12  C   UNL     1      41.601  12.339  38.772  1.00  0.00     0.005 C 
ATOM     13  C   UNL     1      41.628  10.359  37.301  1.00  0.00    -0.026 C 
ATOM     14  C   UNL     1      40.542  11.384  39.272  1.00  0.00     0.005 C 
ATOM     15  C   UNL     1      40.271  10.466  38.086  1.00  0.00    -0.001 C 
ATOM     16  C   UNL     1      42.298   8.960  37.492  1.00  0.00     0.007 C 
ATOM     17  C   UNL     1      41.310  10.568  35.795  1.00  0.00     0.012 C 
ATOM     18  C   UNL     1      39.585   9.102  38.426  1.00  0.00     0.000 C 
ATOM     19  C   UNL     1      42.024   8.360  38.876  1.00  0.00     0.005 C 
ATOM     20  C   UNL     1      40.532   7.986  39.003  1.00  0.00     0.003 C 
ATOM     21  C   UNL     1      38.266   9.286  39.217  1.00  0.00     0.031 C 
ATOM     22  C   UNL     1      40.105   7.390  40.401  1.00  0.00    -0.008 C 
ATOM     23  C   UNL     1      37.764   7.978  39.757  1.00  0.00    -0.027 C 
ATOM     24  C   UNL     1      38.601   7.101  40.346  1.00  0.00    -0.065 C 
ATOM     25  C   UNL     1      40.864   6.049  40.653  1.00  0.00     0.014 C 
ATOM     26  C   UNL     1      40.407   8.352  41.578  1.00  0.00     0.016 C 
ATOM     27  C   UNL     1      38.073   5.742  40.751  1.00  0.00     0.063 C 
ATOM     28  C   UNL     1      40.336   5.238  41.856  1.00  0.00     0.033 C 
ATOM     29  C   UNL     1      38.795   5.221  42.001  1.00  0.00     0.118 C 
BRANCH  29  30
ATOM     30  O   UNL     1      38.415   5.998  43.112  1.00  0.00    -0.393 OA
ATOM     31  H   UNL     1      37.503   5.710  43.378  1.00  0.00     0.210 HD
ENDBRANCH  29  30
ENDBRANCH   9  11
ENDBRANCH   1   9
TORSDOF 7
ENDMDL
MODEL 8
REMARK VINA RESULT:    -5.092     16.309     18.020
REMARK INTER + INTRA:          -9.030
REMARK INTER:                  -7.531
REMARK INTRA:                  -1.499
REMARK UNBOUND:                -2.003
REMARK SMILES CC[C@@H](CC[C@@H](C)[C@H]1CC[C@@H]2[C@@H]3CC=C4C[C@H](O)CC[C@@]4(C)[C@@H]3CC[C@@]21C)C(C)C
REMARK SMILES IDX 5 1 4 2 3 3 2 4 1 5 28 6 29 7 30 8 6 9 7 10 8 11 9 12 26 13
REMARK SMILES IDX 10 14 11 15 25 16 27 17 12 18 24 19 23 20 13 21 21 22 14 23
REMARK SMILES IDX 15 24 20 25 22 26 16 27 19 28 17 29 18 30
REMARK H PARENT 18 31
REMARK Flexibility Score: inf
ROOT
ATOM      1  C   UNL     1      42.071  23.047  40.108  1.00  0.00     0.004 C 
ENDROOT
BRANCH   1   2
ATOM      2  C   UNL     1      42.942  24.081  39.359  1.00  0.00     0.004 C 
BRANCH   2   3
ATOM      3  C   UNL     1      44.221  23.482  38.696  1.00  0.00    -0.009 C 
BRANCH   3   4
ATOM      4  C   UNL     1      45.530  24.032  39.337  1.00  0.00     0.000 C 
ATOM      5  C   UNL     1      46.093  23.158  40.461  1.00  0.00     0.004 C 
ENDBRANCH   3   4
BRANCH   3   6
ATOM      6  C   UNL     1      44.241  23.636  37.133  1.00  0.00    -0.014 C 
ATOM      7  C   UNL     1      44.616  22.318  36.427  1.00  0.00     0.007 C 
ATOM      8  C   UNL     1      42.890  24.125  36.577  1.00  0.00     0.007 C 
ENDBRANCH   3   6
ENDBRANCH   2   3
ENDBRANCH   1   2
BRANCH   1   9
ATOM      9  C   UNL     1      41.316  22.067  39.158  1.00  0.00    -0.011 C 
ATOM     10  C   UNL     1      42.016  20.689  39.200  1.00  0.00     0.008 C 
BRANCH   9  11
ATOM     11  C   UNL     1      39.793  21.934  39.544  1.00  0.00    -0.002 C 
ATOM     12  C   UNL     1      39.464  22.513  40.924  1.00  0.00     0.005 C 
ATOM     13  C   UNL     1      38.714  22.569  38.574  1.00  0.00    -0.026 C 
ATOM     14  C   UNL     1      37.968  22.726  40.925  1.00  0.00     0.005 C 
ATOM     15  C   UNL     1      37.656  23.236  39.524  1.00  0.00    -0.001 C 
ATOM     16  C   UNL     1      38.073  21.455  37.685  1.00  0.00     0.007 C 
ATOM     17  C   UNL     1      39.283  23.686  37.656  1.00  0.00     0.012 C 
ATOM     18  C   UNL     1      36.167  23.101  39.067  1.00  0.00     0.000 C 
ATOM     19  C   UNL     1      36.931  20.720  38.396  1.00  0.00     0.005 C 
ATOM     20  C   UNL     1      35.729  21.669  38.583  1.00  0.00     0.003 C 
ATOM     21  C   UNL     1      35.182  23.763  40.062  1.00  0.00     0.031 C 
ATOM     22  C   UNL     1      34.491  21.046  39.340  1.00  0.00    -0.008 C 
ATOM     23  C   UNL     1      33.759  23.399  39.748  1.00  0.00    -0.027 C 
ATOM     24  C   UNL     1      33.414  22.132  39.449  1.00  0.00    -0.065 C 
ATOM     25  C   UNL     1      33.917  19.853  38.514  1.00  0.00     0.014 C 
ATOM     26  C   UNL     1      34.855  20.532  40.756  1.00  0.00     0.016 C 
ATOM     27  C   UNL     1      31.996  21.841  39.008  1.00  0.00     0.063 C 
ATOM     28  C   UNL     1      32.552  19.334  39.013  1.00  0.00     0.033 C 
ATOM     29  C   UNL     1      31.559  20.439  39.450  1.00  0.00     0.118 C 
BRANCH  29  30
ATOM     30  O   UNL     1      31.414  20.419  40.849  1.00  0.00    -0.393 OA
ATOM     31  H   UNL     1      30.488  20.711  41.057  1.00  0.00     0.210 HD
ENDBRANCH  29  30
ENDBRANCH   9  11
ENDBRANCH   1   9
TORSDOF 7
ENDMDL
MODEL 9
REMARK VINA RESULT:    -5.043      2.735      8.578
REMARK INTER + INTRA:          -8.963
REMARK INTER:                  -6.907
REMARK INTRA:                  -2.056
REMARK UNBOUND:                -2.003
REMARK SMILES CC[C@@H](CC[C@@H](C)[C@H]1CC[C@@H]2[C@@H]3CC=C4C[C@H](O)CC[C@@]4(C)[C@@H]3CC[C@@]21C)C(C)C
REMARK SMILES IDX 5 1 4 2 3 3 2 4 1 5 28 6 29 7 30 8 6 9 7 10 8 11 9 12 26 13
REMARK SMILES IDX 10 14 11 15 25 16 27 17 12 18 24 19 23 20 13 21 21 22 14 23
REMARK SMILES IDX 15 24 20 25 22 26 16 27 19 28 17 29 18 30
REMARK H PARENT 18 31
REMARK Flexibility Score: inf
ROOT
ATOM      1  C   UNL     1      34.406   9.143  25.474  1.00  0.00     0.004 C 
ENDROOT
BRANCH   1   2
ATOM      2  C   UNL     1      33.672   7.803  25.237  1.00  0.00     0.004 C 
BRANCH   2   3
ATOM      3  C   UNL     1      34.525   6.538  25.561  1.00  0.00    -0.009 C 
BRANCH   3   4
ATOM      4  C   UNL     1      34.595   5.551  24.358  1.00  0.00     0.000 C 
ATOM      5  C   UNL     1      34.301   6.194  23.000  1.00  0.00     0.004 C 
ENDBRANCH   3   4
BRANCH   3   6
ATOM      6  C   UNL     1      34.077   5.806  26.876  1.00  0.00    -0.014 C 
ATOM      7  C   UNL     1      34.132   4.272  26.732  1.00  0.00     0.007 C 
ATOM      8  C   UNL     1      34.931   6.217  28.092  1.00  0.00     0.007 C 
ENDBRANCH   3   6
ENDBRANCH   2   3
ENDBRANCH   1   2
BRANCH   1   9
ATOM      9  C   UNL     1      35.756   9.257  24.700  1.00  0.00    -0.011 C 
ATOM     10  C   UNL     1      35.662  10.433  23.701  1.00  0.00     0.008 C 
BRANCH   9  11
ATOM     11  C   UNL     1      36.977   9.448  25.678  1.00  0.00    -0.002 C 
ATOM     12  C   UNL     1      36.601   9.299  27.156  1.00  0.00     0.005 C 
ATOM     13  C   UNL     1      38.242   8.513  25.490  1.00  0.00    -0.026 C 
ATOM     14  C   UNL     1      37.903   9.045  27.880  1.00  0.00     0.005 C 
ATOM     15  C   UNL     1      38.683   8.127  26.947  1.00  0.00    -0.001 C 
ATOM     16  C   UNL     1      39.369   9.286  24.731  1.00  0.00     0.007 C 
ATOM     17  C   UNL     1      37.934   7.193  24.732  1.00  0.00     0.012 C 
ATOM     18  C   UNL     1      40.227   8.068  27.187  1.00  0.00     0.000 C 
ATOM     19  C   UNL     1      40.214  10.161  25.664  1.00  0.00     0.005 C 
ATOM     20  C   UNL     1      41.055   9.271  26.603  1.00  0.00     0.003 C 
ATOM     21  C   UNL     1      40.584   7.702  28.649  1.00  0.00     0.031 C 
ATOM     22  C   UNL     1      41.947  10.050  27.648  1.00  0.00    -0.008 C 
ATOM     23  C   UNL     1      42.046   7.905  28.924  1.00  0.00    -0.027 C 
ATOM     24  C   UNL     1      42.686   9.011  28.498  1.00  0.00    -0.065 C 
ATOM     25  C   UNL     1      43.000  10.920  26.892  1.00  0.00     0.014 C 
ATOM     26  C   UNL     1      41.115  10.979  28.568  1.00  0.00     0.016 C 
ATOM     27  C   UNL     1      44.186   9.107  28.680  1.00  0.00     0.063 C 
ATOM     28  C   UNL     1      44.097  11.517  27.798  1.00  0.00     0.033 C 
ATOM     29  C   UNL     1      44.622  10.561  28.898  1.00  0.00     0.118 C 
BRANCH  29  30
ATOM     30  O   UNL     1      44.171  10.997  30.158  1.00  0.00    -0.393 OA
ATOM     31  H   UNL     1      43.664  10.248  30.568  1.00  0.00     0.210 HD
ENDBRANCH  29  30
ENDBRANCH   9  11
ENDBRANCH   1   9
TORSDOF 7
ENDMDL
