MODEL 1
REMARK VINA RESULT:    72.801      0.000      0.000
REMARK INTER + INTRA:          99.301
REMARK INTER:                 100.464
REMARK INTRA:                  -1.163
REMARK UNBOUND:                -1.163
REMARK SMILES CC[C@H](CC[C@@H](C)[C@H]1CC[C@H]2[C@H]3CC=C4C[C@@H](O)CC[C@@]4(C)[C@@H]3CC[C@]12C)C(C)C
REMARK SMILES IDX 5 1 4 2 3 3 2 4 1 5 28 6 29 7 30 8 6 9 7 10 8 11 9 12 26 13
REMARK SMILES IDX 10 14 11 15 25 16 27 17 12 18 24 19 23 20 13 21 21 22 14 23
REMARK SMILES IDX 15 24 20 25 22 26 16 27 19 28 17 29 18 30
REMARK H PARENT 18 31
REMARK Flexibility Score: inf
ROOT
ATOM      1  C   UNL     1      88.406  -5.650  66.929  1.00  0.00     0.004 C 
ENDROOT
BRANCH   1   2
ATOM      2  C   UNL     1      89.619  -6.608  66.941  1.00  0.00     0.004 C 
BRANCH   2   3
ATOM      3  C   UNL     1      89.366  -8.033  66.374  1.00  0.00    -0.009 C 
BRANCH   3   4
ATOM      4  C   UNL     1      90.321  -8.435  65.215  1.00  0.00     0.000 C 
ATOM      5  C   UNL     1      90.437  -7.358  64.133  1.00  0.00     0.004 C 
ENDBRANCH   3   4
BRANCH   3   6
ATOM      6  C   UNL     1      89.235  -9.123  67.493  1.00  0.00    -0.014 C 
ATOM      7  C   UNL     1      90.445  -9.093  68.442  1.00  0.00     0.007 C 
ATOM      8  C   UNL     1      87.940  -9.043  68.322  1.00  0.00     0.007 C 
ENDBRANCH   3   6
ENDBRANCH   2   3
ENDBRANCH   1   2
BRANCH   1   9
ATOM      9  C   UNL     1      87.788  -5.427  68.334  1.00  0.00    -0.011 C 
ATOM     10  C   UNL     1      88.881  -5.548  69.414  1.00  0.00     0.008 C 
BRANCH   9  11
ATOM     11  C   UNL     1      87.064  -4.036  68.411  1.00  0.00    -0.002 C 
ATOM     12  C   UNL     1      87.539  -3.040  67.314  1.00  0.00     0.005 C 
ATOM     13  C   UNL     1      85.504  -4.010  68.284  1.00  0.00    -0.026 C 
ATOM     14  C   UNL     1      86.347  -2.129  66.971  1.00  0.00     0.005 C 
ATOM     15  C   UNL     1      85.294  -2.512  67.995  1.00  0.00    -0.001 C 
ATOM     16  C   UNL     1      84.719  -4.385  69.593  1.00  0.00     0.007 C 
ATOM     17  C   UNL     1      85.061  -4.917  67.090  1.00  0.00     0.012 C 
ATOM     18  C   UNL     1      83.820  -2.043  67.818  1.00  0.00     0.000 C 
ATOM     19  C   UNL     1      83.520  -3.448  69.923  1.00  0.00     0.005 C 
ATOM     20  C   UNL     1      82.834  -2.930  68.629  1.00  0.00     0.003 C 
ATOM     21  C   UNL     1      83.314  -1.893  66.379  1.00  0.00     0.031 C 
ATOM     22  C   UNL     1      81.445  -2.211  68.779  1.00  0.00    -0.008 C 
ATOM     23  C   UNL     1      81.828  -1.597  66.335  1.00  0.00    -0.027 C 
ATOM     24  C   UNL     1      80.968  -1.794  67.372  1.00  0.00    -0.065 C 
ATOM     25  C   UNL     1      80.414  -3.208  69.382  1.00  0.00     0.014 C 
ATOM     26  C   UNL     1      81.558  -0.964  69.699  1.00  0.00     0.016 C 
ATOM     27  C   UNL     1      79.487  -1.667  67.066  1.00  0.00     0.063 C 
ATOM     28  C   UNL     1      78.923  -2.807  69.276  1.00  0.00     0.033 C 
ATOM     29  C   UNL     1      78.609  -1.644  68.319  1.00  0.00     0.118 C 
BRANCH  29  30
ATOM     30  O   UNL     1      77.254  -1.715  67.950  1.00  0.00    -0.393 OA
ATOM     31  H   UNL     1      76.971  -2.660  68.051  1.00  0.00     0.210 HD
ENDBRANCH  29  30
ENDBRANCH   9  11
ENDBRANCH   1   9
TORSDOF 7
ENDMDL
