MODEL 1
REMARK VINA RESULT:    11.074      0.000      0.000
REMARK INTER + INTRA:          14.263
REMARK INTER:                  15.283
REMARK INTRA:                  -1.020
REMARK UNBOUND:                -1.020
REMARK SMILES CC[C@@H](CC[C@H](C)[C@H]1CC[C@@H]2[C@@H]3CC=C4C[C@@H](O)CC[C@@]4(C)[C@H]3CC[C@]21C)C(C)C
REMARK SMILES IDX 5 1 4 2 3 3 2 4 1 5 28 6 29 7 30 8 6 9 7 10 8 11 9 12 26 13
REMARK SMILES IDX 10 14 11 15 25 16 27 17 12 18 24 19 23 20 13 21 21 22 14 23
REMARK SMILES IDX 15 24 20 25 22 26 16 27 19 28 17 29 18 30
REMARK H PARENT 18 31
REMARK Flexibility Score: inf
ROOT
ATOM      1  C   UNL     1      77.748  35.631  50.754  1.00  0.00     0.004 C 
ENDROOT
BRANCH   1   2
ATOM      2  C   UNL     1      79.134  35.987  51.355  1.00  0.00     0.004 C 
BRANCH   2   3
ATOM      3  C   UNL     1      80.314  35.129  50.816  1.00  0.00    -0.009 C 
BRANCH   3   4
ATOM      4  C   UNL     1      79.904  34.448  49.473  1.00  0.00     0.000 C 
ATOM      5  C   UNL     1      81.044  33.624  48.868  1.00  0.00     0.004 C 
ENDBRANCH   3   4
BRANCH   3   6
ATOM      6  C   UNL     1      80.759  34.066  51.888  1.00  0.00    -0.014 C 
ATOM      7  C   UNL     1      80.821  34.651  53.313  1.00  0.00     0.007 C 
ATOM      8  C   UNL     1      79.850  32.812  51.935  1.00  0.00     0.007 C 
ENDBRANCH   3   6
ENDBRANCH   2   3
ENDBRANCH   1   2
BRANCH   1   9
ATOM      9  C   UNL     1      76.569  35.933  51.730  1.00  0.00    -0.011 C 
ATOM     10  C   UNL     1      77.175  36.118  53.148  1.00  0.00     0.008 C 
BRANCH   9  11
ATOM     11  C   UNL     1      75.504  34.781  51.733  1.00  0.00    -0.002 C 
ATOM     12  C   UNL     1      76.136  33.373  51.954  1.00  0.00     0.005 C 
ATOM     13  C   UNL     1      74.273  34.851  52.737  1.00  0.00    -0.026 C 
ATOM     14  C   UNL     1      75.182  32.582  52.839  1.00  0.00     0.005 C 
ATOM     15  C   UNL     1      74.566  33.668  53.687  1.00  0.00    -0.001 C 
ATOM     16  C   UNL     1      74.073  36.125  53.651  1.00  0.00     0.007 C 
ATOM     17  C   UNL     1      72.995  34.633  51.856  1.00  0.00     0.012 C 
ATOM     18  C   UNL     1      73.467  33.309  54.727  1.00  0.00     0.000 C 
ATOM     19  C   UNL     1      73.504  35.836  55.076  1.00  0.00     0.005 C 
ATOM     20  C   UNL     1      72.635  34.549  55.134  1.00  0.00     0.003 C 
ATOM     21  C   UNL     1      72.491  32.190  54.358  1.00  0.00     0.031 C 
ATOM     22  C   UNL     1      71.848  34.275  56.469  1.00  0.00    -0.008 C 
ATOM     23  C   UNL     1      71.596  31.906  55.538  1.00  0.00    -0.027 C 
ATOM     24  C   UNL     1      71.318  32.823  56.499  1.00  0.00    -0.065 C 
ATOM     25  C   UNL     1      72.751  34.483  57.724  1.00  0.00     0.014 C 
ATOM     26  C   UNL     1      70.634  35.241  56.527  1.00  0.00     0.016 C 
ATOM     27  C   UNL     1      70.618  32.369  57.758  1.00  0.00     0.063 C 
ATOM     28  C   UNL     1      72.119  33.994  59.053  1.00  0.00     0.033 C 
ATOM     29  C   UNL     1      71.548  32.562  58.970  1.00  0.00     0.118 C 
BRANCH  29  30
ATOM     30  O   UNL     1      72.570  31.599  58.989  1.00  0.00    -0.393 OA
ATOM     31  H   UNL     1      73.445  32.066  58.995  1.00  0.00     0.210 HD
ENDBRANCH  29  30
ENDBRANCH   9  11
ENDBRANCH   1   9
TORSDOF 7
ENDMDL
MODEL 2
REMARK VINA RESULT:    11.109      2.696      8.756
REMARK INTER + INTRA:          14.310
REMARK INTER:                  13.196
REMARK INTRA:                   1.115
REMARK UNBOUND:                -1.020
REMARK SMILES CC[C@@H](CC[C@H](C)[C@H]1CC[C@@H]2[C@@H]3CC=C4C[C@@H](O)CC[C@@]4(C)[C@H]3CC[C@]21C)C(C)C
REMARK SMILES IDX 5 1 4 2 3 3 2 4 1 5 28 6 29 7 30 8 6 9 7 10 8 11 9 12 26 13
REMARK SMILES IDX 10 14 11 15 25 16 27 17 12 18 24 19 23 20 13 21 21 22 14 23
REMARK SMILES IDX 15 24 20 25 22 26 16 27 19 28 17 29 18 30
REMARK H PARENT 18 31
REMARK Flexibility Score: inf
ROOT
ATOM      1  C   UNL     1      71.438  34.642  53.508  1.00  0.00     0.004 C 
ENDROOT
BRANCH   1   2
ATOM      2  C   UNL     1      71.586  33.400  54.427  1.00  0.00     0.004 C 
BRANCH   2   3
ATOM      3  C   UNL     1      71.745  33.729  55.939  1.00  0.00    -0.009 C 
BRANCH   3   4
ATOM      4  C   UNL     1      72.909  32.886  56.545  1.00  0.00     0.000 C 
ATOM      5  C   UNL     1      73.219  33.279  57.993  1.00  0.00     0.004 C 
ENDBRANCH   3   4
BRANCH   3   6
ATOM      6  C   UNL     1      70.392  33.477  56.704  1.00  0.00    -0.014 C 
ATOM      7  C   UNL     1      70.610  32.938  58.131  1.00  0.00     0.007 C 
ATOM      8  C   UNL     1      69.493  34.735  56.810  1.00  0.00     0.007 C 
ENDBRANCH   3   6
ENDBRANCH   2   3
ENDBRANCH   1   2
BRANCH   1   9
ATOM      9  C   UNL     1      72.796  35.109  52.897  1.00  0.00    -0.011 C 
ATOM     10  C   UNL     1      72.714  34.894  51.361  1.00  0.00     0.008 C 
BRANCH   9  11
ATOM     11  C   UNL     1      74.009  34.316  53.500  1.00  0.00    -0.002 C 
ATOM     12  C   UNL     1      73.925  32.783  53.229  1.00  0.00     0.005 C 
ATOM     13  C   UNL     1      75.492  34.732  53.105  1.00  0.00    -0.026 C 
ATOM     14  C   UNL     1      75.339  32.295  52.944  1.00  0.00     0.005 C 
ATOM     15  C   UNL     1      75.963  33.505  52.292  1.00  0.00    -0.001 C 
ATOM     16  C   UNL     1      75.740  35.999  52.193  1.00  0.00     0.007 C 
ATOM     17  C   UNL     1      76.259  34.904  54.461  1.00  0.00     0.012 C 
ATOM     18  C   UNL     1      77.459  33.471  51.869  1.00  0.00     0.000 C 
ATOM     19  C   UNL     1      76.932  35.874  51.193  1.00  0.00     0.005 C 
ATOM     20  C   UNL     1      78.036  34.894  51.682  1.00  0.00     0.003 C 
ATOM     21  C   UNL     1      78.423  32.688  52.762  1.00  0.00     0.031 C 
ATOM     22  C   UNL     1      79.372  34.848  50.852  1.00  0.00    -0.008 C 
ATOM     23  C   UNL     1      79.787  32.665  52.118  1.00  0.00    -0.027 C 
ATOM     24  C   UNL     1      80.214  33.613  51.246  1.00  0.00    -0.065 C 
ATOM     25  C   UNL     1      79.096  34.771  49.319  1.00  0.00     0.014 C 
ATOM     26  C   UNL     1      80.193  36.125  51.176  1.00  0.00     0.016 C 
ATOM     27  C   UNL     1      81.487  33.370  50.472  1.00  0.00     0.063 C 
ATOM     28  C   UNL     1      80.350  34.473  48.457  1.00  0.00     0.033 C 
ATOM     29  C   UNL     1      81.173  33.271  48.968  1.00  0.00     0.118 C 
BRANCH  29  30
ATOM     30  O   UNL     1      80.550  32.052  48.655  1.00  0.00    -0.393 OA
ATOM     31  H   UNL     1      79.683  32.243  48.214  1.00  0.00     0.210 HD
ENDBRANCH  29  30
ENDBRANCH   9  11
ENDBRANCH   1   9
TORSDOF 7
ENDMDL
MODEL 3
REMARK VINA RESULT:    11.466      2.397      8.691
REMARK INTER + INTRA:          14.803
REMARK INTER:                  15.207
REMARK INTRA:                  -0.404
REMARK UNBOUND:                -1.020
REMARK SMILES CC[C@@H](CC[C@H](C)[C@H]1CC[C@@H]2[C@@H]3CC=C4C[C@@H](O)CC[C@@]4(C)[C@H]3CC[C@]21C)C(C)C
REMARK SMILES IDX 5 1 4 2 3 3 2 4 1 5 28 6 29 7 30 8 6 9 7 10 8 11 9 12 26 13
REMARK SMILES IDX 10 14 11 15 25 16 27 17 12 18 24 19 23 20 13 21 21 22 14 23
REMARK SMILES IDX 15 24 20 25 22 26 16 27 19 28 17 29 18 30
REMARK H PARENT 18 31
REMARK Flexibility Score: inf
ROOT
ATOM      1  C   UNL     1      73.192  33.753  55.981  1.00  0.00     0.004 C 
ENDROOT
BRANCH   1   2
ATOM      2  C   UNL     1      72.847  32.804  57.159  1.00  0.00     0.004 C 
BRANCH   2   3
ATOM      3  C   UNL     1      72.012  33.460  58.296  1.00  0.00    -0.009 C 
BRANCH   3   4
ATOM      4  C   UNL     1      72.289  32.728  59.646  1.00  0.00     0.000 C 
ATOM      5  C   UNL     1      72.430  33.706  60.818  1.00  0.00     0.004 C 
ENDBRANCH   3   4
BRANCH   3   6
ATOM      6  C   UNL     1      70.479  33.442  57.936  1.00  0.00    -0.014 C 
ATOM      7  C   UNL     1      70.094  34.545  56.931  1.00  0.00     0.007 C 
ATOM      8  C   UNL     1      69.991  32.090  57.358  1.00  0.00     0.007 C 
ENDBRANCH   3   6
ENDBRANCH   2   3
ENDBRANCH   1   2
BRANCH   1   9
ATOM      9  C   UNL     1      72.352  33.457  54.699  1.00  0.00    -0.011 C 
ATOM     10  C   UNL     1      72.401  31.923  54.456  1.00  0.00     0.008 C 
BRANCH   9  11
ATOM     11  C   UNL     1      72.903  34.230  53.450  1.00  0.00    -0.002 C 
ATOM     12  C   UNL     1      73.172  35.738  53.742  1.00  0.00     0.005 C 
ATOM     13  C   UNL     1      74.213  33.704  52.716  1.00  0.00    -0.026 C 
ATOM     14  C   UNL     1      74.443  36.124  52.997  1.00  0.00     0.005 C 
ATOM     15  C   UNL     1      75.224  34.833  53.018  1.00  0.00    -0.001 C 
ATOM     16  C   UNL     1      74.891  32.355  53.182  1.00  0.00     0.007 C 
ATOM     17  C   UNL     1      73.836  33.604  51.198  1.00  0.00     0.012 C 
ATOM     18  C   UNL     1      76.605  34.753  52.307  1.00  0.00     0.000 C 
ATOM     19  C   UNL     1      76.449  32.334  53.102  1.00  0.00     0.005 C 
ATOM     20  C   UNL     1      77.016  33.289  52.016  1.00  0.00     0.003 C 
ATOM     21  C   UNL     1      76.777  35.553  51.015  1.00  0.00     0.031 C 
ATOM     22  C   UNL     1      78.557  33.196  51.712  1.00  0.00    -0.008 C 
ATOM     23  C   UNL     1      78.209  35.450  50.555  1.00  0.00    -0.027 C 
ATOM     24  C   UNL     1      79.021  34.412  50.878  1.00  0.00    -0.065 C 
ATOM     25  C   UNL     1      79.402  33.160  53.022  1.00  0.00     0.014 C 
ATOM     26  C   UNL     1      78.814  31.907  50.883  1.00  0.00     0.016 C 
ATOM     27  C   UNL     1      80.497  34.522  50.580  1.00  0.00     0.063 C 
ATOM     28  C   UNL     1      80.929  33.318  52.801  1.00  0.00     0.033 C 
ATOM     29  C   UNL     1      81.297  34.513  51.896  1.00  0.00     0.118 C 
BRANCH  29  30
ATOM     30  O   UNL     1      81.172  35.733  52.579  1.00  0.00    -0.393 OA
ATOM     31  H   UNL     1      81.006  35.544  53.538  1.00  0.00     0.210 HD
ENDBRANCH  29  30
ENDBRANCH   9  11
ENDBRANCH   1   9
TORSDOF 7
ENDMDL
