MODEL 1
REMARK VINA RESULT:    -4.547      0.000      0.000
REMARK INTER + INTRA:         -13.472
REMARK INTER:                  -9.598
REMARK INTRA:                  -3.874
REMARK UNBOUND:                -3.874
REMARK SMILES CCC(=O)CCCCC[C@@H]1NC(=O)[C@H]2CCCCN2C(=O)[C@H]([C@@H](C)CC)NC(=O)[C@H](Cc2cn(OC)c3ccccc23)NC1=O
REMARK SMILES IDX 9 1 10 2 44 3 43 4 45 6 30 7 28 8 27 9 29 11 22 12 23 14
REMARK SMILES IDX 24 15 25 16 26 17 31 18 32 19 33 20 42 21 34 22 37 23 41 24
REMARK SMILES IDX 38 25 40 26 39 27 35 28 36 29 11 30 12 31 13 33 14 34 19 35
REMARK SMILES IDX 15 36 18 37 16 38 17 39 20 40 21 41 8 43 7 44 6 45 5 46 3 47
REMARK SMILES IDX 4 48 2 49 1 50
REMARK H PARENT 43 5 27 10 11 32
REMARK Flexibility Score: 80.00
ROOT
ATOM      1  C   UNL     1      47.396  43.683  33.681  1.00  0.00     0.035 C 
ENDROOT
BRANCH   1   2
ATOM      2  C   UNL     1      47.725  42.622  34.751  1.00  0.00     0.171 C 
BRANCH   2   3
ATOM      3  C   UNL     1      46.867  42.841  35.964  1.00  0.00     0.243 C 
ATOM      4  N   UNL     1      47.455  43.273  37.204  1.00  0.00    -0.342 N 
ATOM      5  H   UNL     1      48.407  43.697  37.167  1.00  0.00     0.164 HD
ATOM      6  O   UNL     1      45.627  42.631  35.880  1.00  0.00    -0.273 OA
BRANCH   4   7
ATOM      7  C   UNL     1      46.912  42.945  38.529  1.00  0.00     0.175 C 
BRANCH   7   8
ATOM      8  C   UNL     1      46.843  41.447  38.707  1.00  0.00     0.243 C 
ATOM      9  N   UNL     1      45.730  40.679  38.220  1.00  0.00    -0.342 N 
ATOM     10  H   UNL     1      44.845  41.181  37.997  1.00  0.00     0.164 HD
ATOM     11  O   UNL     1      47.815  40.859  39.257  1.00  0.00    -0.273 OA
BRANCH   9  12
ATOM     12  C   UNL     1      45.835  39.245  37.908  1.00  0.00     0.174 CG0
ATOM     13  G   UNL     1      45.631  39.019  36.430  1.00  0.00     0.000 G0
BRANCH  12  14
ATOM     14  C   UNL     1      44.904  38.375  38.808  1.00  0.00     0.018 C 
ATOM     15  C   UNL     1      45.638  37.129  39.335  1.00  0.00     0.010 C 
BRANCH  14  16
ATOM     16  C   UNL     1      44.124  39.115  39.930  1.00  0.00     0.002 C 
ATOM     17  C   UNL     1      44.636  38.901  41.356  1.00  0.00     0.004 C 
ENDBRANCH  14  16
ENDBRANCH  12  14
ENDBRANCH   9  12
ENDBRANCH   7   8
BRANCH   7  18
ATOM     18  C   UNL     1      45.572  43.659  38.811  1.00  0.00     0.073 C 
BRANCH  18  19
ATOM     19  C   UNL     1      45.793  45.112  39.125  1.00  0.00    -0.016 A 
ATOM     20  C   UNL     1      46.126  45.635  40.372  1.00  0.00     0.134 A 
ATOM     21  C   UNL     1      45.804  46.185  38.246  1.00  0.00     0.006 A 
ATOM     22  N   UNL     1      46.338  46.964  40.267  1.00  0.00    -0.191 N 
ATOM     23  C   UNL     1      46.135  47.301  38.980  1.00  0.00     0.087 A 
ATOM     24  C   UNL     1      45.524  46.264  36.880  1.00  0.00     0.011 A 
ATOM     25  C   UNL     1      46.186  48.569  38.400  1.00  0.00     0.030 A 
ATOM     26  C   UNL     1      45.598  47.527  36.266  1.00  0.00     0.001 A 
ATOM     27  C   UNL     1      45.921  48.675  37.022  1.00  0.00     0.002 A 
BRANCH  22  28
ATOM     28  O   UNL     1      46.629  47.809  41.319  1.00  0.00    -0.417 OA
ATOM     29  C   UNL     1      46.797  47.312  42.642  1.00  0.00     0.313 C 
ENDBRANCH  22  28
ENDBRANCH  18  19
ENDBRANCH   7  18
ENDBRANCH   4   7
ENDBRANCH   2   3
BRANCH   2  30
ATOM     30  N   UNL     1      47.493  41.263  34.250  1.00  0.00    -0.343 N 
ATOM     31  C   UNL     1      47.890  40.107  35.004  1.00  0.00     0.243 C 
ATOM     32  H   UNL     1      46.883  41.126  33.411  1.00  0.00     0.164 HD
ATOM     33  O   UNL     1      48.618  40.240  36.024  1.00  0.00    -0.273 OA
BRANCH  31  34
ATOM     34  C   UNL     1      47.379  38.736  34.623  1.00  0.00     0.174 C 
ATOM     35  N   UNL     1      46.528  38.162  35.686  1.00  0.00    -0.329 N 
ATOM     36  C   UNL     1      48.570  37.807  34.321  1.00  0.00     0.035 C 
ATOM     37  C   UNL     1      46.110  36.761  35.554  1.00  0.00     0.120 C 
ATOM     38  C   UNL     1      48.101  36.373  34.069  1.00  0.00     0.004 C 
ATOM     39  C   UNL     1      47.311  35.857  35.272  1.00  0.00     0.022 C 
BRANCH  35  40
ATOM     40  C   UNL     1      45.647  39.020  36.426  1.00  0.00     0.246 CG0
ATOM     41  O   UNL     1      44.710  39.612  35.826  1.00  0.00    -0.272 OA
ATOM     42  G   UNL     1      45.864  39.238  37.904  1.00  0.00     0.000 G0
ENDBRANCH  35  40
ENDBRANCH  31  34
ENDBRANCH   2  30
ENDBRANCH   1   2
BRANCH   1  43
ATOM     43  C   UNL     1      48.390  44.854  33.697  1.00  0.00     0.003 C 
BRANCH  43  44
ATOM     44  C   UNL     1      49.719  44.434  34.347  1.00  0.00     0.001 C 
BRANCH  44  45
ATOM     45  C   UNL     1      50.102  45.327  35.540  1.00  0.00     0.008 C 
BRANCH  45  46
ATOM     46  C   UNL     1      48.965  46.287  35.935  1.00  0.00     0.075 C 
BRANCH  46  47
ATOM     47  C   UNL     1      49.369  47.388  36.892  1.00  0.00     0.132 C 
ATOM     48  O   UNL     1      49.518  47.091  38.069  1.00  0.00    -0.300 OA
BRANCH  47  49
ATOM     49  C   UNL     1      49.600  48.817  36.439  1.00  0.00     0.072 C 
ATOM     50  C   UNL     1      49.400  49.837  37.560  1.00  0.00     0.012 C 
ENDBRANCH  47  49
ENDBRANCH  46  47
ENDBRANCH  45  46
ENDBRANCH  44  45
ENDBRANCH  43  44
ENDBRANCH   1  43
TORSDOF 12
ENDMDL
MODEL 2
REMARK VINA RESULT:    -4.213      2.660      8.723
REMARK INTER + INTRA:         -12.768
REMARK INTER:                 -10.687
REMARK INTRA:                  -2.081
REMARK UNBOUND:                -3.874
REMARK SMILES CCC(=O)CCCCC[C@@H]1NC(=O)[C@H]2CCCCN2C(=O)[C@H]([C@@H](C)CC)NC(=O)[C@H](Cc2cn(OC)c3ccccc23)NC1=O
REMARK SMILES IDX 9 1 10 2 44 3 43 4 45 6 30 7 28 8 27 9 29 11 22 12 23 14
REMARK SMILES IDX 24 15 25 16 26 17 31 18 32 19 33 20 42 21 34 22 37 23 41 24
REMARK SMILES IDX 38 25 40 26 39 27 35 28 36 29 11 30 12 31 13 33 14 34 19 35
REMARK SMILES IDX 15 36 18 37 16 38 17 39 20 40 21 41 8 43 7 44 6 45 5 46 3 47
REMARK SMILES IDX 4 48 2 49 1 50
REMARK H PARENT 43 5 27 10 11 32
REMARK Flexibility Score: 80.00
ROOT
ATOM      1  C   UNL     1      44.648  46.326  41.102  1.00  0.00     0.035 C 
ENDROOT
BRANCH   1   2
ATOM      2  C   UNL     1      45.922  46.270  40.235  1.00  0.00     0.171 C 
BRANCH   2   3
ATOM      3  C   UNL     1      45.815  45.143  39.248  1.00  0.00     0.243 C 
ATOM      4  N   UNL     1      46.544  43.920  39.455  1.00  0.00    -0.342 N 
ATOM      5  H   UNL     1      46.903  43.727  40.414  1.00  0.00     0.164 HD
ATOM      6  O   UNL     1      45.084  45.291  38.231  1.00  0.00    -0.273 OA
BRANCH   4   7
ATOM      7  C   UNL     1      47.015  43.050  38.368  1.00  0.00     0.175 C 
BRANCH   7   8
ATOM      8  C   UNL     1      47.847  43.844  37.389  1.00  0.00     0.243 C 
ATOM      9  N   UNL     1      47.257  44.828  36.522  1.00  0.00    -0.342 N 
ATOM     10  H   UNL     1      46.228  44.794  36.368  1.00  0.00     0.164 HD
ATOM     11  O   UNL     1      49.095  43.666  37.374  1.00  0.00    -0.273 OA
BRANCH   9  12
ATOM     12  C   UNL     1      48.029  45.943  35.952  1.00  0.00     0.174 CG0
ATOM     13  G   UNL     1      47.234  47.223  36.041  1.00  0.00     0.000 G0
BRANCH  12  14
ATOM     14  C   UNL     1      48.548  45.630  34.515  1.00  0.00     0.018 C 
ATOM     15  C   UNL     1      50.086  45.612  34.465  1.00  0.00     0.010 C 
BRANCH  14  16
ATOM     16  C   UNL     1      47.924  44.399  33.798  1.00  0.00     0.002 C 
ATOM     17  C   UNL     1      46.468  44.550  33.352  1.00  0.00     0.004 C 
ENDBRANCH  14  16
ENDBRANCH  12  14
ENDBRANCH   9  12
ENDBRANCH   7   8
BRANCH   7  18
ATOM     18  C   UNL     1      45.866  42.264  37.701  1.00  0.00     0.073 C 
BRANCH  18  19
ATOM     19  C   UNL     1      46.179  40.795  37.651  1.00  0.00    -0.016 A 
ATOM     20  C   UNL     1      47.078  40.182  36.783  1.00  0.00     0.134 A 
ATOM     21  C   UNL     1      45.722  39.794  38.495  1.00  0.00     0.006 A 
ATOM     22  N   UNL     1      47.176  38.869  37.080  1.00  0.00    -0.191 N 
ATOM     23  C   UNL     1      46.348  38.630  38.113  1.00  0.00     0.087 A 
ATOM     24  C   UNL     1      44.794  39.817  39.539  1.00  0.00     0.011 A 
ATOM     25  C   UNL     1      46.071  37.411  38.735  1.00  0.00     0.030 A 
ATOM     26  C   UNL     1      44.519  38.606  40.201  1.00  0.00     0.001 A 
ATOM     27  C   UNL     1      45.149  37.409  39.798  1.00  0.00     0.002 A 
BRANCH  22  28
ATOM     28  O   UNL     1      47.934  37.949  36.382  1.00  0.00    -0.417 OA
ATOM     29  C   UNL     1      47.485  37.409  35.145  1.00  0.00     0.313 C 
ENDBRANCH  22  28
ENDBRANCH  18  19
ENDBRANCH   7  18
ENDBRANCH   4   7
ENDBRANCH   2   3
BRANCH   2  30
ATOM     30  N   UNL     1      46.129  47.522  39.499  1.00  0.00    -0.343 N 
ATOM     31  C   UNL     1      47.383  47.822  38.866  1.00  0.00     0.243 C 
ATOM     32  H   UNL     1      45.305  48.131  39.289  1.00  0.00     0.164 HD
ATOM     33  O   UNL     1      48.391  47.101  39.092  1.00  0.00    -0.273 OA
BRANCH  31  34
ATOM     34  C   UNL     1      47.481  48.957  37.872  1.00  0.00     0.174 C 
ATOM     35  N   UNL     1      47.788  48.459  36.514  1.00  0.00    -0.329 N 
ATOM     36  C   UNL     1      48.554  49.960  38.337  1.00  0.00     0.035 C 
ATOM     37  C   UNL     1      48.105  49.446  35.473  1.00  0.00     0.120 C 
ATOM     38  C   UNL     1      48.784  51.047  37.287  1.00  0.00     0.004 C 
ATOM     39  C   UNL     1      49.184  50.418  35.952  1.00  0.00     0.022 C 
BRANCH  35  40
ATOM     40  C   UNL     1      47.205  47.227  36.065  1.00  0.00     0.246 CG0
ATOM     41  O   UNL     1      45.976  47.187  35.789  1.00  0.00    -0.272 OA
ATOM     42  G   UNL     1      48.052  45.982  35.956  1.00  0.00     0.000 G0
ENDBRANCH  35  40
ENDBRANCH  31  34
ENDBRANCH   2  30
ENDBRANCH   1   2
BRANCH   1  43
ATOM     43  C   UNL     1      44.949  46.728  42.553  1.00  0.00     0.003 C 
BRANCH  43  44
ATOM     44  C   UNL     1      46.464  46.735  42.815  1.00  0.00     0.001 C 
BRANCH  44  45
ATOM     45  C   UNL     1      47.037  48.158  42.935  1.00  0.00     0.008 C 
BRANCH  45  46
ATOM     46  C   UNL     1      48.175  48.240  43.969  1.00  0.00     0.075 C 
BRANCH  46  47
ATOM     47  C   UNL     1      49.068  49.455  43.832  1.00  0.00     0.132 C 
ATOM     48  O   UNL     1      48.975  50.117  42.808  1.00  0.00    -0.300 OA
BRANCH  47  49
ATOM     49  C   UNL     1      50.048  49.871  44.912  1.00  0.00     0.072 C 
ATOM     50  C   UNL     1      49.365  50.236  46.231  1.00  0.00     0.012 C 
ENDBRANCH  47  49
ENDBRANCH  46  47
ENDBRANCH  45  46
ENDBRANCH  44  45
ENDBRANCH  43  44
ENDBRANCH   1  43
TORSDOF 12
ENDMDL
MODEL 3
REMARK VINA RESULT:    -4.204      2.291      5.447
REMARK INTER + INTRA:         -12.748
REMARK INTER:                 -11.610
REMARK INTRA:                  -1.138
REMARK UNBOUND:                -3.874
REMARK SMILES CCC(=O)CCCCC[C@@H]1NC(=O)[C@H]2CCCCN2C(=O)[C@H]([C@@H](C)CC)NC(=O)[C@H](Cc2cn(OC)c3ccccc23)NC1=O
REMARK SMILES IDX 9 1 10 2 44 3 43 4 45 6 30 7 28 8 27 9 29 11 22 12 23 14
REMARK SMILES IDX 24 15 25 16 26 17 31 18 32 19 33 20 42 21 34 22 37 23 41 24
REMARK SMILES IDX 38 25 40 26 39 27 35 28 36 29 11 30 12 31 13 33 14 34 19 35
REMARK SMILES IDX 15 36 18 37 16 38 17 39 20 40 21 41 8 43 7 44 6 45 5 46 3 47
REMARK SMILES IDX 4 48 2 49 1 50
REMARK H PARENT 43 5 27 10 11 32
REMARK Flexibility Score: 80.00
ROOT
ATOM      1  C   UNL     1      49.557  41.631  34.233  1.00  0.00     0.035 C 
ENDROOT
BRANCH   1   2
ATOM      2  C   UNL     1      48.878  41.668  35.617  1.00  0.00     0.171 C 
BRANCH   2   3
ATOM      3  C   UNL     1      48.025  42.899  35.731  1.00  0.00     0.243 C 
ATOM      4  N   UNL     1      47.983  43.644  36.961  1.00  0.00    -0.342 N 
ATOM      5  H   UNL     1      48.750  43.488  37.650  1.00  0.00     0.164 HD
ATOM      6  O   UNL     1      47.341  43.262  34.736  1.00  0.00    -0.273 OA
BRANCH   4   7
ATOM      7  C   UNL     1      46.822  44.425  37.410  1.00  0.00     0.175 C 
BRANCH   7   8
ATOM      8  C   UNL     1      45.833  43.527  38.116  1.00  0.00     0.243 C 
ATOM      9  N   UNL     1      45.626  42.164  37.708  1.00  0.00    -0.342 N 
ATOM     10  H   UNL     1      45.945  41.881  36.758  1.00  0.00     0.164 HD
ATOM     11  O   UNL     1      45.214  43.980  39.117  1.00  0.00    -0.273 OA
BRANCH   9  12
ATOM     12  C   UNL     1      45.100  41.137  38.621  1.00  0.00     0.174 CG0
ATOM     13  G   UNL     1      46.230  40.292  39.157  1.00  0.00     0.000 G0
BRANCH  12  14
ATOM     14  C   UNL     1      43.950  40.305  37.976  1.00  0.00     0.018 C 
ATOM     15  C   UNL     1      42.573  40.750  38.500  1.00  0.00     0.010 C 
BRANCH  14  16
ATOM     16  C   UNL     1      43.970  40.164  36.428  1.00  0.00     0.002 C 
ATOM     17  C   UNL     1      43.768  38.750  35.880  1.00  0.00     0.004 C 
ENDBRANCH  14  16
ENDBRANCH  12  14
ENDBRANCH   9  12
ENDBRANCH   7   8
BRANCH   7  18
ATOM     18  C   UNL     1      46.192  45.254  36.270  1.00  0.00     0.073 C 
BRANCH  18  19
ATOM     19  C   UNL     1      46.444  46.722  36.473  1.00  0.00    -0.016 A 
ATOM     20  C   UNL     1      47.495  47.453  35.926  1.00  0.00     0.134 A 
ATOM     21  C   UNL     1      45.652  47.640  37.147  1.00  0.00     0.006 A 
ATOM     22  N   UNL     1      47.356  48.758  36.241  1.00  0.00    -0.191 N 
ATOM     23  C   UNL     1      46.243  48.872  36.989  1.00  0.00     0.087 A 
ATOM     24  C   UNL     1      44.486  47.479  37.899  1.00  0.00     0.011 A 
ATOM     25  C   UNL     1      45.720  50.018  37.590  1.00  0.00     0.030 A 
ATOM     26  C   UNL     1      43.922  48.624  38.491  1.00  0.00     0.001 A 
ATOM     27  C   UNL     1      44.539  49.885  38.344  1.00  0.00     0.002 A 
BRANCH  22  28
ATOM     28  O   UNL     1      48.252  49.756  35.912  1.00  0.00    -0.417 OA
ATOM     29  C   UNL     1      49.286  50.145  36.808  1.00  0.00     0.313 C 
ENDBRANCH  22  28
ENDBRANCH  18  19
ENDBRANCH   7  18
ENDBRANCH   4   7
ENDBRANCH   2   3
BRANCH   2  30
ATOM     30  N   UNL     1      48.032  40.488  35.834  1.00  0.00    -0.343 N 
ATOM     31  C   UNL     1      48.117  39.716  37.041  1.00  0.00     0.243 C 
ATOM     32  H   UNL     1      47.240  40.301  35.176  1.00  0.00     0.164 HD
ATOM     33  O   UNL     1      49.054  39.924  37.858  1.00  0.00    -0.273 OA
BRANCH  31  34
ATOM     34  C   UNL     1      47.045  38.703  37.374  1.00  0.00     0.174 C 
ATOM     35  N   UNL     1      46.459  38.956  38.708  1.00  0.00    -0.329 N 
ATOM     36  C   UNL     1      47.636  37.282  37.302  1.00  0.00     0.035 C 
ATOM     37  C   UNL     1      45.541  37.951  39.259  1.00  0.00     0.120 C 
ATOM     38  C   UNL     1      46.622  36.238  37.770  1.00  0.00     0.004 C 
ATOM     39  C   UNL     1      46.157  36.553  39.193  1.00  0.00     0.022 C 
BRANCH  35  40
ATOM     40  C   UNL     1      46.259  40.307  39.147  1.00  0.00     0.246 CG0
ATOM     41  O   UNL     1      47.045  40.805  39.998  1.00  0.00    -0.272 OA
ATOM     42  G   UNL     1      45.097  41.113  38.619  1.00  0.00     0.000 G0
ENDBRANCH  35  40
ENDBRANCH  31  34
ENDBRANCH   2  30
ENDBRANCH   1   2
BRANCH   1  43
ATOM     43  C   UNL     1      50.088  40.233  33.882  1.00  0.00     0.003 C 
BRANCH  43  44
ATOM     44  C   UNL     1      49.037  39.432  33.095  1.00  0.00     0.001 C 
BRANCH  44  45
ATOM     45  C   UNL     1      49.448  37.963  32.888  1.00  0.00     0.008 C 
BRANCH  45  46
ATOM     46  C   UNL     1      48.265  36.997  33.085  1.00  0.00     0.075 C 
BRANCH  46  47
ATOM     47  C   UNL     1      48.640  35.646  33.654  1.00  0.00     0.132 C 
ATOM     48  O   UNL     1      49.773  35.235  33.444  1.00  0.00    -0.300 OA
BRANCH  47  49
ATOM     49  C   UNL     1      47.673  34.807  34.468  1.00  0.00     0.072 C 
ATOM     50  C   UNL     1      46.221  35.261  34.323  1.00  0.00     0.012 C 
ENDBRANCH  47  49
ENDBRANCH  46  47
ENDBRANCH  45  46
ENDBRANCH  44  45
ENDBRANCH  43  44
ENDBRANCH   1  43
TORSDOF 12
ENDMDL
MODEL 4
REMARK VINA RESULT:    -3.863      2.904      9.125
REMARK INTER + INTRA:         -12.028
REMARK INTER:                 -11.760
REMARK INTRA:                  -0.268
REMARK UNBOUND:                -3.874
REMARK SMILES CCC(=O)CCCCC[C@@H]1NC(=O)[C@H]2CCCCN2C(=O)[C@H]([C@@H](C)CC)NC(=O)[C@H](Cc2cn(OC)c3ccccc23)NC1=O
REMARK SMILES IDX 9 1 10 2 44 3 43 4 45 6 30 7 28 8 27 9 29 11 22 12 23 14
REMARK SMILES IDX 24 15 25 16 26 17 31 18 32 19 33 20 42 21 34 22 37 23 41 24
REMARK SMILES IDX 38 25 40 26 39 27 35 28 36 29 11 30 12 31 13 33 14 34 19 35
REMARK SMILES IDX 15 36 18 37 16 38 17 39 20 40 21 41 8 43 7 44 6 45 5 46 3 47
REMARK SMILES IDX 4 48 2 49 1 50
REMARK H PARENT 43 5 27 10 11 32
REMARK Flexibility Score: 80.00
ROOT
ATOM      1  C   UNL     1      45.791  46.752  41.797  1.00  0.00     0.035 C 
ENDROOT
BRANCH   1   2
ATOM      2  C   UNL     1      46.712  46.574  40.574  1.00  0.00     0.171 C 
BRANCH   2   3
ATOM      3  C   UNL     1      46.155  45.511  39.670  1.00  0.00     0.243 C 
ATOM      4  N   UNL     1      46.967  44.389  39.279  1.00  0.00    -0.342 N 
ATOM      5  H   UNL     1      47.816  44.183  39.848  1.00  0.00     0.164 HD
ATOM      6  O   UNL     1      44.971  45.624  39.253  1.00  0.00    -0.273 OA
BRANCH   4   7
ATOM      7  C   UNL     1      46.812  43.665  38.010  1.00  0.00     0.175 C 
BRANCH   7   8
ATOM      8  C   UNL     1      46.786  44.639  36.856  1.00  0.00     0.243 C 
ATOM      9  N   UNL     1      46.667  46.057  37.067  1.00  0.00    -0.342 N 
ATOM     10  H   UNL     1      46.317  46.389  37.989  1.00  0.00     0.164 HD
ATOM     11  O   UNL     1      46.921  44.191  35.685  1.00  0.00    -0.273 OA
BRANCH   9  12
ATOM     12  C   UNL     1      47.136  47.044  36.083  1.00  0.00     0.174 CG0
ATOM     13  G   UNL     1      48.500  47.558  36.474  1.00  0.00     0.000 G0
BRANCH  12  14
ATOM     14  C   UNL     1      46.091  48.173  35.833  1.00  0.00     0.018 C 
ATOM     15  C   UNL     1      45.327  47.951  34.516  1.00  0.00     0.010 C 
BRANCH  14  16
ATOM     16  C   UNL     1      45.138  48.518  37.012  1.00  0.00     0.002 C 
ATOM     17  C   UNL     1      45.096  49.989  37.433  1.00  0.00     0.004 C 
ENDBRANCH  14  16
ENDBRANCH  12  14
ENDBRANCH   9  12
ENDBRANCH   7   8
BRANCH   7  18
ATOM     18  C   UNL     1      45.607  42.699  38.025  1.00  0.00     0.073 C 
BRANCH  18  19
ATOM     19  C   UNL     1      46.042  41.294  37.713  1.00  0.00    -0.016 A 
ATOM     20  C   UNL     1      46.933  40.919  36.711  1.00  0.00     0.134 A 
ATOM     21  C   UNL     1      45.729  40.130  38.398  1.00  0.00     0.006 A 
ATOM     22  N   UNL     1      47.164  39.591  36.778  1.00  0.00    -0.191 N 
ATOM     23  C   UNL     1      46.427  39.109  37.796  1.00  0.00     0.087 A 
ATOM     24  C   UNL     1      44.871  39.894  39.475  1.00  0.00     0.011 A 
ATOM     25  C   UNL     1      46.297  37.785  38.217  1.00  0.00     0.030 A 
ATOM     26  C   UNL     1      44.745  38.571  39.937  1.00  0.00     0.001 A 
ATOM     27  C   UNL     1      45.449  37.521  39.308  1.00  0.00     0.002 A 
BRANCH  22  28
ATOM     28  O   UNL     1      47.951  38.874  35.899  1.00  0.00    -0.417 OA
ATOM     29  C   UNL     1      47.814  39.026  34.491  1.00  0.00     0.313 C 
ENDBRANCH  22  28
ENDBRANCH  18  19
ENDBRANCH   7  18
ENDBRANCH   4   7
ENDBRANCH   2   3
BRANCH   2  30
ATOM     30  N   UNL     1      46.842  47.820  39.810  1.00  0.00    -0.343 N 
ATOM     31  C   UNL     1      48.084  48.200  39.199  1.00  0.00     0.243 C 
ATOM     32  H   UNL     1      45.979  48.359  39.564  1.00  0.00     0.164 HD
ATOM     33  O   UNL     1      49.138  47.565  39.468  1.00  0.00    -0.273 OA
BRANCH  31  34
ATOM     34  C   UNL     1      48.121  49.314  38.178  1.00  0.00     0.174 C 
ATOM     35  N   UNL     1      48.758  48.872  36.919  1.00  0.00    -0.329 N 
ATOM     36  C   UNL     1      48.866  50.529  38.764  1.00  0.00     0.035 C 
ATOM     37  C   UNL     1      49.043  49.886  35.897  1.00  0.00     0.120 C 
ATOM     38  C   UNL     1      49.049  51.624  37.714  1.00  0.00     0.004 C 
ATOM     39  C   UNL     1      49.798  51.072  36.500  1.00  0.00     0.022 C 
BRANCH  35  40
ATOM     40  C   UNL     1      48.529  47.537  36.443  1.00  0.00     0.246 CG0
ATOM     41  O   UNL     1      49.509  46.761  36.281  1.00  0.00    -0.272 OA
ATOM     42  G   UNL     1      47.130  47.080  36.108  1.00  0.00     0.000 G0
ENDBRANCH  35  40
ENDBRANCH  31  34
ENDBRANCH   2  30
ENDBRANCH   1   2
BRANCH   1  43
ATOM     43  C   UNL     1      46.580  47.044  43.082  1.00  0.00     0.003 C 
BRANCH  43  44
ATOM     44  C   UNL     1      47.081  48.498  43.097  1.00  0.00     0.001 C 
BRANCH  44  45
ATOM     45  C   UNL     1      48.610  48.598  42.955  1.00  0.00     0.008 C 
BRANCH  45  46
ATOM     46  C   UNL     1      49.188  49.791  43.738  1.00  0.00     0.075 C 
BRANCH  46  47
ATOM     47  C   UNL     1      49.532  49.494  45.182  1.00  0.00     0.132 C 
ATOM     48  O   UNL     1      49.352  48.354  45.586  1.00  0.00    -0.300 OA
BRANCH  47  49
ATOM     49  C   UNL     1      50.091  50.548  46.120  1.00  0.00     0.072 C 
ATOM     50  C   UNL     1      49.974  51.966  45.562  1.00  0.00     0.012 C 
ENDBRANCH  47  49
ENDBRANCH  46  47
ENDBRANCH  45  46
ENDBRANCH  44  45
ENDBRANCH  43  44
ENDBRANCH   1  43
TORSDOF 12
ENDMDL
MODEL 5
REMARK VINA RESULT:    -3.857      2.503      6.440
REMARK INTER + INTRA:         -12.014
REMARK INTER:                  -9.684
REMARK INTRA:                  -2.330
REMARK UNBOUND:                -3.874
REMARK SMILES CCC(=O)CCCCC[C@@H]1NC(=O)[C@H]2CCCCN2C(=O)[C@H]([C@@H](C)CC)NC(=O)[C@H](Cc2cn(OC)c3ccccc23)NC1=O
REMARK SMILES IDX 9 1 10 2 44 3 43 4 45 6 30 7 28 8 27 9 29 11 22 12 23 14
REMARK SMILES IDX 24 15 25 16 26 17 31 18 32 19 33 20 42 21 34 22 37 23 41 24
REMARK SMILES IDX 38 25 40 26 39 27 35 28 36 29 11 30 12 31 13 33 14 34 19 35
REMARK SMILES IDX 15 36 18 37 16 38 17 39 20 40 21 41 8 43 7 44 6 45 5 46 3 47
REMARK SMILES IDX 4 48 2 49 1 50
REMARK H PARENT 43 5 27 10 11 32
REMARK Flexibility Score: 80.00
ROOT
ATOM      1  C   UNL     1      44.059  39.809  39.692  1.00  0.00     0.035 C 
ENDROOT
BRANCH   1   2
ATOM      2  C   UNL     1      44.536  39.817  38.226  1.00  0.00     0.171 C 
BRANCH   2   3
ATOM      3  C   UNL     1      45.506  40.944  38.013  1.00  0.00     0.243 C 
ATOM      4  N   UNL     1      45.108  42.119  37.284  1.00  0.00    -0.342 N 
ATOM      5  H   UNL     1      44.088  42.294  37.165  1.00  0.00     0.164 HD
ATOM      6  O   UNL     1      46.674  40.839  38.474  1.00  0.00    -0.273 OA
BRANCH   4   7
ATOM      7  C   UNL     1      46.033  42.954  36.503  1.00  0.00     0.175 C 
BRANCH   7   8
ATOM      8  C   UNL     1      46.782  42.105  35.503  1.00  0.00     0.243 C 
ATOM      9  N   UNL     1      47.770  41.146  35.918  1.00  0.00    -0.342 N 
ATOM     10  H   UNL     1      48.170  41.234  36.875  1.00  0.00     0.164 HD
ATOM     11  O   UNL     1      46.492  42.215  34.281  1.00  0.00    -0.273 OA
BRANCH   9  12
ATOM     12  C   UNL     1      48.138  39.984  35.094  1.00  0.00     0.174 CG0
ATOM     13  G   UNL     1      48.108  38.726  35.927  1.00  0.00     0.000 G0
BRANCH  12  14
ATOM     14  C   UNL     1      49.483  40.199  34.336  1.00  0.00     0.018 C 
ATOM     15  C   UNL     1      49.419  39.635  32.906  1.00  0.00     0.010 C 
BRANCH  14  16
ATOM     16  C   UNL     1      50.088  41.631  34.375  1.00  0.00     0.002 C 
ATOM     17  C   UNL     1      50.004  42.430  33.073  1.00  0.00     0.004 C 
ENDBRANCH  14  16
ENDBRANCH  12  14
ENDBRANCH   9  12
ENDBRANCH   7   8
BRANCH   7  18
ATOM     18  C   UNL     1      46.957  43.807  37.399  1.00  0.00     0.073 C 
BRANCH  18  19
ATOM     19  C   UNL     1      46.472  45.228  37.470  1.00  0.00    -0.016 A 
ATOM     20  C   UNL     1      46.692  46.215  36.513  1.00  0.00     0.134 A 
ATOM     21  C   UNL     1      45.651  45.804  38.428  1.00  0.00     0.006 A 
ATOM     22  N   UNL     1      46.036  47.342  36.859  1.00  0.00    -0.191 N 
ATOM     23  C   UNL     1      45.410  47.098  38.026  1.00  0.00     0.087 A 
ATOM     24  C   UNL     1      45.129  45.301  39.622  1.00  0.00     0.011 A 
ATOM     25  C   UNL     1      44.650  47.976  38.799  1.00  0.00     0.030 A 
ATOM     26  C   UNL     1      44.334  46.158  40.406  1.00  0.00     0.001 A 
ATOM     27  C   UNL     1      44.101  47.490  40.000  1.00  0.00     0.002 A 
BRANCH  22  28
ATOM     28  O   UNL     1      46.082  48.535  36.166  1.00  0.00    -0.417 OA
ATOM     29  C   UNL     1      46.910  49.608  36.599  1.00  0.00     0.313 C 
ENDBRANCH  22  28
ENDBRANCH  18  19
ENDBRANCH   7  18
ENDBRANCH   4   7
ENDBRANCH   2   3
BRANCH   2  30
ATOM     30  N   UNL     1      45.195  38.556  37.866  1.00  0.00    -0.343 N 
ATOM     31  C   UNL     1      45.317  38.136  36.498  1.00  0.00     0.243 C 
ATOM     32  H   UNL     1      45.730  38.034  38.598  1.00  0.00     0.164 HD
ATOM     33  O   UNL     1      44.692  38.750  35.593  1.00  0.00    -0.273 OA
BRANCH  31  34
ATOM     34  C   UNL     1      46.250  37.005  36.129  1.00  0.00     0.174 C 
ATOM     35  N   UNL     1      47.488  37.511  35.499  1.00  0.00    -0.329 N 
ATOM     36  C   UNL     1      45.525  36.023  35.190  1.00  0.00     0.035 C 
ATOM     37  C   UNL     1      48.411  36.532  34.911  1.00  0.00     0.120 C 
ATOM     38  C   UNL     1      46.478  34.941  34.680  1.00  0.00     0.004 C 
ATOM     39  C   UNL     1      47.671  35.580  33.969  1.00  0.00     0.022 C 
BRANCH  35  40
ATOM     40  C   UNL     1      48.074  38.732  35.973  1.00  0.00     0.246 CG0
ATOM     41  O   UNL     1      48.506  38.793  37.156  1.00  0.00    -0.272 OA
ATOM     42  G   UNL     1      48.141  39.941  35.073  1.00  0.00     0.000 G0
ENDBRANCH  35  40
ENDBRANCH  31  34
ENDBRANCH   2  30
ENDBRANCH   1   2
BRANCH   1  43
ATOM     43  C   UNL     1      42.551  40.069  39.815  1.00  0.00     0.003 C 
BRANCH  43  44
ATOM     44  C   UNL     1      41.984  40.629  38.500  1.00  0.00     0.001 C 
BRANCH  44  45
ATOM     45  C   UNL     1      41.222  39.569  37.685  1.00  0.00     0.008 C 
BRANCH  45  46
ATOM     46  C   UNL     1      41.598  39.604  36.193  1.00  0.00     0.075 C 
BRANCH  46  47
ATOM     47  C   UNL     1      40.967  38.513  35.355  1.00  0.00     0.132 C 
ATOM     48  O   UNL     1      41.612  37.489  35.176  1.00  0.00    -0.300 OA
BRANCH  47  49
ATOM     49  C   UNL     1      39.582  38.647  34.750  1.00  0.00     0.072 C 
ATOM     50  C   UNL     1      39.320  37.638  33.631  1.00  0.00     0.012 C 
ENDBRANCH  47  49
ENDBRANCH  46  47
ENDBRANCH  45  46
ENDBRANCH  44  45
ENDBRANCH  43  44
ENDBRANCH   1  43
TORSDOF 12
ENDMDL
MODEL 6
REMARK VINA RESULT:    -3.551      2.559      8.289
REMARK INTER + INTRA:         -11.369
REMARK INTER:                  -9.555
REMARK INTRA:                  -1.814
REMARK UNBOUND:                -3.874
REMARK SMILES CCC(=O)CCCCC[C@@H]1NC(=O)[C@H]2CCCCN2C(=O)[C@H]([C@@H](C)CC)NC(=O)[C@H](Cc2cn(OC)c3ccccc23)NC1=O
REMARK SMILES IDX 9 1 10 2 44 3 43 4 45 6 30 7 28 8 27 9 29 11 22 12 23 14
REMARK SMILES IDX 24 15 25 16 26 17 31 18 32 19 33 20 42 21 34 22 37 23 41 24
REMARK SMILES IDX 38 25 40 26 39 27 35 28 36 29 11 30 12 31 13 33 14 34 19 35
REMARK SMILES IDX 15 36 18 37 16 38 17 39 20 40 21 41 8 43 7 44 6 45 5 46 3 47
REMARK SMILES IDX 4 48 2 49 1 50
REMARK H PARENT 43 5 27 10 11 32
REMARK Flexibility Score: 80.00
ROOT
ATOM      1  C   UNL     1      47.964  43.973  34.067  1.00  0.00     0.035 C 
ENDROOT
BRANCH   1   2
ATOM      2  C   UNL     1      47.216  44.875  35.069  1.00  0.00     0.171 C 
BRANCH   2   3
ATOM      3  C   UNL     1      47.038  44.149  36.372  1.00  0.00     0.243 C 
ATOM      4  N   UNL     1      45.737  43.687  36.777  1.00  0.00    -0.342 N 
ATOM      5  H   UNL     1      45.000  43.609  36.044  1.00  0.00     0.164 HD
ATOM      6  O   UNL     1      48.045  43.960  37.107  1.00  0.00    -0.273 OA
BRANCH   4   7
ATOM      7  C   UNL     1      45.315  43.544  38.177  1.00  0.00     0.175 C 
BRANCH   7   8
ATOM      8  C   UNL     1      45.504  44.849  38.913  1.00  0.00     0.243 C 
ATOM      9  N   UNL     1      46.807  45.309  39.312  1.00  0.00    -0.342 N 
ATOM     10  H   UNL     1      47.584  44.616  39.347  1.00  0.00     0.164 HD
ATOM     11  O   UNL     1      44.492  45.569  39.136  1.00  0.00    -0.273 OA
BRANCH   9  12
ATOM     12  C   UNL     1      47.105  46.729  39.550  1.00  0.00     0.174 CG0
ATOM     13  G   UNL     1      48.255  47.171  38.678  1.00  0.00     0.000 G0
BRANCH  12  14
ATOM     14  C   UNL     1      47.311  47.046  41.063  1.00  0.00     0.018 C 
ATOM     15  C   UNL     1      47.878  48.461  41.269  1.00  0.00     0.010 C 
BRANCH  14  16
ATOM     16  C   UNL     1      46.113  46.751  42.009  1.00  0.00     0.002 C 
ATOM     17  C   UNL     1      46.257  47.250  43.448  1.00  0.00     0.004 C 
ENDBRANCH  14  16
ENDBRANCH  12  14
ENDBRANCH   9  12
ENDBRANCH   7   8
BRANCH   7  18
ATOM     18  C   UNL     1      45.986  42.342  38.876  1.00  0.00     0.073 C 
BRANCH  18  19
ATOM     19  C   UNL     1      45.463  41.043  38.331  1.00  0.00    -0.016 A 
ATOM     20  C   UNL     1      44.267  40.871  37.640  1.00  0.00     0.134 A 
ATOM     21  C   UNL     1      46.090  39.805  38.321  1.00  0.00     0.006 A 
ATOM     22  N   UNL     1      44.162  39.593  37.219  1.00  0.00    -0.191 N 
ATOM     23  C   UNL     1      45.263  38.942  37.639  1.00  0.00     0.087 A 
ATOM     24  C   UNL     1      47.296  39.376  38.878  1.00  0.00     0.011 A 
ATOM     25  C   UNL     1      45.579  37.592  37.488  1.00  0.00     0.030 A 
ATOM     26  C   UNL     1      47.651  38.024  38.715  1.00  0.00     0.001 A 
ATOM     27  C   UNL     1      46.796  37.135  38.029  1.00  0.00     0.002 A 
BRANCH  22  28
ATOM     28  O   UNL     1      43.076  39.060  36.553  1.00  0.00    -0.417 OA
ATOM     29  C   UNL     1      41.778  39.625  36.687  1.00  0.00     0.313 C 
ENDBRANCH  22  28
ENDBRANCH  18  19
ENDBRANCH   7  18
ENDBRANCH   4   7
ENDBRANCH   2   3
BRANCH   2  30
ATOM     30  N   UNL     1      47.947  46.122  35.322  1.00  0.00    -0.343 N 
ATOM     31  C   UNL     1      47.306  47.260  35.919  1.00  0.00     0.243 C 
ATOM     32  H   UNL     1      48.988  46.131  35.222  1.00  0.00     0.164 HD
ATOM     33  O   UNL     1      46.054  47.275  36.062  1.00  0.00    -0.273 OA
BRANCH  31  34
ATOM     34  C   UNL     1      48.134  48.411  36.444  1.00  0.00     0.174 C 
ATOM     35  N   UNL     1      48.180  48.413  37.921  1.00  0.00    -0.329 N 
ATOM     36  C   UNL     1      47.561  49.741  35.918  1.00  0.00     0.035 C 
ATOM     37  C   UNL     1      48.782  49.573  38.591  1.00  0.00     0.120 C 
ATOM     38  C   UNL     1      48.282  50.937  36.540  1.00  0.00     0.004 C 
ATOM     39  C   UNL     1      48.185  50.879  38.065  1.00  0.00     0.022 C 
BRANCH  35  40
ATOM     40  C   UNL     1      48.249  47.166  38.627  1.00  0.00     0.246 CG0
ATOM     41  O   UNL     1      49.240  46.407  38.449  1.00  0.00    -0.272 OA
ATOM     42  G   UNL     1      47.127  46.752  39.548  1.00  0.00     0.000 G0
ENDBRANCH  35  40
ENDBRANCH  31  34
ENDBRANCH   2  30
ENDBRANCH   1   2
BRANCH   1  43
ATOM     43  C   UNL     1      49.431  43.754  34.463  1.00  0.00     0.003 C 
BRANCH  43  44
ATOM     44  C   UNL     1      50.098  42.721  33.540  1.00  0.00     0.001 C 
BRANCH  44  45
ATOM     45  C   UNL     1      50.125  41.310  34.153  1.00  0.00     0.008 C 
BRANCH  45  46
ATOM     46  C   UNL     1      49.060  41.135  35.251  1.00  0.00     0.075 C 
BRANCH  46  47
ATOM     47  C   UNL     1      47.815  40.395  34.812  1.00  0.00     0.132 C 
ATOM     48  O   UNL     1      46.731  40.869  35.126  1.00  0.00    -0.300 OA
BRANCH  47  49
ATOM     49  C   UNL     1      47.870  39.113  34.003  1.00  0.00     0.072 C 
ATOM     50  C   UNL     1      48.100  37.872  34.866  1.00  0.00     0.012 C 
ENDBRANCH  47  49
ENDBRANCH  46  47
ENDBRANCH  45  46
ENDBRANCH  44  45
ENDBRANCH  43  44
ENDBRANCH   1  43
TORSDOF 12
ENDMDL
MODEL 7
REMARK VINA RESULT:    -3.512      2.871      6.199
REMARK INTER + INTRA:         -11.287
REMARK INTER:                 -11.323
REMARK INTRA:                   0.036
REMARK UNBOUND:                -3.874
REMARK SMILES CCC(=O)CCCCC[C@@H]1NC(=O)[C@H]2CCCCN2C(=O)[C@H]([C@@H](C)CC)NC(=O)[C@H](Cc2cn(OC)c3ccccc23)NC1=O
REMARK SMILES IDX 9 1 10 2 44 3 43 4 45 6 30 7 28 8 27 9 29 11 22 12 23 14
REMARK SMILES IDX 24 15 25 16 26 17 31 18 32 19 33 20 42 21 34 22 37 23 41 24
REMARK SMILES IDX 38 25 40 26 39 27 35 28 36 29 11 30 12 31 13 33 14 34 19 35
REMARK SMILES IDX 15 36 18 37 16 38 17 39 20 40 21 41 8 43 7 44 6 45 5 46 3 47
REMARK SMILES IDX 4 48 2 49 1 50
REMARK H PARENT 43 5 27 10 11 32
REMARK Flexibility Score: 80.00
ROOT
ATOM      1  C   UNL     1      42.215  40.307  38.286  1.00  0.00     0.035 C 
ENDROOT
BRANCH   1   2
ATOM      2  C   UNL     1      43.507  40.397  37.449  1.00  0.00     0.171 C 
BRANCH   2   3
ATOM      3  C   UNL     1      44.433  41.413  38.052  1.00  0.00     0.243 C 
ATOM      4  N   UNL     1      44.977  42.473  37.245  1.00  0.00    -0.342 N 
ATOM      5  H   UNL     1      44.504  42.686  36.341  1.00  0.00     0.164 HD
ATOM      6  O   UNL     1      44.733  41.317  39.273  1.00  0.00    -0.273 OA
BRANCH   4   7
ATOM      7  C   UNL     1      46.278  43.110  37.494  1.00  0.00     0.175 C 
BRANCH   7   8
ATOM      8  C   UNL     1      47.359  42.061  37.603  1.00  0.00     0.243 C 
ATOM      9  N   UNL     1      47.046  40.677  37.840  1.00  0.00    -0.342 N 
ATOM     10  H   UNL     1      46.104  40.443  38.215  1.00  0.00     0.164 HD
ATOM     11  O   UNL     1      48.559  42.410  37.433  1.00  0.00    -0.273 OA
BRANCH   9  12
ATOM     12  C   UNL     1      47.955  39.585  37.457  1.00  0.00     0.174 CG0
ATOM     13  G   UNL     1      47.668  39.144  36.043  1.00  0.00     0.000 G0
BRANCH  12  14
ATOM     14  C   UNL     1      47.945  38.418  38.490  1.00  0.00     0.018 C 
ATOM     15  C   UNL     1      49.148  38.504  39.447  1.00  0.00     0.010 C 
BRANCH  14  16
ATOM     16  C   UNL     1      46.611  38.164  39.247  1.00  0.00     0.002 C 
ATOM     17  C   UNL     1      46.129  36.712  39.288  1.00  0.00     0.004 C 
ENDBRANCH  14  16
ENDBRANCH  12  14
ENDBRANCH   9  12
ENDBRANCH   7   8
BRANCH   7  18
ATOM     18  C   UNL     1      46.240  44.080  38.694  1.00  0.00     0.073 C 
BRANCH  18  19
ATOM     19  C   UNL     1      46.597  45.477  38.267  1.00  0.00    -0.016 A 
ATOM     20  C   UNL     1      47.788  45.866  37.663  1.00  0.00     0.134 A 
ATOM     21  C   UNL     1      45.798  46.611  38.300  1.00  0.00     0.006 A 
ATOM     22  N   UNL     1      47.727  47.174  37.333  1.00  0.00    -0.191 N 
ATOM     23  C   UNL     1      46.524  47.629  37.727  1.00  0.00     0.087 A 
ATOM     24  C   UNL     1      44.515  46.823  38.810  1.00  0.00     0.011 A 
ATOM     25  C   UNL     1      46.023  48.929  37.646  1.00  0.00     0.030 A 
ATOM     26  C   UNL     1      43.976  48.119  38.714  1.00  0.00     0.001 A 
ATOM     27  C   UNL     1      44.727  49.168  38.141  1.00  0.00     0.002 A 
BRANCH  22  28
ATOM     28  O   UNL     1      48.757  47.902  36.771  1.00  0.00    -0.417 OA
ATOM     29  C   UNL     1      50.114  47.504  36.926  1.00  0.00     0.313 C 
ENDBRANCH  22  28
ENDBRANCH  18  19
ENDBRANCH   7  18
ENDBRANCH   4   7
ENDBRANCH   2   3
BRANCH   2  30
ATOM     30  N   UNL     1      44.201  39.105  37.389  1.00  0.00    -0.343 N 
ATOM     31  C   UNL     1      44.853  38.658  36.191  1.00  0.00     0.243 C 
ATOM     32  H   UNL     1      44.368  38.575  38.276  1.00  0.00     0.164 HD
ATOM     33  O   UNL     1      44.679  39.281  35.109  1.00  0.00    -0.273 OA
BRANCH  31  34
ATOM     34  C   UNL     1      45.807  37.486  36.234  1.00  0.00     0.174 C 
ATOM     35  N   UNL     1      47.145  37.860  35.731  1.00  0.00    -0.329 N 
ATOM     36  C   UNL     1      45.226  36.317  35.416  1.00  0.00     0.035 C 
ATOM     37  C   UNL     1      48.130  36.789  35.529  1.00  0.00     0.120 C 
ATOM     38  C   UNL     1      46.225  35.163  35.317  1.00  0.00     0.004 C 
ATOM     39  C   UNL     1      47.536  35.650  34.699  1.00  0.00     0.022 C 
BRANCH  35  40
ATOM     40  C   UNL     1      47.673  39.161  36.027  1.00  0.00     0.246 CG0
ATOM     41  O   UNL     1      47.953  39.946  35.081  1.00  0.00    -0.272 OA
ATOM     42  G   UNL     1      47.923  39.571  37.458  1.00  0.00     0.000 G0
ENDBRANCH  35  40
ENDBRANCH  31  34
ENDBRANCH   2  30
ENDBRANCH   1   2
BRANCH   1  43
ATOM     43  C   UNL     1      40.964  40.147  37.410  1.00  0.00     0.003 C 
BRANCH  43  44
ATOM     44  C   UNL     1      41.336  39.603  36.020  1.00  0.00     0.001 C 
BRANCH  44  45
ATOM     45  C   UNL     1      41.020  38.105  35.867  1.00  0.00     0.008 C 
BRANCH  45  46
ATOM     46  C   UNL     1      41.300  37.596  34.442  1.00  0.00     0.075 C 
BRANCH  46  47
ATOM     47  C   UNL     1      40.239  37.952  33.422  1.00  0.00     0.132 C 
ATOM     48  O   UNL     1      40.244  39.089  32.970  1.00  0.00    -0.300 OA
BRANCH  47  49
ATOM     49  C   UNL     1      39.197  36.957  32.949  1.00  0.00     0.072 C 
ATOM     50  C   UNL     1      39.557  35.510  33.285  1.00  0.00     0.012 C 
ENDBRANCH  47  49
ENDBRANCH  46  47
ENDBRANCH  45  46
ENDBRANCH  44  45
ENDBRANCH  43  44
ENDBRANCH   1  43
TORSDOF 12
ENDMDL
MODEL 8
REMARK VINA RESULT:    -3.457      1.466      2.555
REMARK INTER + INTRA:         -11.171
REMARK INTER:                  -9.118
REMARK INTRA:                  -2.054
REMARK UNBOUND:                -3.874
REMARK SMILES CCC(=O)CCCCC[C@@H]1NC(=O)[C@H]2CCCCN2C(=O)[C@H]([C@@H](C)CC)NC(=O)[C@H](Cc2cn(OC)c3ccccc23)NC1=O
REMARK SMILES IDX 9 1 10 2 44 3 43 4 45 6 30 7 28 8 27 9 29 11 22 12 23 14
REMARK SMILES IDX 24 15 25 16 26 17 31 18 32 19 33 20 42 21 34 22 37 23 41 24
REMARK SMILES IDX 38 25 40 26 39 27 35 28 36 29 11 30 12 31 13 33 14 34 19 35
REMARK SMILES IDX 15 36 18 37 16 38 17 39 20 40 21 41 8 43 7 44 6 45 5 46 3 47
REMARK SMILES IDX 4 48 2 49 1 50
REMARK H PARENT 43 5 27 10 11 32
REMARK Flexibility Score: 80.00
ROOT
ATOM      1  C   UNL     1      49.014  42.797  33.276  1.00  0.00     0.035 C 
ENDROOT
BRANCH   1   2
ATOM      2  C   UNL     1      49.094  41.715  34.371  1.00  0.00     0.171 C 
BRANCH   2   3
ATOM      3  C   UNL     1      48.342  42.169  35.589  1.00  0.00     0.243 C 
ATOM      4  N   UNL     1      49.040  42.442  36.818  1.00  0.00    -0.342 N 
ATOM      5  H   UNL     1      50.070  42.596  36.766  1.00  0.00     0.164 HD
ATOM      6  O   UNL     1      47.089  42.297  35.520  1.00  0.00    -0.273 OA
BRANCH   4   7
ATOM      7  C   UNL     1      48.446  42.286  38.153  1.00  0.00     0.175 C 
BRANCH   7   8
ATOM      8  C   UNL     1      48.067  40.843  38.389  1.00  0.00     0.243 C 
ATOM      9  N   UNL     1      46.775  40.332  38.019  1.00  0.00    -0.342 N 
ATOM     10  H   UNL     1      46.006  41.013  37.850  1.00  0.00     0.164 HD
ATOM     11  O   UNL     1      48.930  40.065  38.879  1.00  0.00    -0.273 OA
BRANCH   9  12
ATOM     12  C   UNL     1      46.537  38.905  37.751  1.00  0.00     0.174 CG0
ATOM     13  G   UNL     1      46.114  38.710  36.315  1.00  0.00     0.000 G0
BRANCH  12  14
ATOM     14  C   UNL     1      45.559  38.265  38.783  1.00  0.00     0.018 C 
ATOM     15  C   UNL     1      46.272  37.219  39.658  1.00  0.00     0.010 C 
BRANCH  14  16
ATOM     16  C   UNL     1      44.692  39.242  39.625  1.00  0.00     0.002 C 
ATOM     17  C   UNL     1      43.847  38.606  40.731  1.00  0.00     0.004 C 
ENDBRANCH  14  16
ENDBRANCH  12  14
ENDBRANCH   9  12
ENDBRANCH   7   8
BRANCH   7  18
ATOM     18  C   UNL     1      47.286  43.274  38.401  1.00  0.00     0.073 C 
BRANCH  18  19
ATOM     19  C   UNL     1      47.804  44.671  38.604  1.00  0.00    -0.016 A 
ATOM     20  C   UNL     1      48.880  45.247  37.935  1.00  0.00     0.134 A 
ATOM     21  C   UNL     1      47.273  45.671  39.406  1.00  0.00     0.006 A 
ATOM     22  N   UNL     1      49.004  46.540  38.300  1.00  0.00    -0.191 N 
ATOM     23  C   UNL     1      48.036  46.797  39.199  1.00  0.00     0.087 A 
ATOM     24  C   UNL     1      46.208  45.664  40.309  1.00  0.00     0.011 A 
ATOM     25  C   UNL     1      47.797  47.982  39.897  1.00  0.00     0.030 A 
ATOM     26  C   UNL     1      45.928  46.855  41.004  1.00  0.00     0.001 A 
ATOM     27  C   UNL     1      46.721  48.006  40.804  1.00  0.00     0.002 A 
BRANCH  22  28
ATOM     28  O   UNL     1      50.002  47.395  37.875  1.00  0.00    -0.417 OA
ATOM     29  C   UNL     1      49.721  48.481  37.001  1.00  0.00     0.313 C 
ENDBRANCH  22  28
ENDBRANCH  18  19
ENDBRANCH   7  18
ENDBRANCH   4   7
ENDBRANCH   2   3
BRANCH   2  30
ATOM     30  N   UNL     1      48.525  40.442  33.914  1.00  0.00    -0.343 N 
ATOM     31  C   UNL     1      48.490  39.286  34.766  1.00  0.00     0.243 C 
ATOM     32  H   UNL     1      47.987  40.418  33.017  1.00  0.00     0.164 HD
ATOM     33  O   UNL     1      49.120  39.289  35.856  1.00  0.00    -0.273 OA
BRANCH  31  34
ATOM     34  C   UNL     1      47.640  38.093  34.394  1.00  0.00     0.174 C 
ATOM     35  N   UNL     1      46.738  37.707  35.500  1.00  0.00    -0.329 N 
ATOM     36  C   UNL     1      48.549  36.914  34.000  1.00  0.00     0.035 C 
ATOM     37  C   UNL     1      45.985  36.453  35.371  1.00  0.00     0.120 C 
ATOM     38  C   UNL     1      47.732  35.645  33.755  1.00  0.00     0.004 C 
ATOM     39  C   UNL     1      46.912  35.295  34.997  1.00  0.00     0.022 C 
BRANCH  35  40
ATOM     40  C   UNL     1      46.136  38.728  36.310  1.00  0.00     0.246 CG0
ATOM     41  O   UNL     1      45.301  39.517  35.792  1.00  0.00    -0.272 OA
ATOM     42  G   UNL     1      46.528  38.876  37.760  1.00  0.00     0.000 G0
ENDBRANCH  35  40
ENDBRANCH  31  34
ENDBRANCH   2  30
ENDBRANCH   1   2
BRANCH   1  43
ATOM     43  C   UNL     1      48.708  44.188  33.852  1.00  0.00     0.003 C 
BRANCH  43  44
ATOM     44  C   UNL     1      47.528  44.838  33.111  1.00  0.00     0.001 C 
BRANCH  44  45
ATOM     45  C   UNL     1      46.189  44.643  33.846  1.00  0.00     0.008 C 
BRANCH  45  46
ATOM     46  C   UNL     1      45.547  45.983  34.247  1.00  0.00     0.075 C 
BRANCH  46  47
ATOM     47  C   UNL     1      46.071  46.575  35.538  1.00  0.00     0.132 C 
ATOM     48  O   UNL     1      47.233  46.956  35.558  1.00  0.00    -0.300 OA
BRANCH  47  49
ATOM     49  C   UNL     1      45.210  46.715  36.779  1.00  0.00     0.072 C 
ATOM     50  C   UNL     1      45.150  48.150  37.304  1.00  0.00     0.012 C 
ENDBRANCH  47  49
ENDBRANCH  46  47
ENDBRANCH  45  46
ENDBRANCH  44  45
ENDBRANCH  43  44
ENDBRANCH   1  43
TORSDOF 12
ENDMDL
MODEL 9
REMARK VINA RESULT:    -3.296      1.242      2.025
REMARK INTER + INTRA:         -10.832
REMARK INTER:                  -8.501
REMARK INTRA:                  -2.331
REMARK UNBOUND:                -3.874
REMARK SMILES CCC(=O)CCCCC[C@@H]1NC(=O)[C@H]2CCCCN2C(=O)[C@H]([C@@H](C)CC)NC(=O)[C@H](Cc2cn(OC)c3ccccc23)NC1=O
REMARK SMILES IDX 9 1 10 2 44 3 43 4 45 6 30 7 28 8 27 9 29 11 22 12 23 14
REMARK SMILES IDX 24 15 25 16 26 17 31 18 32 19 33 20 42 21 34 22 37 23 41 24
REMARK SMILES IDX 38 25 40 26 39 27 35 28 36 29 11 30 12 31 13 33 14 34 19 35
REMARK SMILES IDX 15 36 18 37 16 38 17 39 20 40 21 41 8 43 7 44 6 45 5 46 3 47
REMARK SMILES IDX 4 48 2 49 1 50
REMARK H PARENT 43 5 27 10 11 32
REMARK Flexibility Score: 80.00
ROOT
ATOM      1  C   UNL     1      47.659  44.170  33.891  1.00  0.00     0.035 C 
ENDROOT
BRANCH   1   2
ATOM      2  C   UNL     1      47.865  43.094  34.975  1.00  0.00     0.171 C 
BRANCH   2   3
ATOM      3  C   UNL     1      46.967  43.373  36.145  1.00  0.00     0.243 C 
ATOM      4  N   UNL     1      47.521  43.784  37.408  1.00  0.00    -0.342 N 
ATOM      5  H   UNL     1      48.496  44.154  37.412  1.00  0.00     0.164 HD
ATOM      6  O   UNL     1      45.722  43.232  36.006  1.00  0.00    -0.273 OA
BRANCH   4   7
ATOM      7  C   UNL     1      46.900  43.501  38.709  1.00  0.00     0.175 C 
BRANCH   7   8
ATOM      8  C   UNL     1      46.729  42.012  38.892  1.00  0.00     0.243 C 
ATOM      9  N   UNL     1      45.604  41.308  38.338  1.00  0.00    -0.342 N 
ATOM     10  H   UNL     1      44.768  41.860  38.057  1.00  0.00     0.164 HD
ATOM     11  O   UNL     1      47.626  41.372  39.506  1.00  0.00    -0.273 OA
BRANCH   9  12
ATOM     12  C   UNL     1      45.641  39.867  38.043  1.00  0.00     0.174 CG0
ATOM     13  G   UNL     1      45.477  39.637  36.561  1.00  0.00     0.000 G0
BRANCH  12  14
ATOM     14  C   UNL     1      44.633  39.058  38.916  1.00  0.00     0.018 C 
ATOM     15  C   UNL     1      45.295  37.813  39.530  1.00  0.00     0.010 C 
BRANCH  14  16
ATOM     16  C   UNL     1      43.811  39.862  39.962  1.00  0.00     0.002 C 
ATOM     17  C   UNL     1      42.739  40.797  39.399  1.00  0.00     0.004 C 
ENDBRANCH  14  16
ENDBRANCH  12  14
ENDBRANCH   9  12
ENDBRANCH   7   8
BRANCH   7  18
ATOM     18  C   UNL     1      45.596  44.300  38.927  1.00  0.00     0.073 C 
BRANCH  18  19
ATOM     19  C   UNL     1      45.773  45.736  38.520  1.00  0.00    -0.016 A 
ATOM     20  C   UNL     1      45.238  46.334  37.382  1.00  0.00     0.134 A 
ATOM     21  C   UNL     1      46.405  46.752  39.222  1.00  0.00     0.006 A 
ATOM     22  N   UNL     1      45.520  47.654  37.384  1.00  0.00    -0.191 N 
ATOM     23  C   UNL     1      46.236  47.908  38.495  1.00  0.00     0.087 A 
ATOM     24  C   UNL     1      47.130  46.738  40.416  1.00  0.00     0.011 A 
ATOM     25  C   UNL     1      46.798  49.118  38.903  1.00  0.00     0.030 A 
ATOM     26  C   UNL     1      47.681  47.952  40.864  1.00  0.00     0.001 A 
ATOM     27  C   UNL     1      47.522  49.134  40.110  1.00  0.00     0.002 A 
BRANCH  22  28
ATOM     28  O   UNL     1      45.193  48.539  36.377  1.00  0.00    -0.417 OA
ATOM     29  C   UNL     1      45.984  48.644  35.199  1.00  0.00     0.313 C 
ENDBRANCH  22  28
ENDBRANCH  18  19
ENDBRANCH   7  18
ENDBRANCH   4   7
ENDBRANCH   2   3
BRANCH   2  30
ATOM     30  N   UNL     1      47.569  41.750  34.464  1.00  0.00    -0.343 N 
ATOM     31  C   UNL     1      47.866  40.573  35.231  1.00  0.00     0.243 C 
ATOM     32  H   UNL     1      46.982  41.650  33.604  1.00  0.00     0.164 HD
ATOM     33  O   UNL     1      48.562  40.662  36.277  1.00  0.00    -0.273 OA
BRANCH  31  34
ATOM     34  C   UNL     1      47.285  39.236  34.830  1.00  0.00     0.174 C 
ATOM     35  N   UNL     1      46.350  38.724  35.854  1.00  0.00    -0.329 N 
ATOM     36  C   UNL     1      48.426  38.230  34.585  1.00  0.00     0.035 C 
ATOM     37  C   UNL     1      45.849  37.352  35.706  1.00  0.00     0.120 C 
ATOM     38  C   UNL     1      47.877  36.829  34.316  1.00  0.00     0.004 C 
ATOM     39  C   UNL     1      47.001  36.370  35.482  1.00  0.00     0.022 C 
BRANCH  35  40
ATOM     40  C   UNL     1      45.494  39.641  36.551  1.00  0.00     0.246 CG0
ATOM     41  O   UNL     1      44.623  40.286  35.907  1.00  0.00    -0.272 OA
ATOM     42  G   UNL     1      45.659  39.856  38.035  1.00  0.00     0.000 G0
ENDBRANCH  35  40
ENDBRANCH  31  34
ENDBRANCH   2  30
ENDBRANCH   1   2
BRANCH   1  43
ATOM     43  C   UNL     1      48.814  44.206  32.879  1.00  0.00     0.003 C 
BRANCH  43  44
ATOM     44  C   UNL     1      50.124  44.634  33.560  1.00  0.00     0.001 C 
BRANCH  44  45
ATOM     45  C   UNL     1      49.938  44.947  35.056  1.00  0.00     0.008 C 
BRANCH  45  46
ATOM     46  C   UNL     1      49.837  46.459  35.323  1.00  0.00     0.075 C 
BRANCH  46  47
ATOM     47  C   UNL     1      49.635  46.833  36.776  1.00  0.00     0.132 C 
ATOM     48  O   UNL     1      49.393  45.932  37.567  1.00  0.00    -0.300 OA
BRANCH  47  49
ATOM     49  C   UNL     1      49.733  48.264  37.271  1.00  0.00     0.072 C 
ATOM     50  C   UNL     1      50.124  49.251  36.171  1.00  0.00     0.012 C 
ENDBRANCH  47  49
ENDBRANCH  46  47
ENDBRANCH  45  46
ENDBRANCH  44  45
ENDBRANCH  43  44
ENDBRANCH   1  43
TORSDOF 12
ENDMDL
