MODEL 1
REMARK VINA RESULT:    -6.657      0.000      0.000
REMARK INTER + INTRA:         -16.496
REMARK INTER:                 -14.051
REMARK INTRA:                  -2.445
REMARK UNBOUND:                -2.445
REMARK SMILES CCC(=O)CCCCC[C@@H]1NC(=O)[C@H]2CCCCN2C(=O)[C@@H]([C@@H](C)CC)NC(=O)[C@@H](Cc2cn(OC)c3ccccc23)NC1=O
REMARK SMILES IDX 9 1 10 2 44 3 43 4 45 6 30 7 28 8 27 9 29 11 22 12 23 14
REMARK SMILES IDX 24 15 25 16 26 17 31 18 32 19 33 20 42 21 34 22 37 23 41 24
REMARK SMILES IDX 38 25 40 26 39 27 35 28 36 29 11 30 12 31 13 33 14 34 19 35
REMARK SMILES IDX 15 36 18 37 16 38 17 39 20 40 21 41 8 43 7 44 6 45 5 46 3 47
REMARK SMILES IDX 4 48 2 49 1 50
REMARK H PARENT 43 5 27 10 11 32
REMARK Flexibility Score: 80.00
ROOT
ATOM      1  C   UNL     1      19.389 -27.378  21.248  1.00  0.00     0.035 C 
ENDROOT
BRANCH   1   2
ATOM      2  C   UNL     1      18.858 -28.825  21.331  1.00  0.00     0.171 C 
BRANCH   2   3
ATOM      3  C   UNL     1      19.667 -29.693  22.253  1.00  0.00     0.243 C 
ATOM      4  N   UNL     1      19.887 -31.067  21.915  1.00  0.00    -0.342 N 
ATOM      5  H   UNL     1      19.714 -31.366  20.928  1.00  0.00     0.164 HD
ATOM      6  O   UNL     1      20.048 -29.246  23.369  1.00  0.00    -0.273 OA
BRANCH   4   7
ATOM      7  C   UNL     1      20.104 -32.106  22.923  1.00  0.00     0.175 C 
BRANCH   7   8
ATOM      8  C   UNL     1      18.905 -32.244  23.836  1.00  0.00     0.243 C 
ATOM      9  N   UNL     1      17.631 -32.709  23.349  1.00  0.00    -0.342 N 
ATOM     10  H   UNL     1      17.534 -32.921  22.335  1.00  0.00     0.164 HD
ATOM     11  O   UNL     1      19.060 -32.004  25.065  1.00  0.00    -0.273 OA
BRANCH   9  12
ATOM     12  C   UNL     1      16.578 -33.199  24.250  1.00  0.00     0.174 CG0
ATOM     13  G   UNL     1      15.231 -32.554  23.972  1.00  0.00     0.000 G0
BRANCH  12  14
ATOM     14  C   UNL     1      16.525 -34.756  24.216  1.00  0.00     0.018 C 
ATOM     15  C   UNL     1      17.375 -35.319  23.061  1.00  0.00     0.010 C 
BRANCH  14  16
ATOM     16  C   UNL     1      16.914 -35.401  25.573  1.00  0.00     0.002 C 
ATOM     17  C   UNL     1      18.055 -36.416  25.447  1.00  0.00     0.004 C 
ENDBRANCH  14  16
ENDBRANCH  12  14
ENDBRANCH   9  12
ENDBRANCH   7   8
BRANCH   7  18
ATOM     18  C   UNL     1      20.413 -33.449  22.242  1.00  0.00     0.073 C 
BRANCH  18  19
ATOM     19  C   UNL     1      21.463 -34.203  23.009  1.00  0.00    -0.016 A 
ATOM     20  C   UNL     1      21.258 -35.317  23.812  1.00  0.00     0.134 A 
ATOM     21  C   UNL     1      22.833 -34.033  22.948  1.00  0.00     0.006 A 
ATOM     22  N   UNL     1      22.437 -35.809  24.252  1.00  0.00    -0.191 N 
ATOM     23  C   UNL     1      23.410 -35.021  23.719  1.00  0.00     0.087 A 
ATOM     24  C   UNL     1      23.593 -33.100  22.242  1.00  0.00     0.011 A 
ATOM     25  C   UNL     1      24.808 -35.107  23.832  1.00  0.00     0.030 A 
ATOM     26  C   UNL     1      24.989 -33.171  22.350  1.00  0.00     0.001 A 
ATOM     27  C   UNL     1      25.592 -34.168  23.141  1.00  0.00     0.002 A 
BRANCH  22  28
ATOM     28  O   UNL     1      22.512 -36.932  25.063  1.00  0.00    -0.417 OA
ATOM     29  C   UNL     1      22.415 -36.925  26.480  1.00  0.00     0.313 C 
ENDBRANCH  22  28
ENDBRANCH  18  19
ENDBRANCH   7  18
ENDBRANCH   4   7
ENDBRANCH   2   3
BRANCH   2  30
ATOM     30  N   UNL     1      17.475 -28.826  21.802  1.00  0.00    -0.343 N 
ATOM     31  C   UNL     1      16.713 -30.041  21.853  1.00  0.00     0.243 C 
ATOM     32  H   UNL     1      17.147 -28.014  22.376  1.00  0.00     0.164 HD
ATOM     33  O   UNL     1      16.881 -30.925  20.967  1.00  0.00    -0.273 OA
BRANCH  31  34
ATOM     34  C   UNL     1      15.703 -30.245  22.950  1.00  0.00     0.174 C 
ATOM     35  N   UNL     1      15.070 -31.579  22.851  1.00  0.00    -0.329 N 
ATOM     36  C   UNL     1      14.643 -29.117  22.922  1.00  0.00     0.035 C 
ATOM     37  C   UNL     1      13.907 -31.735  21.963  1.00  0.00     0.120 C 
ATOM     38  C   UNL     1      13.255 -29.639  23.296  1.00  0.00     0.004 C 
ATOM     39  C   UNL     1      12.806 -30.699  22.279  1.00  0.00     0.022 C 
BRANCH  35  40
ATOM     40  C   UNL     1      15.228 -32.518  23.934  1.00  0.00     0.246 CG0
ATOM     41  O   UNL     1      14.217 -32.820  24.626  1.00  0.00    -0.272 OA
ATOM     42  G   UNL     1      16.547 -33.204  24.250  1.00  0.00     0.000 G0
ENDBRANCH  35  40
ENDBRANCH  31  34
ENDBRANCH   2  30
ENDBRANCH   1   2
BRANCH   1  43
ATOM     43  C   UNL     1      20.591 -27.200  20.300  1.00  0.00     0.003 C 
BRANCH  43  44
ATOM     44  C   UNL     1      21.980 -27.226  20.971  1.00  0.00     0.001 C 
BRANCH  44  45
ATOM     45  C   UNL     1      23.138 -26.663  20.118  1.00  0.00     0.008 C 
BRANCH  45  46
ATOM     46  C   UNL     1      22.953 -25.195  19.699  1.00  0.00     0.075 C 
BRANCH  46  47
ATOM     47  C   UNL     1      23.413 -24.251  20.777  1.00  0.00     0.132 C 
ATOM     48  O   UNL     1      24.182 -23.344  20.491  1.00  0.00    -0.300 OA
BRANCH  47  49
ATOM     49  C   UNL     1      22.880 -24.396  22.183  1.00  0.00     0.072 C 
ATOM     50  C   UNL     1      21.497 -23.773  22.368  1.00  0.00     0.012 C 
ENDBRANCH  47  49
ENDBRANCH  46  47
ENDBRANCH  45  46
ENDBRANCH  44  45
ENDBRANCH  43  44
ENDBRANCH   1  43
TORSDOF 12
ENDMDL
MODEL 2
REMARK VINA RESULT:    -6.610      1.863      2.194
REMARK INTER + INTRA:         -16.398
REMARK INTER:                 -14.156
REMARK INTRA:                  -2.242
REMARK UNBOUND:                -2.445
REMARK SMILES CCC(=O)CCCCC[C@@H]1NC(=O)[C@H]2CCCCN2C(=O)[C@@H]([C@@H](C)CC)NC(=O)[C@@H](Cc2cn(OC)c3ccccc23)NC1=O
REMARK SMILES IDX 9 1 10 2 44 3 43 4 45 6 30 7 28 8 27 9 29 11 22 12 23 14
REMARK SMILES IDX 24 15 25 16 26 17 31 18 32 19 33 20 42 21 34 22 37 23 41 24
REMARK SMILES IDX 38 25 40 26 39 27 35 28 36 29 11 30 12 31 13 33 14 34 19 35
REMARK SMILES IDX 15 36 18 37 16 38 17 39 20 40 21 41 8 43 7 44 6 45 5 46 3 47
REMARK SMILES IDX 4 48 2 49 1 50
REMARK H PARENT 43 5 27 10 11 32
REMARK Flexibility Score: 80.00
ROOT
ATOM      1  C   UNL     1      20.655 -28.816  21.003  1.00  0.00     0.035 C 
ENDROOT
BRANCH   1   2
ATOM      2  C   UNL     1      19.979 -30.065  21.608  1.00  0.00     0.171 C 
BRANCH   2   3
ATOM      3  C   UNL     1      20.459 -30.374  22.998  1.00  0.00     0.243 C 
ATOM      4  N   UNL     1      20.611 -31.739  23.403  1.00  0.00    -0.342 N 
ATOM      5  H   UNL     1      20.644 -32.473  22.659  1.00  0.00     0.164 HD
ATOM      6  O   UNL     1      20.613 -29.444  23.835  1.00  0.00    -0.273 OA
BRANCH   4   7
ATOM      7  C   UNL     1      20.481 -32.171  24.795  1.00  0.00     0.175 C 
BRANCH   7   8
ATOM      8  C   UNL     1      19.037 -32.454  25.149  1.00  0.00     0.243 C 
ATOM      9  N   UNL     1      18.095 -32.930  24.169  1.00  0.00    -0.342 N 
ATOM     10  H   UNL     1      18.417 -33.049  23.187  1.00  0.00     0.164 HD
ATOM     11  O   UNL     1      18.682 -32.325  26.353  1.00  0.00    -0.273 OA
BRANCH   9  12
ATOM     12  C   UNL     1      16.819 -33.554  24.546  1.00  0.00     0.174 CG0
ATOM     13  G   UNL     1      15.639 -32.958  23.797  1.00  0.00     0.000 G0
BRANCH  12  14
ATOM     14  C   UNL     1      16.914 -35.102  24.397  1.00  0.00     0.018 C 
ATOM     15  C   UNL     1      17.986 -35.499  23.365  1.00  0.00     0.010 C 
BRANCH  14  16
ATOM     16  C   UNL     1      17.136 -35.825  25.752  1.00  0.00     0.002 C 
ATOM     17  C   UNL     1      18.316 -36.802  25.721  1.00  0.00     0.004 C 
ENDBRANCH  14  16
ENDBRANCH  12  14
ENDBRANCH   9  12
ENDBRANCH   7   8
BRANCH   7  18
ATOM     18  C   UNL     1      21.344 -33.418  25.046  1.00  0.00     0.073 C 
BRANCH  18  19
ATOM     19  C   UNL     1      22.805 -33.082  24.941  1.00  0.00    -0.016 A 
ATOM     20  C   UNL     1      23.527 -32.260  25.796  1.00  0.00     0.134 A 
ATOM     21  C   UNL     1      23.734 -33.630  24.077  1.00  0.00     0.006 A 
ATOM     22  N   UNL     1      24.839 -32.274  25.474  1.00  0.00    -0.191 N 
ATOM     23  C   UNL     1      24.970 -33.120  24.416  1.00  0.00     0.087 A 
ATOM     24  C   UNL     1      23.568 -34.561  23.051  1.00  0.00     0.011 A 
ATOM     25  C   UNL     1      26.120 -33.517  23.711  1.00  0.00     0.030 A 
ATOM     26  C   UNL     1      24.706 -34.962  22.336  1.00  0.00     0.001 A 
ATOM     27  C   UNL     1      25.974 -34.442  22.664  1.00  0.00     0.002 A 
BRANCH  22  28
ATOM     28  O   UNL     1      25.782 -31.546  26.185  1.00  0.00    -0.417 OA
ATOM     29  C   UNL     1      25.506 -30.392  26.965  1.00  0.00     0.313 C 
ENDBRANCH  22  28
ENDBRANCH  18  19
ENDBRANCH   7  18
ENDBRANCH   4   7
ENDBRANCH   2   3
BRANCH   2  30
ATOM     30  N   UNL     1      18.531 -29.876  21.657  1.00  0.00    -0.343 N 
ATOM     31  C   UNL     1      17.637 -30.992  21.541  1.00  0.00     0.243 C 
ATOM     32  H   UNL     1      18.161 -28.989  22.072  1.00  0.00     0.164 HD
ATOM     33  O   UNL     1      17.933 -31.959  20.785  1.00  0.00    -0.273 OA
BRANCH  31  34
ATOM     34  C   UNL     1      16.341 -30.994  22.308  1.00  0.00     0.174 C 
ATOM     35  N   UNL     1      15.807 -32.367  22.446  1.00  0.00    -0.329 N 
ATOM     36  C   UNL     1      15.312 -30.058  21.627  1.00  0.00     0.035 C 
ATOM     37  C   UNL     1      14.983 -32.910  21.354  1.00  0.00     0.120 C 
ATOM     38  C   UNL     1      13.892 -30.615  21.727  1.00  0.00     0.004 C 
ATOM     39  C   UNL     1      13.811 -31.968  21.003  1.00  0.00     0.022 C 
BRANCH  35  40
ATOM     40  C   UNL     1      15.644 -32.932  23.764  1.00  0.00     0.246 CG0
ATOM     41  O   UNL     1      14.489 -32.961  24.272  1.00  0.00    -0.272 OA
ATOM     42  G   UNL     1      16.792 -33.543  24.550  1.00  0.00     0.000 G0
ENDBRANCH  35  40
ENDBRANCH  31  34
ENDBRANCH   2  30
ENDBRANCH   1   2
BRANCH   1  43
ATOM     43  C   UNL     1      19.690 -27.647  20.722  1.00  0.00     0.003 C 
BRANCH  43  44
ATOM     44  C   UNL     1      20.351 -26.334  20.253  1.00  0.00     0.001 C 
BRANCH  44  45
ATOM     45  C   UNL     1      21.839 -26.170  20.634  1.00  0.00     0.008 C 
BRANCH  45  46
ATOM     46  C   UNL     1      22.598 -25.146  19.773  1.00  0.00     0.075 C 
BRANCH  46  47
ATOM     47  C   UNL     1      23.379 -24.181  20.624  1.00  0.00     0.132 C 
ATOM     48  O   UNL     1      24.261 -23.507  20.109  1.00  0.00    -0.300 OA
BRANCH  47  49
ATOM     49  C   UNL     1      23.033 -24.013  22.084  1.00  0.00     0.072 C 
ATOM     50  C   UNL     1      23.575 -22.717  22.684  1.00  0.00     0.012 C 
ENDBRANCH  47  49
ENDBRANCH  46  47
ENDBRANCH  45  46
ENDBRANCH  44  45
ENDBRANCH  43  44
ENDBRANCH   1  43
TORSDOF 12
ENDMDL
MODEL 3
REMARK VINA RESULT:    -6.603      2.506      6.931
REMARK INTER + INTRA:         -16.382
REMARK INTER:                 -13.565
REMARK INTRA:                  -2.817
REMARK UNBOUND:                -2.445
REMARK SMILES CCC(=O)CCCCC[C@@H]1NC(=O)[C@H]2CCCCN2C(=O)[C@@H]([C@@H](C)CC)NC(=O)[C@@H](Cc2cn(OC)c3ccccc23)NC1=O
REMARK SMILES IDX 9 1 10 2 44 3 43 4 45 6 30 7 28 8 27 9 29 11 22 12 23 14
REMARK SMILES IDX 24 15 25 16 26 17 31 18 32 19 33 20 42 21 34 22 37 23 41 24
REMARK SMILES IDX 38 25 40 26 39 27 35 28 36 29 11 30 12 31 13 33 14 34 19 35
REMARK SMILES IDX 15 36 18 37 16 38 17 39 20 40 21 41 8 43 7 44 6 45 5 46 3 47
REMARK SMILES IDX 4 48 2 49 1 50
REMARK H PARENT 43 5 27 10 11 32
REMARK Flexibility Score: 80.00
ROOT
ATOM      1  C   UNL     1      22.369 -27.426  21.238  1.00  0.00     0.035 C 
ENDROOT
BRANCH   1   2
ATOM      2  C   UNL     1      21.736 -28.355  22.295  1.00  0.00     0.171 C 
BRANCH   2   3
ATOM      3  C   UNL     1      20.677 -29.255  21.722  1.00  0.00     0.243 C 
ATOM      4  N   UNL     1      19.482 -29.502  22.473  1.00  0.00    -0.342 N 
ATOM      5  H   UNL     1      19.254 -28.857  23.263  1.00  0.00     0.164 HD
ATOM      6  O   UNL     1      20.890 -29.877  20.647  1.00  0.00    -0.273 OA
BRANCH   4   7
ATOM      7  C   UNL     1      18.707 -30.737  22.343  1.00  0.00     0.175 C 
BRANCH   7   8
ATOM      8  C   UNL     1      19.522 -31.943  22.753  1.00  0.00     0.243 C 
ATOM      9  N   UNL     1      20.004 -32.111  24.101  1.00  0.00    -0.342 N 
ATOM     10  H   UNL     1      19.807 -31.361  24.795  1.00  0.00     0.164 HD
ATOM     11  O   UNL     1      19.723 -32.848  21.896  1.00  0.00    -0.273 OA
BRANCH   9  12
ATOM     12  C   UNL     1      20.464 -33.410  24.613  1.00  0.00     0.174 CG0
ATOM     13  G   UNL     1      21.863 -33.337  25.201  1.00  0.00     0.000 G0
BRANCH  12  14
ATOM     14  C   UNL     1      19.417 -33.995  25.608  1.00  0.00     0.018 C 
ATOM     15  C   UNL     1      18.466 -32.900  26.127  1.00  0.00     0.010 C 
BRANCH  14  16
ATOM     16  C   UNL     1      18.631 -35.195  25.016  1.00  0.00     0.002 C 
ATOM     17  C   UNL     1      19.296 -35.789  23.770  1.00  0.00     0.004 C 
ENDBRANCH  14  16
ENDBRANCH  12  14
ENDBRANCH   9  12
ENDBRANCH   7   8
BRANCH   7  18
ATOM     18  C   UNL     1      17.425 -30.649  23.186  1.00  0.00     0.073 C 
BRANCH  18  19
ATOM     19  C   UNL     1      16.236 -31.118  22.396  1.00  0.00    -0.016 A 
ATOM     20  C   UNL     1      16.204 -32.186  21.508  1.00  0.00     0.134 A 
ATOM     21  C   UNL     1      14.929 -30.683  22.504  1.00  0.00     0.006 A 
ATOM     22  N   UNL     1      14.945 -32.398  21.066  1.00  0.00    -0.191 N 
ATOM     23  C   UNL     1      14.157 -31.474  21.680  1.00  0.00     0.087 A 
ATOM     24  C   UNL     1      14.380 -29.674  23.296  1.00  0.00     0.011 A 
ATOM     25  C   UNL     1      12.768 -31.271  21.598  1.00  0.00     0.030 A 
ATOM     26  C   UNL     1      12.997 -29.457  23.220  1.00  0.00     0.001 A 
ATOM     27  C   UNL     1      12.196 -30.250  22.375  1.00  0.00     0.002 A 
BRANCH  22  28
ATOM     28  O   UNL     1      14.637 -33.418  20.177  1.00  0.00    -0.417 OA
ATOM     29  C   UNL     1      15.210 -34.717  20.194  1.00  0.00     0.313 C 
ENDBRANCH  22  28
ENDBRANCH  18  19
ENDBRANCH   7  18
ENDBRANCH   4   7
ENDBRANCH   2   3
BRANCH   2  30
ATOM     30  N   UNL     1      22.764 -29.193  22.906  1.00  0.00    -0.343 N 
ATOM     31  C   UNL     1      22.484 -29.964  24.084  1.00  0.00     0.243 C 
ATOM     32  H   UNL     1      23.592 -29.463  22.326  1.00  0.00     0.164 HD
ATOM     33  O   UNL     1      21.704 -29.505  24.964  1.00  0.00    -0.273 OA
BRANCH  31  34
ATOM     34  C   UNL     1      23.139 -31.306  24.272  1.00  0.00     0.174 C 
ATOM     35  N   UNL     1      22.540 -32.035  25.412  1.00  0.00    -0.329 N 
ATOM     36  C   UNL     1      24.667 -31.139  24.453  1.00  0.00     0.035 C 
ATOM     37  C   UNL     1      23.059 -31.766  26.763  1.00  0.00     0.120 C 
ATOM     38  C   UNL     1      25.231 -32.153  25.449  1.00  0.00     0.004 C 
ATOM     39  C   UNL     1      24.592 -31.939  26.829  1.00  0.00     0.022 C 
BRANCH  35  40
ATOM     40  C   UNL     1      21.884 -33.298  25.177  1.00  0.00     0.246 CG0
ATOM     41  O   UNL     1      22.486 -34.362  25.492  1.00  0.00    -0.272 OA
ATOM     42  G   UNL     1      20.476 -33.407  24.615  1.00  0.00     0.000 G0
ENDBRANCH  35  40
ENDBRANCH  31  34
ENDBRANCH   2  30
ENDBRANCH   1   2
BRANCH   1  43
ATOM     43  C   UNL     1      21.402 -26.373  20.660  1.00  0.00     0.003 C 
BRANCH  43  44
ATOM     44  C   UNL     1      22.054 -25.058  20.184  1.00  0.00     0.001 C 
BRANCH  44  45
ATOM     45  C   UNL     1      23.357 -24.664  20.913  1.00  0.00     0.008 C 
BRANCH  45  46
ATOM     46  C   UNL     1      23.221 -23.426  21.815  1.00  0.00     0.075 C 
BRANCH  46  47
ATOM     47  C   UNL     1      22.533 -23.759  23.112  1.00  0.00     0.132 C 
ATOM     48  O   UNL     1      22.867 -24.762  23.727  1.00  0.00    -0.300 OA
BRANCH  47  49
ATOM     49  C   UNL     1      21.481 -22.828  23.667  1.00  0.00     0.072 C 
ATOM     50  C   UNL     1      21.754 -21.358  23.351  1.00  0.00     0.012 C 
ENDBRANCH  47  49
ENDBRANCH  46  47
ENDBRANCH  45  46
ENDBRANCH  44  45
ENDBRANCH  43  44
ENDBRANCH   1  43
TORSDOF 12
ENDMDL
MODEL 4
REMARK VINA RESULT:    -6.591      1.287      1.906
REMARK INTER + INTRA:         -16.356
REMARK INTER:                 -13.882
REMARK INTRA:                  -2.474
REMARK UNBOUND:                -2.445
REMARK SMILES CCC(=O)CCCCC[C@@H]1NC(=O)[C@H]2CCCCN2C(=O)[C@@H]([C@@H](C)CC)NC(=O)[C@@H](Cc2cn(OC)c3ccccc23)NC1=O
REMARK SMILES IDX 9 1 10 2 44 3 43 4 45 6 30 7 28 8 27 9 29 11 22 12 23 14
REMARK SMILES IDX 24 15 25 16 26 17 31 18 32 19 33 20 42 21 34 22 37 23 41 24
REMARK SMILES IDX 38 25 40 26 39 27 35 28 36 29 11 30 12 31 13 33 14 34 19 35
REMARK SMILES IDX 15 36 18 37 16 38 17 39 20 40 21 41 8 43 7 44 6 45 5 46 3 47
REMARK SMILES IDX 4 48 2 49 1 50
REMARK H PARENT 43 5 27 10 11 32
REMARK Flexibility Score: 80.00
ROOT
ATOM      1  C   UNL     1      19.699 -27.464  21.251  1.00  0.00     0.035 C 
ENDROOT
BRANCH   1   2
ATOM      2  C   UNL     1      19.128 -28.893  21.360  1.00  0.00     0.171 C 
BRANCH   2   3
ATOM      3  C   UNL     1      19.906 -29.763  22.307  1.00  0.00     0.243 C 
ATOM      4  N   UNL     1      20.080 -31.152  22.006  1.00  0.00    -0.342 N 
ATOM      5  H   UNL     1      19.899 -31.471  21.027  1.00  0.00     0.164 HD
ATOM      6  O   UNL     1      20.301 -29.300  23.411  1.00  0.00    -0.273 OA
BRANCH   4   7
ATOM      7  C   UNL     1      20.261 -32.171  23.042  1.00  0.00     0.175 C 
BRANCH   7   8
ATOM      8  C   UNL     1      19.028 -32.293  23.911  1.00  0.00     0.243 C 
ATOM      9  N   UNL     1      17.761 -32.721  23.375  1.00  0.00    -0.342 N 
ATOM     10  H   UNL     1      17.694 -32.917  22.355  1.00  0.00     0.164 HD
ATOM     11  O   UNL     1      19.147 -32.074  25.148  1.00  0.00    -0.273 OA
BRANCH   9  12
ATOM     12  C   UNL     1      16.668 -33.198  24.234  1.00  0.00     0.174 CG0
ATOM     13  G   UNL     1      15.352 -32.498  23.939  1.00  0.00     0.000 G0
BRANCH  12  14
ATOM     14  C   UNL     1      16.561 -34.750  24.152  1.00  0.00     0.018 C 
ATOM     15  C   UNL     1      17.229 -35.291  22.874  1.00  0.00     0.010 C 
BRANCH  14  16
ATOM     16  C   UNL     1      17.109 -35.458  25.421  1.00  0.00     0.002 C 
ATOM     17  C   UNL     1      18.628 -35.658  25.384  1.00  0.00     0.004 C 
ENDBRANCH  14  16
ENDBRANCH  12  14
ENDBRANCH   9  12
ENDBRANCH   7   8
BRANCH   7  18
ATOM     18  C   UNL     1      20.596 -33.526  22.399  1.00  0.00     0.073 C 
BRANCH  18  19
ATOM     19  C   UNL     1      22.062 -33.830  22.535  1.00  0.00    -0.016 A 
ATOM     20  C   UNL     1      23.108 -32.927  22.399  1.00  0.00     0.134 A 
ATOM     21  C   UNL     1      22.640 -35.011  22.961  1.00  0.00     0.006 A 
ATOM     22  N   UNL     1      24.285 -33.515  22.703  1.00  0.00    -0.191 N 
ATOM     23  C   UNL     1      24.000 -34.799  23.052  1.00  0.00     0.087 A 
ATOM     24  C   UNL     1      22.051 -36.229  23.301  1.00  0.00     0.011 A 
ATOM     25  C   UNL     1      24.852 -35.832  23.481  1.00  0.00     0.030 A 
ATOM     26  C   UNL     1      22.890 -37.269  23.725  1.00  0.00     0.001 A 
ATOM     27  C   UNL     1      24.282 -37.072  23.814  1.00  0.00     0.002 A 
BRANCH  22  28
ATOM     28  O   UNL     1      25.488 -32.825  22.661  1.00  0.00    -0.417 OA
ATOM     29  C   UNL     1      25.840 -31.742  23.509  1.00  0.00     0.313 C 
ENDBRANCH  22  28
ENDBRANCH  18  19
ENDBRANCH   7  18
ENDBRANCH   4   7
ENDBRANCH   2   3
BRANCH   2  30
ATOM     30  N   UNL     1      17.742 -28.846  21.820  1.00  0.00    -0.343 N 
ATOM     31  C   UNL     1      16.935 -30.032  21.854  1.00  0.00     0.243 C 
ATOM     32  H   UNL     1      17.440 -28.028  22.398  1.00  0.00     0.164 HD
ATOM     33  O   UNL     1      17.077 -30.914  20.963  1.00  0.00    -0.273 OA
BRANCH  31  34
ATOM     34  C   UNL     1      15.909 -30.207  22.942  1.00  0.00     0.174 C 
ATOM     35  N   UNL     1      15.240 -31.522  22.836  1.00  0.00    -0.329 N 
ATOM     36  C   UNL     1      14.882 -29.049  22.904  1.00  0.00     0.035 C 
ATOM     37  C   UNL     1      14.081 -31.646  21.937  1.00  0.00     0.120 C 
ATOM     38  C   UNL     1      13.476 -29.532  23.264  1.00  0.00     0.004 C 
ATOM     39  C   UNL     1      13.007 -30.579  22.243  1.00  0.00     0.022 C 
BRANCH  35  40
ATOM     40  C   UNL     1      15.360 -32.466  23.921  1.00  0.00     0.246 CG0
ATOM     41  O   UNL     1      14.332 -32.742  24.599  1.00  0.00    -0.272 OA
ATOM     42  G   UNL     1      16.657 -33.184  24.253  1.00  0.00     0.000 G0
ENDBRANCH  35  40
ENDBRANCH  31  34
ENDBRANCH   2  30
ENDBRANCH   1   2
BRANCH   1  43
ATOM     43  C   UNL     1      21.142 -27.399  20.710  1.00  0.00     0.003 C 
BRANCH  43  44
ATOM     44  C   UNL     1      21.661 -25.987  20.364  1.00  0.00     0.001 C 
BRANCH  44  45
ATOM     45  C   UNL     1      23.067 -25.649  20.908  1.00  0.00     0.008 C 
BRANCH  45  46
ATOM     46  C   UNL     1      23.579 -24.258  20.499  1.00  0.00     0.075 C 
BRANCH  46  47
ATOM     47  C   UNL     1      23.558 -23.298  21.659  1.00  0.00     0.132 C 
ATOM     48  O   UNL     1      24.363 -22.377  21.689  1.00  0.00    -0.300 OA
BRANCH  47  49
ATOM     49  C   UNL     1      22.513 -23.447  22.739  1.00  0.00     0.072 C 
ATOM     50  C   UNL     1      23.109 -23.502  24.146  1.00  0.00     0.012 C 
ENDBRANCH  47  49
ENDBRANCH  46  47
ENDBRANCH  45  46
ENDBRANCH  44  45
ENDBRANCH  43  44
ENDBRANCH   1  43
TORSDOF 12
ENDMDL
MODEL 5
REMARK VINA RESULT:    -6.421      1.694      2.490
REMARK INTER + INTRA:         -15.999
REMARK INTER:                 -12.234
REMARK INTRA:                  -3.765
REMARK UNBOUND:                -2.445
REMARK SMILES CCC(=O)CCCCC[C@@H]1NC(=O)[C@H]2CCCCN2C(=O)[C@@H]([C@@H](C)CC)NC(=O)[C@@H](Cc2cn(OC)c3ccccc23)NC1=O
REMARK SMILES IDX 9 1 10 2 44 3 43 4 45 6 30 7 28 8 27 9 29 11 22 12 23 14
REMARK SMILES IDX 24 15 25 16 26 17 31 18 32 19 33 20 42 21 34 22 37 23 41 24
REMARK SMILES IDX 38 25 40 26 39 27 35 28 36 29 11 30 12 31 13 33 14 34 19 35
REMARK SMILES IDX 15 36 18 37 16 38 17 39 20 40 21 41 8 43 7 44 6 45 5 46 3 47
REMARK SMILES IDX 4 48 2 49 1 50
REMARK H PARENT 43 5 27 10 11 32
REMARK Flexibility Score: 80.00
ROOT
ATOM      1  C   UNL     1      20.005 -27.966  21.000  1.00  0.00     0.035 C 
ENDROOT
BRANCH   1   2
ATOM      2  C   UNL     1      19.485 -29.409  21.178  1.00  0.00     0.171 C 
BRANCH   2   3
ATOM      3  C   UNL     1      20.127 -30.122  22.335  1.00  0.00     0.243 C 
ATOM      4  N   UNL     1      20.596 -31.464  22.162  1.00  0.00    -0.342 N 
ATOM      5  H   UNL     1      20.725 -31.820  21.187  1.00  0.00     0.164 HD
ATOM      6  O   UNL     1      20.146 -29.586  23.476  1.00  0.00    -0.273 OA
BRANCH   4   7
ATOM      7  C   UNL     1      20.669 -32.425  23.263  1.00  0.00     0.175 C 
BRANCH   7   8
ATOM      8  C   UNL     1      19.340 -32.548  23.975  1.00  0.00     0.243 C 
ATOM      9  N   UNL     1      18.178 -33.096  23.322  1.00  0.00    -0.342 N 
ATOM     10  H   UNL     1      18.257 -33.383  22.325  1.00  0.00     0.164 HD
ATOM     11  O   UNL     1      19.281 -32.215  25.190  1.00  0.00    -0.273 OA
BRANCH   9  12
ATOM     12  C   UNL     1      17.004 -33.564  24.074  1.00  0.00     0.174 CG0
ATOM     13  G   UNL     1      15.714 -32.924  23.590  1.00  0.00     0.000 G0
BRANCH  12  14
ATOM     14  C   UNL     1      16.949 -35.121  24.068  1.00  0.00     0.018 C 
ATOM     15  C   UNL     1      17.874 -35.709  22.986  1.00  0.00     0.010 C 
BRANCH  14  16
ATOM     16  C   UNL     1      17.243 -35.738  25.462  1.00  0.00     0.002 C 
ATOM     17  C   UNL     1      18.742 -35.841  25.766  1.00  0.00     0.004 C 
ENDBRANCH  14  16
ENDBRANCH  12  14
ENDBRANCH   9  12
ENDBRANCH   7   8
BRANCH   7  18
ATOM     18  C   UNL     1      21.121 -33.798  22.739  1.00  0.00     0.073 C 
BRANCH  18  19
ATOM     19  C   UNL     1      22.254 -34.336  23.567  1.00  0.00    -0.016 A 
ATOM     20  C   UNL     1      22.166 -35.306  24.557  1.00  0.00     0.134 A 
ATOM     21  C   UNL     1      23.604 -34.085  23.408  1.00  0.00     0.006 A 
ATOM     22  N   UNL     1      23.395 -35.633  25.012  1.00  0.00    -0.191 N 
ATOM     23  C   UNL     1      24.284 -34.884  24.304  1.00  0.00     0.087 A 
ATOM     24  C   UNL     1      24.263 -33.238  22.516  1.00  0.00     0.011 A 
ATOM     25  C   UNL     1      25.688 -34.853  24.359  1.00  0.00     0.030 A 
ATOM     26  C   UNL     1      25.663 -33.194  22.564  1.00  0.00     0.001 A 
ATOM     27  C   UNL     1      26.371 -33.996  23.480  1.00  0.00     0.002 A 
BRANCH  22  28
ATOM     28  O   UNL     1      23.587 -36.592  25.997  1.00  0.00    -0.417 OA
ATOM     29  C   UNL     1      23.267 -36.428  27.370  1.00  0.00     0.313 C 
ENDBRANCH  22  28
ENDBRANCH  18  19
ENDBRANCH   7  18
ENDBRANCH   4   7
ENDBRANCH   2   3
BRANCH   2  30
ATOM     30  N   UNL     1      18.041 -29.398  21.395  1.00  0.00    -0.343 N 
ATOM     31  C   UNL     1      17.276 -30.610  21.327  1.00  0.00     0.243 C 
ATOM     32  H   UNL     1      17.620 -28.576  21.888  1.00  0.00     0.164 HD
ATOM     33  O   UNL     1      17.594 -31.508  20.500  1.00  0.00    -0.273 OA
BRANCH  31  34
ATOM     34  C   UNL     1      16.085 -30.793  22.230  1.00  0.00     0.174 C 
ATOM     35  N   UNL     1      15.680 -32.215  22.295  1.00  0.00    -0.329 N 
ATOM     36  C   UNL     1      14.912 -29.896  21.763  1.00  0.00     0.035 C 
ATOM     37  C   UNL     1      14.776 -32.732  21.255  1.00  0.00     0.120 C 
ATOM     38  C   UNL     1      13.562 -30.584  21.967  1.00  0.00     0.004 C 
ATOM     39  C   UNL     1      13.500 -31.870  21.130  1.00  0.00     0.022 C 
BRANCH  35  40
ATOM     40  C   UNL     1      15.721 -32.904  23.562  1.00  0.00     0.246 CG0
ATOM     41  O   UNL     1      14.659 -32.988  24.240  1.00  0.00    -0.272 OA
ATOM     42  G   UNL     1      16.971 -33.582  24.095  1.00  0.00     0.000 G0
ENDBRANCH  35  40
ENDBRANCH  31  34
ENDBRANCH   2  30
ENDBRANCH   1   2
BRANCH   1  43
ATOM     43  C   UNL     1      21.539 -27.857  20.877  1.00  0.00     0.003 C 
BRANCH  43  44
ATOM     44  C   UNL     1      22.246 -27.084  22.010  1.00  0.00     0.001 C 
BRANCH  44  45
ATOM     45  C   UNL     1      23.578 -27.695  22.495  1.00  0.00     0.008 C 
BRANCH  45  46
ATOM     46  C   UNL     1      23.632 -27.962  24.009  1.00  0.00     0.075 C 
BRANCH  46  47
ATOM     47  C   UNL     1      23.735 -29.433  24.308  1.00  0.00     0.132 C 
ATOM     48  O   UNL     1      23.363 -30.243  23.469  1.00  0.00    -0.300 OA
BRANCH  47  49
ATOM     49  C   UNL     1      24.345 -29.896  25.610  1.00  0.00     0.072 C 
ATOM     50  C   UNL     1      24.218 -31.402  25.830  1.00  0.00     0.012 C 
ENDBRANCH  47  49
ENDBRANCH  46  47
ENDBRANCH  45  46
ENDBRANCH  44  45
ENDBRANCH  43  44
ENDBRANCH   1  43
TORSDOF 12
ENDMDL
MODEL 6
REMARK VINA RESULT:    -6.406      2.423      2.920
REMARK INTER + INTRA:         -15.967
REMARK INTER:                 -13.584
REMARK INTRA:                  -2.383
REMARK UNBOUND:                -2.445
REMARK SMILES CCC(=O)CCCCC[C@@H]1NC(=O)[C@H]2CCCCN2C(=O)[C@@H]([C@@H](C)CC)NC(=O)[C@@H](Cc2cn(OC)c3ccccc23)NC1=O
REMARK SMILES IDX 9 1 10 2 44 3 43 4 45 6 30 7 28 8 27 9 29 11 22 12 23 14
REMARK SMILES IDX 24 15 25 16 26 17 31 18 32 19 33 20 42 21 34 22 37 23 41 24
REMARK SMILES IDX 38 25 40 26 39 27 35 28 36 29 11 30 12 31 13 33 14 34 19 35
REMARK SMILES IDX 15 36 18 37 16 38 17 39 20 40 21 41 8 43 7 44 6 45 5 46 3 47
REMARK SMILES IDX 4 48 2 49 1 50
REMARK H PARENT 43 5 27 10 11 32
REMARK Flexibility Score: 80.00
ROOT
ATOM      1  C   UNL     1      20.797 -29.300  20.996  1.00  0.00     0.035 C 
ENDROOT
BRANCH   1   2
ATOM      2  C   UNL     1      20.025 -30.454  21.671  1.00  0.00     0.171 C 
BRANCH   2   3
ATOM      3  C   UNL     1      20.483 -30.718  23.078  1.00  0.00     0.243 C 
ATOM      4  N   UNL     1      20.609 -32.069  23.535  1.00  0.00    -0.342 N 
ATOM      5  H   UNL     1      20.640 -32.831  22.820  1.00  0.00     0.164 HD
ATOM      6  O   UNL     1      20.640 -29.759  23.881  1.00  0.00    -0.273 OA
BRANCH   4   7
ATOM      7  C   UNL     1      20.454 -32.447  24.941  1.00  0.00     0.175 C 
BRANCH   7   8
ATOM      8  C   UNL     1      19.005 -32.721  25.279  1.00  0.00     0.243 C 
ATOM      9  N   UNL     1      18.023 -32.981  24.256  1.00  0.00    -0.342 N 
ATOM     10  H   UNL     1      18.322 -32.945  23.260  1.00  0.00     0.164 HD
ATOM     11  O   UNL     1      18.677 -32.784  26.496  1.00  0.00    -0.273 OA
BRANCH   9  12
ATOM     12  C   UNL     1      16.726 -33.604  24.555  1.00  0.00     0.174 CG0
ATOM     13  G   UNL     1      15.598 -33.021  23.720  1.00  0.00     0.000 G0
BRANCH  12  14
ATOM     14  C   UNL     1      16.833 -35.153  24.433  1.00  0.00     0.018 C 
ATOM     15  C   UNL     1      18.009 -35.562  23.526  1.00  0.00     0.010 C 
BRANCH  14  16
ATOM     16  C   UNL     1      16.907 -35.862  25.812  1.00  0.00     0.002 C 
ATOM     17  C   UNL     1      18.296 -36.435  26.114  1.00  0.00     0.004 C 
ENDBRANCH  14  16
ENDBRANCH  12  14
ENDBRANCH   9  12
ENDBRANCH   7   8
BRANCH   7  18
ATOM     18  C   UNL     1      21.317 -33.679  25.257  1.00  0.00     0.073 C 
BRANCH  18  19
ATOM     19  C   UNL     1      22.714 -33.267  25.628  1.00  0.00    -0.016 A 
ATOM     20  C   UNL     1      23.891 -33.745  25.069  1.00  0.00     0.134 A 
ATOM     21  C   UNL     1      23.091 -32.244  26.477  1.00  0.00     0.006 A 
ATOM     22  N   UNL     1      24.956 -33.072  25.556  1.00  0.00    -0.191 N 
ATOM     23  C   UNL     1      24.466 -32.144  26.422  1.00  0.00     0.087 A 
ATOM     24  C   UNL     1      22.312 -31.386  27.254  1.00  0.00     0.011 A 
ATOM     25  C   UNL     1      25.137 -31.168  27.179  1.00  0.00     0.030 A 
ATOM     26  C   UNL     1      22.970 -30.411  28.017  1.00  0.00     0.001 A 
ATOM     27  C   UNL     1      24.373 -30.303  27.981  1.00  0.00     0.002 A 
BRANCH  22  28
ATOM     28  O   UNL     1      26.254 -33.347  25.148  1.00  0.00    -0.417 OA
ATOM     29  C   UNL     1      26.785 -33.059  23.863  1.00  0.00     0.313 C 
ENDBRANCH  22  28
ENDBRANCH  18  19
ENDBRANCH   7  18
ENDBRANCH   4   7
ENDBRANCH   2   3
BRANCH   2  30
ATOM     30  N   UNL     1      18.597 -30.149  21.706  1.00  0.00    -0.343 N 
ATOM     31  C   UNL     1      17.620 -31.160  21.419  1.00  0.00     0.243 C 
ATOM     32  H   UNL     1      18.285 -29.295  22.224  1.00  0.00     0.164 HD
ATOM     33  O   UNL     1      17.865 -32.042  20.550  1.00  0.00    -0.273 OA
BRANCH  31  34
ATOM     34  C   UNL     1      16.300 -31.149  22.143  1.00  0.00     0.174 C 
ATOM     35  N   UNL     1      15.800 -32.526  22.358  1.00  0.00    -0.329 N 
ATOM     36  C   UNL     1      15.269 -30.292  21.369  1.00  0.00     0.035 C 
ATOM     37  C   UNL     1      15.027 -33.164  21.280  1.00  0.00     0.120 C 
ATOM     38  C   UNL     1      13.862 -30.883  21.462  1.00  0.00     0.004 C 
ATOM     39  C   UNL     1      13.842 -32.282  20.829  1.00  0.00     0.022 C 
BRANCH  35  40
ATOM     40  C   UNL     1      15.609 -33.005  23.705  1.00  0.00     0.246 CG0
ATOM     41  O   UNL     1      14.446 -32.985  24.196  1.00  0.00    -0.272 OA
ATOM     42  G   UNL     1      16.735 -33.585  24.544  1.00  0.00     0.000 G0
ENDBRANCH  35  40
ENDBRANCH  31  34
ENDBRANCH   2  30
ENDBRANCH   1   2
BRANCH   1  43
ATOM     43  C   UNL     1      20.264 -27.895  21.342  1.00  0.00     0.003 C 
BRANCH  43  44
ATOM     44  C   UNL     1      19.938 -26.989  20.136  1.00  0.00     0.001 C 
BRANCH  44  45
ATOM     45  C   UNL     1      20.520 -25.560  20.205  1.00  0.00     0.008 C 
BRANCH  45  46
ATOM     46  C   UNL     1      21.755 -25.429  21.112  1.00  0.00     0.075 C 
BRANCH  46  47
ATOM     47  C   UNL     1      23.032 -25.469  20.317  1.00  0.00     0.132 C 
ATOM     48  O   UNL     1      23.470 -24.433  19.836  1.00  0.00    -0.300 OA
BRANCH  47  49
ATOM     49  C   UNL     1      23.786 -26.769  20.168  1.00  0.00     0.072 C 
ATOM     50  C   UNL     1      23.906 -27.546  21.478  1.00  0.00     0.012 C 
ENDBRANCH  47  49
ENDBRANCH  46  47
ENDBRANCH  45  46
ENDBRANCH  44  45
ENDBRANCH  43  44
ENDBRANCH   1  43
TORSDOF 12
ENDMDL
MODEL 7
REMARK VINA RESULT:    -6.401      1.887      2.749
REMARK INTER + INTRA:         -15.955
REMARK INTER:                 -12.576
REMARK INTRA:                  -3.378
REMARK UNBOUND:                -2.445
REMARK SMILES CCC(=O)CCCCC[C@@H]1NC(=O)[C@H]2CCCCN2C(=O)[C@@H]([C@@H](C)CC)NC(=O)[C@@H](Cc2cn(OC)c3ccccc23)NC1=O
REMARK SMILES IDX 9 1 10 2 44 3 43 4 45 6 30 7 28 8 27 9 29 11 22 12 23 14
REMARK SMILES IDX 24 15 25 16 26 17 31 18 32 19 33 20 42 21 34 22 37 23 41 24
REMARK SMILES IDX 38 25 40 26 39 27 35 28 36 29 11 30 12 31 13 33 14 34 19 35
REMARK SMILES IDX 15 36 18 37 16 38 17 39 20 40 21 41 8 43 7 44 6 45 5 46 3 47
REMARK SMILES IDX 4 48 2 49 1 50
REMARK H PARENT 43 5 27 10 11 32
REMARK Flexibility Score: 80.00
ROOT
ATOM      1  C   UNL     1      19.865 -27.828  20.979  1.00  0.00     0.035 C 
ENDROOT
BRANCH   1   2
ATOM      2  C   UNL     1      19.417 -29.296  21.136  1.00  0.00     0.171 C 
BRANCH   2   3
ATOM      3  C   UNL     1      20.094 -29.994  22.283  1.00  0.00     0.243 C 
ATOM      4  N   UNL     1      20.535 -31.347  22.122  1.00  0.00    -0.342 N 
ATOM      5  H   UNL     1      20.620 -31.726  21.151  1.00  0.00     0.164 HD
ATOM      6  O   UNL     1      20.166 -29.433  23.409  1.00  0.00    -0.273 OA
BRANCH   4   7
ATOM      7  C   UNL     1      20.638 -32.284  23.241  1.00  0.00     0.175 C 
BRANCH   7   8
ATOM      8  C   UNL     1      19.306 -32.457  23.937  1.00  0.00     0.243 C 
ATOM      9  N   UNL     1      18.177 -33.059  23.276  1.00  0.00    -0.342 N 
ATOM     10  H   UNL     1      18.281 -33.351  22.282  1.00  0.00     0.164 HD
ATOM     11  O   UNL     1      19.218 -32.117  25.149  1.00  0.00    -0.273 OA
BRANCH   9  12
ATOM     12  C   UNL     1      17.015 -33.570  24.017  1.00  0.00     0.174 CG0
ATOM     13  G   UNL     1      15.701 -33.033  23.474  1.00  0.00     0.000 G0
BRANCH  12  14
ATOM     14  C   UNL     1      17.057 -35.126  24.075  1.00  0.00     0.018 C 
ATOM     15  C   UNL     1      18.050 -35.697  23.045  1.00  0.00     0.010 C 
BRANCH  14  16
ATOM     16  C   UNL     1      17.346 -35.668  25.500  1.00  0.00     0.002 C 
ATOM     17  C   UNL     1      18.838 -35.900  25.760  1.00  0.00     0.004 C 
ENDBRANCH  14  16
ENDBRANCH  12  14
ENDBRANCH   9  12
ENDBRANCH   7   8
BRANCH   7  18
ATOM     18  C   UNL     1      21.161 -33.643  22.748  1.00  0.00     0.073 C 
BRANCH  18  19
ATOM     19  C   UNL     1      22.596 -33.838  23.151  1.00  0.00    -0.016 A 
ATOM     20  C   UNL     1      23.707 -33.256  22.557  1.00  0.00     0.134 A 
ATOM     21  C   UNL     1      23.074 -34.503  24.265  1.00  0.00     0.006 A 
ATOM     22  N   UNL     1      24.828 -33.556  23.247  1.00  0.00    -0.191 N 
ATOM     23  C   UNL     1      24.441 -34.323  24.302  1.00  0.00     0.087 A 
ATOM     24  C   UNL     1      22.389 -35.216  25.250  1.00  0.00     0.011 A 
ATOM     25  C   UNL     1      25.201 -34.880  25.345  1.00  0.00     0.030 A 
ATOM     26  C   UNL     1      23.136 -35.781  26.292  1.00  0.00     0.001 A 
ATOM     27  C   UNL     1      24.534 -35.614  26.339  1.00  0.00     0.002 A 
BRANCH  22  28
ATOM     28  O   UNL     1      26.078 -33.084  22.869  1.00  0.00    -0.417 OA
ATOM     29  C   UNL     1      26.774 -32.019  23.499  1.00  0.00     0.313 C 
ENDBRANCH  22  28
ENDBRANCH  18  19
ENDBRANCH   7  18
ENDBRANCH   4   7
ENDBRANCH   2   3
BRANCH   2  30
ATOM     30  N   UNL     1      17.973 -29.360  21.353  1.00  0.00    -0.343 N 
ATOM     31  C   UNL     1      17.281 -30.617  21.345  1.00  0.00     0.243 C 
ATOM     32  H   UNL     1      17.504 -28.542  21.806  1.00  0.00     0.164 HD
ATOM     33  O   UNL     1      17.653 -31.534  20.562  1.00  0.00    -0.273 OA
BRANCH  31  34
ATOM     34  C   UNL     1      16.101 -30.826  22.256  1.00  0.00     0.174 C 
ATOM     35  N   UNL     1      15.655 -32.237  22.234  1.00  0.00    -0.329 N 
ATOM     36  C   UNL     1      14.948 -29.866  21.872  1.00  0.00     0.035 C 
ATOM     37  C   UNL     1      14.717 -32.656  21.179  1.00  0.00     0.120 C 
ATOM     38  C   UNL     1      13.581 -30.526  22.056  1.00  0.00     0.004 C 
ATOM     39  C   UNL     1      13.466 -31.751  21.136  1.00  0.00     0.022 C 
BRANCH  35  40
ATOM     40  C   UNL     1      15.696 -33.010  23.451  1.00  0.00     0.246 CG0
ATOM     41  O   UNL     1      14.611 -33.266  24.043  1.00  0.00    -0.272 OA
ATOM     42  G   UNL     1      16.983 -33.578  24.027  1.00  0.00     0.000 G0
ENDBRANCH  35  40
ENDBRANCH  31  34
ENDBRANCH   2  30
ENDBRANCH   1   2
BRANCH   1  43
ATOM     43  C   UNL     1      21.358 -27.656  20.634  1.00  0.00     0.003 C 
BRANCH  43  44
ATOM     44  C   UNL     1      22.024 -26.374  21.177  1.00  0.00     0.001 C 
BRANCH  44  45
ATOM     45  C   UNL     1      22.879 -26.561  22.450  1.00  0.00     0.008 C 
BRANCH  45  46
ATOM     46  C   UNL     1      23.577 -27.928  22.541  1.00  0.00     0.075 C 
BRANCH  46  47
ATOM     47  C   UNL     1      23.413 -28.543  23.905  1.00  0.00     0.132 C 
ATOM     48  O   UNL     1      23.504 -29.756  24.030  1.00  0.00    -0.300 OA
BRANCH  47  49
ATOM     49  C   UNL     1      23.197 -27.656  25.109  1.00  0.00     0.072 C 
ATOM     50  C   UNL     1      24.367 -27.680  26.090  1.00  0.00     0.012 C 
ENDBRANCH  47  49
ENDBRANCH  46  47
ENDBRANCH  45  46
ENDBRANCH  44  45
ENDBRANCH  43  44
ENDBRANCH   1  43
TORSDOF 12
ENDMDL
MODEL 8
REMARK VINA RESULT:    -6.193      3.459      7.742
REMARK INTER + INTRA:         -15.517
REMARK INTER:                 -12.081
REMARK INTRA:                  -3.436
REMARK UNBOUND:                -2.445
REMARK SMILES CCC(=O)CCCCC[C@@H]1NC(=O)[C@H]2CCCCN2C(=O)[C@@H]([C@@H](C)CC)NC(=O)[C@@H](Cc2cn(OC)c3ccccc23)NC1=O
REMARK SMILES IDX 9 1 10 2 44 3 43 4 45 6 30 7 28 8 27 9 29 11 22 12 23 14
REMARK SMILES IDX 24 15 25 16 26 17 31 18 32 19 33 20 42 21 34 22 37 23 41 24
REMARK SMILES IDX 38 25 40 26 39 27 35 28 36 29 11 30 12 31 13 33 14 34 19 35
REMARK SMILES IDX 15 36 18 37 16 38 17 39 20 40 21 41 8 43 7 44 6 45 5 46 3 47
REMARK SMILES IDX 4 48 2 49 1 50
REMARK H PARENT 43 5 27 10 11 32
REMARK Flexibility Score: 80.00
ROOT
ATOM      1  C   UNL     1      19.611 -28.496  21.607  1.00  0.00     0.035 C 
ENDROOT
BRANCH   1   2
ATOM      2  C   UNL     1      20.232 -29.524  22.578  1.00  0.00     0.171 C 
BRANCH   2   3
ATOM      3  C   UNL     1      20.735 -30.756  21.880  1.00  0.00     0.243 C 
ATOM      4  N   UNL     1      20.423 -32.046  22.418  1.00  0.00    -0.342 N 
ATOM      5  H   UNL     1      19.646 -32.116  23.115  1.00  0.00     0.164 HD
ATOM      6  O   UNL     1      21.520 -30.652  20.900  1.00  0.00    -0.273 OA
BRANCH   4   7
ATOM      7  C   UNL     1      21.284 -33.214  22.226  1.00  0.00     0.175 C 
BRANCH   7   8
ATOM      8  C   UNL     1      22.670 -32.972  22.783  1.00  0.00     0.243 C 
ATOM      9  N   UNL     1      22.883 -32.641  24.170  1.00  0.00    -0.342 N 
ATOM     10  H   UNL     1      22.053 -32.536  24.788  1.00  0.00     0.164 HD
ATOM     11  O   UNL     1      23.658 -33.131  22.015  1.00  0.00    -0.273 OA
BRANCH   9  12
ATOM     12  C   UNL     1      24.199 -32.764  24.812  1.00  0.00     0.174 CG0
ATOM     13  G   UNL     1      24.607 -31.496  25.544  1.00  0.00     0.000 G0
BRANCH  12  14
ATOM     14  C   UNL     1      24.236 -34.028  25.721  1.00  0.00     0.018 C 
ATOM     15  C   UNL     1      22.815 -34.495  26.088  1.00  0.00     0.010 C 
BRANCH  14  16
ATOM     16  C   UNL     1      25.073 -35.184  25.109  1.00  0.00     0.002 C 
ATOM     17  C   UNL     1      25.625 -36.146  26.167  1.00  0.00     0.004 C 
ENDBRANCH  14  16
ENDBRANCH  12  14
ENDBRANCH   9  12
ENDBRANCH   7   8
BRANCH   7  18
ATOM     18  C   UNL     1      20.654 -34.452  22.885  1.00  0.00     0.073 C 
BRANCH  18  19
ATOM     19  C   UNL     1      19.197 -34.557  22.533  1.00  0.00    -0.016 A 
ATOM     20  C   UNL     1      18.657 -35.222  21.439  1.00  0.00     0.134 A 
ATOM     21  C   UNL     1      18.117 -34.148  23.292  1.00  0.00     0.006 A 
ATOM     22  N   UNL     1      17.308 -35.213  21.497  1.00  0.00    -0.191 N 
ATOM     23  C   UNL     1      16.972 -34.555  22.639  1.00  0.00     0.087 A 
ATOM     24  C   UNL     1      18.079 -33.483  24.518  1.00  0.00     0.011 A 
ATOM     25  C   UNL     1      15.707 -34.288  23.192  1.00  0.00     0.030 A 
ATOM     26  C   UNL     1      16.824 -33.206  25.078  1.00  0.00     0.001 A 
ATOM     27  C   UNL     1      15.645 -33.606  24.418  1.00  0.00     0.002 A 
BRANCH  22  28
ATOM     28  O   UNL     1      16.524 -35.825  20.529  1.00  0.00    -0.417 OA
ATOM     29  C   UNL     1      16.994 -36.300  19.276  1.00  0.00     0.313 C 
ENDBRANCH  22  28
ENDBRANCH  18  19
ENDBRANCH   7  18
ENDBRANCH   4   7
ENDBRANCH   2   3
BRANCH   2  30
ATOM     30  N   UNL     1      21.350 -28.920  23.299  1.00  0.00    -0.343 N 
ATOM     31  C   UNL     1      21.833 -29.493  24.522  1.00  0.00     0.243 C 
ATOM     32  H   UNL     1      21.979 -28.265  22.779  1.00  0.00     0.164 HD
ATOM     33  O   UNL     1      21.024 -30.030  25.328  1.00  0.00    -0.273 OA
BRANCH  31  34
ATOM     34  C   UNL     1      23.302 -29.431  24.847  1.00  0.00     0.174 C 
ATOM     35  N   UNL     1      23.664 -30.437  25.870  1.00  0.00    -0.329 N 
ATOM     36  C   UNL     1      23.693 -28.003  25.302  1.00  0.00     0.035 C 
ATOM     37  C   UNL     1      23.494 -30.083  27.289  1.00  0.00     0.120 C 
ATOM     38  C   UNL     1      24.757 -28.033  26.399  1.00  0.00     0.004 C 
ATOM     39  C   UNL     1      24.211 -28.760  27.636  1.00  0.00     0.022 C 
BRANCH  35  40
ATOM     40  C   UNL     1      24.613 -31.472  25.539  1.00  0.00     0.246 CG0
ATOM     41  O   UNL     1      25.816 -31.326  25.893  1.00  0.00    -0.272 OA
ATOM     42  G   UNL     1      24.222 -32.756  24.828  1.00  0.00     0.000 G0
ENDBRANCH  35  40
ENDBRANCH  31  34
ENDBRANCH   2  30
ENDBRANCH   1   2
BRANCH   1  43
ATOM     43  C   UNL     1      18.125 -28.750  21.283  1.00  0.00     0.003 C 
BRANCH  43  44
ATOM     44  C   UNL     1      17.214 -29.019  22.500  1.00  0.00     0.001 C 
BRANCH  44  45
ATOM     45  C   UNL     1      16.485 -30.381  22.492  1.00  0.00     0.008 C 
BRANCH  45  46
ATOM     46  C   UNL     1      15.217 -30.409  21.623  1.00  0.00     0.075 C 
BRANCH  46  47
ATOM     47  C   UNL     1      14.039 -30.959  22.381  1.00  0.00     0.132 C 
ATOM     48  O   UNL     1      13.293 -31.758  21.832  1.00  0.00    -0.300 OA
BRANCH  47  49
ATOM     49  C   UNL     1      13.823 -30.566  23.823  1.00  0.00     0.072 C 
ATOM     50  C   UNL     1      13.007 -29.283  23.979  1.00  0.00     0.012 C 
ENDBRANCH  47  49
ENDBRANCH  46  47
ENDBRANCH  45  46
ENDBRANCH  44  45
ENDBRANCH  43  44
ENDBRANCH   1  43
TORSDOF 12
ENDMDL
MODEL 9
REMARK VINA RESULT:    -6.121      2.338      7.352
REMARK INTER + INTRA:         -15.365
REMARK INTER:                 -13.247
REMARK INTRA:                  -2.118
REMARK UNBOUND:                -2.445
REMARK SMILES CCC(=O)CCCCC[C@@H]1NC(=O)[C@H]2CCCCN2C(=O)[C@@H]([C@@H](C)CC)NC(=O)[C@@H](Cc2cn(OC)c3ccccc23)NC1=O
REMARK SMILES IDX 9 1 10 2 44 3 43 4 45 6 30 7 28 8 27 9 29 11 22 12 23 14
REMARK SMILES IDX 24 15 25 16 26 17 31 18 32 19 33 20 42 21 34 22 37 23 41 24
REMARK SMILES IDX 38 25 40 26 39 27 35 28 36 29 11 30 12 31 13 33 14 34 19 35
REMARK SMILES IDX 15 36 18 37 16 38 17 39 20 40 21 41 8 43 7 44 6 45 5 46 3 47
REMARK SMILES IDX 4 48 2 49 1 50
REMARK H PARENT 43 5 27 10 11 32
REMARK Flexibility Score: 80.00
ROOT
ATOM      1  C   UNL     1      21.439 -29.834  21.531  1.00  0.00     0.035 C 
ENDROOT
BRANCH   1   2
ATOM      2  C   UNL     1      21.310 -31.209  22.222  1.00  0.00     0.171 C 
BRANCH   2   3
ATOM      3  C   UNL     1      20.108 -31.984  21.760  1.00  0.00     0.243 C 
ATOM      4  N   UNL     1      19.287 -32.651  22.725  1.00  0.00    -0.342 N 
ATOM      5  H   UNL     1      19.379 -32.372  23.728  1.00  0.00     0.164 HD
ATOM      6  O   UNL     1      19.894 -32.143  20.528  1.00  0.00    -0.273 OA
BRANCH   4   7
ATOM      7  C   UNL     1      18.513 -33.853  22.411  1.00  0.00     0.175 C 
BRANCH   7   8
ATOM      8  C   UNL     1      19.394 -35.084  22.397  1.00  0.00     0.243 C 
ATOM      9  N   UNL     1      20.591 -35.169  23.194  1.00  0.00    -0.342 N 
ATOM     10  H   UNL     1      20.867 -34.345  23.766  1.00  0.00     0.164 HD
ATOM     11  O   UNL     1      19.020 -36.077  21.713  1.00  0.00    -0.273 OA
BRANCH   9  12
ATOM     12  C   UNL     1      21.249 -36.451  23.486  1.00  0.00     0.174 CG0
ATOM     13  G   UNL     1      22.762 -36.362  23.380  1.00  0.00     0.000 G0
BRANCH  12  14
ATOM     14  C   UNL     1      20.768 -37.000  24.862  1.00  0.00     0.018 C 
ATOM     15  C   UNL     1      20.502 -35.856  25.858  1.00  0.00     0.010 C 
BRANCH  14  16
ATOM     16  C   UNL     1      19.539 -37.940  24.738  1.00  0.00     0.002 C 
ATOM     17  C   UNL     1      18.325 -37.446  25.532  1.00  0.00     0.004 C 
ENDBRANCH  14  16
ENDBRANCH  12  14
ENDBRANCH   9  12
ENDBRANCH   7   8
BRANCH   7  18
ATOM     18  C   UNL     1      17.370 -34.028  23.424  1.00  0.00     0.073 C 
BRANCH  18  19
ATOM     19  C   UNL     1      16.271 -33.038  23.159  1.00  0.00    -0.016 A 
ATOM     20  C   UNL     1      16.007 -31.884  23.884  1.00  0.00     0.134 A 
ATOM     21  C   UNL     1      15.415 -33.002  22.074  1.00  0.00     0.006 A 
ATOM     22  N   UNL     1      15.022 -31.169  23.298  1.00  0.00    -0.191 N 
ATOM     23  C   UNL     1      14.657 -31.855  22.181  1.00  0.00     0.087 A 
ATOM     24  C   UNL     1      15.288 -33.882  20.999  1.00  0.00     0.011 A 
ATOM     25  C   UNL     1      13.700 -31.543  21.199  1.00  0.00     0.030 A 
ATOM     26  C   UNL     1      14.334 -33.585  20.016  1.00  0.00     0.001 A 
ATOM     27  C   UNL     1      13.545 -32.423  20.115  1.00  0.00     0.002 A 
BRANCH  22  28
ATOM     28  O   UNL     1      14.576 -29.962  23.817  1.00  0.00    -0.417 OA
ATOM     29  C   UNL     1      13.276 -29.423  23.632  1.00  0.00     0.313 C 
ENDBRANCH  22  28
ENDBRANCH  18  19
ENDBRANCH   7  18
ENDBRANCH   4   7
ENDBRANCH   2   3
BRANCH   2  30
ATOM     30  N   UNL     1      22.500 -32.015  21.961  1.00  0.00    -0.343 N 
ATOM     31  C   UNL     1      23.080 -32.828  22.991  1.00  0.00     0.243 C 
ATOM     32  H   UNL     1      22.744 -32.231  20.967  1.00  0.00     0.164 HD
ATOM     33  O   UNL     1      23.067 -32.430  24.189  1.00  0.00    -0.273 OA
BRANCH  31  34
ATOM     34  C   UNL     1      23.718 -34.144  22.633  1.00  0.00     0.174 C 
ATOM     35  N   UNL     1      23.503 -35.148  23.699  1.00  0.00    -0.329 N 
ATOM     36  C   UNL     1      25.227 -33.949  22.343  1.00  0.00     0.035 C 
ATOM     37  C   UNL     1      24.442 -35.177  24.832  1.00  0.00     0.120 C 
ATOM     38  C   UNL     1      26.053 -35.138  22.832  1.00  0.00     0.004 C 
ATOM     39  C   UNL     1      25.907 -35.284  24.354  1.00  0.00     0.022 C 
BRANCH  35  40
ATOM     40  C   UNL     1      22.767 -36.352  23.397  1.00  0.00     0.246 CG0
ATOM     41  O   UNL     1      23.410 -37.394  23.094  1.00  0.00    -0.272 OA
ATOM     42  G   UNL     1      21.252 -36.438  23.479  1.00  0.00     0.000 G0
ENDBRANCH  35  40
ENDBRANCH  31  34
ENDBRANCH   2  30
ENDBRANCH   1   2
BRANCH   1  43
ATOM     43  C   UNL     1      20.443 -28.774  22.042  1.00  0.00     0.003 C 
BRANCH  43  44
ATOM     44  C   UNL     1      19.871 -27.824  20.969  1.00  0.00     0.001 C 
BRANCH  44  45
ATOM     45  C   UNL     1      20.214 -26.330  21.157  1.00  0.00     0.008 C 
BRANCH  45  46
ATOM     46  C   UNL     1      21.177 -25.769  20.098  1.00  0.00     0.075 C 
BRANCH  46  47
ATOM     47  C   UNL     1      22.591 -25.714  20.609  1.00  0.00     0.132 C 
ATOM     48  O   UNL     1      23.051 -26.680  21.201  1.00  0.00    -0.300 OA
BRANCH  47  49
ATOM     49  C   UNL     1      23.443 -24.497  20.338  1.00  0.00     0.072 C 
ATOM     50  C   UNL     1      23.387 -23.463  21.461  1.00  0.00     0.012 C 
ENDBRANCH  47  49
ENDBRANCH  46  47
ENDBRANCH  45  46
ENDBRANCH  44  45
ENDBRANCH  43  44
ENDBRANCH   1  43
TORSDOF 12
ENDMDL
