MODEL 1
REMARK VINA RESULT:    -6.816      0.000      0.000
REMARK INTER + INTRA:         -11.022
REMARK INTER:                  -9.407
REMARK INTRA:                  -1.615
REMARK UNBOUND:                -1.615
REMARK SMILES CC[C@@H](CC[C@@H](C)[C@H]1CC[C@@H]2[C@H]3CC=C4C[C@@H](O)CC[C@]4(C)[C@@H]3CC[C@@]21C)C(C)C
REMARK SMILES IDX 5 1 4 2 3 3 2 4 1 5 28 6 29 7 30 8 6 9 7 10 8 11 9 12 26 13
REMARK SMILES IDX 10 14 11 15 25 16 27 17 12 18 24 19 23 20 13 21 21 22 14 23
REMARK SMILES IDX 15 24 20 25 22 26 16 27 19 28 17 29 18 30
REMARK H PARENT 18 31
REMARK Flexibility Score: inf
ROOT
ATOM      1  C   UNL     1      10.579   8.102  46.894  1.00  0.00     0.004 C 
ENDROOT
BRANCH   1   2
ATOM      2  C   UNL     1      10.561   6.551  46.901  1.00  0.00     0.004 C 
BRANCH   2   3
ATOM      3  C   UNL     1      10.823   5.861  48.274  1.00  0.00    -0.009 C 
BRANCH   3   4
ATOM      4  C   UNL     1      12.168   5.083  48.282  1.00  0.00     0.000 C 
ATOM      5  C   UNL     1      13.397   5.989  48.392  1.00  0.00     0.004 C 
ENDBRANCH   3   4
BRANCH   3   6
ATOM      6  C   UNL     1       9.612   5.050  48.852  1.00  0.00    -0.014 C 
ATOM      7  C   UNL     1       9.365   5.354  50.339  1.00  0.00     0.007 C 
ATOM      8  C   UNL     1       8.303   5.203  48.064  1.00  0.00     0.007 C 
ENDBRANCH   3   6
ENDBRANCH   2   3
ENDBRANCH   1   2
BRANCH   1   9
ATOM      9  C   UNL     1       9.256   8.735  46.371  1.00  0.00    -0.011 C 
ATOM     10  C   UNL     1       8.506   7.685  45.527  1.00  0.00     0.008 C 
BRANCH   9  11
ATOM     11  C   UNL     1       8.296   9.317  47.484  1.00  0.00    -0.002 C 
ATOM     12  C   UNL     1       8.537   8.883  48.940  1.00  0.00     0.005 C 
ATOM     13  C   UNL     1       8.184  10.869  47.574  1.00  0.00    -0.026 C 
ATOM     14  C   UNL     1       7.898   9.962  49.822  1.00  0.00     0.005 C 
ATOM     15  C   UNL     1       7.368  11.068  48.883  1.00  0.00    -0.001 C 
ATOM     16  C   UNL     1       7.513  11.534  46.346  1.00  0.00     0.007 C 
ATOM     17  C   UNL     1       9.580  11.540  47.755  1.00  0.00     0.012 C 
ATOM     18  C   UNL     1       5.811  10.941  48.723  1.00  0.00     0.000 C 
ATOM     19  C   UNL     1       6.027  11.223  46.216  1.00  0.00     0.005 C 
ATOM     20  C   UNL     1       5.259  11.671  47.478  1.00  0.00     0.003 C 
ATOM     21  C   UNL     1       5.123  11.542  49.963  1.00  0.00     0.031 C 
ATOM     22  C   UNL     1       3.682  11.534  47.337  1.00  0.00    -0.008 C 
ATOM     23  C   UNL     1       3.637  11.426  49.871  1.00  0.00    -0.027 C 
ATOM     24  C   UNL     1       2.969  11.478  48.701  1.00  0.00    -0.065 C 
ATOM     25  C   UNL     1       3.283  10.232  46.566  1.00  0.00     0.014 C 
ATOM     26  C   UNL     1       3.169  12.777  46.563  1.00  0.00     0.016 C 
ATOM     27  C   UNL     1       1.476  11.222  48.712  1.00  0.00     0.063 C 
ATOM     28  C   UNL     1       1.769   9.939  46.560  1.00  0.00     0.033 C 
ATOM     29  C   UNL     1       1.182   9.910  47.981  1.00  0.00     0.118 C 
BRANCH  29  30
ATOM     30  O   UNL     1      -0.207   9.719  47.921  1.00  0.00    -0.393 OA
ATOM     31  H   UNL     1      -0.620  10.622  47.911  1.00  0.00     0.210 HD
ENDBRANCH  29  30
ENDBRANCH   9  11
ENDBRANCH   1   9
TORSDOF 7
ENDMDL
MODEL 2
REMARK VINA RESULT:    -6.793      3.603      7.407
REMARK INTER + INTRA:         -10.990
REMARK INTER:                  -9.845
REMARK INTRA:                  -1.145
REMARK UNBOUND:                -1.615
REMARK SMILES CC[C@@H](CC[C@@H](C)[C@H]1CC[C@@H]2[C@H]3CC=C4C[C@@H](O)CC[C@]4(C)[C@@H]3CC[C@@]21C)C(C)C
REMARK SMILES IDX 5 1 4 2 3 3 2 4 1 5 28 6 29 7 30 8 6 9 7 10 8 11 9 12 26 13
REMARK SMILES IDX 10 14 11 15 25 16 27 17 12 18 24 19 23 20 13 21 21 22 14 23
REMARK SMILES IDX 15 24 20 25 22 26 16 27 19 28 17 29 18 30
REMARK H PARENT 18 31
REMARK Flexibility Score: inf
ROOT
ATOM      1  C   UNL     1      10.532   4.041  52.997  1.00  0.00     0.004 C 
ENDROOT
BRANCH   1   2
ATOM      2  C   UNL     1       9.631   3.739  54.223  1.00  0.00     0.004 C 
BRANCH   2   3
ATOM      3  C   UNL     1       8.960   2.332  54.261  1.00  0.00    -0.009 C 
BRANCH   3   4
ATOM      4  C   UNL     1       7.483   2.409  54.736  1.00  0.00     0.000 C 
ATOM      5  C   UNL     1       6.468   2.228  53.607  1.00  0.00     0.004 C 
ENDBRANCH   3   4
BRANCH   3   6
ATOM      6  C   UNL     1       9.803   1.214  54.968  1.00  0.00    -0.014 C 
ATOM      7  C   UNL     1      10.784   1.792  56.002  1.00  0.00     0.007 C 
ATOM      8  C   UNL     1       8.974   0.091  55.605  1.00  0.00     0.007 C 
ENDBRANCH   3   6
ENDBRANCH   2   3
ENDBRANCH   1   2
BRANCH   1   9
ATOM      9  C   UNL     1       9.744   4.572  51.764  1.00  0.00    -0.011 C 
ATOM     10  C   UNL     1       8.467   5.280  52.261  1.00  0.00     0.008 C 
BRANCH   9  11
ATOM     11  C   UNL     1      10.553   5.533  50.804  1.00  0.00    -0.002 C 
ATOM     12  C   UNL     1      11.831   6.189  51.355  1.00  0.00     0.005 C 
ATOM     13  C   UNL     1      11.000   4.944  49.433  1.00  0.00    -0.026 C 
ATOM     14  C   UNL     1      12.677   6.572  50.135  1.00  0.00     0.005 C 
ATOM     15  C   UNL     1      11.936   6.056  48.882  1.00  0.00    -0.001 C 
ATOM     16  C   UNL     1       9.833   4.613  48.468  1.00  0.00     0.007 C 
ATOM     17  C   UNL     1      11.834   3.638  49.609  1.00  0.00     0.012 C 
ATOM     18  C   UNL     1      11.206   7.244  48.159  1.00  0.00     0.000 C 
ATOM     19  C   UNL     1       9.106   5.845  47.941  1.00  0.00     0.005 C 
ATOM     20  C   UNL     1      10.083   6.785  47.202  1.00  0.00     0.003 C 
ATOM     21  C   UNL     1      12.230   8.043  47.333  1.00  0.00     0.031 C 
ATOM     22  C   UNL     1       9.359   8.001  46.479  1.00  0.00    -0.008 C 
ATOM     23  C   UNL     1      11.589   9.201  46.641  1.00  0.00    -0.027 C 
ATOM     24  C   UNL     1      10.315   9.176  46.201  1.00  0.00    -0.065 C 
ATOM     25  C   UNL     1       8.185   8.570  47.342  1.00  0.00     0.014 C 
ATOM     26  C   UNL     1       8.808   7.482  45.124  1.00  0.00     0.016 C 
ATOM     27  C   UNL     1       9.727  10.450  45.628  1.00  0.00     0.063 C 
ATOM     28  C   UNL     1       7.564   9.868  46.789  1.00  0.00     0.033 C 
ATOM     29  C   UNL     1       8.622  10.959  46.557  1.00  0.00     0.118 C 
BRANCH  29  30
ATOM     30  O   UNL     1       8.025  12.091  45.983  1.00  0.00    -0.393 OA
ATOM     31  H   UNL     1       8.264  12.865  46.557  1.00  0.00     0.210 HD
ENDBRANCH  29  30
ENDBRANCH   9  11
ENDBRANCH   1   9
TORSDOF 7
ENDMDL
MODEL 3
REMARK VINA RESULT:    -6.741      3.391      8.456
REMARK INTER + INTRA:         -10.918
REMARK INTER:                 -10.910
REMARK INTRA:                  -0.008
REMARK UNBOUND:                -1.615
REMARK SMILES CC[C@@H](CC[C@@H](C)[C@H]1CC[C@@H]2[C@H]3CC=C4C[C@@H](O)CC[C@]4(C)[C@@H]3CC[C@@]21C)C(C)C
REMARK SMILES IDX 5 1 4 2 3 3 2 4 1 5 28 6 29 7 30 8 6 9 7 10 8 11 9 12 26 13
REMARK SMILES IDX 10 14 11 15 25 16 27 17 12 18 24 19 23 20 13 21 21 22 14 23
REMARK SMILES IDX 15 24 20 25 22 26 16 27 19 28 17 29 18 30
REMARK H PARENT 18 31
REMARK Flexibility Score: inf
ROOT
ATOM      1  C   UNL     1       1.399   9.590  47.439  1.00  0.00     0.004 C 
ENDROOT
BRANCH   1   2
ATOM      2  C   UNL     1       0.217   8.763  48.010  1.00  0.00     0.004 C 
BRANCH   2   3
ATOM      3  C   UNL     1      -1.031   8.612  47.088  1.00  0.00    -0.009 C 
BRANCH   3   4
ATOM      4  C   UNL     1      -0.642   8.604  45.585  1.00  0.00     0.000 C 
ATOM      5  C   UNL     1      -1.653   7.877  44.695  1.00  0.00     0.004 C 
ENDBRANCH   3   4
BRANCH   3   6
ATOM      6  C   UNL     1      -2.231   9.561  47.435  1.00  0.00    -0.014 C 
ATOM      7  C   UNL     1      -3.068   9.034  48.613  1.00  0.00     0.007 C 
ATOM      8  C   UNL     1      -1.841  11.024  47.685  1.00  0.00     0.007 C 
ENDBRANCH   3   6
ENDBRANCH   2   3
ENDBRANCH   1   2
BRANCH   1   9
ATOM      9  C   UNL     1       1.800  10.799  48.335  1.00  0.00    -0.011 C 
ATOM     10  C   UNL     1       2.193  10.271  49.730  1.00  0.00     0.008 C 
BRANCH   9  11
ATOM     11  C   UNL     1       2.953  11.716  47.761  1.00  0.00    -0.002 C 
ATOM     12  C   UNL     1       2.574  12.776  46.713  1.00  0.00     0.005 C 
ATOM     13  C   UNL     1       3.802  12.509  48.800  1.00  0.00    -0.026 C 
ATOM     14  C   UNL     1       3.679  13.836  46.756  1.00  0.00     0.005 C 
ATOM     15  C   UNL     1       4.650  13.443  47.891  1.00  0.00    -0.001 C 
ATOM     16  C   UNL     1       4.675  11.621  49.723  1.00  0.00     0.007 C 
ATOM     17  C   UNL     1       2.909  13.393  49.723  1.00  0.00     0.012 C 
ATOM     18  C   UNL     1       5.948  12.793  47.292  1.00  0.00     0.000 C 
ATOM     19  C   UNL     1       5.823  10.926  48.999  1.00  0.00     0.005 C 
ATOM     20  C   UNL     1       6.747  11.958  48.317  1.00  0.00     0.003 C 
ATOM     21  C   UNL     1       6.875  13.902  46.764  1.00  0.00     0.031 C 
ATOM     22  C   UNL     1       8.057  11.311  47.692  1.00  0.00    -0.008 C 
ATOM     23  C   UNL     1       8.118  13.334  46.162  1.00  0.00    -0.027 C 
ATOM     24  C   UNL     1       8.693  12.199  46.606  1.00  0.00    -0.065 C 
ATOM     25  C   UNL     1       7.757   9.928  47.025  1.00  0.00     0.014 C 
ATOM     26  C   UNL     1       9.084  11.126  48.841  1.00  0.00     0.016 C 
ATOM     27  C   UNL     1       9.878  11.645  45.840  1.00  0.00     0.063 C 
ATOM     28  C   UNL     1       8.940   9.336  46.235  1.00  0.00     0.033 C 
ATOM     29  C   UNL     1       9.481  10.320  45.184  1.00  0.00     0.118 C 
BRANCH  29  30
ATOM     30  O   UNL     1      10.602   9.770  44.545  1.00  0.00    -0.393 OA
ATOM     31  H   UNL     1      11.243   9.514  45.260  1.00  0.00     0.210 HD
ENDBRANCH  29  30
ENDBRANCH   9  11
ENDBRANCH   1   9
TORSDOF 7
ENDMDL
MODEL 4
REMARK VINA RESULT:    -6.562      3.986      7.119
REMARK INTER + INTRA:         -10.671
REMARK INTER:                  -8.919
REMARK INTRA:                  -1.752
REMARK UNBOUND:                -1.615
REMARK SMILES CC[C@@H](CC[C@@H](C)[C@H]1CC[C@@H]2[C@H]3CC=C4C[C@@H](O)CC[C@]4(C)[C@@H]3CC[C@@]21C)C(C)C
REMARK SMILES IDX 5 1 4 2 3 3 2 4 1 5 28 6 29 7 30 8 6 9 7 10 8 11 9 12 26 13
REMARK SMILES IDX 10 14 11 15 25 16 27 17 12 18 24 19 23 20 13 21 21 22 14 23
REMARK SMILES IDX 15 24 20 25 22 26 16 27 19 28 17 29 18 30
REMARK H PARENT 18 31
REMARK Flexibility Score: inf
ROOT
ATOM      1  C   UNL     1      12.788   4.123  52.032  1.00  0.00     0.004 C 
ENDROOT
BRANCH   1   2
ATOM      2  C   UNL     1      13.208   3.957  53.516  1.00  0.00     0.004 C 
BRANCH   2   3
ATOM      3  C   UNL     1      12.130   3.373  54.480  1.00  0.00    -0.009 C 
BRANCH   3   4
ATOM      4  C   UNL     1      11.063   2.540  53.717  1.00  0.00     0.000 C 
ATOM      5  C   UNL     1      10.327   1.533  54.602  1.00  0.00     0.004 C 
ENDBRANCH   3   4
BRANCH   3   6
ATOM      6  C   UNL     1      11.531   4.398  55.505  1.00  0.00    -0.014 C 
ATOM      7  C   UNL     1      12.608   5.316  56.106  1.00  0.00     0.007 C 
ATOM      8  C   UNL     1      10.368   5.241  54.964  1.00  0.00     0.007 C 
ENDBRANCH   3   6
ENDBRANCH   2   3
ENDBRANCH   1   2
BRANCH   1   9
ATOM      9  C   UNL     1      12.123   5.496  51.725  1.00  0.00    -0.011 C 
ATOM     10  C   UNL     1      13.221   6.578  51.680  1.00  0.00     0.008 C 
BRANCH   9  11
ATOM     11  C   UNL     1      11.258   5.551  50.403  1.00  0.00    -0.002 C 
ATOM     12  C   UNL     1      11.300   4.332  49.466  1.00  0.00     0.005 C 
ATOM     13  C   UNL     1       9.735   5.837  50.570  1.00  0.00    -0.026 C 
ATOM     14  C   UNL     1      10.021   4.392  48.624  1.00  0.00     0.005 C 
ATOM     15  C   UNL     1       9.192   5.592  49.135  1.00  0.00    -0.001 C 
ATOM     16  C   UNL     1       9.405   7.256  51.099  1.00  0.00     0.007 C 
ATOM     17  C   UNL     1       9.058   4.818  51.537  1.00  0.00     0.012 C 
ATOM     18  C   UNL     1       9.336   6.806  48.150  1.00  0.00     0.000 C 
ATOM     19  C   UNL     1       9.722   8.369  50.105  1.00  0.00     0.005 C 
ATOM     20  C   UNL     1       8.949   8.162  48.785  1.00  0.00     0.003 C 
ATOM     21  C   UNL     1       8.424   6.582  46.930  1.00  0.00     0.031 C 
ATOM     22  C   UNL     1       9.099   9.377  47.771  1.00  0.00    -0.008 C 
ATOM     23  C   UNL     1       8.540   7.702  45.949  1.00  0.00    -0.027 C 
ATOM     24  C   UNL     1       8.787   8.975  46.317  1.00  0.00    -0.065 C 
ATOM     25  C   UNL     1      10.551   9.958  47.778  1.00  0.00     0.014 C 
ATOM     26  C   UNL     1       8.094  10.477  48.205  1.00  0.00     0.016 C 
ATOM     27  C   UNL     1       9.012  10.008  45.232  1.00  0.00     0.063 C 
ATOM     28  C   UNL     1      10.816  11.011  46.683  1.00  0.00     0.033 C 
ATOM     29  C   UNL     1      10.466  10.485  45.281  1.00  0.00     0.118 C 
BRANCH  29  30
ATOM     30  O   UNL     1      10.649  11.500  44.330  1.00  0.00    -0.393 OA
ATOM     31  H   UNL     1      10.035  11.300  43.575  1.00  0.00     0.210 HD
ENDBRANCH  29  30
ENDBRANCH   9  11
ENDBRANCH   1   9
TORSDOF 7
ENDMDL
MODEL 5
REMARK VINA RESULT:    -6.510      4.018      9.016
REMARK INTER + INTRA:         -10.599
REMARK INTER:                  -9.198
REMARK INTRA:                  -1.401
REMARK UNBOUND:                -1.615
REMARK SMILES CC[C@@H](CC[C@@H](C)[C@H]1CC[C@@H]2[C@H]3CC=C4C[C@@H](O)CC[C@]4(C)[C@@H]3CC[C@@]21C)C(C)C
REMARK SMILES IDX 5 1 4 2 3 3 2 4 1 5 28 6 29 7 30 8 6 9 7 10 8 11 9 12 26 13
REMARK SMILES IDX 10 14 11 15 25 16 27 17 12 18 24 19 23 20 13 21 21 22 14 23
REMARK SMILES IDX 15 24 20 25 22 26 16 27 19 28 17 29 18 30
REMARK H PARENT 18 31
REMARK Flexibility Score: inf
ROOT
ATOM      1  C   UNL     1       9.647   7.143  46.773  1.00  0.00     0.004 C 
ENDROOT
BRANCH   1   2
ATOM      2  C   UNL     1       9.403   8.675  46.772  1.00  0.00     0.004 C 
BRANCH   2   3
ATOM      3  C   UNL     1       7.963   9.148  47.136  1.00  0.00    -0.009 C 
BRANCH   3   4
ATOM      4  C   UNL     1       7.368  10.080  46.045  1.00  0.00     0.000 C 
ATOM      5  C   UNL     1       8.429  10.835  45.241  1.00  0.00     0.004 C 
ENDBRANCH   3   4
BRANCH   3   6
ATOM      6  C   UNL     1       7.789   9.682  48.600  1.00  0.00    -0.014 C 
ATOM      7  C   UNL     1       9.123  10.140  49.214  1.00  0.00     0.007 C 
ATOM      8  C   UNL     1       6.734  10.786  48.760  1.00  0.00     0.007 C 
ENDBRANCH   3   6
ENDBRANCH   2   3
ENDBRANCH   1   2
BRANCH   1   9
ATOM      9  C   UNL     1       9.035   6.418  48.007  1.00  0.00    -0.011 C 
ATOM     10  C   UNL     1       7.860   5.539  47.532  1.00  0.00     0.008 C 
BRANCH   9  11
ATOM     11  C   UNL     1      10.047   5.550  48.856  1.00  0.00    -0.002 C 
ATOM     12  C   UNL     1      11.066   4.685  48.094  1.00  0.00     0.005 C 
ATOM     13  C   UNL     1      10.916   6.308  49.904  1.00  0.00    -0.026 C 
ATOM     14  C   UNL     1      12.220   4.422  49.067  1.00  0.00     0.005 C 
ATOM     15  C   UNL     1      11.918   5.211  50.361  1.00  0.00    -0.001 C 
ATOM     16  C   UNL     1      10.113   6.912  51.084  1.00  0.00     0.007 C 
ATOM     17  C   UNL     1      11.722   7.474  49.253  1.00  0.00     0.012 C 
ATOM     18  C   UNL     1      11.383   4.240  51.473  1.00  0.00     0.000 C 
ATOM     19  C   UNL     1       9.519   5.865  52.020  1.00  0.00     0.005 C 
ATOM     20  C   UNL     1      10.626   4.964  52.609  1.00  0.00     0.003 C 
ATOM     21  C   UNL     1      12.568   3.487  52.103  1.00  0.00     0.031 C 
ATOM     22  C   UNL     1      10.096   3.964  53.725  1.00  0.00    -0.008 C 
ATOM     23  C   UNL     1      12.110   2.531  53.155  1.00  0.00    -0.027 C 
ATOM     24  C   UNL     1      11.032   2.759  53.931  1.00  0.00    -0.065 C 
ATOM     25  C   UNL     1       8.689   3.385  53.359  1.00  0.00     0.014 C 
ATOM     26  C   UNL     1      10.006   4.753  55.058  1.00  0.00     0.016 C 
ATOM     27  C   UNL     1      10.582   1.665  54.878  1.00  0.00     0.063 C 
ATOM     28  C   UNL     1       8.201   2.267  54.301  1.00  0.00     0.033 C 
ATOM     29  C   UNL     1       9.225   1.126  54.419  1.00  0.00     0.118 C 
BRANCH  29  30
ATOM     30  O   UNL     1       8.773   0.171  55.344  1.00  0.00    -0.393 OA
ATOM     31  H   UNL     1       8.081  -0.371  54.882  1.00  0.00     0.210 HD
ENDBRANCH  29  30
ENDBRANCH   9  11
ENDBRANCH   1   9
TORSDOF 7
ENDMDL
MODEL 6
REMARK VINA RESULT:    -6.505      2.642      7.486
REMARK INTER + INTRA:         -10.592
REMARK INTER:                  -8.758
REMARK INTRA:                  -1.834
REMARK UNBOUND:                -1.615
REMARK SMILES CC[C@@H](CC[C@@H](C)[C@H]1CC[C@@H]2[C@H]3CC=C4C[C@@H](O)CC[C@]4(C)[C@@H]3CC[C@@]21C)C(C)C
REMARK SMILES IDX 5 1 4 2 3 3 2 4 1 5 28 6 29 7 30 8 6 9 7 10 8 11 9 12 26 13
REMARK SMILES IDX 10 14 11 15 25 16 27 17 12 18 24 19 23 20 13 21 21 22 14 23
REMARK SMILES IDX 15 24 20 25 22 26 16 27 19 28 17 29 18 30
REMARK H PARENT 18 31
REMARK Flexibility Score: inf
ROOT
ATOM      1  C   UNL     1       5.192  13.433  45.972  1.00  0.00     0.004 C 
ENDROOT
BRANCH   1   2
ATOM      2  C   UNL     1       4.076  13.435  47.049  1.00  0.00     0.004 C 
BRANCH   2   3
ATOM      3  C   UNL     1       3.579  12.039  47.535  1.00  0.00    -0.009 C 
BRANCH   3   4
ATOM      4  C   UNL     1       2.266  11.613  46.822  1.00  0.00     0.000 C 
ATOM      5  C   UNL     1       1.994  10.109  46.891  1.00  0.00     0.004 C 
ENDBRANCH   3   4
BRANCH   3   6
ATOM      6  C   UNL     1       3.555  11.847  49.091  1.00  0.00    -0.014 C 
ATOM      7  C   UNL     1       4.931  11.446  49.649  1.00  0.00     0.007 C 
ATOM      8  C   UNL     1       3.002  13.044  49.877  1.00  0.00     0.007 C 
ENDBRANCH   3   6
ENDBRANCH   2   3
ENDBRANCH   1   2
BRANCH   1   9
ATOM      9  C   UNL     1       6.624  13.287  46.564  1.00  0.00    -0.011 C 
ATOM     10  C   UNL     1       6.668  13.995  47.933  1.00  0.00     0.008 C 
BRANCH   9  11
ATOM     11  C   UNL     1       7.151  11.803  46.708  1.00  0.00    -0.002 C 
ATOM     12  C   UNL     1       6.488  10.718  45.842  1.00  0.00     0.005 C 
ATOM     13  C   UNL     1       8.676  11.574  46.487  1.00  0.00    -0.026 C 
ATOM     14  C   UNL     1       7.498   9.569  45.747  1.00  0.00     0.005 C 
ATOM     15  C   UNL     1       8.781  10.023  46.477  1.00  0.00    -0.001 C 
ATOM     16  C   UNL     1       9.584  12.227  47.561  1.00  0.00     0.007 C 
ATOM     17  C   UNL     1       9.146  12.111  45.100  1.00  0.00     0.012 C 
ATOM     18  C   UNL     1       8.862   9.351  47.894  1.00  0.00     0.000 C 
ATOM     19  C   UNL     1       9.470  11.578  48.935  1.00  0.00     0.005 C 
ATOM     20  C   UNL     1       9.821  10.076  48.865  1.00  0.00     0.003 C 
ATOM     21  C   UNL     1       9.356   7.901  47.742  1.00  0.00     0.031 C 
ATOM     22  C   UNL     1       9.891   9.379  50.291  1.00  0.00    -0.008 C 
ATOM     23  C   UNL     1       9.430   7.208  49.063  1.00  0.00    -0.027 C 
ATOM     24  C   UNL     1       9.726   7.850  50.210  1.00  0.00    -0.065 C 
ATOM     25  C   UNL     1       8.768   9.905  51.246  1.00  0.00     0.014 C 
ATOM     26  C   UNL     1      11.284   9.693  50.900  1.00  0.00     0.016 C 
ATOM     27  C   UNL     1       9.648   7.075  51.510  1.00  0.00     0.063 C 
ATOM     28  C   UNL     1       8.659   9.136  52.578  1.00  0.00     0.033 C 
ATOM     29  C   UNL     1       8.497   7.623  52.357  1.00  0.00     0.118 C 
BRANCH  29  30
ATOM     30  O   UNL     1       8.480   6.958  53.593  1.00  0.00    -0.393 OA
ATOM     31  H   UNL     1       7.640   7.224  54.051  1.00  0.00     0.210 HD
ENDBRANCH  29  30
ENDBRANCH   9  11
ENDBRANCH   1   9
TORSDOF 7
ENDMDL
MODEL 7
REMARK VINA RESULT:    -6.445      1.304      2.243
REMARK INTER + INTRA:         -10.509
REMARK INTER:                  -8.812
REMARK INTRA:                  -1.697
REMARK UNBOUND:                -1.615
REMARK SMILES CC[C@@H](CC[C@@H](C)[C@H]1CC[C@@H]2[C@H]3CC=C4C[C@@H](O)CC[C@]4(C)[C@@H]3CC[C@@]21C)C(C)C
REMARK SMILES IDX 5 1 4 2 3 3 2 4 1 5 28 6 29 7 30 8 6 9 7 10 8 11 9 12 26 13
REMARK SMILES IDX 10 14 11 15 25 16 27 17 12 18 24 19 23 20 13 21 21 22 14 23
REMARK SMILES IDX 15 24 20 25 22 26 16 27 19 28 17 29 18 30
REMARK H PARENT 18 31
REMARK Flexibility Score: inf
ROOT
ATOM      1  C   UNL     1      10.442   9.552  45.718  1.00  0.00     0.004 C 
ENDROOT
BRANCH   1   2
ATOM      2  C   UNL     1      11.370   8.377  46.124  1.00  0.00     0.004 C 
BRANCH   2   3
ATOM      3  C   UNL     1      12.112   8.520  47.487  1.00  0.00    -0.009 C 
BRANCH   3   4
ATOM      4  C   UNL     1      11.693   7.411  48.492  1.00  0.00     0.000 C 
ATOM      5  C   UNL     1      11.285   6.099  47.818  1.00  0.00     0.004 C 
ENDBRANCH   3   4
BRANCH   3   6
ATOM      6  C   UNL     1      12.115   9.966  48.094  1.00  0.00    -0.014 C 
ATOM      7  C   UNL     1      11.738   9.972  49.585  1.00  0.00     0.007 C 
ATOM      8  C   UNL     1      13.418  10.749  47.882  1.00  0.00     0.007 C 
ENDBRANCH   3   6
ENDBRANCH   2   3
ENDBRANCH   1   2
BRANCH   1   9
ATOM      9  C   UNL     1       8.939   9.153  45.630  1.00  0.00    -0.011 C 
ATOM     10  C   UNL     1       8.844   7.626  45.433  1.00  0.00     0.008 C 
BRANCH   9  11
ATOM     11  C   UNL     1       8.047   9.593  46.859  1.00  0.00    -0.002 C 
ATOM     12  C   UNL     1       8.474   9.125  48.261  1.00  0.00     0.005 C 
ATOM     13  C   UNL     1       7.802  11.122  47.038  1.00  0.00    -0.026 C 
ATOM     14  C   UNL     1       7.831  10.100  49.254  1.00  0.00     0.005 C 
ATOM     15  C   UNL     1       7.109  11.187  48.427  1.00  0.00    -0.001 C 
ATOM     16  C   UNL     1       6.951  11.768  45.915  1.00  0.00     0.007 C 
ATOM     17  C   UNL     1       9.141  11.917  47.115  1.00  0.00     0.012 C 
ATOM     18  C   UNL     1       5.562  10.917  48.414  1.00  0.00     0.000 C 
ATOM     19  C   UNL     1       5.495  11.320  45.915  1.00  0.00     0.005 C 
ATOM     20  C   UNL     1       4.821  11.640  47.267  1.00  0.00     0.003 C 
ATOM     21  C   UNL     1       4.951  11.396  49.743  1.00  0.00     0.031 C 
ATOM     22  C   UNL     1       3.257  11.356  47.273  1.00  0.00    -0.008 C 
ATOM     23  C   UNL     1       3.480  11.141  49.791  1.00  0.00    -0.027 C 
ATOM     24  C   UNL     1       2.695  11.176  48.696  1.00  0.00    -0.065 C 
ATOM     25  C   UNL     1       2.904  10.054  46.480  1.00  0.00     0.014 C 
ATOM     26  C   UNL     1       2.556  12.575  46.616  1.00  0.00     0.016 C 
ATOM     27  C   UNL     1       1.241  10.776  48.839  1.00  0.00     0.063 C 
ATOM     28  C   UNL     1       1.431   9.617  46.606  1.00  0.00     0.033 C 
ATOM     29  C   UNL     1       0.997   9.473  48.074  1.00  0.00     0.118 C 
BRANCH  29  30
ATOM     30  O   UNL     1      -0.367   9.150  48.140  1.00  0.00    -0.393 OA
ATOM     31  H   UNL     1      -0.740   9.640  48.920  1.00  0.00     0.210 HD
ENDBRANCH  29  30
ENDBRANCH   9  11
ENDBRANCH   1   9
TORSDOF 7
ENDMDL
MODEL 8
REMARK VINA RESULT:    -6.442      3.882      8.630
REMARK INTER + INTRA:         -10.505
REMARK INTER:                  -8.927
REMARK INTRA:                  -1.578
REMARK UNBOUND:                -1.615
REMARK SMILES CC[C@@H](CC[C@@H](C)[C@H]1CC[C@@H]2[C@H]3CC=C4C[C@@H](O)CC[C@]4(C)[C@@H]3CC[C@@]21C)C(C)C
REMARK SMILES IDX 5 1 4 2 3 3 2 4 1 5 28 6 29 7 30 8 6 9 7 10 8 11 9 12 26 13
REMARK SMILES IDX 10 14 11 15 25 16 27 17 12 18 24 19 23 20 13 21 21 22 14 23
REMARK SMILES IDX 15 24 20 25 22 26 16 27 19 28 17 29 18 30
REMARK H PARENT 18 31
REMARK Flexibility Score: inf
ROOT
ATOM      1  C   UNL     1       5.104  12.170  49.161  1.00  0.00     0.004 C 
ENDROOT
BRANCH   1   2
ATOM      2  C   UNL     1       3.579  12.375  48.964  1.00  0.00     0.004 C 
BRANCH   2   3
ATOM      3  C   UNL     1       2.936  11.659  47.737  1.00  0.00    -0.009 C 
BRANCH   3   4
ATOM      4  C   UNL     1       2.606  12.658  46.594  1.00  0.00     0.000 C 
ATOM      5  C   UNL     1       2.870  14.119  46.963  1.00  0.00     0.004 C 
ENDBRANCH   3   4
BRANCH   3   6
ATOM      6  C   UNL     1       1.768  10.671  48.082  1.00  0.00    -0.014 C 
ATOM      7  C   UNL     1       1.555   9.617  46.983  1.00  0.00     0.007 C 
ATOM      8  C   UNL     1       1.892   9.983  49.448  1.00  0.00     0.007 C 
ENDBRANCH   3   6
ENDBRANCH   2   3
ENDBRANCH   1   2
BRANCH   1   9
ATOM      9  C   UNL     1       5.953  12.619  47.936  1.00  0.00    -0.011 C 
ATOM     10  C   UNL     1       6.612  13.975  48.263  1.00  0.00     0.008 C 
BRANCH   9  11
ATOM     11  C   UNL     1       7.052  11.589  47.457  1.00  0.00    -0.002 C 
ATOM     12  C   UNL     1       7.083  10.206  48.131  1.00  0.00     0.005 C 
ATOM     13  C   UNL     1       7.090  11.259  45.934  1.00  0.00    -0.026 C 
ATOM     14  C   UNL     1       7.799   9.268  47.154  1.00  0.00     0.005 C 
ATOM     15  C   UNL     1       8.101  10.080  45.875  1.00  0.00    -0.001 C 
ATOM     16  C   UNL     1       7.507  12.449  45.032  1.00  0.00     0.007 C 
ATOM     17  C   UNL     1       5.708  10.754  45.417  1.00  0.00     0.012 C 
ATOM     18  C   UNL     1       9.614  10.499  45.845  1.00  0.00     0.000 C 
ATOM     19  C   UNL     1       8.966  12.859  45.196  1.00  0.00     0.005 C 
ATOM     20  C   UNL     1       9.908  11.675  44.887  1.00  0.00     0.003 C 
ATOM     21  C   UNL     1      10.464   9.299  45.390  1.00  0.00     0.031 C 
ATOM     22  C   UNL     1      11.444  12.082  44.870  1.00  0.00    -0.008 C 
ATOM     23  C   UNL     1      11.919   9.640  45.366  1.00  0.00    -0.027 C 
ATOM     24  C   UNL     1      12.376  10.874  45.078  1.00  0.00    -0.065 C 
ATOM     25  C   UNL     1      11.781  13.112  45.998  1.00  0.00     0.014 C 
ATOM     26  C   UNL     1      11.748  12.707  43.482  1.00  0.00     0.016 C 
ATOM     27  C   UNL     1      13.863  11.139  45.207  1.00  0.00     0.063 C 
ATOM     28  C   UNL     1      13.286  13.404  46.159  1.00  0.00     0.033 C 
ATOM     29  C   UNL     1      14.103  12.117  46.361  1.00  0.00     0.118 C 
BRANCH  29  30
ATOM     30  O   UNL     1      15.471  12.424  46.424  1.00  0.00    -0.393 OA
ATOM     31  H   UNL     1      15.925  11.633  46.818  1.00  0.00     0.210 HD
ENDBRANCH  29  30
ENDBRANCH   9  11
ENDBRANCH   1   9
TORSDOF 7
ENDMDL
MODEL 9
REMARK VINA RESULT:    -6.251      2.249      4.309
REMARK INTER + INTRA:         -10.242
REMARK INTER:                  -9.209
REMARK INTRA:                  -1.034
REMARK UNBOUND:                -1.615
REMARK SMILES CC[C@@H](CC[C@@H](C)[C@H]1CC[C@@H]2[C@H]3CC=C4C[C@@H](O)CC[C@]4(C)[C@@H]3CC[C@@]21C)C(C)C
REMARK SMILES IDX 5 1 4 2 3 3 2 4 1 5 28 6 29 7 30 8 6 9 7 10 8 11 9 12 26 13
REMARK SMILES IDX 10 14 11 15 25 16 27 17 12 18 24 19 23 20 13 21 21 22 14 23
REMARK SMILES IDX 15 24 20 25 22 26 16 27 19 28 17 29 18 30
REMARK H PARENT 18 31
REMARK Flexibility Score: inf
ROOT
ATOM      1  C   UNL     1       9.802   5.125  50.156  1.00  0.00     0.004 C 
ENDROOT
BRANCH   1   2
ATOM      2  C   UNL     1       8.546   5.050  51.064  1.00  0.00     0.004 C 
BRANCH   2   3
ATOM      3  C   UNL     1       8.797   4.731  52.569  1.00  0.00    -0.009 C 
BRANCH   3   4
ATOM      4  C   UNL     1      10.013   3.783  52.763  1.00  0.00     0.000 C 
ATOM      5  C   UNL     1      10.964   4.230  53.875  1.00  0.00     0.004 C 
ENDBRANCH   3   4
BRANCH   3   6
ATOM      6  C   UNL     1       7.522   4.311  53.380  1.00  0.00    -0.014 C 
ATOM      7  C   UNL     1       6.221   4.626  52.622  1.00  0.00     0.007 C 
ATOM      8  C   UNL     1       7.511   2.850  53.849  1.00  0.00     0.007 C 
ENDBRANCH   3   6
ENDBRANCH   2   3
ENDBRANCH   1   2
BRANCH   1   9
ATOM      9  C   UNL     1       9.544   5.844  48.799  1.00  0.00    -0.011 C 
ATOM     10  C   UNL     1       8.189   5.368  48.238  1.00  0.00     0.008 C 
BRANCH   9  11
ATOM     11  C   UNL     1       9.582   7.423  48.850  1.00  0.00    -0.002 C 
ATOM     12  C   UNL     1      10.130   8.088  50.125  1.00  0.00     0.005 C 
ATOM     13  C   UNL     1      10.344   8.145  47.698  1.00  0.00    -0.026 C 
ATOM     14  C   UNL     1      10.573   9.498  49.717  1.00  0.00     0.005 C 
ATOM     15  C   UNL     1      10.370   9.620  48.190  1.00  0.00    -0.001 C 
ATOM     16  C   UNL     1       9.687   7.993  46.303  1.00  0.00     0.007 C 
ATOM     17  C   UNL     1      11.814   7.640  47.571  1.00  0.00     0.012 C 
ATOM     18  C   UNL     1       9.072  10.448  47.883  1.00  0.00     0.000 C 
ATOM     19  C   UNL     1       8.358   8.726  46.168  1.00  0.00     0.005 C 
ATOM     20  C   UNL     1       8.531  10.235  46.451  1.00  0.00     0.003 C 
ATOM     21  C   UNL     1       9.375  11.948  48.051  1.00  0.00     0.031 C 
ATOM     22  C   UNL     1       7.220  11.084  46.159  1.00  0.00    -0.008 C 
ATOM     23  C   UNL     1       8.163  12.782  47.790  1.00  0.00    -0.027 C 
ATOM     24  C   UNL     1       7.213  12.434  46.900  1.00  0.00    -0.065 C 
ATOM     25  C   UNL     1       5.928  10.320  46.600  1.00  0.00     0.014 C 
ATOM     26  C   UNL     1       7.169  11.359  44.632  1.00  0.00     0.016 C 
ATOM     27  C   UNL     1       5.965  13.288  46.808  1.00  0.00     0.063 C 
ATOM     28  C   UNL     1       4.638  11.162  46.522  1.00  0.00     0.033 C 
ATOM     29  C   UNL     1       4.762  12.480  47.303  1.00  0.00     0.118 C 
BRANCH  29  30
ATOM     30  O   UNL     1       3.597  13.245  47.139  1.00  0.00    -0.393 OA
ATOM     31  H   UNL     1       3.566  13.519  46.185  1.00  0.00     0.210 HD
ENDBRANCH  29  30
ENDBRANCH   9  11
ENDBRANCH   1   9
TORSDOF 7
ENDMDL
