MODEL 1
REMARK VINA RESULT:    -4.280      0.000      0.000
REMARK INTER + INTRA:         -11.552
REMARK INTER:                  -9.035
REMARK INTRA:                  -2.517
REMARK UNBOUND:                -2.517
REMARK SMILES CCC(=O)CCCCC[C@@H]1NC(=O)[C@@H]2CCCCN2C(=O)[C@H]([C@@H](C)CC)NC(=O)[C@H](Cc2cn(OC)c3ccccc23)NC1=O
REMARK SMILES IDX 9 1 10 2 44 3 43 4 45 6 30 7 28 8 27 9 29 11 22 12 23 14
REMARK SMILES IDX 24 15 25 16 26 17 31 18 32 19 33 20 42 21 34 22 37 23 41 24
REMARK SMILES IDX 38 25 40 26 39 27 35 28 36 29 11 30 12 31 13 33 14 34 19 35
REMARK SMILES IDX 15 36 18 37 16 38 17 39 20 40 21 41 8 43 7 44 6 45 5 46 3 47
REMARK SMILES IDX 4 48 2 49 1 50
REMARK H PARENT 43 5 27 10 11 32
REMARK Flexibility Score: 80.00
ROOT
ATOM      1  C   UNL     1      65.116  32.360  60.580  1.00  0.00     0.035 C 
ENDROOT
BRANCH   1   2
ATOM      2  C   UNL     1      64.795  31.625  59.256  1.00  0.00     0.171 C 
BRANCH   2   3
ATOM      3  C   UNL     1      66.036  31.202  58.512  1.00  0.00     0.243 C 
ATOM      4  N   UNL     1      67.017  30.359  59.136  1.00  0.00    -0.342 N 
ATOM      5  H   UNL     1      66.936  30.178  60.162  1.00  0.00     0.164 HD
ATOM      6  O   UNL     1      66.185  31.559  57.312  1.00  0.00    -0.273 OA
BRANCH   4   7
ATOM      7  C   UNL     1      67.848  29.455  58.339  1.00  0.00     0.175 C 
BRANCH   7   8
ATOM      8  C   UNL     1      67.010  28.273  57.937  1.00  0.00     0.243 C 
ATOM      9  N   UNL     1      66.320  27.511  58.937  1.00  0.00    -0.342 N 
ATOM     10  H   UNL     1      66.648  27.575  59.926  1.00  0.00     0.164 HD
ATOM     11  O   UNL     1      66.891  27.979  56.715  1.00  0.00    -0.273 OA
BRANCH   9  12
ATOM     12  C   UNL     1      65.095  26.758  58.651  1.00  0.00     0.174 CG0
ATOM     13  G   UNL     1      63.986  27.216  59.567  1.00  0.00     0.000 G0
BRANCH  12  14
ATOM     14  C   UNL     1      65.342  25.225  58.731  1.00  0.00     0.018 C 
ATOM     15  C   UNL     1      64.747  24.534  57.491  1.00  0.00     0.010 C 
BRANCH  14  16
ATOM     16  C   UNL     1      66.840  24.866  58.901  1.00  0.00     0.002 C 
ATOM     17  C   UNL     1      67.243  23.612  58.122  1.00  0.00     0.004 C 
ENDBRANCH  14  16
ENDBRANCH  12  14
ENDBRANCH   9  12
ENDBRANCH   7   8
BRANCH   7  18
ATOM     18  C   UNL     1      69.091  29.024  59.139  1.00  0.00     0.073 C 
BRANCH  18  19
ATOM     19  C   UNL     1      70.148  30.090  59.122  1.00  0.00    -0.016 A 
ATOM     20  C   UNL     1      70.146  31.243  58.343  1.00  0.00     0.134 A 
ATOM     21  C   UNL     1      71.233  30.208  59.974  1.00  0.00     0.006 A 
ATOM     22  N   UNL     1      71.195  32.029  58.687  1.00  0.00    -0.191 N 
ATOM     23  C   UNL     1      71.849  31.397  59.676  1.00  0.00     0.087 A 
ATOM     24  C   UNL     1      71.699  29.375  60.990  1.00  0.00     0.011 A 
ATOM     25  C   UNL     1      72.979  31.832  60.370  1.00  0.00     0.030 A 
ATOM     26  C   UNL     1      72.838  29.787  61.705  1.00  0.00     0.001 A 
ATOM     27  C   UNL     1      73.477  31.008  61.395  1.00  0.00     0.002 A 
BRANCH  22  28
ATOM     28  O   UNL     1      71.528  33.266  58.170  1.00  0.00    -0.417 OA
ATOM     29  C   UNL     1      71.172  34.484  58.815  1.00  0.00     0.313 C 
ENDBRANCH  22  28
ENDBRANCH  18  19
ENDBRANCH   7  18
ENDBRANCH   4   7
ENDBRANCH   2   3
BRANCH   2  30
ATOM     30  N   UNL     1      63.954  30.447  59.515  1.00  0.00    -0.343 N 
ATOM     31  C   UNL     1      63.208  29.795  58.472  1.00  0.00     0.243 C 
ATOM     32  H   UNL     1      63.864  30.097  60.494  1.00  0.00     0.164 HD
ATOM     33  O   UNL     1      63.452  30.067  57.265  1.00  0.00    -0.273 OA
BRANCH  31  34
ATOM     34  C   UNL     1      62.131  28.772  58.783  1.00  0.00     0.174 C 
ATOM     35  N   UNL     1      62.665  27.429  59.070  1.00  0.00    -0.329 N 
ATOM     36  C   UNL     1      61.207  29.212  59.934  1.00  0.00     0.035 C 
ATOM     37  C   UNL     1      61.679  26.367  59.289  1.00  0.00     0.120 C 
ATOM     38  C   UNL     1      60.119  28.154  60.174  1.00  0.00     0.004 C 
ATOM     39  C   UNL     1      60.734  26.769  60.429  1.00  0.00     0.022 C 
BRANCH  35  40
ATOM     40  C   UNL     1      63.994  27.235  59.569  1.00  0.00     0.246 CG0
ATOM     41  O   UNL     1      64.233  27.448  60.789  1.00  0.00    -0.272 OA
ATOM     42  G   UNL     1      65.086  26.772  58.635  1.00  0.00     0.000 G0
ENDBRANCH  35  40
ENDBRANCH  31  34
ENDBRANCH   2  30
ENDBRANCH   1   2
BRANCH   1  43
ATOM     43  C   UNL     1      64.589  33.806  60.667  1.00  0.00     0.003 C 
BRANCH  43  44
ATOM     44  C   UNL     1      64.110  34.356  59.313  1.00  0.00     0.001 C 
BRANCH  44  45
ATOM     45  C   UNL     1      62.763  35.092  59.424  1.00  0.00     0.008 C 
BRANCH  45  46
ATOM     46  C   UNL     1      61.821  34.797  58.243  1.00  0.00     0.075 C 
BRANCH  46  47
ATOM     47  C   UNL     1      60.355  34.828  58.629  1.00  0.00     0.132 C 
ATOM     48  O   UNL     1      59.881  35.838  59.130  1.00  0.00    -0.300 OA
BRANCH  47  49
ATOM     49  C   UNL     1      59.437  33.643  58.431  1.00  0.00     0.072 C 
ATOM     50  C   UNL     1      60.148  32.293  58.331  1.00  0.00     0.012 C 
ENDBRANCH  47  49
ENDBRANCH  46  47
ENDBRANCH  45  46
ENDBRANCH  44  45
ENDBRANCH  43  44
ENDBRANCH   1  43
TORSDOF 12
ENDMDL
MODEL 2
REMARK VINA RESULT:    -4.268      8.556     11.963
REMARK INTER + INTRA:         -11.526
REMARK INTER:                  -7.705
REMARK INTRA:                  -3.820
REMARK UNBOUND:                -2.517
REMARK SMILES CCC(=O)CCCCC[C@@H]1NC(=O)[C@@H]2CCCCN2C(=O)[C@H]([C@@H](C)CC)NC(=O)[C@H](Cc2cn(OC)c3ccccc23)NC1=O
REMARK SMILES IDX 9 1 10 2 44 3 43 4 45 6 30 7 28 8 27 9 29 11 22 12 23 14
REMARK SMILES IDX 24 15 25 16 26 17 31 18 32 19 33 20 42 21 34 22 37 23 41 24
REMARK SMILES IDX 38 25 40 26 39 27 35 28 36 29 11 30 12 31 13 33 14 34 19 35
REMARK SMILES IDX 15 36 18 37 16 38 17 39 20 40 21 41 8 43 7 44 6 45 5 46 3 47
REMARK SMILES IDX 4 48 2 49 1 50
REMARK H PARENT 43 5 27 10 11 32
REMARK Flexibility Score: 80.00
ROOT
ATOM      1  C   UNL     1      59.950  29.197  51.454  1.00  0.00     0.035 C 
ENDROOT
BRANCH   1   2
ATOM      2  C   UNL     1      61.331  29.309  52.146  1.00  0.00     0.171 C 
BRANCH   2   3
ATOM      3  C   UNL     1      61.940  27.963  52.444  1.00  0.00     0.243 C 
ATOM      4  N   UNL     1      62.143  26.999  51.399  1.00  0.00    -0.342 N 
ATOM      5  H   UNL     1      61.714  27.182  50.464  1.00  0.00     0.164 HD
ATOM      6  O   UNL     1      62.317  27.705  53.619  1.00  0.00    -0.273 OA
BRANCH   4   7
ATOM      7  C   UNL     1      63.226  26.017  51.481  1.00  0.00     0.175 C 
BRANCH   7   8
ATOM      8  C   UNL     1      64.523  26.716  51.184  1.00  0.00     0.243 C 
ATOM      9  N   UNL     1      64.643  27.536  50.013  1.00  0.00    -0.342 N 
ATOM     10  H   UNL     1      63.965  27.389  49.232  1.00  0.00     0.164 HD
ATOM     11  O   UNL     1      65.490  26.606  51.987  1.00  0.00    -0.273 OA
BRANCH   9  12
ATOM     12  C   UNL     1      65.584  28.655  49.925  1.00  0.00     0.174 CG0
ATOM     13  G   UNL     1      64.854  29.907  49.501  1.00  0.00     0.000 G0
BRANCH  12  14
ATOM     14  C   UNL     1      66.780  28.317  48.992  1.00  0.00     0.018 C 
ATOM     15  C   UNL     1      68.033  28.018  49.834  1.00  0.00     0.010 C 
BRANCH  14  16
ATOM     16  C   UNL     1      66.473  27.147  48.021  1.00  0.00     0.002 C 
ATOM     17  C   UNL     1      66.149  27.621  46.603  1.00  0.00     0.004 C 
ENDBRANCH  14  16
ENDBRANCH  12  14
ENDBRANCH   9  12
ENDBRANCH   7   8
BRANCH   7  18
ATOM     18  C   UNL     1      62.970  24.854  50.505  1.00  0.00     0.073 C 
BRANCH  18  19
ATOM     19  C   UNL     1      62.472  23.635  51.225  1.00  0.00    -0.016 A 
ATOM     20  C   UNL     1      62.504  23.417  52.599  1.00  0.00     0.134 A 
ATOM     21  C   UNL     1      61.758  22.577  50.688  1.00  0.00     0.006 A 
ATOM     22  N   UNL     1      61.853  22.265  52.894  1.00  0.00    -0.191 N 
ATOM     23  C   UNL     1      61.403  21.762  51.733  1.00  0.00     0.087 A 
ATOM     24  C   UNL     1      61.383  22.293  49.376  1.00  0.00     0.011 A 
ATOM     25  C   UNL     1      60.653  20.602  51.535  1.00  0.00     0.030 A 
ATOM     26  C   UNL     1      60.627  21.129  49.147  1.00  0.00     0.001 A 
ATOM     27  C   UNL     1      60.267  20.285  50.221  1.00  0.00     0.002 A 
BRANCH  22  28
ATOM     28  O   UNL     1      61.639  21.712  54.142  1.00  0.00    -0.417 OA
ATOM     29  C   UNL     1      62.591  20.864  54.774  1.00  0.00     0.313 C 
ENDBRANCH  22  28
ENDBRANCH  18  19
ENDBRANCH   7  18
ENDBRANCH   4   7
ENDBRANCH   2   3
BRANCH   2  30
ATOM     30  N   UNL     1      62.257  30.093  51.316  1.00  0.00    -0.343 N 
ATOM     31  C   UNL     1      63.410  30.752  51.869  1.00  0.00     0.243 C 
ATOM     32  H   UNL     1      62.050  30.208  50.300  1.00  0.00     0.164 HD
ATOM     33  O   UNL     1      63.792  30.468  53.037  1.00  0.00    -0.273 OA
BRANCH  31  34
ATOM     34  C   UNL     1      64.194  31.783  51.079  1.00  0.00     0.174 C 
ATOM     35  N   UNL     1      65.080  31.189  50.061  1.00  0.00    -0.329 N 
ATOM     36  C   UNL     1      63.290  32.840  50.418  1.00  0.00     0.035 C 
ATOM     37  C   UNL     1      65.938  32.119  49.321  1.00  0.00     0.120 C 
ATOM     38  C   UNL     1      64.145  33.873  49.666  1.00  0.00     0.004 C 
ATOM     39  C   UNL     1      65.074  33.193  48.647  1.00  0.00     0.022 C 
BRANCH  35  40
ATOM     40  C   UNL     1      64.816  29.904  49.486  1.00  0.00     0.246 CG0
ATOM     41  O   UNL     1      63.938  29.799  48.587  1.00  0.00    -0.272 OA
ATOM     42  G   UNL     1      65.593  28.698  49.956  1.00  0.00     0.000 G0
ENDBRANCH  35  40
ENDBRANCH  31  34
ENDBRANCH   2  30
ENDBRANCH   1   2
BRANCH   1  43
ATOM     43  C   UNL     1      58.760  29.712  52.289  1.00  0.00     0.003 C 
BRANCH  43  44
ATOM     44  C   UNL     1      58.404  28.787  53.465  1.00  0.00     0.001 C 
BRANCH  44  45
ATOM     45  C   UNL     1      58.320  27.310  53.042  1.00  0.00     0.008 C 
BRANCH  45  46
ATOM     46  C   UNL     1      57.170  27.035  52.056  1.00  0.00     0.075 C 
BRANCH  46  47
ATOM     47  C   UNL     1      57.541  26.040  50.973  1.00  0.00     0.132 C 
ATOM     48  O   UNL     1      56.682  25.629  50.206  1.00  0.00    -0.300 OA
BRANCH  47  49
ATOM     49  C   UNL     1      58.948  25.513  50.801  1.00  0.00     0.072 C 
ATOM     50  C   UNL     1      59.493  25.599  49.375  1.00  0.00     0.012 C 
ENDBRANCH  47  49
ENDBRANCH  46  47
ENDBRANCH  45  46
ENDBRANCH  44  45
ENDBRANCH  43  44
ENDBRANCH   1  43
TORSDOF 12
ENDMDL
MODEL 3
REMARK VINA RESULT:    -4.078      9.568     12.221
REMARK INTER + INTRA:         -11.125
REMARK INTER:                  -8.533
REMARK INTRA:                  -2.592
REMARK UNBOUND:                -2.517
REMARK SMILES CCC(=O)CCCCC[C@@H]1NC(=O)[C@@H]2CCCCN2C(=O)[C@H]([C@@H](C)CC)NC(=O)[C@H](Cc2cn(OC)c3ccccc23)NC1=O
REMARK SMILES IDX 9 1 10 2 44 3 43 4 45 6 30 7 28 8 27 9 29 11 22 12 23 14
REMARK SMILES IDX 24 15 25 16 26 17 31 18 32 19 33 20 42 21 34 22 37 23 41 24
REMARK SMILES IDX 38 25 40 26 39 27 35 28 36 29 11 30 12 31 13 33 14 34 19 35
REMARK SMILES IDX 15 36 18 37 16 38 17 39 20 40 21 41 8 43 7 44 6 45 5 46 3 47
REMARK SMILES IDX 4 48 2 49 1 50
REMARK H PARENT 43 5 27 10 11 32
REMARK Flexibility Score: 80.00
ROOT
ATOM      1  C   UNL     1      60.982  28.727  50.581  1.00  0.00     0.035 C 
ENDROOT
BRANCH   1   2
ATOM      2  C   UNL     1      62.300  29.240  51.212  1.00  0.00     0.171 C 
BRANCH   2   3
ATOM      3  C   UNL     1      63.524  28.642  50.565  1.00  0.00     0.243 C 
ATOM      4  N   UNL     1      63.805  28.864  49.174  1.00  0.00    -0.342 N 
ATOM      5  H   UNL     1      63.066  29.309  48.584  1.00  0.00     0.164 HD
ATOM      6  O   UNL     1      64.330  27.979  51.271  1.00  0.00    -0.273 OA
BRANCH   4   7
ATOM      7  C   UNL     1      65.181  28.865  48.676  1.00  0.00     0.175 C 
BRANCH   7   8
ATOM      8  C   UNL     1      65.805  30.191  49.010  1.00  0.00     0.243 C 
ATOM      9  N   UNL     1      65.281  31.395  48.434  1.00  0.00    -0.342 N 
ATOM     10  H   UNL     1      64.702  31.321  47.568  1.00  0.00     0.164 HD
ATOM     11  O   UNL     1      66.768  30.240  49.825  1.00  0.00    -0.273 OA
BRANCH   9  12
ATOM     12  C   UNL     1      65.408  32.702  49.084  1.00  0.00     0.174 CG0
ATOM     13  G   UNL     1      64.055  33.170  49.566  1.00  0.00     0.000 G0
BRANCH  12  14
ATOM     14  C   UNL     1      66.098  33.734  48.149  1.00  0.00     0.018 C 
ATOM     15  C   UNL     1      67.135  34.549  48.942  1.00  0.00     0.010 C 
BRANCH  14  16
ATOM     16  C   UNL     1      66.746  33.077  46.902  1.00  0.00     0.002 C 
ATOM     17  C   UNL     1      67.797  33.969  46.238  1.00  0.00     0.004 C 
ENDBRANCH  14  16
ENDBRANCH  12  14
ENDBRANCH   9  12
ENDBRANCH   7   8
BRANCH   7  18
ATOM     18  C   UNL     1      65.202  28.593  47.160  1.00  0.00     0.073 C 
BRANCH  18  19
ATOM     19  C   UNL     1      66.574  28.199  46.694  1.00  0.00    -0.016 A 
ATOM     20  C   UNL     1      67.580  29.060  46.266  1.00  0.00     0.134 A 
ATOM     21  C   UNL     1      67.147  26.940  46.744  1.00  0.00     0.006 A 
ATOM     22  N   UNL     1      68.718  28.359  46.046  1.00  0.00    -0.191 N 
ATOM     23  C   UNL     1      68.450  27.076  46.337  1.00  0.00     0.087 A 
ATOM     24  C   UNL     1      66.625  25.708  47.136  1.00  0.00     0.011 A 
ATOM     25  C   UNL     1      69.320  25.986  46.288  1.00  0.00     0.030 A 
ATOM     26  C   UNL     1      67.480  24.591  47.094  1.00  0.00     0.001 A 
ATOM     27  C   UNL     1      68.820  24.729  46.669  1.00  0.00     0.002 A 
BRANCH  22  28
ATOM     28  O   UNL     1      69.946  28.848  45.640  1.00  0.00    -0.417 OA
ATOM     29  C   UNL     1      70.231  30.241  45.584  1.00  0.00     0.313 C 
ENDBRANCH  22  28
ENDBRANCH  18  19
ENDBRANCH   7  18
ENDBRANCH   4   7
ENDBRANCH   2   3
BRANCH   2  30
ATOM     30  N   UNL     1      62.370  30.706  51.130  1.00  0.00    -0.343 N 
ATOM     31  C   UNL     1      63.354  31.467  51.852  1.00  0.00     0.243 C 
ATOM     32  H   UNL     1      61.658  31.214  50.561  1.00  0.00     0.164 HD
ATOM     33  O   UNL     1      64.337  30.878  52.378  1.00  0.00    -0.273 OA
BRANCH  31  34
ATOM     34  C   UNL     1      63.249  32.974  51.995  1.00  0.00     0.174 C 
ATOM     35  N   UNL     1      63.875  33.712  50.883  1.00  0.00    -0.329 N 
ATOM     36  C   UNL     1      61.797  33.455  52.175  1.00  0.00     0.035 C 
ATOM     37  C   UNL     1      63.893  35.173  50.998  1.00  0.00     0.120 C 
ATOM     38  C   UNL     1      61.762  34.981  52.350  1.00  0.00     0.004 C 
ATOM     39  C   UNL     1      62.462  35.693  51.182  1.00  0.00     0.022 C 
BRANCH  35  40
ATOM     40  C   UNL     1      64.030  33.131  49.583  1.00  0.00     0.246 CG0
ATOM     41  O   UNL     1      63.014  32.967  48.854  1.00  0.00    -0.272 OA
ATOM     42  G   UNL     1      65.403  32.729  49.100  1.00  0.00     0.000 G0
ENDBRANCH  35  40
ENDBRANCH  31  34
ENDBRANCH   2  30
ENDBRANCH   1   2
BRANCH   1  43
ATOM     43  C   UNL     1      60.636  27.259  50.901  1.00  0.00     0.003 C 
BRANCH  43  44
ATOM     44  C   UNL     1      60.285  26.435  49.651  1.00  0.00     0.001 C 
BRANCH  44  45
ATOM     45  C   UNL     1      60.067  24.947  49.974  1.00  0.00     0.008 C 
BRANCH  45  46
ATOM     46  C   UNL     1      61.358  24.236  50.420  1.00  0.00     0.075 C 
BRANCH  46  47
ATOM     47  C   UNL     1      61.140  23.274  51.571  1.00  0.00     0.132 C 
ATOM     48  O   UNL     1      61.732  22.204  51.588  1.00  0.00    -0.300 OA
BRANCH  47  49
ATOM     49  C   UNL     1      60.199  23.577  52.717  1.00  0.00     0.072 C 
ATOM     50  C   UNL     1      58.920  22.741  52.731  1.00  0.00     0.012 C 
ENDBRANCH  47  49
ENDBRANCH  46  47
ENDBRANCH  45  46
ENDBRANCH  44  45
ENDBRANCH  43  44
ENDBRANCH   1  43
TORSDOF 12
ENDMDL
MODEL 4
REMARK VINA RESULT:    -4.034      4.151      8.168
REMARK INTER + INTRA:         -11.031
REMARK INTER:                  -7.161
REMARK INTRA:                  -3.871
REMARK UNBOUND:                -2.517
REMARK SMILES CCC(=O)CCCCC[C@@H]1NC(=O)[C@@H]2CCCCN2C(=O)[C@H]([C@@H](C)CC)NC(=O)[C@H](Cc2cn(OC)c3ccccc23)NC1=O
REMARK SMILES IDX 9 1 10 2 44 3 43 4 45 6 30 7 28 8 27 9 29 11 22 12 23 14
REMARK SMILES IDX 24 15 25 16 26 17 31 18 32 19 33 20 42 21 34 22 37 23 41 24
REMARK SMILES IDX 38 25 40 26 39 27 35 28 36 29 11 30 12 31 13 33 14 34 19 35
REMARK SMILES IDX 15 36 18 37 16 38 17 39 20 40 21 41 8 43 7 44 6 45 5 46 3 47
REMARK SMILES IDX 4 48 2 49 1 50
REMARK H PARENT 43 5 27 10 11 32
REMARK Flexibility Score: 80.00
ROOT
ATOM      1  C   UNL     1      57.403  26.996  62.146  1.00  0.00     0.035 C 
ENDROOT
BRANCH   1   2
ATOM      2  C   UNL     1      58.217  26.078  61.202  1.00  0.00     0.171 C 
BRANCH   2   3
ATOM      3  C   UNL     1      58.716  26.802  59.977  1.00  0.00     0.243 C 
ATOM      4  N   UNL     1      59.505  27.995  60.097  1.00  0.00    -0.342 N 
ATOM      5  H   UNL     1      59.590  28.442  61.038  1.00  0.00     0.164 HD
ATOM      6  O   UNL     1      58.472  26.321  58.837  1.00  0.00    -0.273 OA
BRANCH   4   7
ATOM      7  C   UNL     1      60.485  28.356  59.071  1.00  0.00     0.175 C 
BRANCH   7   8
ATOM      8  C   UNL     1      61.633  27.389  59.152  1.00  0.00     0.243 C 
ATOM      9  N   UNL     1      62.324  27.200  60.395  1.00  0.00    -0.342 N 
ATOM     10  H   UNL     1      62.245  27.943  61.126  1.00  0.00     0.164 HD
ATOM     11  O   UNL     1      61.960  26.722  58.133  1.00  0.00    -0.273 OA
BRANCH   9  12
ATOM     12  C   UNL     1      63.020  25.956  60.731  1.00  0.00     0.174 CG0
ATOM     13  G   UNL     1      62.582  25.474  62.094  1.00  0.00     0.000 G0
BRANCH  12  14
ATOM     14  C   UNL     1      64.562  26.122  60.624  1.00  0.00     0.018 C 
ATOM     15  C   UNL     1      65.103  25.262  59.469  1.00  0.00     0.010 C 
BRANCH  14  16
ATOM     16  C   UNL     1      64.996  27.602  60.464  1.00  0.00     0.002 C 
ATOM     17  C   UNL     1      66.067  27.794  59.387  1.00  0.00     0.004 C 
ENDBRANCH  14  16
ENDBRANCH  12  14
ENDBRANCH   9  12
ENDBRANCH   7   8
BRANCH   7  18
ATOM     18  C   UNL     1      60.952  29.811  59.264  1.00  0.00     0.073 C 
BRANCH  18  19
ATOM     19  C   UNL     1      62.155  30.115  58.419  1.00  0.00    -0.016 A 
ATOM     20  C   UNL     1      62.212  30.104  57.029  1.00  0.00     0.134 A 
ATOM     21  C   UNL     1      63.377  30.605  58.846  1.00  0.00     0.006 A 
ATOM     22  N   UNL     1      63.423  30.551  56.618  1.00  0.00    -0.191 N 
ATOM     23  C   UNL     1      64.124  30.853  57.722  1.00  0.00     0.087 A 
ATOM     24  C   UNL     1      63.867  30.866  60.125  1.00  0.00     0.011 A 
ATOM     25  C   UNL     1      65.416  31.375  57.802  1.00  0.00     0.030 A 
ATOM     26  C   UNL     1      65.167  31.390  60.235  1.00  0.00     0.001 A 
ATOM     27  C   UNL     1      65.939  31.641  59.078  1.00  0.00     0.002 A 
BRANCH  22  28
ATOM     28  O   UNL     1      63.865  30.717  55.319  1.00  0.00    -0.417 OA
ATOM     29  C   UNL     1      63.458  31.814  54.508  1.00  0.00     0.313 C 
ENDBRANCH  22  28
ENDBRANCH  18  19
ENDBRANCH   7  18
ENDBRANCH   4   7
ENDBRANCH   2   3
BRANCH   2  30
ATOM     30  N   UNL     1      59.356  25.487  61.919  1.00  0.00    -0.343 N 
ATOM     31  C   UNL     1      59.993  24.275  61.477  1.00  0.00     0.243 C 
ATOM     32  H   UNL     1      59.688  25.939  62.798  1.00  0.00     0.164 HD
ATOM     33  O   UNL     1      59.749  23.825  60.325  1.00  0.00    -0.273 OA
BRANCH  31  34
ATOM     34  C   UNL     1      60.967  23.518  62.362  1.00  0.00     0.174 C 
ATOM     35  N   UNL     1      62.318  24.107  62.380  1.00  0.00    -0.329 N 
ATOM     36  C   UNL     1      60.458  23.358  63.807  1.00  0.00     0.035 C 
ATOM     37  C   UNL     1      63.337  23.378  63.141  1.00  0.00     0.120 C 
ATOM     38  C   UNL     1      61.469  22.555  64.639  1.00  0.00     0.004 C 
ATOM     39  C   UNL     1      62.866  23.194  64.589  1.00  0.00     0.022 C 
BRANCH  35  40
ATOM     40  C   UNL     1      62.542  25.494  62.101  1.00  0.00     0.246 CG0
ATOM     41  O   UNL     1      62.331  26.348  63.005  1.00  0.00    -0.272 OA
ATOM     42  G   UNL     1      63.034  25.914  60.737  1.00  0.00     0.000 G0
ENDBRANCH  35  40
ENDBRANCH  31  34
ENDBRANCH   2  30
ENDBRANCH   1   2
BRANCH   1  43
ATOM     43  C   UNL     1      55.884  26.734  62.159  1.00  0.00     0.003 C 
BRANCH  43  44
ATOM     44  C   UNL     1      55.466  25.655  63.171  1.00  0.00     0.001 C 
BRANCH  44  45
ATOM     45  C   UNL     1      54.514  24.614  62.555  1.00  0.00     0.008 C 
BRANCH  45  46
ATOM     46  C   UNL     1      54.864  24.272  61.096  1.00  0.00     0.075 C 
BRANCH  46  47
ATOM     47  C   UNL     1      55.315  22.837  60.913  1.00  0.00     0.132 C 
ATOM     48  O   UNL     1      54.495  21.973  60.635  1.00  0.00    -0.300 OA
BRANCH  47  49
ATOM     49  C   UNL     1      56.758  22.411  61.071  1.00  0.00     0.072 C 
ATOM     50  C   UNL     1      57.175  22.086  62.506  1.00  0.00     0.012 C 
ENDBRANCH  47  49
ENDBRANCH  46  47
ENDBRANCH  45  46
ENDBRANCH  44  45
ENDBRANCH  43  44
ENDBRANCH   1  43
TORSDOF 12
ENDMDL
MODEL 5
REMARK VINA RESULT:    -3.994      9.535     12.185
REMARK INTER + INTRA:         -10.948
REMARK INTER:                  -7.938
REMARK INTRA:                  -3.010
REMARK UNBOUND:                -2.517
REMARK SMILES CCC(=O)CCCCC[C@@H]1NC(=O)[C@@H]2CCCCN2C(=O)[C@H]([C@@H](C)CC)NC(=O)[C@H](Cc2cn(OC)c3ccccc23)NC1=O
REMARK SMILES IDX 9 1 10 2 44 3 43 4 45 6 30 7 28 8 27 9 29 11 22 12 23 14
REMARK SMILES IDX 24 15 25 16 26 17 31 18 32 19 33 20 42 21 34 22 37 23 41 24
REMARK SMILES IDX 38 25 40 26 39 27 35 28 36 29 11 30 12 31 13 33 14 34 19 35
REMARK SMILES IDX 15 36 18 37 16 38 17 39 20 40 21 41 8 43 7 44 6 45 5 46 3 47
REMARK SMILES IDX 4 48 2 49 1 50
REMARK H PARENT 43 5 27 10 11 32
REMARK Flexibility Score: 80.00
ROOT
ATOM      1  C   UNL     1      61.012  28.065  50.589  1.00  0.00     0.035 C 
ENDROOT
BRANCH   1   2
ATOM      2  C   UNL     1      62.303  28.607  51.252  1.00  0.00     0.171 C 
BRANCH   2   3
ATOM      3  C   UNL     1      63.554  28.129  50.560  1.00  0.00     0.243 C 
ATOM      4  N   UNL     1      63.804  28.455  49.183  1.00  0.00    -0.342 N 
ATOM      5  H   UNL     1      63.033  28.887  48.627  1.00  0.00     0.164 HD
ATOM      6  O   UNL     1      64.409  27.476  51.217  1.00  0.00    -0.273 OA
BRANCH   4   7
ATOM      7  C   UNL     1      65.172  28.573  48.675  1.00  0.00     0.175 C 
BRANCH   7   8
ATOM      8  C   UNL     1      65.734  29.892  49.131  1.00  0.00     0.243 C 
ATOM      9  N   UNL     1      65.171  31.117  48.642  1.00  0.00    -0.342 N 
ATOM     10  H   UNL     1      64.614  31.091  47.759  1.00  0.00     0.164 HD
ATOM     11  O   UNL     1      66.676  29.912  49.970  1.00  0.00    -0.273 OA
BRANCH   9  12
ATOM     12  C   UNL     1      65.230  32.371  49.398  1.00  0.00     0.174 CG0
ATOM     13  G   UNL     1      63.854  32.730  49.904  1.00  0.00     0.000 G0
BRANCH  12  14
ATOM     14  C   UNL     1      65.874  33.509  48.557  1.00  0.00     0.018 C 
ATOM     15  C   UNL     1      66.871  34.300  49.422  1.00  0.00     0.010 C 
BRANCH  14  16
ATOM     16  C   UNL     1      66.552  32.990  47.263  1.00  0.00     0.002 C 
ATOM     17  C   UNL     1      66.571  34.031  46.142  1.00  0.00     0.004 C 
ENDBRANCH  14  16
ENDBRANCH  12  14
ENDBRANCH   9  12
ENDBRANCH   7   8
BRANCH   7  18
ATOM     18  C   UNL     1      65.186  28.450  47.140  1.00  0.00     0.073 C 
BRANCH  18  19
ATOM     19  C   UNL     1      66.433  27.766  46.659  1.00  0.00    -0.016 A 
ATOM     20  C   UNL     1      66.539  26.445  46.235  1.00  0.00     0.134 A 
ATOM     21  C   UNL     1      67.663  28.348  46.403  1.00  0.00     0.006 A 
ATOM     22  N   UNL     1      67.786  26.218  45.755  1.00  0.00    -0.191 N 
ATOM     23  C   UNL     1      68.461  27.374  45.858  1.00  0.00     0.087 A 
ATOM     24  C   UNL     1      68.118  29.653  46.587  1.00  0.00     0.011 A 
ATOM     25  C   UNL     1      69.774  27.638  45.467  1.00  0.00     0.030 A 
ATOM     26  C   UNL     1      69.439  29.946  46.203  1.00  0.00     0.001 A 
ATOM     27  C   UNL     1      70.265  28.943  45.648  1.00  0.00     0.002 A 
BRANCH  22  28
ATOM     28  O   UNL     1      68.283  25.047  45.215  1.00  0.00    -0.417 OA
ATOM     29  C   UNL     1      68.897  24.040  46.013  1.00  0.00     0.313 C 
ENDBRANCH  22  28
ENDBRANCH  18  19
ENDBRANCH   7  18
ENDBRANCH   4   7
ENDBRANCH   2   3
BRANCH   2  30
ATOM     30  N   UNL     1      62.287  30.077  51.276  1.00  0.00    -0.343 N 
ATOM     31  C   UNL     1      63.234  30.840  52.043  1.00  0.00     0.243 C 
ATOM     32  H   UNL     1      61.540  30.581  50.750  1.00  0.00     0.164 HD
ATOM     33  O   UNL     1      64.255  30.273  52.518  1.00  0.00    -0.273 OA
BRANCH  31  34
ATOM     34  C   UNL     1      63.043  32.324  52.296  1.00  0.00     0.174 C 
ATOM     35  N   UNL     1      63.632  33.175  51.246  1.00  0.00    -0.329 N 
ATOM     36  C   UNL     1      61.566  32.709  52.499  1.00  0.00     0.035 C 
ATOM     37  C   UNL     1      63.568  34.623  51.468  1.00  0.00     0.120 C 
ATOM     38  C   UNL     1      61.445  34.214  52.785  1.00  0.00     0.004 C 
ATOM     39  C   UNL     1      62.109  35.048  51.678  1.00  0.00     0.022 C 
BRANCH  35  40
ATOM     40  C   UNL     1      63.825  32.701  49.908  1.00  0.00     0.246 CG0
ATOM     41  O   UNL     1      62.825  32.559  49.153  1.00  0.00    -0.272 OA
ATOM     42  G   UNL     1      65.218  32.387  49.417  1.00  0.00     0.000 G0
ENDBRANCH  35  40
ENDBRANCH  31  34
ENDBRANCH   2  30
ENDBRANCH   1   2
BRANCH   1  43
ATOM     43  C   UNL     1      60.170  27.127  51.477  1.00  0.00     0.003 C 
BRANCH  43  44
ATOM     44  C   UNL     1      59.047  26.413  50.706  1.00  0.00     0.001 C 
BRANCH  44  45
ATOM     45  C   UNL     1      58.857  24.957  51.167  1.00  0.00     0.008 C 
BRANCH  45  46
ATOM     46  C   UNL     1      59.908  24.514  52.201  1.00  0.00     0.075 C 
BRANCH  46  47
ATOM     47  C   UNL     1      60.985  23.626  51.610  1.00  0.00     0.132 C 
ATOM     48  O   UNL     1      60.699  22.504  51.217  1.00  0.00    -0.300 OA
BRANCH  47  49
ATOM     49  C   UNL     1      62.427  24.068  51.489  1.00  0.00     0.072 C 
ATOM     50  C   UNL     1      62.805  24.654  50.129  1.00  0.00     0.012 C 
ENDBRANCH  47  49
ENDBRANCH  46  47
ENDBRANCH  45  46
ENDBRANCH  44  45
ENDBRANCH  43  44
ENDBRANCH   1  43
TORSDOF 12
ENDMDL
MODEL 6
REMARK VINA RESULT:    -3.908      7.313     10.876
REMARK INTER + INTRA:         -10.765
REMARK INTER:                  -6.876
REMARK INTRA:                  -3.889
REMARK UNBOUND:                -2.517
REMARK SMILES CCC(=O)CCCCC[C@@H]1NC(=O)[C@@H]2CCCCN2C(=O)[C@H]([C@@H](C)CC)NC(=O)[C@H](Cc2cn(OC)c3ccccc23)NC1=O
REMARK SMILES IDX 9 1 10 2 44 3 43 4 45 6 30 7 28 8 27 9 29 11 22 12 23 14
REMARK SMILES IDX 24 15 25 16 26 17 31 18 32 19 33 20 42 21 34 22 37 23 41 24
REMARK SMILES IDX 38 25 40 26 39 27 35 28 36 29 11 30 12 31 13 33 14 34 19 35
REMARK SMILES IDX 15 36 18 37 16 38 17 39 20 40 21 41 8 43 7 44 6 45 5 46 3 47
REMARK SMILES IDX 4 48 2 49 1 50
REMARK H PARENT 43 5 27 10 11 32
REMARK Flexibility Score: 80.00
ROOT
ATOM      1  C   UNL     1      61.161  32.688  57.199  1.00  0.00     0.035 C 
ENDROOT
BRANCH   1   2
ATOM      2  C   UNL     1      60.297  33.162  56.005  1.00  0.00     0.171 C 
BRANCH   2   3
ATOM      3  C   UNL     1      60.480  32.302  54.780  1.00  0.00     0.243 C 
ATOM      4  N   UNL     1      60.295  30.879  54.845  1.00  0.00    -0.342 N 
ATOM      5  H   UNL     1      60.193  30.434  55.785  1.00  0.00     0.164 HD
ATOM      6  O   UNL     1      60.752  32.851  53.679  1.00  0.00    -0.273 OA
BRANCH   4   7
ATOM      7  C   UNL     1      59.854  30.123  53.672  1.00  0.00     0.175 C 
BRANCH   7   8
ATOM      8  C   UNL     1      58.412  30.456  53.409  1.00  0.00     0.243 C 
ATOM      9  N   UNL     1      57.439  30.299  54.452  1.00  0.00    -0.342 N 
ATOM     10  H   UNL     1      57.668  29.671  55.255  1.00  0.00     0.164 HD
ATOM     11  O   UNL     1      58.070  30.906  52.281  1.00  0.00    -0.273 OA
BRANCH   9  12
ATOM     12  C   UNL     1      56.203  31.084  54.505  1.00  0.00     0.174 CG0
ATOM     13  G   UNL     1      56.071  31.742  55.858  1.00  0.00     0.000 G0
BRANCH  12  14
ATOM     14  C   UNL     1      54.966  30.218  54.138  1.00  0.00     0.018 C 
ATOM     15  C   UNL     1      54.317  30.751  52.848  1.00  0.00     0.010 C 
BRANCH  14  16
ATOM     16  C   UNL     1      55.306  28.711  54.006  1.00  0.00     0.002 C 
ATOM     17  C   UNL     1      54.631  27.852  55.078  1.00  0.00     0.004 C 
ENDBRANCH  14  16
ENDBRANCH  12  14
ENDBRANCH   9  12
ENDBRANCH   7   8
BRANCH   7  18
ATOM     18  C   UNL     1      60.057  28.614  53.899  1.00  0.00     0.073 C 
BRANCH  18  19
ATOM     19  C   UNL     1      60.297  27.893  52.605  1.00  0.00    -0.016 A 
ATOM     20  C   UNL     1      61.516  27.764  51.945  1.00  0.00     0.134 A 
ATOM     21  C   UNL     1      59.401  27.103  51.906  1.00  0.00     0.006 A 
ATOM     22  N   UNL     1      61.372  26.943  50.877  1.00  0.00    -0.191 N 
ATOM     23  C   UNL     1      60.090  26.546  50.858  1.00  0.00     0.087 A 
ATOM     24  C   UNL     1      58.054  26.822  52.130  1.00  0.00     0.011 A 
ATOM     25  C   UNL     1      59.476  25.673  49.959  1.00  0.00     0.030 A 
ATOM     26  C   UNL     1      57.409  25.947  51.238  1.00  0.00     0.001 A 
ATOM     27  C   UNL     1      58.116  25.378  50.155  1.00  0.00     0.002 A 
BRANCH  22  28
ATOM     28  O   UNL     1      62.348  26.540  49.985  1.00  0.00    -0.417 OA
ATOM     29  C   UNL     1      62.883  27.410  48.994  1.00  0.00     0.313 C 
ENDBRANCH  22  28
ENDBRANCH  18  19
ENDBRANCH   7  18
ENDBRANCH   4   7
ENDBRANCH   2   3
BRANCH   2  30
ATOM     30  N   UNL     1      58.876  33.186  56.379  1.00  0.00    -0.343 N 
ATOM     31  C   UNL     1      57.906  33.964  55.655  1.00  0.00     0.243 C 
ATOM     32  H   UNL     1      58.567  32.652  57.221  1.00  0.00     0.164 HD
ATOM     33  O   UNL     1      58.209  34.449  54.531  1.00  0.00    -0.273 OA
BRANCH  31  34
ATOM     34  C   UNL     1      56.514  34.214  56.204  1.00  0.00     0.174 C 
ATOM     35  N   UNL     1      55.598  33.074  56.016  1.00  0.00    -0.329 N 
ATOM     36  C   UNL     1      56.524  34.623  57.689  1.00  0.00     0.035 C 
ATOM     37  C   UNL     1      54.210  33.276  56.439  1.00  0.00     0.120 C 
ATOM     38  C   UNL     1      55.092  34.896  58.173  1.00  0.00     0.004 C 
ATOM     39  C   UNL     1      54.176  33.689  57.916  1.00  0.00     0.022 C 
BRANCH  35  40
ATOM     40  C   UNL     1      56.080  31.731  55.885  1.00  0.00     0.246 CG0
ATOM     41  O   UNL     1      56.417  31.092  56.919  1.00  0.00    -0.272 OA
ATOM     42  G   UNL     1      56.170  31.097  54.518  1.00  0.00     0.000 G0
ENDBRANCH  35  40
ENDBRANCH  31  34
ENDBRANCH   2  30
ENDBRANCH   1   2
BRANCH   1  43
ATOM     43  C   UNL     1      60.409  31.857  58.258  1.00  0.00     0.003 C 
BRANCH  43  44
ATOM     44  C   UNL     1      61.268  30.739  58.871  1.00  0.00     0.001 C 
BRANCH  44  45
ATOM     45  C   UNL     1      60.528  29.391  58.915  1.00  0.00     0.008 C 
BRANCH  45  46
ATOM     46  C   UNL     1      59.941  28.985  57.551  1.00  0.00     0.075 C 
BRANCH  46  47
ATOM     47  C   UNL     1      58.673  28.163  57.669  1.00  0.00     0.132 C 
ATOM     48  O   UNL     1      57.811  28.249  56.807  1.00  0.00    -0.300 OA
BRANCH  47  49
ATOM     49  C   UNL     1      58.415  27.229  58.832  1.00  0.00     0.072 C 
ATOM     50  C   UNL     1      57.041  27.383  59.482  1.00  0.00     0.012 C 
ENDBRANCH  47  49
ENDBRANCH  46  47
ENDBRANCH  45  46
ENDBRANCH  44  45
ENDBRANCH  43  44
ENDBRANCH   1  43
TORSDOF 12
ENDMDL
MODEL 7
REMARK VINA RESULT:    -3.862      5.475      8.053
REMARK INTER + INTRA:         -10.668
REMARK INTER:                  -6.842
REMARK INTRA:                  -3.826
REMARK UNBOUND:                -2.517
REMARK SMILES CCC(=O)CCCCC[C@@H]1NC(=O)[C@@H]2CCCCN2C(=O)[C@H]([C@@H](C)CC)NC(=O)[C@H](Cc2cn(OC)c3ccccc23)NC1=O
REMARK SMILES IDX 9 1 10 2 44 3 43 4 45 6 30 7 28 8 27 9 29 11 22 12 23 14
REMARK SMILES IDX 24 15 25 16 26 17 31 18 32 19 33 20 42 21 34 22 37 23 41 24
REMARK SMILES IDX 38 25 40 26 39 27 35 28 36 29 11 30 12 31 13 33 14 34 19 35
REMARK SMILES IDX 15 36 18 37 16 38 17 39 20 40 21 41 8 43 7 44 6 45 5 46 3 47
REMARK SMILES IDX 4 48 2 49 1 50
REMARK H PARENT 43 5 27 10 11 32
REMARK Flexibility Score: 80.00
ROOT
ATOM      1  C   UNL     1      60.055  28.865  56.539  1.00  0.00     0.035 C 
ENDROOT
BRANCH   1   2
ATOM      2  C   UNL     1      59.681  29.690  55.283  1.00  0.00     0.171 C 
BRANCH   2   3
ATOM      3  C   UNL     1      60.399  31.014  55.224  1.00  0.00     0.243 C 
ATOM      4  N   UNL     1      61.833  31.077  55.265  1.00  0.00    -0.342 N 
ATOM      5  H   UNL     1      62.361  30.206  55.499  1.00  0.00     0.164 HD
ATOM      6  O   UNL     1      59.727  32.073  55.091  1.00  0.00    -0.273 OA
BRANCH   4   7
ATOM      7  C   UNL     1      62.557  32.170  54.615  1.00  0.00     0.175 C 
BRANCH   7   8
ATOM      8  C   UNL     1      62.547  31.929  53.131  1.00  0.00     0.243 C 
ATOM      9  N   UNL     1      62.962  30.659  52.609  1.00  0.00    -0.342 N 
ATOM     10  H   UNL     1      63.556  30.045  53.210  1.00  0.00     0.164 HD
ATOM     11  O   UNL     1      62.138  32.835  52.354  1.00  0.00    -0.273 OA
BRANCH   9  12
ATOM     12  C   UNL     1      62.478  30.134  51.329  1.00  0.00     0.174 CG0
ATOM     13  G   UNL     1      61.920  28.744  51.524  1.00  0.00     0.000 G0
BRANCH  12  14
ATOM     14  C   UNL     1      63.586  30.186  50.240  1.00  0.00     0.018 C 
ATOM     15  C   UNL     1      63.254  31.278  49.208  1.00  0.00     0.010 C 
BRANCH  14  16
ATOM     16  C   UNL     1      65.003  30.397  50.834  1.00  0.00     0.002 C 
ATOM     17  C   UNL     1      66.066  30.641  49.762  1.00  0.00     0.004 C 
ENDBRANCH  14  16
ENDBRANCH  12  14
ENDBRANCH   9  12
ENDBRANCH   7   8
BRANCH   7  18
ATOM     18  C   UNL     1      63.993  32.264  55.165  1.00  0.00     0.073 C 
BRANCH  18  19
ATOM     19  C   UNL     1      64.018  32.920  56.515  1.00  0.00    -0.016 A 
ATOM     20  C   UNL     1      63.434  34.137  56.853  1.00  0.00     0.134 A 
ATOM     21  C   UNL     1      64.487  32.380  57.701  1.00  0.00     0.006 A 
ATOM     22  N   UNL     1      63.554  34.346  58.187  1.00  0.00    -0.191 N 
ATOM     23  C   UNL     1      64.191  33.279  58.695  1.00  0.00     0.087 A 
ATOM     24  C   UNL     1      65.122  31.169  57.971  1.00  0.00     0.011 A 
ATOM     25  C   UNL     1      64.517  33.030  60.028  1.00  0.00     0.030 A 
ATOM     26  C   UNL     1      65.464  30.893  59.308  1.00  0.00     0.001 A 
ATOM     27  C   UNL     1      65.166  31.820  60.331  1.00  0.00     0.002 A 
BRANCH  22  28
ATOM     28  O   UNL     1      63.082  35.419  58.919  1.00  0.00    -0.417 OA
ATOM     29  C   UNL     1      61.858  35.370  59.643  1.00  0.00     0.313 C 
ENDBRANCH  22  28
ENDBRANCH  18  19
ENDBRANCH   7  18
ENDBRANCH   4   7
ENDBRANCH   2   3
BRANCH   2  30
ATOM     30  N   UNL     1      59.967  28.923  54.063  1.00  0.00    -0.343 N 
ATOM     31  C   UNL     1      59.347  29.230  52.802  1.00  0.00     0.243 C 
ATOM     32  H   UNL     1      60.612  28.105  54.121  1.00  0.00     0.164 HD
ATOM     33  O   UNL     1      58.730  30.320  52.658  1.00  0.00    -0.273 OA
BRANCH  31  34
ATOM     34  C   UNL     1      59.419  28.275  51.624  1.00  0.00     0.174 C 
ATOM     35  N   UNL     1      60.710  28.321  50.914  1.00  0.00    -0.329 N 
ATOM     36  C   UNL     1      59.102  26.820  52.017  1.00  0.00     0.035 C 
ATOM     37  C   UNL     1      60.822  27.493  49.710  1.00  0.00     0.120 C 
ATOM     38  C   UNL     1      59.157  25.912  50.778  1.00  0.00     0.004 C 
ATOM     39  C   UNL     1      60.510  26.032  50.058  1.00  0.00     0.022 C 
BRANCH  35  40
ATOM     40  C   UNL     1      61.916  28.741  51.563  1.00  0.00     0.246 CG0
ATOM     41  O   UNL     1      62.513  27.942  52.335  1.00  0.00    -0.272 OA
ATOM     42  G   UNL     1      62.460  30.127  51.311  1.00  0.00     0.000 G0
ENDBRANCH  35  40
ENDBRANCH  31  34
ENDBRANCH   2  30
ENDBRANCH   1   2
BRANCH   1  43
ATOM     43  C   UNL     1      59.435  29.371  57.858  1.00  0.00     0.003 C 
BRANCH  43  44
ATOM     44  C   UNL     1      60.234  30.517  58.499  1.00  0.00     0.001 C 
BRANCH  44  45
ATOM     45  C   UNL     1      61.698  30.128  58.772  1.00  0.00     0.008 C 
BRANCH  45  46
ATOM     46  C   UNL     1      61.868  29.305  60.062  1.00  0.00     0.075 C 
BRANCH  46  47
ATOM     47  C   UNL     1      62.706  28.057  59.866  1.00  0.00     0.132 C 
ATOM     48  O   UNL     1      63.037  27.389  60.835  1.00  0.00    -0.300 OA
BRANCH  47  49
ATOM     49  C   UNL     1      63.170  27.596  58.501  1.00  0.00     0.072 C 
ATOM     50  C   UNL     1      63.506  26.108  58.410  1.00  0.00     0.012 C 
ENDBRANCH  47  49
ENDBRANCH  46  47
ENDBRANCH  45  46
ENDBRANCH  44  45
ENDBRANCH  43  44
ENDBRANCH   1  43
TORSDOF 12
ENDMDL
MODEL 8
REMARK VINA RESULT:    -3.823      4.179      8.607
REMARK INTER + INTRA:         -10.587
REMARK INTER:                  -6.988
REMARK INTRA:                  -3.599
REMARK UNBOUND:                -2.517
REMARK SMILES CCC(=O)CCCCC[C@@H]1NC(=O)[C@@H]2CCCCN2C(=O)[C@H]([C@@H](C)CC)NC(=O)[C@H](Cc2cn(OC)c3ccccc23)NC1=O
REMARK SMILES IDX 9 1 10 2 44 3 43 4 45 6 30 7 28 8 27 9 29 11 22 12 23 14
REMARK SMILES IDX 24 15 25 16 26 17 31 18 32 19 33 20 42 21 34 22 37 23 41 24
REMARK SMILES IDX 38 25 40 26 39 27 35 28 36 29 11 30 12 31 13 33 14 34 19 35
REMARK SMILES IDX 15 36 18 37 16 38 17 39 20 40 21 41 8 43 7 44 6 45 5 46 3 47
REMARK SMILES IDX 4 48 2 49 1 50
REMARK H PARENT 43 5 27 10 11 32
REMARK Flexibility Score: 80.00
ROOT
ATOM      1  C   UNL     1      66.801  29.605  59.389  1.00  0.00     0.035 C 
ENDROOT
BRANCH   1   2
ATOM      2  C   UNL     1      66.905  30.856  58.482  1.00  0.00     0.171 C 
BRANCH   2   3
ATOM      3  C   UNL     1      66.722  30.529  57.021  1.00  0.00     0.243 C 
ATOM      4  N   UNL     1      65.540  29.857  56.560  1.00  0.00    -0.342 N 
ATOM      5  H   UNL     1      64.887  29.456  57.270  1.00  0.00     0.164 HD
ATOM      6  O   UNL     1      67.600  30.894  56.195  1.00  0.00    -0.273 OA
BRANCH   4   7
ATOM      7  C   UNL     1      65.036  30.069  55.202  1.00  0.00     0.175 C 
BRANCH   7   8
ATOM      8  C   UNL     1      64.359  31.410  55.151  1.00  0.00     0.243 C 
ATOM      9  N   UNL     1      63.310  31.718  56.080  1.00  0.00    -0.342 N 
ATOM     10  H   UNL     1      62.817  30.928  56.553  1.00  0.00     0.164 HD
ATOM     11  O   UNL     1      64.742  32.272  54.313  1.00  0.00    -0.273 OA
BRANCH   9  12
ATOM     12  C   UNL     1      62.996  33.089  56.492  1.00  0.00     0.174 CG0
ATOM     13  G   UNL     1      63.128  33.217  57.991  1.00  0.00     0.000 G0
BRANCH  12  14
ATOM     14  C   UNL     1      61.598  33.529  55.975  1.00  0.00     0.018 C 
ATOM     15  C   UNL     1      61.739  34.771  55.077  1.00  0.00     0.010 C 
BRANCH  14  16
ATOM     16  C   UNL     1      60.845  32.393  55.236  1.00  0.00     0.002 C 
ATOM     17  C   UNL     1      59.645  31.864  56.023  1.00  0.00     0.004 C 
ENDBRANCH  14  16
ENDBRANCH  12  14
ENDBRANCH   9  12
ENDBRANCH   7   8
BRANCH   7  18
ATOM     18  C   UNL     1      64.077  28.932  54.802  1.00  0.00     0.073 C 
BRANCH  18  19
ATOM     19  C   UNL     1      63.535  29.135  53.417  1.00  0.00    -0.016 A 
ATOM     20  C   UNL     1      64.280  29.228  52.245  1.00  0.00     0.134 A 
ATOM     21  C   UNL     1      62.208  29.116  53.024  1.00  0.00     0.006 A 
ATOM     22  N   UNL     1      63.447  29.282  51.177  1.00  0.00    -0.191 N 
ATOM     23  C   UNL     1      62.194  29.213  51.656  1.00  0.00     0.087 A 
ATOM     24  C   UNL     1      61.032  28.999  53.764  1.00  0.00     0.011 A 
ATOM     25  C   UNL     1      61.000  29.206  50.933  1.00  0.00     0.030 A 
ATOM     26  C   UNL     1      59.814  28.991  53.061  1.00  0.00     0.001 A 
ATOM     27  C   UNL     1      59.797  29.097  51.652  1.00  0.00     0.002 A 
BRANCH  22  28
ATOM     28  O   UNL     1      63.790  29.351  49.840  1.00  0.00    -0.417 OA
ATOM     29  C   UNL     1      64.015  30.587  49.173  1.00  0.00     0.313 C 
ENDBRANCH  22  28
ENDBRANCH  18  19
ENDBRANCH   7  18
ENDBRANCH   4   7
ENDBRANCH   2   3
BRANCH   2  30
ATOM     30  N   UNL     1      65.915  31.864  58.886  1.00  0.00    -0.343 N 
ATOM     31  C   UNL     1      66.000  33.235  58.457  1.00  0.00     0.243 C 
ATOM     32  H   UNL     1      65.148  31.586  59.536  1.00  0.00     0.164 HD
ATOM     33  O   UNL     1      66.787  33.550  57.524  1.00  0.00    -0.273 OA
BRANCH  31  34
ATOM     34  C   UNL     1      65.157  34.323  59.096  1.00  0.00     0.174 C 
ATOM     35  N   UNL     1      63.778  34.373  58.578  1.00  0.00    -0.329 N 
ATOM     36  C   UNL     1      65.125  34.227  60.632  1.00  0.00     0.035 C 
ATOM     37  C   UNL     1      62.931  35.458  59.082  1.00  0.00     0.120 C 
ATOM     38  C   UNL     1      64.287  35.375  61.218  1.00  0.00     0.004 C 
ATOM     39  C   UNL     1      62.874  35.399  60.614  1.00  0.00     0.022 C 
BRANCH  35  40
ATOM     40  C   UNL     1      63.141  33.221  58.012  1.00  0.00     0.246 CG0
ATOM     41  O   UNL     1      62.682  32.330  58.777  1.00  0.00    -0.272 OA
ATOM     42  G   UNL     1      63.020  33.092  56.513  1.00  0.00     0.000 G0
ENDBRANCH  35  40
ENDBRANCH  31  34
ENDBRANCH   2  30
ENDBRANCH   1   2
BRANCH   1  43
ATOM     43  C   UNL     1      65.540  29.546  60.274  1.00  0.00     0.003 C 
BRANCH  43  44
ATOM     44  C   UNL     1      64.552  28.449  59.844  1.00  0.00     0.001 C 
BRANCH  44  45
ATOM     45  C   UNL     1      64.335  27.395  60.943  1.00  0.00     0.008 C 
BRANCH  45  46
ATOM     46  C   UNL     1      62.976  27.541  61.652  1.00  0.00     0.075 C 
BRANCH  46  47
ATOM     47  C   UNL     1      61.842  26.860  60.911  1.00  0.00     0.132 C 
ATOM     48  O   UNL     1      61.828  25.641  60.810  1.00  0.00    -0.300 OA
BRANCH  47  49
ATOM     49  C   UNL     1      60.711  27.632  60.268  1.00  0.00     0.072 C 
ATOM     50  C   UNL     1      60.937  29.142  60.181  1.00  0.00     0.012 C 
ENDBRANCH  47  49
ENDBRANCH  46  47
ENDBRANCH  45  46
ENDBRANCH  44  45
ENDBRANCH  43  44
ENDBRANCH   1  43
TORSDOF 12
ENDMDL
MODEL 9
REMARK VINA RESULT:    -3.762      7.994     11.362
REMARK INTER + INTRA:         -10.458
REMARK INTER:                  -7.280
REMARK INTRA:                  -3.178
REMARK UNBOUND:                -2.517
REMARK SMILES CCC(=O)CCCCC[C@@H]1NC(=O)[C@@H]2CCCCN2C(=O)[C@H]([C@@H](C)CC)NC(=O)[C@H](Cc2cn(OC)c3ccccc23)NC1=O
REMARK SMILES IDX 9 1 10 2 44 3 43 4 45 6 30 7 28 8 27 9 29 11 22 12 23 14
REMARK SMILES IDX 24 15 25 16 26 17 31 18 32 19 33 20 42 21 34 22 37 23 41 24
REMARK SMILES IDX 38 25 40 26 39 27 35 28 36 29 11 30 12 31 13 33 14 34 19 35
REMARK SMILES IDX 15 36 18 37 16 38 17 39 20 40 21 41 8 43 7 44 6 45 5 46 3 47
REMARK SMILES IDX 4 48 2 49 1 50
REMARK H PARENT 43 5 27 10 11 32
REMARK Flexibility Score: 80.00
ROOT
ATOM      1  C   UNL     1      60.903  29.394  53.689  1.00  0.00     0.035 C 
ENDROOT
BRANCH   1   2
ATOM      2  C   UNL     1      62.403  29.759  53.565  1.00  0.00     0.171 C 
BRANCH   2   3
ATOM      3  C   UNL     1      63.282  28.547  53.392  1.00  0.00     0.243 C 
ATOM      4  N   UNL     1      63.116  27.672  52.266  1.00  0.00    -0.342 N 
ATOM      5  H   UNL     1      62.275  27.797  51.659  1.00  0.00     0.164 HD
ATOM      6  O   UNL     1      64.203  28.331  54.226  1.00  0.00    -0.273 OA
BRANCH   4   7
ATOM      7  C   UNL     1      64.248  26.915  51.729  1.00  0.00     0.175 C 
BRANCH   7   8
ATOM      8  C   UNL     1      65.110  27.854  50.932  1.00  0.00     0.243 C 
ATOM      9  N   UNL     1      64.601  28.449  49.730  1.00  0.00    -0.342 N 
ATOM     10  H   UNL     1      63.789  27.995  49.257  1.00  0.00     0.164 HD
ATOM     11  O   UNL     1      66.268  28.140  51.345  1.00  0.00    -0.273 OA
BRANCH   9  12
ATOM     12  C   UNL     1      65.083  29.735  49.220  1.00  0.00     0.174 CG0
ATOM     13  G   UNL     1      64.005  30.782  49.368  1.00  0.00     0.000 G0
BRANCH  12  14
ATOM     14  C   UNL     1      65.595  29.607  47.758  1.00  0.00     0.018 C 
ATOM     15  C   UNL     1      67.014  30.194  47.646  1.00  0.00     0.010 C 
BRANCH  14  16
ATOM     16  C   UNL     1      65.557  28.148  47.233  1.00  0.00     0.002 C 
ATOM     17  C   UNL     1      66.838  27.746  46.499  1.00  0.00     0.004 C 
ENDBRANCH  14  16
ENDBRANCH  12  14
ENDBRANCH   9  12
ENDBRANCH   7   8
BRANCH   7  18
ATOM     18  C   UNL     1      63.747  25.738  50.871  1.00  0.00     0.073 C 
BRANCH  18  19
ATOM     19  C   UNL     1      62.507  25.125  51.455  1.00  0.00    -0.016 A 
ATOM     20  C   UNL     1      62.395  24.513  52.700  1.00  0.00     0.134 A 
ATOM     21  C   UNL     1      61.222  25.185  50.943  1.00  0.00     0.006 A 
ATOM     22  N   UNL     1      61.099  24.194  52.937  1.00  0.00    -0.191 N 
ATOM     23  C   UNL     1      60.394  24.603  51.870  1.00  0.00     0.087 A 
ATOM     24  C   UNL     1      60.729  25.722  49.755  1.00  0.00     0.011 A 
ATOM     25  C   UNL     1      59.016  24.514  51.669  1.00  0.00     0.030 A 
ATOM     26  C   UNL     1      59.344  25.645  49.525  1.00  0.00     0.001 A 
ATOM     27  C   UNL     1      58.491  25.041  50.476  1.00  0.00     0.002 A 
BRANCH  22  28
ATOM     28  O   UNL     1      60.570  23.601  54.068  1.00  0.00    -0.417 OA
ATOM     29  C   UNL     1      59.927  24.350  55.092  1.00  0.00     0.313 C 
ENDBRANCH  22  28
ENDBRANCH  18  19
ENDBRANCH   7  18
ENDBRANCH   4   7
ENDBRANCH   2   3
BRANCH   2  30
ATOM     30  N   UNL     1      62.613  30.682  52.441  1.00  0.00    -0.343 N 
ATOM     31  C   UNL     1      63.867  31.354  52.228  1.00  0.00     0.243 C 
ATOM     32  H   UNL     1      61.816  30.886  51.800  1.00  0.00     0.164 HD
ATOM     33  O   UNL     1      64.893  30.978  52.857  1.00  0.00    -0.273 OA
BRANCH  31  34
ATOM     34  C   UNL     1      63.996  32.510  51.252  1.00  0.00     0.174 C 
ATOM     35  N   UNL     1      64.332  32.082  49.882  1.00  0.00    -0.329 N 
ATOM     36  C   UNL     1      62.741  33.402  51.217  1.00  0.00     0.035 C 
ATOM     37  C   UNL     1      64.563  33.150  48.904  1.00  0.00     0.120 C 
ATOM     38  C   UNL     1      62.948  34.570  50.240  1.00  0.00     0.004 C 
ATOM     39  C   UNL     1      63.334  34.065  48.840  1.00  0.00     0.022 C 
BRANCH  35  40
ATOM     40  C   UNL     1      64.005  30.775  49.396  1.00  0.00     0.246 CG0
ATOM     41  O   UNL     1      62.808  30.507  49.101  1.00  0.00    -0.272 OA
ATOM     42  G   UNL     1      65.092  29.740  49.235  1.00  0.00     0.000 G0
ENDBRANCH  35  40
ENDBRANCH  31  34
ENDBRANCH   2  30
ENDBRANCH   1   2
BRANCH   1  43
ATOM     43  C   UNL     1      60.062  29.658  52.424  1.00  0.00     0.003 C 
BRANCH  43  44
ATOM     44  C   UNL     1      59.325  28.408  51.916  1.00  0.00     0.001 C 
BRANCH  44  45
ATOM     45  C   UNL     1      57.904  28.292  52.494  1.00  0.00     0.008 C 
BRANCH  45  46
ATOM     46  C   UNL     1      57.487  29.530  53.309  1.00  0.00     0.075 C 
BRANCH  46  47
ATOM     47  C   UNL     1      56.066  29.977  53.026  1.00  0.00     0.132 C 
ATOM     48  O   UNL     1      55.476  30.675  53.839  1.00  0.00    -0.300 OA
BRANCH  47  49
ATOM     49  C   UNL     1      55.325  29.583  51.768  1.00  0.00     0.072 C 
ATOM     50  C   UNL     1      53.876  30.066  51.701  1.00  0.00     0.012 C 
ENDBRANCH  47  49
ENDBRANCH  46  47
ENDBRANCH  45  46
ENDBRANCH  44  45
ENDBRANCH  43  44
ENDBRANCH   1  43
TORSDOF 12
ENDMDL
