MODEL 1
REMARK VINA RESULT:    -7.917      0.000      0.000
REMARK INTER + INTRA:         -12.182
REMARK INTER:                 -10.926
REMARK INTRA:                  -1.256
REMARK UNBOUND:                -1.256
REMARK SMILES CC[C@H](CC[C@@H](C)[C@H]1CC[C@@H]2[C@@H]3CC=C4C[C@H](O)CC[C@]4(C)[C@@H]3CC[C@@]21C)C(C)C
REMARK SMILES IDX 5 1 4 2 3 3 2 4 1 5 28 6 29 7 30 8 6 9 7 10 8 11 9 12 26 13
REMARK SMILES IDX 10 14 11 15 25 16 27 17 12 18 24 19 23 20 13 21 21 22 14 23
REMARK SMILES IDX 15 24 20 25 22 26 16 27 19 28 17 29 18 30
REMARK H PARENT 18 31
REMARK Flexibility Score: inf
ROOT
ATOM      1  C   UNL     1      23.349 -22.429 -15.905  1.00  0.00     0.004 C 
ENDROOT
BRANCH   1   2
ATOM      2  C   UNL     1      23.570 -23.820 -15.277  1.00  0.00     0.004 C 
BRANCH   2   3
ATOM      3  C   UNL     1      24.693 -23.880 -14.206  1.00  0.00    -0.009 C 
BRANCH   3   4
ATOM      4  C   UNL     1      24.118 -23.641 -12.780  1.00  0.00     0.000 C 
ATOM      5  C   UNL     1      24.276 -22.199 -12.296  1.00  0.00     0.004 C 
ENDBRANCH   3   4
BRANCH   3   6
ATOM      6  C   UNL     1      25.610 -25.147 -14.380  1.00  0.00    -0.014 C 
ATOM      7  C   UNL     1      25.732 -26.039 -13.132  1.00  0.00     0.007 C 
ATOM      8  C   UNL     1      27.009 -24.774 -14.898  1.00  0.00     0.007 C 
ENDBRANCH   3   6
ENDBRANCH   2   3
ENDBRANCH   1   2
BRANCH   1   9
ATOM      9  C   UNL     1      22.012 -21.765 -15.437  1.00  0.00    -0.011 C 
ATOM     10  C   UNL     1      21.166 -22.844 -14.729  1.00  0.00     0.008 C 
BRANCH   9  11
ATOM     11  C   UNL     1      22.251 -20.526 -14.497  1.00  0.00    -0.002 C 
ATOM     12  C   UNL     1      23.148 -19.448 -15.108  1.00  0.00     0.005 C 
ATOM     13  C   UNL     1      20.991 -19.733 -13.967  1.00  0.00    -0.026 C 
ATOM     14  C   UNL     1      22.935 -18.231 -14.237  1.00  0.00     0.005 C 
ATOM     15  C   UNL     1      21.433 -18.226 -13.964  1.00  0.00    -0.001 C 
ATOM     16  C   UNL     1      20.613 -20.222 -12.535  1.00  0.00     0.007 C 
ATOM     17  C   UNL     1      19.750 -19.855 -14.891  1.00  0.00     0.012 C 
ATOM     18  C   UNL     1      20.963 -17.384 -12.731  1.00  0.00     0.000 C 
ATOM     19  C   UNL     1      21.473 -19.566 -11.449  1.00  0.00     0.005 C 
ATOM     20  C   UNL     1      21.125 -18.067 -11.328  1.00  0.00     0.003 C 
ATOM     21  C   UNL     1      21.482 -15.939 -12.789  1.00  0.00     0.031 C 
ATOM     22  C   UNL     1      21.962 -17.272 -10.240  1.00  0.00    -0.008 C 
ATOM     23  C   UNL     1      21.306 -15.207 -11.496  1.00  0.00    -0.027 C 
ATOM     24  C   UNL     1      21.661 -15.774 -10.326  1.00  0.00    -0.065 C 
ATOM     25  C   UNL     1      23.502 -17.416 -10.402  1.00  0.00     0.014 C 
ATOM     26  C   UNL     1      21.538 -17.810  -8.840  1.00  0.00     0.016 C 
ATOM     27  C   UNL     1      22.331 -14.880  -9.304  1.00  0.00     0.063 C 
ATOM     28  C   UNL     1      24.299 -16.515  -9.423  1.00  0.00     0.033 C 
ATOM     29  C   UNL     1      23.860 -15.032  -9.453  1.00  0.00     0.118 C 
BRANCH  29  30
ATOM     30  O   UNL     1      24.289 -14.451 -10.659  1.00  0.00    -0.393 OA
ATOM     31  H   UNL     1      23.524 -13.926 -11.013  1.00  0.00     0.210 HD
ENDBRANCH  29  30
ENDBRANCH   9  11
ENDBRANCH   1   9
TORSDOF 7
ENDMDL
MODEL 2
REMARK VINA RESULT:    -7.821      2.718      4.345
REMARK INTER + INTRA:         -12.050
REMARK INTER:                 -10.093
REMARK INTRA:                  -1.957
REMARK UNBOUND:                -1.256
REMARK SMILES CC[C@H](CC[C@@H](C)[C@H]1CC[C@@H]2[C@@H]3CC=C4C[C@H](O)CC[C@]4(C)[C@@H]3CC[C@@]21C)C(C)C
REMARK SMILES IDX 5 1 4 2 3 3 2 4 1 5 28 6 29 7 30 8 6 9 7 10 8 11 9 12 26 13
REMARK SMILES IDX 10 14 11 15 25 16 27 17 12 18 24 19 23 20 13 21 21 22 14 23
REMARK SMILES IDX 15 24 20 25 22 26 16 27 19 28 17 29 18 30
REMARK H PARENT 18 31
REMARK Flexibility Score: inf
ROOT
ATOM      1  C   UNL     1      19.334 -24.507 -14.631  1.00  0.00     0.004 C 
ENDROOT
BRANCH   1   2
ATOM      2  C   UNL     1      20.194 -25.723 -15.028  1.00  0.00     0.004 C 
BRANCH   2   3
ATOM      3  C   UNL     1      20.434 -26.752 -13.889  1.00  0.00    -0.009 C 
BRANCH   3   4
ATOM      4  C   UNL     1      21.929 -26.768 -13.458  1.00  0.00     0.000 C 
ATOM      5  C   UNL     1      22.831 -25.931 -14.365  1.00  0.00     0.004 C 
ENDBRANCH   3   4
BRANCH   3   6
ATOM      6  C   UNL     1      19.379 -26.609 -12.730  1.00  0.00    -0.014 C 
ATOM      7  C   UNL     1      19.974 -26.551 -11.312  1.00  0.00     0.007 C 
ATOM      8  C   UNL     1      18.298 -27.699 -12.802  1.00  0.00     0.007 C 
ENDBRANCH   3   6
ENDBRANCH   2   3
ENDBRANCH   1   2
BRANCH   1   9
ATOM      9  C   UNL     1      19.930 -23.156 -15.147  1.00  0.00    -0.011 C 
ATOM     10  C   UNL     1      18.790 -22.350 -15.804  1.00  0.00     0.008 C 
BRANCH   9  11
ATOM     11  C   UNL     1      20.623 -22.326 -14.003  1.00  0.00    -0.002 C 
ATOM     12  C   UNL     1      20.837 -23.113 -12.710  1.00  0.00     0.005 C 
ATOM     13  C   UNL     1      22.030 -21.670 -14.300  1.00  0.00    -0.026 C 
ATOM     14  C   UNL     1      21.824 -22.288 -11.916  1.00  0.00     0.005 C 
ATOM     15  C   UNL     1      22.832 -21.810 -12.958  1.00  0.00    -0.001 C 
ATOM     16  C   UNL     1      21.849 -20.175 -14.707  1.00  0.00     0.007 C 
ATOM     17  C   UNL     1      22.835 -22.405 -15.405  1.00  0.00     0.012 C 
ATOM     18  C   UNL     1      23.700 -20.571 -12.554  1.00  0.00     0.000 C 
ATOM     19  C   UNL     1      21.685 -19.256 -13.491  1.00  0.00     0.005 C 
ATOM     20  C   UNL     1      23.012 -19.168 -12.707  1.00  0.00     0.003 C 
ATOM     21  C   UNL     1      24.408 -20.778 -11.206  1.00  0.00     0.031 C 
ATOM     22  C   UNL     1      22.965 -18.252 -11.413  1.00  0.00    -0.008 C 
ATOM     23  C   UNL     1      24.992 -19.514 -10.656  1.00  0.00    -0.027 C 
ATOM     24  C   UNL     1      24.270 -18.376 -10.624  1.00  0.00    -0.065 C 
ATOM     25  C   UNL     1      21.823 -18.618 -10.424  1.00  0.00     0.014 C 
ATOM     26  C   UNL     1      22.781 -16.780 -11.890  1.00  0.00     0.016 C 
ATOM     27  C   UNL     1      24.413 -17.507  -9.392  1.00  0.00     0.063 C 
ATOM     28  C   UNL     1      21.887 -17.809  -9.101  1.00  0.00     0.033 C 
ATOM     29  C   UNL     1      23.272 -17.858  -8.414  1.00  0.00     0.118 C 
BRANCH  29  30
ATOM     30  O   UNL     1      23.473 -19.141  -7.877  1.00  0.00    -0.393 OA
ATOM     31  H   UNL     1      23.991 -19.023  -7.038  1.00  0.00     0.210 HD
ENDBRANCH  29  30
ENDBRANCH   9  11
ENDBRANCH   1   9
TORSDOF 7
ENDMDL
MODEL 3
REMARK VINA RESULT:    -7.759      1.703      3.743
REMARK INTER + INTRA:         -11.963
REMARK INTER:                 -10.567
REMARK INTRA:                  -1.396
REMARK UNBOUND:                -1.256
REMARK SMILES CC[C@H](CC[C@@H](C)[C@H]1CC[C@@H]2[C@@H]3CC=C4C[C@H](O)CC[C@]4(C)[C@@H]3CC[C@@]21C)C(C)C
REMARK SMILES IDX 5 1 4 2 3 3 2 4 1 5 28 6 29 7 30 8 6 9 7 10 8 11 9 12 26 13
REMARK SMILES IDX 10 14 11 15 25 16 27 17 12 18 24 19 23 20 13 21 21 22 14 23
REMARK SMILES IDX 15 24 20 25 22 26 16 27 19 28 17 29 18 30
REMARK H PARENT 18 31
REMARK Flexibility Score: inf
ROOT
ATOM      1  C   UNL     1      23.206 -26.241 -13.125  1.00  0.00     0.004 C 
ENDROOT
BRANCH   1   2
ATOM      2  C   UNL     1      24.168 -26.976 -14.079  1.00  0.00     0.004 C 
BRANCH   2   3
ATOM      3  C   UNL     1      25.588 -27.232 -13.504  1.00  0.00    -0.009 C 
BRANCH   3   4
ATOM      4  C   UNL     1      25.777 -28.731 -13.132  1.00  0.00     0.000 C 
ATOM      5  C   UNL     1      26.111 -28.953 -11.656  1.00  0.00     0.004 C 
ENDBRANCH   3   4
BRANCH   3   6
ATOM      6  C   UNL     1      26.713 -26.591 -14.397  1.00  0.00    -0.014 C 
ATOM      7  C   UNL     1      28.143 -26.740 -13.849  1.00  0.00     0.007 C 
ATOM      8  C   UNL     1      26.423 -25.115 -14.713  1.00  0.00     0.007 C 
ENDBRANCH   3   6
ENDBRANCH   2   3
ENDBRANCH   1   2
BRANCH   1   9
ATOM      9  C   UNL     1      22.214 -25.297 -13.881  1.00  0.00    -0.011 C 
ATOM     10  C   UNL     1      20.780 -25.810 -13.628  1.00  0.00     0.008 C 
BRANCH   9  11
ATOM     11  C   UNL     1      22.361 -23.792 -13.445  1.00  0.00    -0.002 C 
ATOM     12  C   UNL     1      23.610 -23.509 -12.609  1.00  0.00     0.005 C 
ATOM     13  C   UNL     1      22.384 -22.684 -14.572  1.00  0.00    -0.026 C 
ATOM     14  C   UNL     1      23.754 -22.004 -12.631  1.00  0.00     0.005 C 
ATOM     15  C   UNL     1      23.423 -21.619 -14.070  1.00  0.00    -0.001 C 
ATOM     16  C   UNL     1      20.963 -22.064 -14.742  1.00  0.00     0.007 C 
ATOM     17  C   UNL     1      22.879 -23.209 -15.946  1.00  0.00     0.012 C 
ATOM     18  C   UNL     1      23.026 -20.123 -14.305  1.00  0.00     0.000 C 
ATOM     19  C   UNL     1      20.670 -20.983 -13.695  1.00  0.00     0.005 C 
ATOM     20  C   UNL     1      21.545 -19.739 -13.955  1.00  0.00     0.003 C 
ATOM     21  C   UNL     1      24.076 -19.153 -13.739  1.00  0.00     0.031 C 
ATOM     22  C   UNL     1      21.341 -18.550 -12.925  1.00  0.00    -0.008 C 
ATOM     23  C   UNL     1      23.588 -17.740 -13.679  1.00  0.00    -0.027 C 
ATOM     24  C   UNL     1      22.374 -17.448 -13.170  1.00  0.00    -0.065 C 
ATOM     25  C   UNL     1      21.501 -18.972 -11.437  1.00  0.00     0.014 C 
ATOM     26  C   UNL     1      19.908 -17.981 -13.148  1.00  0.00     0.016 C 
ATOM     27  C   UNL     1      22.270 -16.205 -12.311  1.00  0.00     0.063 C 
ATOM     28  C   UNL     1      21.444 -17.770 -10.459  1.00  0.00     0.033 C 
ATOM     29  C   UNL     1      22.414 -16.624 -10.832  1.00  0.00     0.118 C 
BRANCH  29  30
ATOM     30  O   UNL     1      23.733 -17.035 -10.572  1.00  0.00    -0.393 OA
ATOM     31  H   UNL     1      24.331 -16.359 -10.985  1.00  0.00     0.210 HD
ENDBRANCH  29  30
ENDBRANCH   9  11
ENDBRANCH   1   9
TORSDOF 7
ENDMDL
MODEL 4
REMARK VINA RESULT:    -7.651      3.333      9.198
REMARK INTER + INTRA:         -11.815
REMARK INTER:                 -10.422
REMARK INTRA:                  -1.392
REMARK UNBOUND:                -1.256
REMARK SMILES CC[C@H](CC[C@@H](C)[C@H]1CC[C@@H]2[C@@H]3CC=C4C[C@H](O)CC[C@]4(C)[C@@H]3CC[C@@]21C)C(C)C
REMARK SMILES IDX 5 1 4 2 3 3 2 4 1 5 28 6 29 7 30 8 6 9 7 10 8 11 9 12 26 13
REMARK SMILES IDX 10 14 11 15 25 16 27 17 12 18 24 19 23 20 13 21 21 22 14 23
REMARK SMILES IDX 15 24 20 25 22 26 16 27 19 28 17 29 18 30
REMARK H PARENT 18 31
REMARK Flexibility Score: inf
ROOT
ATOM      1  C   UNL     1      20.840 -20.641 -11.671  1.00  0.00     0.004 C 
ENDROOT
BRANCH   1   2
ATOM      2  C   UNL     1      20.268 -19.214 -11.783  1.00  0.00     0.004 C 
BRANCH   2   3
ATOM      3  C   UNL     1      21.049 -18.134 -10.984  1.00  0.00    -0.009 C 
BRANCH   3   4
ATOM      4  C   UNL     1      22.173 -18.780 -10.125  1.00  0.00     0.000 C 
ATOM      5  C   UNL     1      22.412 -18.059  -8.798  1.00  0.00     0.004 C 
ENDBRANCH   3   4
BRANCH   3   6
ATOM      6  C   UNL     1      21.478 -16.922 -11.891  1.00  0.00    -0.014 C 
ATOM      7  C   UNL     1      20.599 -16.696 -13.134  1.00  0.00     0.007 C 
ATOM      8  C   UNL     1      22.957 -17.010 -12.302  1.00  0.00     0.007 C 
ENDBRANCH   3   6
ENDBRANCH   2   3
ENDBRANCH   1   2
BRANCH   1   9
ATOM      9  C   UNL     1      21.134 -21.281 -13.068  1.00  0.00    -0.011 C 
ATOM     10  C   UNL     1      21.938 -20.259 -13.901  1.00  0.00     0.008 C 
BRANCH   9  11
ATOM     11  C   UNL     1      21.904 -22.649 -12.956  1.00  0.00    -0.002 C 
ATOM     12  C   UNL     1      21.717 -23.356 -11.613  1.00  0.00     0.005 C 
ATOM     13  C   UNL     1      21.608 -23.766 -14.032  1.00  0.00    -0.026 C 
ATOM     14  C   UNL     1      22.198 -24.769 -11.852  1.00  0.00     0.005 C 
ATOM     15  C   UNL     1      21.655 -25.118 -13.235  1.00  0.00    -0.001 C 
ATOM     16  C   UNL     1      22.687 -23.727 -15.157  1.00  0.00     0.007 C 
ATOM     17  C   UNL     1      20.199 -23.650 -14.673  1.00  0.00     0.012 C 
ATOM     18  C   UNL     1      22.356 -26.312 -13.966  1.00  0.00     0.000 C 
ATOM     19  C   UNL     1      23.972 -24.462 -14.759  1.00  0.00     0.005 C 
ATOM     20  C   UNL     1      23.713 -25.981 -14.680  1.00  0.00     0.003 C 
ATOM     21  C   UNL     1      22.398 -27.577 -13.093  1.00  0.00     0.031 C 
ATOM     22  C   UNL     1      24.971 -26.854 -14.263  1.00  0.00    -0.008 C 
ATOM     23  C   UNL     1      23.316 -28.627 -13.636  1.00  0.00    -0.027 C 
ATOM     24  C   UNL     1      24.560 -28.312 -14.048  1.00  0.00    -0.065 C 
ATOM     25  C   UNL     1      25.644 -26.392 -12.939  1.00  0.00     0.014 C 
ATOM     26  C   UNL     1      26.005 -26.768 -15.425  1.00  0.00     0.016 C 
ATOM     27  C   UNL     1      25.664 -29.293 -13.711  1.00  0.00     0.063 C 
ATOM     28  C   UNL     1      26.776 -27.345 -12.473  1.00  0.00     0.033 C 
ATOM     29  C   UNL     1      26.344 -28.829 -12.404  1.00  0.00     0.118 C 
BRANCH  29  30
ATOM     30  O   UNL     1      25.472 -29.003 -11.316  1.00  0.00    -0.393 OA
ATOM     31  H   UNL     1      25.918 -29.628 -10.687  1.00  0.00     0.210 HD
ENDBRANCH  29  30
ENDBRANCH   9  11
ENDBRANCH   1   9
TORSDOF 7
ENDMDL
MODEL 5
REMARK VINA RESULT:    -7.642      2.747      8.239
REMARK INTER + INTRA:         -11.802
REMARK INTER:                  -9.648
REMARK INTRA:                  -2.154
REMARK UNBOUND:                -1.256
REMARK SMILES CC[C@H](CC[C@@H](C)[C@H]1CC[C@@H]2[C@@H]3CC=C4C[C@H](O)CC[C@]4(C)[C@@H]3CC[C@@]21C)C(C)C
REMARK SMILES IDX 5 1 4 2 3 3 2 4 1 5 28 6 29 7 30 8 6 9 7 10 8 11 9 12 26 13
REMARK SMILES IDX 10 14 11 15 25 16 27 17 12 18 24 19 23 20 13 21 21 22 14 23
REMARK SMILES IDX 15 24 20 25 22 26 16 27 19 28 17 29 18 30
REMARK H PARENT 18 31
REMARK Flexibility Score: inf
ROOT
ATOM      1  C   UNL     1      22.130 -17.208  -9.351  1.00  0.00     0.004 C 
ENDROOT
BRANCH   1   2
ATOM      2  C   UNL     1      21.757 -15.767  -9.754  1.00  0.00     0.004 C 
BRANCH   2   3
ATOM      3  C   UNL     1      22.200 -15.354 -11.184  1.00  0.00    -0.009 C 
BRANCH   3   4
ATOM      4  C   UNL     1      20.982 -15.288 -12.149  1.00  0.00     0.000 C 
ATOM      5  C   UNL     1      21.004 -16.369 -13.230  1.00  0.00     0.004 C 
ENDBRANCH   3   4
BRANCH   3   6
ATOM      6  C   UNL     1      23.144 -14.095 -11.170  1.00  0.00    -0.014 C 
ATOM      7  C   UNL     1      23.984 -13.898 -12.444  1.00  0.00     0.007 C 
ATOM      8  C   UNL     1      24.055 -14.075  -9.932  1.00  0.00     0.007 C 
ENDBRANCH   3   6
ENDBRANCH   2   3
ENDBRANCH   1   2
BRANCH   1   9
ATOM      9  C   UNL     1      23.281 -17.798 -10.231  1.00  0.00    -0.011 C 
ATOM     10  C   UNL     1      24.515 -18.003  -9.327  1.00  0.00     0.008 C 
BRANCH   9  11
ATOM     11  C   UNL     1      22.871 -19.141 -10.941  1.00  0.00    -0.002 C 
ATOM     12  C   UNL     1      21.370 -19.272 -11.199  1.00  0.00     0.005 C 
ATOM     13  C   UNL     1      23.540 -19.491 -12.329  1.00  0.00    -0.026 C 
ATOM     14  C   UNL     1      21.248 -20.404 -12.194  1.00  0.00     0.005 C 
ATOM     15  C   UNL     1      22.400 -20.169 -13.168  1.00  0.00    -0.001 C 
ATOM     16  C   UNL     1      24.747 -20.455 -12.115  1.00  0.00     0.007 C 
ATOM     17  C   UNL     1      24.020 -18.241 -13.116  1.00  0.00     0.012 C 
ATOM     18  C   UNL     1      22.834 -21.404 -14.027  1.00  0.00     0.000 C 
ATOM     19  C   UNL     1      24.306 -21.916 -11.969  1.00  0.00     0.005 C 
ATOM     20  C   UNL     1      23.766 -22.446 -13.314  1.00  0.00     0.003 C 
ATOM     21  C   UNL     1      21.646 -22.032 -14.773  1.00  0.00     0.031 C 
ATOM     22  C   UNL     1      23.264 -23.951 -13.287  1.00  0.00    -0.008 C 
ATOM     23  C   UNL     1      21.968 -23.374 -15.351  1.00  0.00    -0.027 C 
ATOM     24  C   UNL     1      22.594 -24.313 -14.614  1.00  0.00    -0.065 C 
ATOM     25  C   UNL     1      22.216 -24.245 -12.177  1.00  0.00     0.014 C 
ATOM     26  C   UNL     1      24.514 -24.856 -13.069  1.00  0.00     0.016 C 
ATOM     27  C   UNL     1      22.120 -25.743 -14.776  1.00  0.00     0.063 C 
ATOM     28  C   UNL     1      21.631 -25.679 -12.263  1.00  0.00     0.033 C 
ATOM     29  C   UNL     1      21.089 -26.041 -13.666  1.00  0.00     0.118 C 
BRANCH  29  30
ATOM     30  O   UNL     1      19.904 -25.324 -13.900  1.00  0.00    -0.393 OA
ATOM     31  H   UNL     1      19.922 -24.535 -13.299  1.00  0.00     0.210 HD
ENDBRANCH  29  30
ENDBRANCH   9  11
ENDBRANCH   1   9
TORSDOF 7
ENDMDL
MODEL 6
REMARK VINA RESULT:    -7.537      2.223      3.805
REMARK INTER + INTRA:         -11.657
REMARK INTER:                  -9.658
REMARK INTRA:                  -1.999
REMARK UNBOUND:                -1.256
REMARK SMILES CC[C@H](CC[C@@H](C)[C@H]1CC[C@@H]2[C@@H]3CC=C4C[C@H](O)CC[C@]4(C)[C@@H]3CC[C@@]21C)C(C)C
REMARK SMILES IDX 5 1 4 2 3 3 2 4 1 5 28 6 29 7 30 8 6 9 7 10 8 11 9 12 26 13
REMARK SMILES IDX 10 14 11 15 25 16 27 17 12 18 24 19 23 20 13 21 21 22 14 23
REMARK SMILES IDX 15 24 20 25 22 26 16 27 19 28 17 29 18 30
REMARK H PARENT 18 31
REMARK Flexibility Score: inf
ROOT
ATOM      1  C   UNL     1      20.365 -25.475 -14.143  1.00  0.00     0.004 C 
ENDROOT
BRANCH   1   2
ATOM      2  C   UNL     1      21.602 -26.239 -14.653  1.00  0.00     0.004 C 
BRANCH   2   3
ATOM      3  C   UNL     1      22.570 -26.729 -13.542  1.00  0.00    -0.009 C 
BRANCH   3   4
ATOM      4  C   UNL     1      22.232 -28.185 -13.109  1.00  0.00     0.000 C 
ATOM      5  C   UNL     1      23.365 -28.869 -12.343  1.00  0.00     0.004 C 
ENDBRANCH   3   4
BRANCH   3   6
ATOM      6  C   UNL     1      24.076 -26.445 -13.901  1.00  0.00    -0.014 C 
ATOM      7  C   UNL     1      24.705 -25.248 -13.165  1.00  0.00     0.007 C 
ATOM      8  C   UNL     1      24.286 -26.299 -15.417  1.00  0.00     0.007 C 
ENDBRANCH   3   6
ENDBRANCH   2   3
ENDBRANCH   1   2
BRANCH   1   9
ATOM      9  C   UNL     1      20.311 -24.001 -14.664  1.00  0.00    -0.011 C 
ATOM     10  C   UNL     1      18.842 -23.664 -14.993  1.00  0.00     0.008 C 
BRANCH   9  11
ATOM     11  C   UNL     1      20.911 -22.974 -13.634  1.00  0.00    -0.002 C 
ATOM     12  C   UNL     1      21.326 -23.602 -12.303  1.00  0.00     0.005 C 
ATOM     13  C   UNL     1      22.165 -22.117 -14.071  1.00  0.00    -0.026 C 
ATOM     14  C   UNL     1      22.196 -22.558 -11.640  1.00  0.00     0.005 C 
ATOM     15  C   UNL     1      23.050 -22.008 -12.779  1.00  0.00    -0.001 C 
ATOM     16  C   UNL     1      21.707 -20.714 -14.574  1.00  0.00     0.007 C 
ATOM     17  C   UNL     1      23.025 -22.797 -15.170  1.00  0.00     0.012 C 
ATOM     18  C   UNL     1      23.710 -20.611 -12.527  1.00  0.00     0.000 C 
ATOM     19  C   UNL     1      21.451 -19.736 -13.421  1.00  0.00     0.005 C 
ATOM     20  C   UNL     1      22.783 -19.362 -12.736  1.00  0.00     0.003 C 
ATOM     21  C   UNL     1      24.515 -20.582 -11.218  1.00  0.00     0.031 C 
ATOM     22  C   UNL     1      22.648 -18.361 -11.514  1.00  0.00    -0.008 C 
ATOM     23  C   UNL     1      24.900 -19.197 -10.803  1.00  0.00    -0.027 C 
ATOM     24  C   UNL     1      23.995 -18.197 -10.807  1.00  0.00    -0.065 C 
ATOM     25  C   UNL     1      21.641 -18.829 -10.426  1.00  0.00     0.014 C 
ATOM     26  C   UNL     1      22.188 -16.986 -12.085  1.00  0.00     0.016 C 
ATOM     27  C   UNL     1      24.052 -17.216  -9.655  1.00  0.00     0.063 C 
ATOM     28  C   UNL     1      21.634 -17.913  -9.174  1.00  0.00     0.033 C 
ATOM     29  C   UNL     1      23.042 -17.671  -8.579  1.00  0.00     0.118 C 
BRANCH  29  30
ATOM     30  O   UNL     1      23.490 -18.852  -7.963  1.00  0.00    -0.393 OA
ATOM     31  H   UNL     1      24.327 -18.625  -7.481  1.00  0.00     0.210 HD
ENDBRANCH  29  30
ENDBRANCH   9  11
ENDBRANCH   1   9
TORSDOF 7
ENDMDL
MODEL 7
REMARK VINA RESULT:    -7.507      3.602      8.659
REMARK INTER + INTRA:         -11.616
REMARK INTER:                  -9.731
REMARK INTRA:                  -1.885
REMARK UNBOUND:                -1.256
REMARK SMILES CC[C@H](CC[C@@H](C)[C@H]1CC[C@@H]2[C@@H]3CC=C4C[C@H](O)CC[C@]4(C)[C@@H]3CC[C@@]21C)C(C)C
REMARK SMILES IDX 5 1 4 2 3 3 2 4 1 5 28 6 29 7 30 8 6 9 7 10 8 11 9 12 26 13
REMARK SMILES IDX 10 14 11 15 25 16 27 17 12 18 24 19 23 20 13 21 21 22 14 23
REMARK SMILES IDX 15 24 20 25 22 26 16 27 19 28 17 29 18 30
REMARK H PARENT 18 31
REMARK Flexibility Score: inf
ROOT
ATOM      1  C   UNL     1      22.939 -18.836 -10.420  1.00  0.00     0.004 C 
ENDROOT
BRANCH   1   2
ATOM      2  C   UNL     1      23.238 -17.584 -11.269  1.00  0.00     0.004 C 
BRANCH   2   3
ATOM      3  C   UNL     1      22.049 -17.084 -12.135  1.00  0.00    -0.009 C 
BRANCH   3   4
ATOM      4  C   UNL     1      20.738 -17.839 -11.773  1.00  0.00     0.000 C 
ATOM      5  C   UNL     1      20.096 -18.547 -12.967  1.00  0.00     0.004 C 
ENDBRANCH   3   4
BRANCH   3   6
ATOM      6  C   UNL     1      21.959 -15.513 -12.166  1.00  0.00    -0.014 C 
ATOM      7  C   UNL     1      21.894 -14.838 -10.785  1.00  0.00     0.007 C 
ATOM      8  C   UNL     1      20.798 -15.024 -13.046  1.00  0.00     0.007 C 
ENDBRANCH   3   6
ENDBRANCH   2   3
ENDBRANCH   1   2
BRANCH   1   9
ATOM      9  C   UNL     1      23.832 -20.057 -10.816  1.00  0.00    -0.011 C 
ATOM     10  C   UNL     1      24.710 -20.421  -9.600  1.00  0.00     0.008 C 
BRANCH   9  11
ATOM     11  C   UNL     1      22.985 -21.295 -11.293  1.00  0.00    -0.002 C 
ATOM     12  C   UNL     1      21.508 -21.221 -10.906  1.00  0.00     0.005 C 
ATOM     13  C   UNL     1      22.970 -21.645 -12.834  1.00  0.00    -0.026 C 
ATOM     14  C   UNL     1      20.833 -22.269 -11.761  1.00  0.00     0.005 C 
ATOM     15  C   UNL     1      21.504 -22.125 -13.125  1.00  0.00    -0.001 C 
ATOM     16  C   UNL     1      24.012 -22.763 -13.141  1.00  0.00     0.007 C 
ATOM     17  C   UNL     1      23.251 -20.422 -13.748  1.00  0.00     0.012 C 
ATOM     18  C   UNL     1      21.371 -23.353 -14.087  1.00  0.00     0.000 C 
ATOM     19  C   UNL     1      23.473 -24.164 -12.826  1.00  0.00     0.005 C 
ATOM     20  C   UNL     1      22.360 -24.543 -13.826  1.00  0.00     0.003 C 
ATOM     21  C   UNL     1      19.908 -23.783 -14.274  1.00  0.00     0.031 C 
ATOM     22  C   UNL     1      21.712 -25.972 -13.595  1.00  0.00    -0.008 C 
ATOM     23  C   UNL     1      19.775 -25.119 -14.935  1.00  0.00    -0.027 C 
ATOM     24  C   UNL     1      20.512 -26.170 -14.524  1.00  0.00    -0.065 C 
ATOM     25  C   UNL     1      21.183 -26.196 -12.150  1.00  0.00     0.014 C 
ATOM     26  C   UNL     1      22.802 -27.037 -13.915  1.00  0.00     0.016 C 
ATOM     27  C   UNL     1      19.821 -27.517 -14.476  1.00  0.00     0.063 C 
ATOM     28  C   UNL     1      20.422 -27.538 -11.986  1.00  0.00     0.033 C 
ATOM     29  C   UNL     1      19.308 -27.748 -13.039  1.00  0.00     0.118 C 
BRANCH  29  30
ATOM     30  O   UNL     1      18.242 -26.876 -12.759  1.00  0.00    -0.393 OA
ATOM     31  H   UNL     1      18.345 -26.589 -11.814  1.00  0.00     0.210 HD
ENDBRANCH  29  30
ENDBRANCH   9  11
ENDBRANCH   1   9
TORSDOF 7
ENDMDL
MODEL 8
REMARK VINA RESULT:    -7.488      3.510      5.118
REMARK INTER + INTRA:         -11.590
REMARK INTER:                 -10.353
REMARK INTRA:                  -1.237
REMARK UNBOUND:                -1.256
REMARK SMILES CC[C@H](CC[C@@H](C)[C@H]1CC[C@@H]2[C@@H]3CC=C4C[C@H](O)CC[C@]4(C)[C@@H]3CC[C@@]21C)C(C)C
REMARK SMILES IDX 5 1 4 2 3 3 2 4 1 5 28 6 29 7 30 8 6 9 7 10 8 11 9 12 26 13
REMARK SMILES IDX 10 14 11 15 25 16 27 17 12 18 24 19 23 20 13 21 21 22 14 23
REMARK SMILES IDX 15 24 20 25 22 26 16 27 19 28 17 29 18 30
REMARK H PARENT 18 31
REMARK Flexibility Score: inf
ROOT
ATOM      1  C   UNL     1      20.311 -26.004 -13.063  1.00  0.00     0.004 C 
ENDROOT
BRANCH   1   2
ATOM      2  C   UNL     1      21.177 -27.056 -12.343  1.00  0.00     0.004 C 
BRANCH   2   3
ATOM      3  C   UNL     1      20.449 -27.840 -11.217  1.00  0.00    -0.009 C 
BRANCH   3   4
ATOM      4  C   UNL     1      20.082 -29.278 -11.685  1.00  0.00     0.000 C 
ATOM      5  C   UNL     1      18.617 -29.426 -12.098  1.00  0.00     0.004 C 
ENDBRANCH   3   4
BRANCH   3   6
ATOM      6  C   UNL     1      21.200 -27.730  -9.838  1.00  0.00    -0.014 C 
ATOM      7  C   UNL     1      20.917 -28.876  -8.850  1.00  0.00     0.007 C 
ATOM      8  C   UNL     1      20.951 -26.375  -9.157  1.00  0.00     0.007 C 
ENDBRANCH   3   6
ENDBRANCH   2   3
ENDBRANCH   1   2
BRANCH   1   9
ATOM      9  C   UNL     1      21.165 -24.988 -13.891  1.00  0.00    -0.011 C 
ATOM     10  C   UNL     1      20.430 -24.719 -15.221  1.00  0.00     0.008 C 
BRANCH   9  11
ATOM     11  C   UNL     1      21.431 -23.647 -13.111  1.00  0.00    -0.002 C 
ATOM     12  C   UNL     1      20.962 -23.674 -11.655  1.00  0.00     0.005 C 
ATOM     13  C   UNL     1      22.913 -23.105 -13.035  1.00  0.00    -0.026 C 
ATOM     14  C   UNL     1      21.637 -22.484 -11.012  1.00  0.00     0.005 C 
ATOM     15  C   UNL     1      23.048 -22.497 -11.594  1.00  0.00    -0.001 C 
ATOM     16  C   UNL     1      23.146 -22.026 -14.137  1.00  0.00     0.007 C 
ATOM     17  C   UNL     1      23.986 -24.217 -13.176  1.00  0.00     0.012 C 
ATOM     18  C   UNL     1      23.842 -21.151 -11.498  1.00  0.00     0.000 C 
ATOM     19  C   UNL     1      22.627 -20.645 -13.719  1.00  0.00     0.005 C 
ATOM     20  C   UNL     1      23.501 -20.070 -12.583  1.00  0.00     0.003 C 
ATOM     21  C   UNL     1      23.881 -20.607 -10.061  1.00  0.00     0.031 C 
ATOM     22  C   UNL     1      23.055 -18.643 -12.053  1.00  0.00    -0.008 C 
ATOM     23  C   UNL     1      24.363 -19.192  -9.989  1.00  0.00    -0.027 C 
ATOM     24  C   UNL     1      23.874 -18.252 -10.822  1.00  0.00    -0.065 C 
ATOM     25  C   UNL     1      21.562 -18.571 -11.623  1.00  0.00     0.014 C 
ATOM     26  C   UNL     1      23.311 -17.619 -13.198  1.00  0.00     0.016 C 
ATOM     27  C   UNL     1      23.617 -16.880 -10.234  1.00  0.00     0.063 C 
ATOM     28  C   UNL     1      21.187 -17.214 -10.971  1.00  0.00     0.033 C 
ATOM     29  C   UNL     1      22.132 -16.800  -9.818  1.00  0.00     0.118 C 
BRANCH  29  30
ATOM     30  O   UNL     1      21.894 -17.630  -8.709  1.00  0.00    -0.393 OA
ATOM     31  H   UNL     1      22.436 -17.270  -7.959  1.00  0.00     0.210 HD
ENDBRANCH  29  30
ENDBRANCH   9  11
ENDBRANCH   1   9
TORSDOF 7
ENDMDL
MODEL 9
REMARK VINA RESULT:    -7.480      3.293      4.919
REMARK INTER + INTRA:         -11.578
REMARK INTER:                 -10.058
REMARK INTRA:                  -1.520
REMARK UNBOUND:                -1.256
REMARK SMILES CC[C@H](CC[C@@H](C)[C@H]1CC[C@@H]2[C@@H]3CC=C4C[C@H](O)CC[C@]4(C)[C@@H]3CC[C@@]21C)C(C)C
REMARK SMILES IDX 5 1 4 2 3 3 2 4 1 5 28 6 29 7 30 8 6 9 7 10 8 11 9 12 26 13
REMARK SMILES IDX 10 14 11 15 25 16 27 17 12 18 24 19 23 20 13 21 21 22 14 23
REMARK SMILES IDX 15 24 20 25 22 26 16 27 19 28 17 29 18 30
REMARK H PARENT 18 31
REMARK Flexibility Score: inf
ROOT
ATOM      1  C   UNL     1      20.541 -26.239 -12.662  1.00  0.00     0.004 C 
ENDROOT
BRANCH   1   2
ATOM      2  C   UNL     1      21.597 -27.332 -12.403  1.00  0.00     0.004 C 
BRANCH   2   3
ATOM      3  C   UNL     1      21.709 -27.793 -10.924  1.00  0.00    -0.009 C 
BRANCH   3   4
ATOM      4  C   UNL     1      20.604 -27.135 -10.049  1.00  0.00     0.000 C 
ATOM      5  C   UNL     1      21.157 -26.365  -8.849  1.00  0.00     0.004 C 
ENDBRANCH   3   4
BRANCH   3   6
ATOM      6  C   UNL     1      21.855 -29.355 -10.800  1.00  0.00    -0.014 C 
ATOM      7  C   UNL     1      22.254 -30.076 -12.099  1.00  0.00     0.007 C 
ATOM      8  C   UNL     1      20.593 -30.002 -10.206  1.00  0.00     0.007 C 
ENDBRANCH   3   6
ENDBRANCH   2   3
ENDBRANCH   1   2
BRANCH   1   9
ATOM      9  C   UNL     1      21.048 -25.137 -13.650  1.00  0.00    -0.011 C 
ATOM     10  C   UNL     1      19.985 -24.962 -14.755  1.00  0.00     0.008 C 
BRANCH   9  11
ATOM     11  C   UNL     1      21.345 -23.770 -12.930  1.00  0.00    -0.002 C 
ATOM     12  C   UNL     1      20.952 -23.750 -11.452  1.00  0.00     0.005 C 
ATOM     13  C   UNL     1      22.825 -23.218 -12.949  1.00  0.00    -0.026 C 
ATOM     14  C   UNL     1      21.651 -22.536 -10.884  1.00  0.00     0.005 C 
ATOM     15  C   UNL     1      23.031 -22.562 -11.537  1.00  0.00    -0.001 C 
ATOM     16  C   UNL     1      22.995 -22.175 -14.096  1.00  0.00     0.007 C 
ATOM     17  C   UNL     1      23.897 -24.329 -13.108  1.00  0.00     0.012 C 
ATOM     18  C   UNL     1      23.820 -21.210 -11.526  1.00  0.00     0.000 C 
ATOM     19  C   UNL     1      22.489 -20.783 -13.698  1.00  0.00     0.005 C 
ATOM     20  C   UNL     1      23.416 -20.167 -12.628  1.00  0.00     0.003 C 
ATOM     21  C   UNL     1      23.929 -20.618 -10.112  1.00  0.00     0.031 C 
ATOM     22  C   UNL     1      22.988 -18.726 -12.123  1.00  0.00    -0.008 C 
ATOM     23  C   UNL     1      24.404 -19.199 -10.112  1.00  0.00    -0.027 C 
ATOM     24  C   UNL     1      23.867 -18.289 -10.949  1.00  0.00    -0.065 C 
ATOM     25  C   UNL     1      21.519 -18.646 -11.619  1.00  0.00     0.014 C 
ATOM     26  C   UNL     1      23.179 -17.739 -13.313  1.00  0.00     0.016 C 
ATOM     27  C   UNL     1      23.632 -16.900 -10.394  1.00  0.00     0.063 C 
ATOM     28  C   UNL     1      21.169 -17.270 -10.994  1.00  0.00     0.033 C 
ATOM     29  C   UNL     1      22.170 -16.814  -9.906  1.00  0.00     0.118 C 
BRANCH  29  30
ATOM     30  O   UNL     1      21.995 -17.607  -8.759  1.00  0.00    -0.393 OA
ATOM     31  H   UNL     1      21.016 -17.714  -8.630  1.00  0.00     0.210 HD
ENDBRANCH  29  30
ENDBRANCH   9  11
ENDBRANCH   1   9
TORSDOF 7
ENDMDL
