MODEL 1
REMARK VINA RESULT:    23.839      0.000      0.000
REMARK INTER + INTRA:          40.773
REMARK INTER:                  32.898
REMARK INTRA:                   7.875
REMARK UNBOUND:                 7.875
REMARK SMILES CC[C@@H](CC[C@@H](C)[C@@H]1CC[C@@H]2[C@H]3CC=C4C[C@@H](O)CC[C@@]4(C)[C@@H]3CC[C@]21C)C(C)C
REMARK SMILES IDX 5 1 4 2 3 3 2 4 1 5 28 6 29 7 30 8 6 9 7 10 8 11 9 12 26 13
REMARK SMILES IDX 10 14 11 15 25 16 27 17 12 18 24 19 23 20 13 21 21 22 14 23
REMARK SMILES IDX 15 24 20 25 22 26 16 27 19 28 17 29 18 30
REMARK H PARENT 18 31
REMARK Flexibility Score: inf
ROOT
ATOM      1  C   UNL     1     -19.633 -14.499 -11.226  1.00  0.00     0.004 C 
ENDROOT
BRANCH   1   2
ATOM      2  C   UNL     1     -21.067 -13.938 -11.332  1.00  0.00     0.004 C 
BRANCH   2   3
ATOM      3  C   UNL     1     -21.775 -13.876  -9.943  1.00  0.00    -0.009 C 
BRANCH   3   4
ATOM      4  C   UNL     1     -20.769 -14.069  -8.777  1.00  0.00     0.000 C 
ATOM      5  C   UNL     1     -21.402 -13.876  -7.399  1.00  0.00     0.004 C 
ENDBRANCH   3   4
BRANCH   3   6
ATOM      6  C   UNL     1     -22.969 -14.876  -9.812  1.00  0.00    -0.014 C 
ATOM      7  C   UNL     1     -22.525 -16.332 -10.034  1.00  0.00     0.007 C 
ATOM      8  C   UNL     1     -23.747 -14.743  -8.490  1.00  0.00     0.007 C 
ENDBRANCH   3   6
ENDBRANCH   2   3
ENDBRANCH   1   2
BRANCH   1   9
ATOM      9  C   UNL     1     -18.864 -14.580 -12.571  1.00  0.00    -0.011 C 
ATOM     10  C   UNL     1     -17.561 -15.390 -12.408  1.00  0.00     0.008 C 
BRANCH   9  11
ATOM     11  C   UNL     1     -19.790 -15.000 -13.771  1.00  0.00    -0.002 C 
ATOM     12  C   UNL     1     -20.292 -13.875 -14.715  1.00  0.00     0.005 C 
ATOM     13  C   UNL     1     -21.076 -15.795 -13.420  1.00  0.00    -0.026 C 
ATOM     14  C   UNL     1     -21.630 -14.365 -15.300  1.00  0.00     0.005 C 
ATOM     15  C   UNL     1     -21.769 -15.795 -14.789  1.00  0.00    -0.001 C 
ATOM     16  C   UNL     1     -20.837 -17.270 -13.022  1.00  0.00     0.007 C 
ATOM     17  C   UNL     1     -21.900 -15.061 -12.314  1.00  0.00     0.012 C 
ATOM     18  C   UNL     1     -23.170 -16.444 -14.760  1.00  0.00     0.000 C 
ATOM     19  C   UNL     1     -22.166 -18.059 -12.976  1.00  0.00     0.005 C 
ATOM     20  C   UNL     1     -23.028 -17.922 -14.277  1.00  0.00     0.003 C 
ATOM     21  C   UNL     1     -23.794 -16.429 -16.162  1.00  0.00     0.031 C 
ATOM     22  C   UNL     1     -24.432 -18.638 -14.197  1.00  0.00    -0.008 C 
ATOM     23  C   UNL     1     -25.019 -17.292 -16.264  1.00  0.00    -0.027 C 
ATOM     24  C   UNL     1     -25.250 -18.362 -15.470  1.00  0.00    -0.065 C 
ATOM     25  C   UNL     1     -24.205 -20.177 -14.068  1.00  0.00     0.014 C 
ATOM     26  C   UNL     1     -25.255 -18.138 -12.978  1.00  0.00     0.016 C 
ATOM     27  C   UNL     1     -26.478 -19.209 -15.751  1.00  0.00     0.063 C 
ATOM     28  C   UNL     1     -25.478 -21.014 -14.265  1.00  0.00     0.033 C 
ATOM     29  C   UNL     1     -26.180 -20.710 -15.596  1.00  0.00     0.118 C 
BRANCH  29  30
ATOM     30  O   UNL     1     -25.445 -21.210 -16.687  1.00  0.00    -0.393 OA
ATOM     31  H   UNL     1     -25.834 -20.842 -17.522  1.00  0.00     0.210 HD
ENDBRANCH  29  30
ENDBRANCH   9  11
ENDBRANCH   1   9
TORSDOF 7
ENDMDL
MODEL 2
REMARK VINA RESULT:    24.993      2.622      4.970
REMARK INTER + INTRA:          42.364
REMARK INTER:                  41.136
REMARK INTRA:                   1.228
REMARK UNBOUND:                 7.875
REMARK SMILES CC[C@@H](CC[C@@H](C)[C@@H]1CC[C@@H]2[C@H]3CC=C4C[C@@H](O)CC[C@@]4(C)[C@@H]3CC[C@]21C)C(C)C
REMARK SMILES IDX 5 1 4 2 3 3 2 4 1 5 28 6 29 7 30 8 6 9 7 10 8 11 9 12 26 13
REMARK SMILES IDX 10 14 11 15 25 16 27 17 12 18 24 19 23 20 13 21 21 22 14 23
REMARK SMILES IDX 15 24 20 25 22 26 16 27 19 28 17 29 18 30
REMARK H PARENT 18 31
REMARK Flexibility Score: inf
ROOT
ATOM      1  C   UNL     1     -16.988 -16.626 -13.366  1.00  0.00     0.004 C 
ENDROOT
BRANCH   1   2
ATOM      2  C   UNL     1     -17.608 -17.559 -14.429  1.00  0.00     0.004 C 
BRANCH   2   3
ATOM      3  C   UNL     1     -16.796 -17.546 -15.762  1.00  0.00    -0.009 C 
BRANCH   3   4
ATOM      4  C   UNL     1     -17.688 -17.161 -16.973  1.00  0.00     0.000 C 
ATOM      5  C   UNL     1     -17.388 -17.984 -18.225  1.00  0.00     0.004 C 
ENDBRANCH   3   4
BRANCH   3   6
ATOM      6  C   UNL     1     -16.041 -18.886 -16.038  1.00  0.00    -0.014 C 
ATOM      7  C   UNL     1     -17.008 -20.024 -16.408  1.00  0.00     0.007 C 
ATOM      8  C   UNL     1     -14.924 -18.763 -17.090  1.00  0.00     0.007 C 
ENDBRANCH   3   6
ENDBRANCH   2   3
ENDBRANCH   1   2
BRANCH   1   9
ATOM      9  C   UNL     1     -17.910 -15.467 -12.901  1.00  0.00    -0.011 C 
ATOM     10  C   UNL     1     -17.091 -14.182 -12.660  1.00  0.00     0.008 C 
BRANCH   9  11
ATOM     11  C   UNL     1     -19.186 -15.310 -13.807  1.00  0.00    -0.002 C 
ATOM     12  C   UNL     1     -19.741 -13.876 -14.018  1.00  0.00     0.005 C 
ATOM     13  C   UNL     1     -20.436 -16.140 -13.409  1.00  0.00    -0.026 C 
ATOM     14  C   UNL     1     -21.250 -14.031 -14.290  1.00  0.00     0.005 C 
ATOM     15  C   UNL     1     -21.470 -15.538 -14.369  1.00  0.00    -0.001 C 
ATOM     16  C   UNL     1     -20.336 -17.650 -13.725  1.00  0.00     0.007 C 
ATOM     17  C   UNL     1     -20.793 -15.922 -11.905  1.00  0.00     0.012 C 
ATOM     18  C   UNL     1     -22.894 -16.096 -14.156  1.00  0.00     0.000 C 
ATOM     19  C   UNL     1     -21.709 -18.345 -13.574  1.00  0.00     0.005 C 
ATOM     20  C   UNL     1     -22.863 -17.642 -14.367  1.00  0.00     0.003 C 
ATOM     21  C   UNL     1     -23.870 -15.467 -15.159  1.00  0.00     0.031 C 
ATOM     22  C   UNL     1     -24.287 -18.282 -14.134  1.00  0.00    -0.008 C 
ATOM     23  C   UNL     1     -25.197 -16.169 -15.198  1.00  0.00    -0.027 C 
ATOM     24  C   UNL     1     -25.369 -17.467 -14.863  1.00  0.00    -0.065 C 
ATOM     25  C   UNL     1     -24.283 -19.736 -14.703  1.00  0.00     0.014 C 
ATOM     26  C   UNL     1     -24.649 -18.324 -12.624  1.00  0.00     0.016 C 
ATOM     27  C   UNL     1     -26.747 -18.078 -15.049  1.00  0.00     0.063 C 
ATOM     28  C   UNL     1     -25.679 -20.373 -14.798  1.00  0.00     0.033 C 
ATOM     29  C   UNL     1     -26.662 -19.511 -15.602  1.00  0.00     0.118 C 
BRANCH  29  30
ATOM     30  O   UNL     1     -26.347 -19.520 -16.974  1.00  0.00    -0.393 OA
ATOM     31  H   UNL     1     -26.829 -20.274 -17.401  1.00  0.00     0.210 HD
ENDBRANCH  29  30
ENDBRANCH   9  11
ENDBRANCH   1   9
TORSDOF 7
ENDMDL
MODEL 3
REMARK VINA RESULT:    26.687      3.206      7.093
REMARK INTER + INTRA:          44.702
REMARK INTER:                  43.988
REMARK INTRA:                   0.713
REMARK UNBOUND:                 7.875
REMARK SMILES CC[C@@H](CC[C@@H](C)[C@@H]1CC[C@@H]2[C@H]3CC=C4C[C@@H](O)CC[C@@]4(C)[C@@H]3CC[C@]21C)C(C)C
REMARK SMILES IDX 5 1 4 2 3 3 2 4 1 5 28 6 29 7 30 8 6 9 7 10 8 11 9 12 26 13
REMARK SMILES IDX 10 14 11 15 25 16 27 17 12 18 24 19 23 20 13 21 21 22 14 23
REMARK SMILES IDX 15 24 20 25 22 26 16 27 19 28 17 29 18 30
REMARK H PARENT 18 31
REMARK Flexibility Score: inf
ROOT
ATOM      1  C   UNL     1     -26.237 -19.062 -13.604  1.00  0.00     0.004 C 
ENDROOT
BRANCH   1   2
ATOM      2  C   UNL     1     -25.187 -19.212 -12.482  1.00  0.00     0.004 C 
BRANCH   2   3
ATOM      3  C   UNL     1     -25.360 -20.548 -11.695  1.00  0.00    -0.009 C 
BRANCH   3   4
ATOM      4  C   UNL     1     -26.663 -21.288 -12.099  1.00  0.00     0.000 C 
ATOM      5  C   UNL     1     -26.714 -21.646 -13.584  1.00  0.00     0.004 C 
ENDBRANCH   3   4
BRANCH   3   6
ATOM      6  C   UNL     1     -25.289 -20.364 -10.144  1.00  0.00    -0.014 C 
ATOM      7  C   UNL     1     -24.354 -21.393  -9.486  1.00  0.00     0.007 C 
ATOM      8  C   UNL     1     -24.915 -18.936  -9.705  1.00  0.00     0.007 C 
ENDBRANCH   3   6
ENDBRANCH   2   3
ENDBRANCH   1   2
BRANCH   1   9
ATOM      9  C   UNL     1     -26.007 -17.856 -14.553  1.00  0.00    -0.011 C 
ATOM     10  C   UNL     1     -27.349 -17.336 -15.109  1.00  0.00     0.008 C 
BRANCH   9  11
ATOM     11  C   UNL     1     -25.053 -16.772 -13.931  1.00  0.00    -0.002 C 
ATOM     12  C   UNL     1     -25.360 -15.284 -14.247  1.00  0.00     0.005 C 
ATOM     13  C   UNL     1     -23.538 -16.913 -14.235  1.00  0.00    -0.026 C 
ATOM     14  C   UNL     1     -24.016 -14.536 -14.162  1.00  0.00     0.005 C 
ATOM     15  C   UNL     1     -23.027 -15.585 -13.663  1.00  0.00    -0.001 C 
ATOM     16  C   UNL     1     -22.827 -18.051 -13.467  1.00  0.00     0.007 C 
ATOM     17  C   UNL     1     -23.288 -17.057 -15.771  1.00  0.00     0.012 C 
ATOM     18  C   UNL     1     -21.518 -15.361 -13.900  1.00  0.00     0.000 C 
ATOM     19  C   UNL     1     -21.290 -17.940 -13.596  1.00  0.00     0.005 C 
ATOM     20  C   UNL     1     -20.726 -16.526 -13.229  1.00  0.00     0.003 C 
ATOM     21  C   UNL     1     -21.074 -14.026 -13.286  1.00  0.00     0.031 C 
ATOM     22  C   UNL     1     -19.173 -16.373 -13.460  1.00  0.00    -0.008 C 
ATOM     23  C   UNL     1     -19.580 -13.881 -13.229  1.00  0.00    -0.027 C 
ATOM     24  C   UNL     1     -18.726 -14.928 -13.176  1.00  0.00    -0.065 C 
ATOM     25  C   UNL     1     -18.422 -17.333 -12.483  1.00  0.00     0.014 C 
ATOM     26  C   UNL     1     -18.780 -16.721 -14.922  1.00  0.00     0.016 C 
ATOM     27  C   UNL     1     -17.245 -14.636 -13.015  1.00  0.00     0.063 C 
ATOM     28  C   UNL     1     -16.908 -17.082 -12.402  1.00  0.00     0.033 C 
ATOM     29  C   UNL     1     -16.573 -15.626 -12.048  1.00  0.00     0.118 C 
BRANCH  29  30
ATOM     30  O   UNL     1     -16.892 -15.340 -10.707  1.00  0.00    -0.393 OA
ATOM     31  H   UNL     1     -16.052 -15.325 -10.181  1.00  0.00     0.210 HD
ENDBRANCH  29  30
ENDBRANCH   9  11
ENDBRANCH   1   9
TORSDOF 7
ENDMDL
