MODEL 1
REMARK VINA RESULT:    -5.610      0.000      0.000
REMARK INTER + INTRA:          -9.696
REMARK INTER:                  -7.742
REMARK INTRA:                  -1.954
REMARK UNBOUND:                -1.954
REMARK SMILES CC[C@@H](CC[C@H](C)[C@H]1CC[C@H]2[C@H]3CC=C4C[C@H](O)CC[C@@]4(C)[C@H]3CC[C@]12C)C(C)C
REMARK SMILES IDX 5 1 4 2 3 3 2 4 1 5 28 6 29 7 30 8 6 9 7 10 8 11 9 12 26 13
REMARK SMILES IDX 10 14 11 15 25 16 27 17 12 18 24 19 23 20 13 21 21 22 14 23
REMARK SMILES IDX 15 24 20 25 22 26 16 27 19 28 17 29 18 30
REMARK H PARENT 18 31
REMARK Flexibility Score: inf
ROOT
ATOM      1  C   UNL     1      -0.830  32.020  42.384  1.00  0.00     0.004 C 
ENDROOT
BRANCH   1   2
ATOM      2  C   UNL     1       0.132  31.077  41.626  1.00  0.00     0.004 C 
BRANCH   2   3
ATOM      3  C   UNL     1      -0.411  29.623  41.438  1.00  0.00    -0.009 C 
BRANCH   3   4
ATOM      4  C   UNL     1      -1.649  29.345  42.337  1.00  0.00     0.000 C 
ATOM      5  C   UNL     1      -1.317  28.535  43.590  1.00  0.00     0.004 C 
ENDBRANCH   3   4
BRANCH   3   6
ATOM      6  C   UNL     1       0.728  28.573  41.662  1.00  0.00    -0.014 C 
ATOM      7  C   UNL     1       2.131  29.173  41.464  1.00  0.00     0.007 C 
ATOM      8  C   UNL     1       0.563  27.306  40.805  1.00  0.00     0.007 C 
ENDBRANCH   3   6
ENDBRANCH   2   3
ENDBRANCH   1   2
BRANCH   1   9
ATOM      9  C   UNL     1      -0.181  32.987  43.417  1.00  0.00    -0.011 C 
ATOM     10  C   UNL     1      -0.199  34.435  42.878  1.00  0.00     0.008 C 
BRANCH   9  11
ATOM     11  C   UNL     1       1.294  32.568  43.764  1.00  0.00    -0.002 C 
ATOM     12  C   UNL     1       2.227  33.806  43.934  1.00  0.00     0.005 C 
ATOM     13  C   UNL     1       1.589  31.714  45.049  1.00  0.00    -0.026 C 
ATOM     14  C   UNL     1       3.333  33.426  44.930  1.00  0.00     0.005 C 
ATOM     15  C   UNL     1       3.117  31.942  45.137  1.00  0.00    -0.001 C 
ATOM     16  C   UNL     1       1.383  30.181  44.920  1.00  0.00     0.007 C 
ATOM     17  C   UNL     1       0.770  32.269  46.257  1.00  0.00     0.012 C 
ATOM     18  C   UNL     1       3.905  31.209  46.248  1.00  0.00     0.000 C 
ATOM     19  C   UNL     1       2.094  29.389  46.051  1.00  0.00     0.005 C 
ATOM     20  C   UNL     1       3.621  29.681  46.150  1.00  0.00     0.003 C 
ATOM     21  C   UNL     1       3.739  31.787  47.665  1.00  0.00     0.031 C 
ATOM     22  C   UNL     1       4.421  28.865  47.248  1.00  0.00    -0.008 C 
ATOM     23  C   UNL     1       4.207  30.871  48.760  1.00  0.00    -0.027 C 
ATOM     24  C   UNL     1       4.384  29.542  48.622  1.00  0.00    -0.065 C 
ATOM     25  C   UNL     1       3.868  27.409  47.385  1.00  0.00     0.014 C 
ATOM     26  C   UNL     1       5.908  28.786  46.802  1.00  0.00     0.016 C 
ATOM     27  C   UNL     1       4.858  28.756  49.834  1.00  0.00     0.063 C 
ATOM     28  C   UNL     1       4.482  26.616  48.547  1.00  0.00     0.033 C 
ATOM     29  C   UNL     1       4.253  27.350  49.875  1.00  0.00     0.118 C 
BRANCH  29  30
ATOM     30  O   UNL     1       4.840  26.628  50.925  1.00  0.00    -0.393 OA
ATOM     31  H   UNL     1       5.237  25.810  50.525  1.00  0.00     0.210 HD
ENDBRANCH  29  30
ENDBRANCH   9  11
ENDBRANCH   1   9
TORSDOF 7
ENDMDL
MODEL 2
REMARK VINA RESULT:    -5.311      4.551      7.217
REMARK INTER + INTRA:          -9.283
REMARK INTER:                  -6.897
REMARK INTRA:                  -2.386
REMARK UNBOUND:                -1.954
REMARK SMILES CC[C@@H](CC[C@H](C)[C@H]1CC[C@H]2[C@H]3CC=C4C[C@H](O)CC[C@@]4(C)[C@H]3CC[C@]12C)C(C)C
REMARK SMILES IDX 5 1 4 2 3 3 2 4 1 5 28 6 29 7 30 8 6 9 7 10 8 11 9 12 26 13
REMARK SMILES IDX 10 14 11 15 25 16 27 17 12 18 24 19 23 20 13 21 21 22 14 23
REMARK SMILES IDX 15 24 20 25 22 26 16 27 19 28 17 29 18 30
REMARK H PARENT 18 31
REMARK Flexibility Score: inf
ROOT
ATOM      1  C   UNL     1      -6.091  36.706  44.484  1.00  0.00     0.004 C 
ENDROOT
BRANCH   1   2
ATOM      2  C   UNL     1      -7.232  35.784  43.996  1.00  0.00     0.004 C 
BRANCH   2   3
ATOM      3  C   UNL     1      -7.587  34.624  44.983  1.00  0.00    -0.009 C 
BRANCH   3   4
ATOM      4  C   UNL     1      -6.632  34.594  46.210  1.00  0.00     0.000 C 
ATOM      5  C   UNL     1      -7.364  34.695  47.549  1.00  0.00     0.004 C 
ENDBRANCH   3   4
BRANCH   3   6
ATOM      6  C   UNL     1      -7.627  33.251  44.233  1.00  0.00    -0.014 C 
ATOM      7  C   UNL     1      -6.469  32.323  44.638  1.00  0.00     0.007 C 
ATOM      8  C   UNL     1      -7.682  33.398  42.702  1.00  0.00     0.007 C 
ENDBRANCH   3   6
ENDBRANCH   2   3
ENDBRANCH   1   2
BRANCH   1   9
ATOM      9  C   UNL     1      -4.741  36.605  43.714  1.00  0.00    -0.011 C 
ATOM     10  C   UNL     1      -4.752  37.550  42.492  1.00  0.00     0.008 C 
BRANCH   9  11
ATOM     11  C   UNL     1      -4.444  35.134  43.246  1.00  0.00    -0.002 C 
ATOM     12  C   UNL     1      -4.405  35.014  41.692  1.00  0.00     0.005 C 
ATOM     13  C   UNL     1      -3.122  34.415  43.696  1.00  0.00    -0.026 C 
ATOM     14  C   UNL     1      -3.444  33.871  41.334  1.00  0.00     0.005 C 
ATOM     15  C   UNL     1      -3.129  33.251  42.677  1.00  0.00    -0.001 C 
ATOM     16  C   UNL     1      -3.138  33.764  45.105  1.00  0.00     0.007 C 
ATOM     17  C   UNL     1      -1.913  35.395  43.569  1.00  0.00     0.012 C 
ATOM     18  C   UNL     1      -2.013  32.184  42.777  1.00  0.00     0.000 C 
ATOM     19  C   UNL     1      -1.996  32.729  45.294  1.00  0.00     0.005 C 
ATOM     20  C   UNL     1      -1.995  31.600  44.221  1.00  0.00     0.003 C 
ATOM     21  C   UNL     1      -0.631  32.625  42.262  1.00  0.00     0.031 C 
ATOM     22  C   UNL     1      -0.888  30.478  44.385  1.00  0.00    -0.008 C 
ATOM     23  C   UNL     1       0.497  31.728  42.688  1.00  0.00    -0.027 C 
ATOM     24  C   UNL     1       0.438  30.863  43.721  1.00  0.00    -0.065 C 
ATOM     25  C   UNL     1      -0.626  30.157  45.892  1.00  0.00     0.014 C 
ATOM     26  C   UNL     1      -1.404  29.186  43.690  1.00  0.00     0.016 C 
ATOM     27  C   UNL     1       1.674  30.031  44.024  1.00  0.00     0.063 C 
ATOM     28  C   UNL     1       0.552  29.203  46.131  1.00  0.00     0.033 C 
ATOM     29  C   UNL     1       1.839  29.782  45.527  1.00  0.00     0.118 C 
BRANCH  29  30
ATOM     30  O   UNL     1       2.904  28.890  45.729  1.00  0.00    -0.393 OA
ATOM     31  H   UNL     1       2.529  28.098  46.196  1.00  0.00     0.210 HD
ENDBRANCH  29  30
ENDBRANCH   9  11
ENDBRANCH   1   9
TORSDOF 7
ENDMDL
MODEL 3
REMARK VINA RESULT:    -5.280      4.969      8.082
REMARK INTER + INTRA:          -9.241
REMARK INTER:                  -7.517
REMARK INTRA:                  -1.724
REMARK UNBOUND:                -1.954
REMARK SMILES CC[C@@H](CC[C@H](C)[C@H]1CC[C@H]2[C@H]3CC=C4C[C@H](O)CC[C@@]4(C)[C@H]3CC[C@]12C)C(C)C
REMARK SMILES IDX 5 1 4 2 3 3 2 4 1 5 28 6 29 7 30 8 6 9 7 10 8 11 9 12 26 13
REMARK SMILES IDX 10 14 11 15 25 16 27 17 12 18 24 19 23 20 13 21 21 22 14 23
REMARK SMILES IDX 15 24 20 25 22 26 16 27 19 28 17 29 18 30
REMARK H PARENT 18 31
REMARK Flexibility Score: inf
ROOT
ATOM      1  C   UNL     1      -5.192  37.613  44.248  1.00  0.00     0.004 C 
ENDROOT
BRANCH   1   2
ATOM      2  C   UNL     1      -6.637  38.011  43.870  1.00  0.00     0.004 C 
BRANCH   2   3
ATOM      3  C   UNL     1      -7.737  37.063  44.449  1.00  0.00    -0.009 C 
BRANCH   3   4
ATOM      4  C   UNL     1      -8.531  37.735  45.605  1.00  0.00     0.000 C 
ATOM      5  C   UNL     1      -8.141  39.195  45.839  1.00  0.00     0.004 C 
ENDBRANCH   3   4
BRANCH   3   6
ATOM      6  C   UNL     1      -7.116  35.693  44.880  1.00  0.00    -0.014 C 
ATOM      7  C   UNL     1      -7.391  34.573  43.861  1.00  0.00     0.007 C 
ATOM      8  C   UNL     1      -7.546  35.248  46.289  1.00  0.00     0.007 C 
ENDBRANCH   3   6
ENDBRANCH   2   3
ENDBRANCH   1   2
BRANCH   1   9
ATOM      9  C   UNL     1      -4.210  37.358  43.067  1.00  0.00    -0.011 C 
ATOM     10  C   UNL     1      -4.624  38.199  41.838  1.00  0.00     0.008 C 
BRANCH   9  11
ATOM     11  C   UNL     1      -4.151  35.837  42.674  1.00  0.00    -0.002 C 
ATOM     12  C   UNL     1      -3.938  35.639  41.142  1.00  0.00     0.005 C 
ATOM     13  C   UNL     1      -3.066  34.899  43.314  1.00  0.00    -0.026 C 
ATOM     14  C   UNL     1      -3.183  34.316  40.941  1.00  0.00     0.005 C 
ATOM     15  C   UNL     1      -3.172  33.711  42.328  1.00  0.00    -0.001 C 
ATOM     16  C   UNL     1      -3.391  34.330  44.720  1.00  0.00     0.007 C 
ATOM     17  C   UNL     1      -1.681  35.621  43.330  1.00  0.00     0.012 C 
ATOM     18  C   UNL     1      -2.310  32.455  42.600  1.00  0.00     0.000 C 
ATOM     19  C   UNL     1      -2.509  33.104  45.084  1.00  0.00     0.005 C 
ATOM     20  C   UNL     1      -2.593  31.947  44.045  1.00  0.00     0.003 C 
ATOM     21  C   UNL     1      -0.814  32.597  42.267  1.00  0.00     0.031 C 
ATOM     22  C   UNL     1      -1.759  30.642  44.380  1.00  0.00    -0.008 C 
ATOM     23  C   UNL     1       0.051  31.521  42.860  1.00  0.00    -0.027 C 
ATOM     24  C   UNL     1      -0.310  30.733  43.894  1.00  0.00    -0.065 C 
ATOM     25  C   UNL     1      -1.761  30.349  45.915  1.00  0.00     0.014 C 
ATOM     26  C   UNL     1      -2.426  29.442  43.649  1.00  0.00     0.016 C 
ATOM     27  C   UNL     1       0.689  29.693  44.379  1.00  0.00     0.063 C 
ATOM     28  C   UNL     1      -0.835  29.198  46.331  1.00  0.00     0.033 C 
ATOM     29  C   UNL     1       0.608  29.489  45.894  1.00  0.00     0.118 C 
BRANCH  29  30
ATOM     30  O   UNL     1       1.440  28.419  46.257  1.00  0.00    -0.393 OA
ATOM     31  H   UNL     1       0.913  27.588  46.125  1.00  0.00     0.210 HD
ENDBRANCH  29  30
ENDBRANCH   9  11
ENDBRANCH   1   9
TORSDOF 7
ENDMDL
MODEL 4
REMARK VINA RESULT:    -5.137      5.743      9.276
REMARK INTER + INTRA:          -9.044
REMARK INTER:                  -7.075
REMARK INTRA:                  -1.969
REMARK UNBOUND:                -1.954
REMARK SMILES CC[C@@H](CC[C@H](C)[C@H]1CC[C@H]2[C@H]3CC=C4C[C@H](O)CC[C@@]4(C)[C@H]3CC[C@]12C)C(C)C
REMARK SMILES IDX 5 1 4 2 3 3 2 4 1 5 28 6 29 7 30 8 6 9 7 10 8 11 9 12 26 13
REMARK SMILES IDX 10 14 11 15 25 16 27 17 12 18 24 19 23 20 13 21 21 22 14 23
REMARK SMILES IDX 15 24 20 25 22 26 16 27 19 28 17 29 18 30
REMARK H PARENT 18 31
REMARK Flexibility Score: inf
ROOT
ATOM      1  C   UNL     1       0.182  31.699  44.382  1.00  0.00     0.004 C 
ENDROOT
BRANCH   1   2
ATOM      2  C   UNL     1       0.466  30.389  43.612  1.00  0.00     0.004 C 
BRANCH   2   3
ATOM      3  C   UNL     1      -0.345  30.235  42.285  1.00  0.00    -0.009 C 
BRANCH   3   4
ATOM      4  C   UNL     1      -1.554  29.271  42.451  1.00  0.00     0.000 C 
ATOM      5  C   UNL     1      -1.556  28.528  43.787  1.00  0.00     0.004 C 
ENDBRANCH   3   4
BRANCH   3   6
ATOM      6  C   UNL     1       0.595  29.806  41.109  1.00  0.00    -0.014 C 
ATOM      7  C   UNL     1       0.083  28.557  40.370  1.00  0.00     0.007 C 
ATOM      8  C   UNL     1       2.058  29.607  41.542  1.00  0.00     0.007 C 
ENDBRANCH   3   6
ENDBRANCH   2   3
ENDBRANCH   1   2
BRANCH   1   9
ATOM      9  C   UNL     1      -0.370  32.890  43.544  1.00  0.00    -0.011 C 
ATOM     10  C   UNL     1       0.705  33.993  43.413  1.00  0.00     0.008 C 
BRANCH   9  11
ATOM     11  C   UNL     1      -1.676  33.493  44.176  1.00  0.00    -0.002 C 
ATOM     12  C   UNL     1      -1.835  35.010  43.849  1.00  0.00     0.005 C 
ATOM     13  C   UNL     1      -3.081  32.895  43.805  1.00  0.00    -0.026 C 
ATOM     14  C   UNL     1      -3.338  35.327  43.818  1.00  0.00     0.005 C 
ATOM     15  C   UNL     1      -3.972  34.050  44.322  1.00  0.00    -0.001 C 
ATOM     16  C   UNL     1      -3.516  31.625  44.582  1.00  0.00     0.007 C 
ATOM     17  C   UNL     1      -3.161  32.639  42.266  1.00  0.00     0.012 C 
ATOM     18  C   UNL     1      -5.508  33.882  44.240  1.00  0.00     0.000 C 
ATOM     19  C   UNL     1      -5.043  31.361  44.483  1.00  0.00     0.005 C 
ATOM     20  C   UNL     1      -5.915  32.561  44.958  1.00  0.00     0.003 C 
ATOM     21  C   UNL     1      -6.115  34.044  42.835  1.00  0.00     0.031 C 
ATOM     22  C   UNL     1      -7.484  32.341  44.935  1.00  0.00    -0.008 C 
ATOM     23  C   UNL     1      -7.523  33.534  42.713  1.00  0.00    -0.027 C 
ATOM     24  C   UNL     1      -8.099  32.666  43.570  1.00  0.00    -0.065 C 
ATOM     25  C   UNL     1      -7.854  30.872  45.321  1.00  0.00     0.014 C 
ATOM     26  C   UNL     1      -8.121  33.300  45.979  1.00  0.00     0.016 C 
ATOM     27  C   UNL     1      -9.535  32.244  43.299  1.00  0.00     0.063 C 
ATOM     28  C   UNL     1      -9.344  30.541  45.155  1.00  0.00     0.033 C 
ATOM     29  C   UNL     1      -9.788  30.789  43.706  1.00  0.00     0.118 C 
BRANCH  29  30
ATOM     30  O   UNL     1     -11.156  30.507  43.573  1.00  0.00    -0.393 OA
ATOM     31  H   UNL     1     -11.225  29.586  43.207  1.00  0.00     0.210 HD
ENDBRANCH  29  30
ENDBRANCH   9  11
ENDBRANCH   1   9
TORSDOF 7
ENDMDL
MODEL 5
REMARK VINA RESULT:    -5.120     14.835     17.288
REMARK INTER + INTRA:          -9.020
REMARK INTER:                  -7.445
REMARK INTRA:                  -1.574
REMARK UNBOUND:                -1.954
REMARK SMILES CC[C@@H](CC[C@H](C)[C@H]1CC[C@H]2[C@H]3CC=C4C[C@H](O)CC[C@@]4(C)[C@H]3CC[C@]12C)C(C)C
REMARK SMILES IDX 5 1 4 2 3 3 2 4 1 5 28 6 29 7 30 8 6 9 7 10 8 11 9 12 26 13
REMARK SMILES IDX 10 14 11 15 25 16 27 17 12 18 24 19 23 20 13 21 21 22 14 23
REMARK SMILES IDX 15 24 20 25 22 26 16 27 19 28 17 29 18 30
REMARK H PARENT 18 31
REMARK Flexibility Score: inf
ROOT
ATOM      1  C   UNL     1      -7.360  27.400  57.314  1.00  0.00     0.004 C 
ENDROOT
BRANCH   1   2
ATOM      2  C   UNL     1      -8.054  26.965  56.003  1.00  0.00     0.004 C 
BRANCH   2   3
ATOM      3  C   UNL     1      -7.114  26.236  54.990  1.00  0.00    -0.009 C 
BRANCH   3   4
ATOM      4  C   UNL     1      -6.796  27.123  53.752  1.00  0.00     0.000 C 
ATOM      5  C   UNL     1      -7.730  28.325  53.613  1.00  0.00     0.004 C 
ENDBRANCH   3   4
BRANCH   3   6
ATOM      6  C   UNL     1      -7.708  24.847  54.583  1.00  0.00    -0.014 C 
ATOM      7  C   UNL     1      -9.228  24.900  54.350  1.00  0.00     0.007 C 
ATOM      8  C   UNL     1      -7.360  23.724  55.576  1.00  0.00     0.007 C 
ENDBRANCH   3   6
ENDBRANCH   2   3
ENDBRANCH   1   2
BRANCH   1   9
ATOM      9  C   UNL     1      -6.532  28.718  57.256  1.00  0.00    -0.011 C 
ATOM     10  C   UNL     1      -5.156  28.514  57.930  1.00  0.00     0.008 C 
BRANCH   9  11
ATOM     11  C   UNL     1      -7.288  29.913  57.943  1.00  0.00    -0.002 C 
ATOM     12  C   UNL     1      -6.310  30.861  58.703  1.00  0.00     0.005 C 
ATOM     13  C   UNL     1      -8.149  30.902  57.078  1.00  0.00    -0.026 C 
ATOM     14  C   UNL     1      -6.918  32.271  58.689  1.00  0.00     0.005 C 
ATOM     15  C   UNL     1      -8.298  32.047  58.109  1.00  0.00    -0.001 C 
ATOM     16  C   UNL     1      -9.588  30.438  56.729  1.00  0.00     0.007 C 
ATOM     17  C   UNL     1      -7.375  31.284  55.776  1.00  0.00     0.012 C 
ATOM     18  C   UNL     1      -9.167  33.268  57.726  1.00  0.00     0.000 C 
ATOM     19  C   UNL     1     -10.496  31.611  56.270  1.00  0.00     0.005 C 
ATOM     20  C   UNL     1     -10.582  32.773  57.304  1.00  0.00     0.003 C 
ATOM     21  C   UNL     1      -8.523  34.250  56.730  1.00  0.00     0.031 C 
ATOM     22  C   UNL     1     -11.535  33.981  56.923  1.00  0.00    -0.008 C 
ATOM     23  C   UNL     1      -9.493  35.213  56.105  1.00  0.00    -0.027 C 
ATOM     24  C   UNL     1     -10.829  35.035  56.066  1.00  0.00    -0.065 C 
ATOM     25  C   UNL     1     -12.807  33.480  56.165  1.00  0.00     0.014 C 
ATOM     26  C   UNL     1     -11.988  34.672  58.240  1.00  0.00     0.016 C 
ATOM     27  C   UNL     1     -11.670  36.106  55.387  1.00  0.00     0.063 C 
ATOM     28  C   UNL     1     -13.691  34.609  55.618  1.00  0.00     0.033 C 
ATOM     29  C   UNL     1     -12.884  35.508  54.671  1.00  0.00     0.118 C 
BRANCH  29  30
ATOM     30  O   UNL     1     -13.695  36.550  54.196  1.00  0.00    -0.393 OA
ATOM     31  H   UNL     1     -13.767  36.432  53.212  1.00  0.00     0.210 HD
ENDBRANCH  29  30
ENDBRANCH   9  11
ENDBRANCH   1   9
TORSDOF 7
ENDMDL
MODEL 6
REMARK VINA RESULT:    -5.084     10.391     13.811
REMARK INTER + INTRA:          -8.970
REMARK INTER:                  -7.773
REMARK INTRA:                  -1.197
REMARK UNBOUND:                -1.954
REMARK SMILES CC[C@@H](CC[C@H](C)[C@H]1CC[C@H]2[C@H]3CC=C4C[C@H](O)CC[C@@]4(C)[C@H]3CC[C@]12C)C(C)C
REMARK SMILES IDX 5 1 4 2 3 3 2 4 1 5 28 6 29 7 30 8 6 9 7 10 8 11 9 12 26 13
REMARK SMILES IDX 10 14 11 15 25 16 27 17 12 18 24 19 23 20 13 21 21 22 14 23
REMARK SMILES IDX 15 24 20 25 22 26 16 27 19 28 17 29 18 30
REMARK H PARENT 18 31
REMARK Flexibility Score: inf
ROOT
ATOM      1  C   UNL     1      -7.607  35.396  45.964  1.00  0.00     0.004 C 
ENDROOT
BRANCH   1   2
ATOM      2  C   UNL     1      -8.068  36.616  45.134  1.00  0.00     0.004 C 
BRANCH   2   3
ATOM      3  C   UNL     1      -7.157  37.877  45.285  1.00  0.00    -0.009 C 
BRANCH   3   4
ATOM      4  C   UNL     1      -7.949  39.103  45.824  1.00  0.00     0.000 C 
ATOM      5  C   UNL     1      -7.352  39.694  47.101  1.00  0.00     0.004 C 
ENDBRANCH   3   4
BRANCH   3   6
ATOM      6  C   UNL     1      -6.422  38.195  43.940  1.00  0.00    -0.014 C 
ATOM      7  C   UNL     1      -4.906  37.953  44.024  1.00  0.00     0.007 C 
ATOM      8  C   UNL     1      -6.708  39.612  43.413  1.00  0.00     0.007 C 
ENDBRANCH   3   6
ENDBRANCH   2   3
ENDBRANCH   1   2
BRANCH   1   9
ATOM      9  C   UNL     1      -7.203  34.124  45.163  1.00  0.00    -0.011 C 
ATOM     10  C   UNL     1      -6.027  34.443  44.212  1.00  0.00     0.008 C 
BRANCH   9  11
ATOM     11  C   UNL     1      -8.410  33.545  44.339  1.00  0.00    -0.002 C 
ATOM     12  C   UNL     1      -8.128  33.558  42.805  1.00  0.00     0.005 C 
ATOM     13  C   UNL     1      -8.913  32.080  44.601  1.00  0.00    -0.026 C 
ATOM     14  C   UNL     1      -8.909  32.395  42.175  1.00  0.00     0.005 C 
ATOM     15  C   UNL     1      -9.760  31.890  43.319  1.00  0.00    -0.001 C 
ATOM     16  C   UNL     1      -9.882  31.888  45.798  1.00  0.00     0.007 C 
ATOM     17  C   UNL     1      -7.693  31.114  44.733  1.00  0.00     0.012 C 
ATOM     18  C   UNL     1     -10.549  30.569  43.153  1.00  0.00     0.000 C 
ATOM     19  C   UNL     1     -10.657  30.544  45.725  1.00  0.00     0.005 C 
ATOM     20  C   UNL     1     -11.455  30.357  44.401  1.00  0.00     0.003 C 
ATOM     21  C   UNL     1      -9.704  29.339  42.775  1.00  0.00     0.031 C 
ATOM     22  C   UNL     1     -12.314  29.030  44.282  1.00  0.00    -0.008 C 
ATOM     23  C   UNL     1     -10.411  28.027  42.967  1.00  0.00    -0.027 C 
ATOM     24  C   UNL     1     -11.497  27.851  43.746  1.00  0.00    -0.065 C 
ATOM     25  C   UNL     1     -12.934  28.633  45.661  1.00  0.00     0.014 C 
ATOM     26  C   UNL     1     -13.473  29.293  43.279  1.00  0.00     0.016 C 
ATOM     27  C   UNL     1     -12.088  26.453  43.837  1.00  0.00     0.063 C 
ATOM     28  C   UNL     1     -13.637  27.268  45.658  1.00  0.00     0.033 C 
ATOM     29  C   UNL     1     -12.660  26.165  45.228  1.00  0.00     0.118 C 
BRANCH  29  30
ATOM     30  O   UNL     1     -13.321  24.927  45.204  1.00  0.00    -0.393 OA
ATOM     31  H   UNL     1     -13.226  24.534  46.112  1.00  0.00     0.210 HD
ENDBRANCH  29  30
ENDBRANCH   9  11
ENDBRANCH   1   9
TORSDOF 7
ENDMDL
MODEL 7
REMARK VINA RESULT:    -5.040      5.398      8.361
REMARK INTER + INTRA:          -8.909
REMARK INTER:                  -6.484
REMARK INTRA:                  -2.425
REMARK UNBOUND:                -1.954
REMARK SMILES CC[C@@H](CC[C@H](C)[C@H]1CC[C@H]2[C@H]3CC=C4C[C@H](O)CC[C@@]4(C)[C@H]3CC[C@]12C)C(C)C
REMARK SMILES IDX 5 1 4 2 3 3 2 4 1 5 28 6 29 7 30 8 6 9 7 10 8 11 9 12 26 13
REMARK SMILES IDX 10 14 11 15 25 16 27 17 12 18 24 19 23 20 13 21 21 22 14 23
REMARK SMILES IDX 15 24 20 25 22 26 16 27 19 28 17 29 18 30
REMARK H PARENT 18 31
REMARK Flexibility Score: inf
ROOT
ATOM      1  C   UNL     1      -7.956  34.214  44.511  1.00  0.00     0.004 C 
ENDROOT
BRANCH   1   2
ATOM      2  C   UNL     1      -7.050  35.157  43.688  1.00  0.00     0.004 C 
BRANCH   2   3
ATOM      3  C   UNL     1      -6.933  36.603  44.269  1.00  0.00    -0.009 C 
BRANCH   3   4
ATOM      4  C   UNL     1      -5.451  37.019  44.498  1.00  0.00     0.000 C 
ATOM      5  C   UNL     1      -4.465  36.246  43.622  1.00  0.00     0.004 C 
ENDBRANCH   3   4
BRANCH   3   6
ATOM      6  C   UNL     1      -7.793  36.750  45.568  1.00  0.00    -0.014 C 
ATOM      7  C   UNL     1      -8.799  37.911  45.482  1.00  0.00     0.007 C 
ATOM      8  C   UNL     1      -6.946  36.872  46.847  1.00  0.00     0.007 C 
ENDBRANCH   3   6
ENDBRANCH   2   3
ENDBRANCH   1   2
BRANCH   1   9
ATOM      9  C   UNL     1      -7.234  33.163  45.404  1.00  0.00    -0.011 C 
ATOM     10  C   UNL     1      -7.862  33.141  46.816  1.00  0.00     0.008 C 
BRANCH   9  11
ATOM     11  C   UNL     1      -5.692  33.448  45.512  1.00  0.00    -0.002 C 
ATOM     12  C   UNL     1      -5.231  33.606  46.994  1.00  0.00     0.005 C 
ATOM     13  C   UNL     1      -4.657  32.426  44.920  1.00  0.00    -0.026 C 
ATOM     14  C   UNL     1      -3.768  33.149  47.080  1.00  0.00     0.005 C 
ATOM     15  C   UNL     1      -3.384  32.942  45.632  1.00  0.00    -0.001 C 
ATOM     16  C   UNL     1      -4.380  32.532  43.397  1.00  0.00     0.007 C 
ATOM     17  C   UNL     1      -5.076  30.968  45.292  1.00  0.00     0.012 C 
ATOM     18  C   UNL     1      -2.033  32.268  45.294  1.00  0.00     0.000 C 
ATOM     19  C   UNL     1      -3.067  31.813  42.980  1.00  0.00     0.005 C 
ATOM     20  C   UNL     1      -1.811  32.315  43.753  1.00  0.00     0.003 C 
ATOM     21  C   UNL     1      -1.816  30.876  45.916  1.00  0.00     0.031 C 
ATOM     22  C   UNL     1      -0.427  31.662  43.340  1.00  0.00    -0.008 C 
ATOM     23  C   UNL     1      -0.685  30.100  45.303  1.00  0.00    -0.027 C 
ATOM     24  C   UNL     1      -0.149  30.357  44.093  1.00  0.00    -0.065 C 
ATOM     25  C   UNL     1      -0.370  31.383  41.804  1.00  0.00     0.014 C 
ATOM     26  C   UNL     1       0.705  32.664  43.701  1.00  0.00     0.016 C 
ATOM     27  C   UNL     1       0.990  29.469  43.615  1.00  0.00     0.063 C 
ATOM     28  C   UNL     1       0.872  30.598  41.359  1.00  0.00     0.033 C 
ATOM     29  C   UNL     1       0.948  29.255  42.099  1.00  0.00     0.118 C 
BRANCH  29  30
ATOM     30  O   UNL     1       2.099  28.558  41.703  1.00  0.00    -0.393 OA
ATOM     31  H   UNL     1       2.248  28.771  40.744  1.00  0.00     0.210 HD
ENDBRANCH  29  30
ENDBRANCH   9  11
ENDBRANCH   1   9
TORSDOF 7
ENDMDL
MODEL 8
REMARK VINA RESULT:    -5.013      7.684     11.262
REMARK INTER + INTRA:          -8.872
REMARK INTER:                  -6.708
REMARK INTRA:                  -2.164
REMARK UNBOUND:                -1.954
REMARK SMILES CC[C@@H](CC[C@H](C)[C@H]1CC[C@H]2[C@H]3CC=C4C[C@H](O)CC[C@@]4(C)[C@H]3CC[C@]12C)C(C)C
REMARK SMILES IDX 5 1 4 2 3 3 2 4 1 5 28 6 29 7 30 8 6 9 7 10 8 11 9 12 26 13
REMARK SMILES IDX 10 14 11 15 25 16 27 17 12 18 24 19 23 20 13 21 21 22 14 23
REMARK SMILES IDX 15 24 20 25 22 26 16 27 19 28 17 29 18 30
REMARK H PARENT 18 31
REMARK Flexibility Score: inf
ROOT
ATOM      1  C   UNL     1      -4.763  37.315  42.651  1.00  0.00     0.004 C 
ENDROOT
BRANCH   1   2
ATOM      2  C   UNL     1      -4.366  36.046  41.863  1.00  0.00     0.004 C 
BRANCH   2   3
ATOM      3  C   UNL     1      -2.832  35.743  41.863  1.00  0.00    -0.009 C 
BRANCH   3   4
ATOM      4  C   UNL     1      -2.166  36.121  40.509  1.00  0.00     0.000 C 
ATOM      5  C   UNL     1      -1.389  34.967  39.875  1.00  0.00     0.004 C 
ENDBRANCH   3   4
BRANCH   3   6
ATOM      6  C   UNL     1      -2.562  34.253  42.258  1.00  0.00    -0.014 C 
ATOM      7  C   UNL     1      -3.819  33.375  42.145  1.00  0.00     0.007 C 
ATOM      8  C   UNL     1      -1.928  34.101  43.651  1.00  0.00     0.007 C 
ENDBRANCH   3   6
ENDBRANCH   2   3
ENDBRANCH   1   2
BRANCH   1   9
ATOM      9  C   UNL     1      -5.240  37.100  44.117  1.00  0.00    -0.011 C 
ATOM     10  C   UNL     1      -4.300  37.836  45.098  1.00  0.00     0.008 C 
BRANCH   9  11
ATOM     11  C   UNL     1      -5.309  35.574  44.491  1.00  0.00    -0.002 C 
ATOM     12  C   UNL     1      -4.699  35.291  45.898  1.00  0.00     0.005 C 
ATOM     13  C   UNL     1      -6.696  34.838  44.545  1.00  0.00    -0.026 C 
ATOM     14  C   UNL     1      -5.419  34.067  46.483  1.00  0.00     0.005 C 
ATOM     15  C   UNL     1      -6.261  33.575  45.327  1.00  0.00    -0.001 C 
ATOM     16  C   UNL     1      -7.263  34.339  43.190  1.00  0.00     0.007 C 
ATOM     17  C   UNL     1      -7.747  35.734  45.273  1.00  0.00     0.012 C 
ATOM     18  C   UNL     1      -7.313  32.467  45.572  1.00  0.00     0.000 C 
ATOM     19  C   UNL     1      -8.376  33.270  43.368  1.00  0.00     0.005 C 
ATOM     20  C   UNL     1      -7.926  32.037  44.206  1.00  0.00     0.003 C 
ATOM     21  C   UNL     1      -8.358  32.778  46.658  1.00  0.00     0.031 C 
ATOM     22  C   UNL     1      -8.996  30.881  44.383  1.00  0.00    -0.008 C 
ATOM     23  C   UNL     1      -9.557  31.873  46.633  1.00  0.00    -0.027 C 
ATOM     24  C   UNL     1      -9.928  31.125  45.574  1.00  0.00    -0.065 C 
ATOM     25  C   UNL     1      -9.859  30.707  43.092  1.00  0.00     0.014 C 
ATOM     26  C   UNL     1      -8.233  29.553  44.648  1.00  0.00     0.016 C 
ATOM     27  C   UNL     1     -11.175  30.265  45.712  1.00  0.00     0.063 C 
ATOM     28  C   UNL     1     -11.026  29.723  43.250  1.00  0.00     0.033 C 
ATOM     29  C   UNL     1     -11.948  30.167  44.394  1.00  0.00     0.118 C 
BRANCH  29  30
ATOM     30  O   UNL     1     -12.996  29.246  44.545  1.00  0.00    -0.393 OA
ATOM     31  H   UNL     1     -13.264  29.271  45.502  1.00  0.00     0.210 HD
ENDBRANCH  29  30
ENDBRANCH   9  11
ENDBRANCH   1   9
TORSDOF 7
ENDMDL
MODEL 9
REMARK VINA RESULT:    -4.993     13.663     15.849
REMARK INTER + INTRA:          -8.844
REMARK INTER:                  -6.816
REMARK INTRA:                  -2.028
REMARK UNBOUND:                -1.954
REMARK SMILES CC[C@@H](CC[C@H](C)[C@H]1CC[C@H]2[C@H]3CC=C4C[C@H](O)CC[C@@]4(C)[C@H]3CC[C@]12C)C(C)C
REMARK SMILES IDX 5 1 4 2 3 3 2 4 1 5 28 6 29 7 30 8 6 9 7 10 8 11 9 12 26 13
REMARK SMILES IDX 10 14 11 15 25 16 27 17 12 18 24 19 23 20 13 21 21 22 14 23
REMARK SMILES IDX 15 24 20 25 22 26 16 27 19 28 17 29 18 30
REMARK H PARENT 18 31
REMARK Flexibility Score: inf
ROOT
ATOM      1  C   UNL     1      -9.187  32.196  56.460  1.00  0.00     0.004 C 
ENDROOT
BRANCH   1   2
ATOM      2  C   UNL     1     -10.642  31.993  55.981  1.00  0.00     0.004 C 
BRANCH   2   3
ATOM      3  C   UNL     1     -11.527  31.150  56.955  1.00  0.00    -0.009 C 
BRANCH   3   4
ATOM      4  C   UNL     1     -12.475  30.183  56.188  1.00  0.00     0.000 C 
ATOM      5  C   UNL     1     -12.087  29.993  54.721  1.00  0.00     0.004 C 
ENDBRANCH   3   4
BRANCH   3   6
ATOM      6  C   UNL     1     -12.308  32.081  57.941  1.00  0.00    -0.014 C 
ATOM      7  C   UNL     1     -11.667  32.130  59.339  1.00  0.00     0.007 C 
ATOM      8  C   UNL     1     -13.802  31.731  58.052  1.00  0.00     0.007 C 
ENDBRANCH   3   6
ENDBRANCH   2   3
ENDBRANCH   1   2
BRANCH   1   9
ATOM      9  C   UNL     1      -8.619  31.118  57.430  1.00  0.00    -0.011 C 
ATOM     10  C   UNL     1      -8.001  31.794  58.675  1.00  0.00     0.008 C 
BRANCH   9  11
ATOM     11  C   UNL     1      -7.545  30.209  56.730  1.00  0.00    -0.002 C 
ATOM     12  C   UNL     1      -6.653  29.458  57.765  1.00  0.00     0.005 C 
ATOM     13  C   UNL     1      -7.996  29.070  55.747  1.00  0.00    -0.026 C 
ATOM     14  C   UNL     1      -6.201  28.138  57.123  1.00  0.00     0.005 C 
ATOM     15  C   UNL     1      -6.672  28.270  55.691  1.00  0.00    -0.001 C 
ATOM     16  C   UNL     1      -8.309  29.501  54.290  1.00  0.00     0.007 C 
ATOM     17  C   UNL     1      -9.209  28.294  56.353  1.00  0.00     0.012 C 
ATOM     18  C   UNL     1      -6.597  27.044  54.751  1.00  0.00     0.000 C 
ATOM     19  C   UNL     1      -8.316  28.301  53.304  1.00  0.00     0.005 C 
ATOM     20  C   UNL     1      -6.991  27.482  53.310  1.00  0.00     0.003 C 
ATOM     21  C   UNL     1      -7.334  25.786  55.247  1.00  0.00     0.031 C 
ATOM     22  C   UNL     1      -6.909  26.274  52.287  1.00  0.00    -0.008 C 
ATOM     23  C   UNL     1      -7.553  24.745  54.186  1.00  0.00    -0.027 C 
ATOM     24  C   UNL     1      -7.500  24.982  52.860  1.00  0.00    -0.065 C 
ATOM     25  C   UNL     1      -7.639  26.616  50.948  1.00  0.00     0.014 C 
ATOM     26  C   UNL     1      -5.409  26.007  51.975  1.00  0.00     0.016 C 
ATOM     27  C   UNL     1      -7.752  23.816  51.918  1.00  0.00     0.063 C 
ATOM     28  C   UNL     1      -7.746  25.432  49.977  1.00  0.00     0.033 C 
ATOM     29  C   UNL     1      -8.477  24.259  50.644  1.00  0.00     0.118 C 
BRANCH  29  30
ATOM     30  O   UNL     1      -8.547  23.174  49.755  1.00  0.00    -0.393 OA
ATOM     31  H   UNL     1      -7.724  23.206  49.199  1.00  0.00     0.210 HD
ENDBRANCH  29  30
ENDBRANCH   9  11
ENDBRANCH   1   9
TORSDOF 7
ENDMDL
