MODEL 1
REMARK VINA RESULT:    -7.541      0.000      0.000
REMARK INTER + INTRA:          -7.981
REMARK INTER:                  -7.981
REMARK INTRA:                   0.000
REMARK UNBOUND:                 0.000
REMARK SMILES C[C@H]1CC[C@H]2[N@H+](C1)C[C@H]1[C@H]3C[C@H]4[C@H](CC(=O)[C@@H]5C[C@@H](O)CC[C@]54C)[C@@H]3CC[C@H]1[C@@]2(C)O
REMARK SMILES IDX 5 1 6 2 8 3 7 4 4 5 29 6 3 7 28 8 30 9 2 10 27 11 9 12 1 13
REMARK SMILES IDX 26 14 10 15 25 16 11 17 13 18 12 19 14 20 23 21 15 22 17 23
REMARK SMILES IDX 22 24 24 25 16 26 18 27 21 28 19 29 31 31 20 33
REMARK H PARENT 6 30 31 32 20 34
REMARK Flexibility Score: inf
ROOT
ATOM      1  C   UNL     1      -7.011  -1.393  -5.109  1.00  0.00     0.216 C 
ATOM      2  N   UNL     1      -6.988  -2.661  -5.891  1.00  0.00    -0.330 N 
ATOM      3  C   UNL     1      -5.889  -3.567  -5.446  1.00  0.00     0.266 C 
ATOM      4  C   UNL     1      -8.261  -3.423  -5.798  1.00  0.00     0.265 C 
ATOM      5  C   UNL     1      -8.290  -0.548  -5.398  1.00  0.00     0.069 C 
ATOM      6  C   UNL     1      -5.709  -0.537  -5.385  1.00  0.00     0.117 C 
ATOM      7  C   UNL     1      -9.560  -1.373  -5.270  1.00  0.00     0.015 C 
ATOM      8  C   UNL     1      -4.425  -1.442  -5.558  1.00  0.00     0.036 C 
ATOM      9  C   UNL     1      -5.489   0.425  -4.183  1.00  0.00     0.049 C 
ATOM     10  C   UNL     1      -9.473  -2.578  -6.205  1.00  0.00     0.041 C 
ATOM     11  C   UNL     1      -3.891  -1.555  -7.026  1.00  0.00     0.007 C 
ATOM     12  C   UNL     1      -4.627  -2.838  -4.912  1.00  0.00     0.054 C 
ATOM     13  C   UNL     1     -10.760  -3.407  -6.139  1.00  0.00     0.013 C 
ATOM     14  C   UNL     1      -2.608  -2.414  -7.125  1.00  0.00     0.004 C 
ATOM     15  C   UNL     1      -3.316  -3.645  -5.053  1.00  0.00     0.002 C 
ATOM     16  C   UNL     1      -2.885  -3.788  -6.507  1.00  0.00    -0.004 C 
ATOM     17  C   UNL     1      -3.244  -5.054  -4.463  1.00  0.00     0.009 C 
ATOM     18  C   UNL     1      -1.772  -4.839  -6.458  1.00  0.00     0.003 C 
ATOM     19  C   UNL     1      -2.386  -5.876  -5.466  1.00  0.00    -0.000 C 
ATOM     20  C   UNL     1      -0.396  -4.250  -6.028  1.00  0.00     0.080 C 
ATOM     21  C   UNL     1      -1.352  -6.893  -4.860  1.00  0.00    -0.020 C 
ATOM     22  C   UNL     1       0.468  -5.257  -5.334  1.00  0.00     0.136 C 
ATOM     23  C   UNL     1      -0.155  -6.104  -4.255  1.00  0.00     0.065 C 
ATOM     24  C   UNL     1      -2.012  -7.767  -3.750  1.00  0.00     0.010 C 
ATOM     25  C   UNL     1      -0.893  -7.835  -6.016  1.00  0.00     0.012 C 
ATOM     26  O   UNL     1       1.650  -5.362  -5.627  1.00  0.00    -0.299 OA
ATOM     27  C   UNL     1       0.857  -7.016  -3.524  1.00  0.00     0.043 C 
ATOM     28  C   UNL     1      -1.000  -8.666  -3.017  1.00  0.00     0.032 C 
ATOM     29  C   UNL     1       0.174  -7.860  -2.436  1.00  0.00     0.115 C 
ATOM     30  H   UNL     1      -6.837  -2.420  -6.899  1.00  0.00     0.348 HD
ENDROOT
BRANCH   6  31
ATOM     31  O   UNL     1      -5.911   0.232  -6.550  1.00  0.00    -0.384 OA
ATOM     32  H   UNL     1      -5.297  -0.096  -7.258  1.00  0.00     0.211 HD
ENDBRANCH   6  31
BRANCH  29  33
ATOM     33  O   UNL     1      -0.278  -7.023  -1.400  1.00  0.00    -0.393 OA
ATOM     34  H   UNL     1      -0.439  -6.131  -1.802  1.00  0.00     0.210 HD
ENDBRANCH  29  33
TORSDOF 2
ENDMDL
MODEL 2
REMARK VINA RESULT:    -6.411      2.427      8.551
REMARK INTER + INTRA:          -6.786
REMARK INTER:                  -6.786
REMARK INTRA:                   0.000
REMARK UNBOUND:                 0.000
REMARK SMILES C[C@H]1CC[C@H]2[N@H+](C1)C[C@H]1[C@H]3C[C@H]4[C@H](CC(=O)[C@@H]5C[C@@H](O)CC[C@]54C)[C@@H]3CC[C@H]1[C@@]2(C)O
REMARK SMILES IDX 5 1 6 2 8 3 7 4 4 5 29 6 3 7 28 8 30 9 2 10 27 11 9 12 1 13
REMARK SMILES IDX 26 14 10 15 25 16 11 17 13 18 12 19 14 20 23 21 15 22 17 23
REMARK SMILES IDX 22 24 24 25 16 26 18 27 21 28 19 29 31 31 20 33
REMARK H PARENT 6 30 31 32 20 34
REMARK Flexibility Score: inf
ROOT
ATOM      1  C   UNL     1       0.160  -6.546  -4.165  1.00  0.00     0.216 C 
ATOM      2  N   UNL     1      -0.100  -5.951  -5.505  1.00  0.00    -0.330 N 
ATOM      3  C   UNL     1      -1.011  -4.772  -5.420  1.00  0.00     0.266 C 
ATOM      4  C   UNL     1       1.141  -5.508  -6.194  1.00  0.00     0.265 C 
ATOM      5  C   UNL     1       1.291  -7.621  -4.209  1.00  0.00     0.069 C 
ATOM      6  C   UNL     1      -1.163  -7.163  -3.554  1.00  0.00     0.117 C 
ATOM      7  C   UNL     1       2.540  -7.106  -4.907  1.00  0.00     0.015 C 
ATOM      8  C   UNL     1      -2.439  -6.297  -3.901  1.00  0.00     0.036 C 
ATOM      9  C   UNL     1      -1.007  -7.233  -2.010  1.00  0.00     0.049 C 
ATOM     10  C   UNL     1       2.172  -6.636  -6.312  1.00  0.00     0.041 C 
ATOM     11  C   UNL     1      -3.395  -6.929  -4.969  1.00  0.00     0.007 C 
ATOM     12  C   UNL     1      -2.050  -4.841  -4.269  1.00  0.00     0.054 C 
ATOM     13  C   UNL     1       3.417  -6.156  -7.065  1.00  0.00     0.013 C 
ATOM     14  C   UNL     1      -4.647  -6.060  -5.231  1.00  0.00     0.004 C 
ATOM     15  C   UNL     1      -3.342  -4.032  -4.527  1.00  0.00     0.002 C 
ATOM     16  C   UNL     1      -4.196  -4.651  -5.626  1.00  0.00    -0.004 C 
ATOM     17  C   UNL     1      -3.232  -2.548  -4.878  1.00  0.00     0.009 C 
ATOM     18  C   UNL     1      -5.241  -3.573  -5.929  1.00  0.00     0.003 C 
ATOM     19  C   UNL     1      -4.355  -2.288  -5.922  1.00  0.00    -0.000 C 
ATOM     20  C   UNL     1      -6.421  -3.566  -4.912  1.00  0.00     0.080 C 
ATOM     21  C   UNL     1      -5.156  -0.941  -5.794  1.00  0.00    -0.020 C 
ATOM     22  C   UNL     1      -7.033  -2.209  -4.752  1.00  0.00     0.136 C 
ATOM     23  C   UNL     1      -6.112  -1.031  -4.570  1.00  0.00     0.065 C 
ATOM     24  C   UNL     1      -4.190   0.269  -5.612  1.00  0.00     0.010 C 
ATOM     25  C   UNL     1      -5.946  -0.741  -7.125  1.00  0.00     0.012 C 
ATOM     26  O   UNL     1      -8.249  -2.076  -4.749  1.00  0.00    -0.299 OA
ATOM     27  C   UNL     1      -6.853   0.296  -4.289  1.00  0.00     0.043 C 
ATOM     28  C   UNL     1      -4.930   1.586  -5.322  1.00  0.00     0.032 C 
ATOM     29  C   UNL     1      -5.871   1.466  -4.112  1.00  0.00     0.115 C 
ATOM     30  H   UNL     1      -0.550  -6.682  -6.105  1.00  0.00     0.348 HD
ENDROOT
BRANCH   6  31
ATOM     31  O   UNL     1      -1.326  -8.472  -4.054  1.00  0.00    -0.384 OA
ATOM     32  H   UNL     1      -1.661  -9.054  -3.323  1.00  0.00     0.211 HD
ENDBRANCH   6  31
BRANCH  29  33
ATOM     33  O   UNL     1      -5.126   1.284  -2.933  1.00  0.00    -0.393 OA
ATOM     34  H   UNL     1      -4.751   0.367  -2.969  1.00  0.00     0.210 HD
ENDBRANCH  29  33
TORSDOF 2
ENDMDL
MODEL 3
REMARK VINA RESULT:    -6.244      3.962     10.068
REMARK INTER + INTRA:          -6.609
REMARK INTER:                  -6.609
REMARK INTRA:                   0.000
REMARK UNBOUND:                 0.000
REMARK SMILES C[C@H]1CC[C@H]2[N@H+](C1)C[C@H]1[C@H]3C[C@H]4[C@H](CC(=O)[C@@H]5C[C@@H](O)CC[C@]54C)[C@@H]3CC[C@H]1[C@@]2(C)O
REMARK SMILES IDX 5 1 6 2 8 3 7 4 4 5 29 6 3 7 28 8 30 9 2 10 27 11 9 12 1 13
REMARK SMILES IDX 26 14 10 15 25 16 11 17 13 18 12 19 14 20 23 21 15 22 17 23
REMARK SMILES IDX 22 24 24 25 16 26 18 27 21 28 19 29 31 31 20 33
REMARK H PARENT 6 30 31 32 20 34
REMARK Flexibility Score: inf
ROOT
ATOM      1  C   UNL     1       4.000  -7.592  -0.770  1.00  0.00     0.216 C 
ATOM      2  N   UNL     1       3.807  -8.088  -2.162  1.00  0.00    -0.330 N 
ATOM      3  C   UNL     1       2.782  -7.290  -2.897  1.00  0.00     0.266 C 
ATOM      4  C   UNL     1       5.057  -8.059  -2.966  1.00  0.00     0.265 C 
ATOM      5  C   UNL     1       5.228  -8.257  -0.075  1.00  0.00     0.069 C 
ATOM      6  C   UNL     1       2.692  -7.812   0.094  1.00  0.00     0.117 C 
ATOM      7  C   UNL     1       6.480  -8.181  -0.934  1.00  0.00     0.015 C 
ATOM      8  C   UNL     1       1.375  -7.580  -0.750  1.00  0.00     0.036 C 
ATOM      9  C   UNL     1       2.712  -6.809   1.281  1.00  0.00     0.049 C 
ATOM     10  C   UNL     1       6.198  -8.826  -2.289  1.00  0.00     0.041 C 
ATOM     11  C   UNL     1       0.587  -8.883  -1.113  1.00  0.00     0.007 C 
ATOM     12  C   UNL     1       1.653  -6.709  -2.003  1.00  0.00     0.054 C 
ATOM     13  C   UNL     1       7.456  -8.812  -3.166  1.00  0.00     0.013 C 
ATOM     14  C   UNL     1      -0.714  -8.590  -1.897  1.00  0.00     0.004 C 
ATOM     15  C   UNL     1       0.318  -6.461  -2.742  1.00  0.00     0.002 C 
ATOM     16  C   UNL     1      -0.368  -7.763  -3.139  1.00  0.00    -0.004 C 
ATOM     17  C   UNL     1       0.316  -5.596  -4.004  1.00  0.00     0.009 C 
ATOM     18  C   UNL     1      -1.479  -7.317  -4.092  1.00  0.00     0.003 C 
ATOM     19  C   UNL     1      -0.727  -6.254  -4.952  1.00  0.00    -0.000 C 
ATOM     20  C   UNL     1      -2.743  -6.788  -3.349  1.00  0.00     0.080 C 
ATOM     21  C   UNL     1      -1.662  -5.290  -5.768  1.00  0.00    -0.020 C 
ATOM     22  C   UNL     1      -3.496  -5.770  -4.149  1.00  0.00     0.136 C 
ATOM     23  C   UNL     1      -2.713  -4.663  -4.807  1.00  0.00     0.065 C 
ATOM     24  C   UNL     1      -0.838  -4.154  -6.448  1.00  0.00     0.010 C 
ATOM     25  C   UNL     1      -2.342  -6.138  -6.887  1.00  0.00     0.012 C 
ATOM     26  O   UNL     1      -4.713  -5.833  -4.238  1.00  0.00    -0.299 OA
ATOM     27  C   UNL     1      -3.602  -3.604  -5.497  1.00  0.00     0.043 C 
ATOM     28  C   UNL     1      -1.726  -3.095  -7.125  1.00  0.00     0.032 C 
ATOM     29  C   UNL     1      -2.757  -2.499  -6.153  1.00  0.00     0.115 C 
ATOM     30  H   UNL     1       3.486  -9.083  -2.112  1.00  0.00     0.348 HD
ENDROOT
BRANCH   6  31
ATOM     31  O   UNL     1       2.703  -9.125   0.608  1.00  0.00    -0.384 OA
ATOM     32  H   UNL     1       2.641  -9.764  -0.149  1.00  0.00     0.211 HD
ENDBRANCH   6  31
BRANCH  29  33
ATOM     33  O   UNL     1      -2.109  -1.744  -5.159  1.00  0.00    -0.393 OA
ATOM     34  H   UNL     1      -2.798  -1.499  -4.489  1.00  0.00     0.210 HD
ENDBRANCH  29  33
TORSDOF 2
ENDMDL
MODEL 4
REMARK VINA RESULT:    -5.214     13.110     16.614
REMARK INTER + INTRA:          -5.518
REMARK INTER:                  -5.518
REMARK INTRA:                   0.000
REMARK UNBOUND:                 0.000
REMARK SMILES C[C@H]1CC[C@H]2[N@H+](C1)C[C@H]1[C@H]3C[C@H]4[C@H](CC(=O)[C@@H]5C[C@@H](O)CC[C@]54C)[C@@H]3CC[C@H]1[C@@]2(C)O
REMARK SMILES IDX 5 1 6 2 8 3 7 4 4 5 29 6 3 7 28 8 30 9 2 10 27 11 9 12 1 13
REMARK SMILES IDX 26 14 10 15 25 16 11 17 13 18 12 19 14 20 23 21 15 22 17 23
REMARK SMILES IDX 22 24 24 25 16 26 18 27 21 28 19 29 31 31 20 33
REMARK H PARENT 6 30 31 32 20 34
REMARK Flexibility Score: inf
ROOT
ATOM      1  C   UNL     1       7.544   1.790  -4.725  1.00  0.00     0.216 C 
ATOM      2  N   UNL     1       8.170   2.712  -3.736  1.00  0.00    -0.330 N 
ATOM      3  C   UNL     1       7.521   4.056  -3.744  1.00  0.00     0.266 C 
ATOM      4  C   UNL     1       8.111   2.195  -2.343  1.00  0.00     0.265 C 
ATOM      5  C   UNL     1       8.049   0.323  -4.560  1.00  0.00     0.069 C 
ATOM      6  C   UNL     1       7.792   2.296  -6.204  1.00  0.00     0.117 C 
ATOM      7  C   UNL     1       7.948  -0.157  -3.121  1.00  0.00     0.015 C 
ATOM      8  C   UNL     1       7.737   3.872  -6.312  1.00  0.00     0.036 C 
ATOM      9  C   UNL     1       6.694   1.690  -7.122  1.00  0.00     0.049 C 
ATOM     10  C   UNL     1       8.726   0.797  -2.218  1.00  0.00     0.041 C 
ATOM     11  C   UNL     1       9.125   4.567  -6.520  1.00  0.00     0.007 C 
ATOM     12  C   UNL     1       6.957   4.492  -5.123  1.00  0.00     0.054 C 
ATOM     13  C   UNL     1       8.688   0.316  -0.763  1.00  0.00     0.013 C 
ATOM     14  C   UNL     1       9.002   6.102  -6.665  1.00  0.00     0.004 C 
ATOM     15  C   UNL     1       6.879   6.023  -5.325  1.00  0.00     0.002 C 
ATOM     16  C   UNL     1       8.259   6.656  -5.445  1.00  0.00    -0.004 C 
ATOM     17  C   UNL     1       6.127   6.871  -4.298  1.00  0.00     0.009 C 
ATOM     18  C   UNL     1       7.985   8.158  -5.338  1.00  0.00     0.003 C 
ATOM     19  C   UNL     1       6.942   8.189  -4.176  1.00  0.00    -0.000 C 
ATOM     20  C   UNL     1       7.496   8.785  -6.678  1.00  0.00     0.080 C 
ATOM     21  C   UNL     1       6.128   9.528  -4.062  1.00  0.00    -0.020 C 
ATOM     22  C   UNL     1       6.612   9.976  -6.467  1.00  0.00     0.136 C 
ATOM     23  C   UNL     1       5.507   9.868  -5.448  1.00  0.00     0.065 C 
ATOM     24  C   UNL     1       4.993   9.404  -3.001  1.00  0.00     0.010 C 
ATOM     25  C   UNL     1       7.120  10.638  -3.591  1.00  0.00     0.012 C 
ATOM     26  O   UNL     1       6.778  10.992  -7.125  1.00  0.00    -0.299 OA
ATOM     27  C   UNL     1       4.583  11.106  -5.405  1.00  0.00     0.043 C 
ATOM     28  C   UNL     1       4.068  10.634  -2.968  1.00  0.00     0.032 C 
ATOM     29  C   UNL     1       3.475  10.948  -4.351  1.00  0.00     0.115 C 
ATOM     30  H   UNL     1       9.180   2.825  -3.989  1.00  0.00     0.348 HD
ENDROOT
BRANCH   6  31
ATOM     31  O   UNL     1       9.052   1.832  -6.636  1.00  0.00    -0.384 OA
ATOM     32  H   UNL     1       9.745   2.487  -6.359  1.00  0.00     0.211 HD
ENDBRANCH   6  31
BRANCH  29  33
ATOM     33  O   UNL     1       2.590   9.928  -4.743  1.00  0.00    -0.393 OA
ATOM     34  H   UNL     1       2.268   9.492  -3.912  1.00  0.00     0.210 HD
ENDBRANCH  29  33
TORSDOF 2
ENDMDL
MODEL 5
REMARK VINA RESULT:    -5.178      1.096      1.340
REMARK INTER + INTRA:          -5.481
REMARK INTER:                  -5.481
REMARK INTRA:                   0.000
REMARK UNBOUND:                 0.000
REMARK SMILES C[C@H]1CC[C@H]2[N@H+](C1)C[C@H]1[C@H]3C[C@H]4[C@H](CC(=O)[C@@H]5C[C@@H](O)CC[C@]54C)[C@@H]3CC[C@H]1[C@@]2(C)O
REMARK SMILES IDX 5 1 6 2 8 3 7 4 4 5 29 6 3 7 28 8 30 9 2 10 27 11 9 12 1 13
REMARK SMILES IDX 26 14 10 15 25 16 11 17 13 18 12 19 14 20 23 21 15 22 17 23
REMARK SMILES IDX 22 24 24 25 16 26 18 27 21 28 19 29 31 31 20 33
REMARK H PARENT 6 30 31 32 20 34
REMARK Flexibility Score: inf
ROOT
ATOM      1  C   UNL     1      -5.466  -0.885  -5.085  1.00  0.00     0.216 C 
ATOM      2  N   UNL     1      -5.732  -2.259  -5.596  1.00  0.00    -0.330 N 
ATOM      3  C   UNL     1      -4.761  -3.251  -5.047  1.00  0.00     0.266 C 
ATOM      4  C   UNL     1      -7.099  -2.745  -5.272  1.00  0.00     0.265 C 
ATOM      5  C   UNL     1      -6.608   0.111  -5.457  1.00  0.00     0.069 C 
ATOM      6  C   UNL     1      -4.073  -0.347  -5.608  1.00  0.00     0.117 C 
ATOM      7  C   UNL     1      -7.980  -0.430  -5.087  1.00  0.00     0.015 C 
ATOM      8  C   UNL     1      -2.981  -1.488  -5.675  1.00  0.00     0.036 C 
ATOM      9  C   UNL     1      -3.580   0.765  -4.640  1.00  0.00     0.049 C 
ATOM     10  C   UNL     1      -8.186  -1.783  -5.765  1.00  0.00     0.041 C 
ATOM     11  C   UNL     1      -2.618  -1.969  -7.121  1.00  0.00     0.007 C 
ATOM     12  C   UNL     1      -3.350  -2.677  -4.750  1.00  0.00     0.054 C 
ATOM     13  C   UNL     1      -9.581  -2.336  -5.453  1.00  0.00     0.013 C 
ATOM     14  C   UNL     1      -1.512  -3.051  -7.125  1.00  0.00     0.004 C 
ATOM     15  C   UNL     1      -2.212  -3.723  -4.807  1.00  0.00     0.002 C 
ATOM     16  C   UNL     1      -1.953  -4.211  -6.227  1.00  0.00    -0.004 C 
ATOM     17  C   UNL     1      -2.319  -4.986  -3.952  1.00  0.00     0.009 C 
ATOM     18  C   UNL     1      -1.032  -5.420  -6.037  1.00  0.00     0.003 C 
ATOM     19  C   UNL     1      -1.711  -6.124  -4.820  1.00  0.00    -0.000 C 
ATOM     20  C   UNL     1       0.458  -5.022  -5.821  1.00  0.00     0.080 C 
ATOM     21  C   UNL     1      -0.808  -7.181  -4.088  1.00  0.00    -0.020 C 
ATOM     22  C   UNL     1       1.205  -6.022  -4.994  1.00  0.00     0.136 C 
ATOM     23  C   UNL     1       0.557  -6.525  -3.730  1.00  0.00     0.065 C 
ATOM     24  C   UNL     1      -1.494  -7.697  -2.786  1.00  0.00     0.010 C 
ATOM     25  C   UNL     1      -0.626  -8.390  -5.058  1.00  0.00     0.012 C 
ATOM     26  O   UNL     1       2.319  -6.395  -5.333  1.00  0.00    -0.299 OA
ATOM     27  C   UNL     1       1.468  -7.454  -2.895  1.00  0.00     0.043 C 
ATOM     28  C   UNL     1      -0.580  -8.612  -1.952  1.00  0.00     0.032 C 
ATOM     29  C   UNL     1       0.762  -7.940  -1.619  1.00  0.00     0.115 C 
ATOM     30  H   UNL     1      -5.641  -2.242  -6.639  1.00  0.00     0.348 HD
ENDROOT
BRANCH   6  31
ATOM     31  O   UNL     1      -4.255   0.214  -6.889  1.00  0.00    -0.384 OA
ATOM     32  H   UNL     1      -4.534  -0.505  -7.515  1.00  0.00     0.211 HD
ENDBRANCH   6  31
BRANCH  29  33
ATOM     33  O   UNL     1       0.560  -6.856  -0.746  1.00  0.00    -0.393 OA
ATOM     34  H   UNL     1      -0.098  -7.153  -0.066  1.00  0.00     0.210 HD
ENDBRANCH  29  33
TORSDOF 2
ENDMDL
MODEL 6
REMARK VINA RESULT:    -4.758      2.225      8.199
REMARK INTER + INTRA:          -5.036
REMARK INTER:                  -5.036
REMARK INTRA:                   0.000
REMARK UNBOUND:                 0.000
REMARK SMILES C[C@H]1CC[C@H]2[N@H+](C1)C[C@H]1[C@H]3C[C@H]4[C@H](CC(=O)[C@@H]5C[C@@H](O)CC[C@]54C)[C@@H]3CC[C@H]1[C@@]2(C)O
REMARK SMILES IDX 5 1 6 2 8 3 7 4 4 5 29 6 3 7 28 8 30 9 2 10 27 11 9 12 1 13
REMARK SMILES IDX 26 14 10 15 25 16 11 17 13 18 12 19 14 20 23 21 15 22 17 23
REMARK SMILES IDX 22 24 24 25 16 26 18 27 21 28 19 29 31 31 20 33
REMARK H PARENT 6 30 31 32 20 34
REMARK Flexibility Score: inf
ROOT
ATOM      1  C   UNL     1      -1.314  -7.385  -4.710  1.00  0.00     0.216 C 
ATOM      2  N   UNL     1      -1.100  -6.301  -3.710  1.00  0.00    -0.330 N 
ATOM      3  C   UNL     1      -2.210  -5.303  -3.730  1.00  0.00     0.266 C 
ATOM      4  C   UNL     1      -0.982  -6.810  -2.318  1.00  0.00     0.265 C 
ATOM      5  C   UNL     1      -0.294  -8.553  -4.536  1.00  0.00     0.069 C 
ATOM      6  C   UNL     1      -1.253  -6.814  -6.184  1.00  0.00     0.117 C 
ATOM      7  C   UNL     1      -0.229  -9.045  -3.099  1.00  0.00     0.015 C 
ATOM      8  C   UNL     1      -1.898  -5.375  -6.293  1.00  0.00     0.036 C 
ATOM      9  C   UNL     1      -2.025  -7.784  -7.121  1.00  0.00     0.049 C 
ATOM     10  C   UNL     1       0.115  -7.873  -2.182  1.00  0.00     0.041 C 
ATOM     11  C   UNL     1      -0.874  -4.205  -6.477  1.00  0.00     0.007 C 
ATOM     12  C   UNL     1      -2.875  -5.104  -5.118  1.00  0.00     0.054 C 
ATOM     13  C   UNL     1       0.238  -8.342  -0.729  1.00  0.00     0.013 C 
ATOM     14  C   UNL     1      -1.566  -2.829  -6.625  1.00  0.00     0.004 C 
ATOM     15  C   UNL     1      -3.523  -3.715  -5.322  1.00  0.00     0.002 C 
ATOM     16  C   UNL     1      -2.484  -2.606  -5.418  1.00  0.00    -0.004 C 
ATOM     17  C   UNL     1      -4.557  -3.222  -4.308  1.00  0.00     0.009 C 
ATOM     18  C   UNL     1      -3.308  -1.320  -5.316  1.00  0.00     0.003 C 
ATOM     19  C   UNL     1      -4.303  -1.694  -4.173  1.00  0.00    -0.000 C 
ATOM     20  C   UNL     1      -3.976  -0.916  -6.664  1.00  0.00     0.080 C 
ATOM     21  C   UNL     1      -5.566  -0.763  -4.073  1.00  0.00    -0.020 C 
ATOM     22  C   UNL     1      -5.248  -0.151  -6.469  1.00  0.00     0.136 C 
ATOM     23  C   UNL     1      -6.247  -0.675  -5.469  1.00  0.00     0.065 C 
ATOM     24  C   UNL     1      -6.587  -1.315  -3.031  1.00  0.00     0.010 C 
ATOM     25  C   UNL     1      -5.076   0.636  -3.584  1.00  0.00     0.012 C 
ATOM     26  O   UNL     1      -5.469   0.857  -7.124  1.00  0.00    -0.299 OA
ATOM     27  C   UNL     1      -7.571   0.121  -5.442  1.00  0.00     0.043 C 
ATOM     28  C   UNL     1      -7.909  -0.527  -3.015  1.00  0.00     0.032 C 
ATOM     29  C   UNL     1      -8.554  -0.452  -4.408  1.00  0.00     0.115 C 
ATOM     30  H   UNL     1      -0.204  -5.813  -3.946  1.00  0.00     0.348 HD
ENDROOT
BRANCH   6  31
ATOM     31  O   UNL     1       0.096  -6.763  -6.595  1.00  0.00    -0.384 OA
ATOM     32  H   UNL     1       0.597  -7.487  -6.136  1.00  0.00     0.211 HD
ENDBRANCH   6  31
BRANCH  29  33
ATOM     33  O   UNL     1      -8.981  -1.729  -4.815  1.00  0.00    -0.393 OA
ATOM     34  H   UNL     1      -9.440  -1.613  -5.687  1.00  0.00     0.210 HD
ENDBRANCH  29  33
TORSDOF 2
ENDMDL
