MODEL 1
REMARK VINA RESULT:    -5.665      0.000      0.000
REMARK INTER + INTRA:          -6.617
REMARK INTER:                  -6.659
REMARK INTRA:                   0.042
REMARK UNBOUND:                 0.042
REMARK SMILES Oc1ccc(-c2[o+]c3cc(O)cc(O)c3cc2O)cc1.[Cl-]
REMARK SMILES IDX 6 1 7 2 8 3 9 4 10 5 12 6 13 7 15 8 16 9 17 10 5 11 4 12
REMARK SMILES IDX 3 13 2 14 19 15 20 16 1 17 18 19 11 21 14 23
REMARK H PARENT 1 18 18 20 11 22 14 24
REMARK Flexibility Score: inf
ROOT
ATOM      1  C   UNL     1      15.080  17.316  30.850  1.00  0.00     0.401 A 
ATOM      2  O   UNL     1      15.296  17.654  32.118  1.00  0.00    -0.202 OA
ATOM      3  C   UNL     1      16.345  18.366  32.515  1.00  0.00     0.368 A 
ATOM      4  C   UNL     1      16.484  18.675  33.871  1.00  0.00     0.162 A 
ATOM      5  C   UNL     1      17.576  19.425  34.316  1.00  0.00     0.128 A 
ATOM      6  C   UNL     1      18.533  19.868  33.401  1.00  0.00     0.093 A 
ATOM      7  C   UNL     1      18.417  19.573  32.037  1.00  0.00     0.136 A 
ATOM      8  C   UNL     1      17.311  18.809  31.581  1.00  0.00     0.125 A 
ATOM      9  C   UNL     1      17.121  18.454  30.235  1.00  0.00     0.078 A 
ATOM     10  C   UNL     1      16.008  17.694  29.862  1.00  0.00     0.223 A 
ENDROOT
BRANCH   1  11
ATOM     11  C   UNL     1      13.867  16.528  30.532  1.00  0.00     0.084 A 
ATOM     12  C   UNL     1      13.984  15.357  29.766  1.00  0.00     0.022 A 
ATOM     13  C   UNL     1      12.856  14.585  29.471  1.00  0.00     0.047 A 
ATOM     14  C   UNL     1      11.599  14.966  29.951  1.00  0.00     0.115 A 
ATOM     15  C   UNL     1      12.603  16.895  31.027  1.00  0.00     0.022 A 
ATOM     16  C   UNL     1      11.475  16.122  30.732  1.00  0.00     0.047 A 
BRANCH  14  17
ATOM     17  O   UNL     1      10.483  14.189  29.649  1.00  0.00    -0.508 OA
ATOM     18  H   UNL     1      10.458  13.597  28.826  1.00  0.00     0.293 HD
ENDBRANCH  14  17
ENDBRANCH   1  11
BRANCH  10  19
ATOM     19  O   UNL     1      15.844  17.299  28.534  1.00  0.00    -0.500 OA
ATOM     20  H   UNL     1      14.977  16.896  28.202  1.00  0.00     0.294 HD
ENDBRANCH  10  19
BRANCH   5  21
ATOM     21  O   UNL     1      17.720  19.737  35.666  1.00  0.00    -0.507 OA
ATOM     22  H   UNL     1      18.635  19.813  36.096  1.00  0.00     0.293 HD
ENDBRANCH   5  21
BRANCH   7  23
ATOM     23  O   UNL     1      19.416  20.056  31.187  1.00  0.00    -0.507 OA
ATOM     24  H   UNL     1      20.379  20.191  31.457  1.00  0.00     0.293 HD
ENDBRANCH   7  23
TORSDOF 5
ENDMDL
MODEL 2
REMARK VINA RESULT:    -5.556      3.738      8.778
REMARK INTER + INTRA:          -6.489
REMARK INTER:                  -6.337
REMARK INTRA:                  -0.151
REMARK UNBOUND:                 0.042
REMARK SMILES Oc1ccc(-c2[o+]c3cc(O)cc(O)c3cc2O)cc1.[Cl-]
REMARK SMILES IDX 6 1 7 2 8 3 9 4 10 5 12 6 13 7 15 8 16 9 17 10 5 11 4 12
REMARK SMILES IDX 3 13 2 14 19 15 20 16 1 17 18 19 11 21 14 23
REMARK H PARENT 1 18 18 20 11 22 14 24
REMARK Flexibility Score: inf
ROOT
ATOM      1  C   UNL     1      10.611  15.471  31.696  1.00  0.00     0.401 A 
ATOM      2  O   UNL     1       9.574  15.178  30.917  1.00  0.00    -0.202 OA
ATOM      3  C   UNL     1       8.340  15.006  31.377  1.00  0.00     0.368 A 
ATOM      4  C   UNL     1       7.314  14.703  30.478  1.00  0.00     0.162 A 
ATOM      5  C   UNL     1       6.006  14.521  30.935  1.00  0.00     0.128 A 
ATOM      6  C   UNL     1       5.723  14.641  32.297  1.00  0.00     0.093 A 
ATOM      7  C   UNL     1       6.732  14.944  33.219  1.00  0.00     0.136 A 
ATOM      8  C   UNL     1       8.062  15.128  32.760  1.00  0.00     0.125 A 
ATOM      9  C   UNL     1       9.140  15.419  33.613  1.00  0.00     0.078 A 
ATOM     10  C   UNL     1      10.425  15.583  33.087  1.00  0.00     0.223 A 
ENDROOT
BRANCH   1  11
ATOM     11  C   UNL     1      11.937  15.649  31.061  1.00  0.00     0.084 A 
ATOM     12  C   UNL     1      12.477  14.611  30.285  1.00  0.00     0.022 A 
ATOM     13  C   UNL     1      13.717  14.764  29.658  1.00  0.00     0.047 A 
ATOM     14  C   UNL     1      14.426  15.962  29.786  1.00  0.00     0.115 A 
ATOM     15  C   UNL     1      12.646  16.859  31.171  1.00  0.00     0.022 A 
ATOM     16  C   UNL     1      13.887  17.011  30.542  1.00  0.00     0.047 A 
BRANCH  14  17
ATOM     17  O   UNL     1      15.662  16.102  29.157  1.00  0.00    -0.508 OA
ATOM     18  H   UNL     1      15.987  15.426  28.476  1.00  0.00     0.293 HD
ENDBRANCH  14  17
ENDBRANCH   1  11
BRANCH  10  19
ATOM     19  O   UNL     1      11.504  15.824  33.939  1.00  0.00    -0.500 OA
ATOM     20  H   UNL     1      12.109  15.076  34.256  1.00  0.00     0.294 HD
ENDBRANCH  10  19
BRANCH   5  21
ATOM     21  O   UNL     1       4.978  14.219  30.044  1.00  0.00    -0.507 OA
ATOM     22  H   UNL     1       4.531  13.309  30.040  1.00  0.00     0.293 HD
ENDBRANCH   5  21
BRANCH   7  23
ATOM     23  O   UNL     1       6.366  15.049  34.564  1.00  0.00    -0.507 OA
ATOM     24  H   UNL     1       5.429  15.241  34.886  1.00  0.00     0.293 HD
ENDBRANCH   7  23
TORSDOF 5
ENDMDL
MODEL 3
REMARK VINA RESULT:    -5.519      1.815      2.491
REMARK INTER + INTRA:          -6.446
REMARK INTER:                  -6.192
REMARK INTRA:                  -0.253
REMARK UNBOUND:                 0.042
REMARK SMILES Oc1ccc(-c2[o+]c3cc(O)cc(O)c3cc2O)cc1.[Cl-]
REMARK SMILES IDX 6 1 7 2 8 3 9 4 10 5 12 6 13 7 15 8 16 9 17 10 5 11 4 12
REMARK SMILES IDX 3 13 2 14 19 15 20 16 1 17 18 19 11 21 14 23
REMARK H PARENT 1 18 18 20 11 22 14 24
REMARK Flexibility Score: inf
ROOT
ATOM      1  C   UNL     1      14.100  16.248  30.918  1.00  0.00     0.401 A 
ATOM      2  O   UNL     1      14.735  17.107  31.710  1.00  0.00    -0.202 OA
ATOM      3  C   UNL     1      15.856  17.729  31.362  1.00  0.00     0.368 A 
ATOM      4  C   UNL     1      16.449  18.618  32.262  1.00  0.00     0.162 A 
ATOM      5  C   UNL     1      17.627  19.289  31.920  1.00  0.00     0.128 A 
ATOM      6  C   UNL     1      18.214  19.069  30.672  1.00  0.00     0.093 A 
ATOM      7  C   UNL     1      17.640  18.183  29.752  1.00  0.00     0.136 A 
ATOM      8  C   UNL     1      16.446  17.498  30.096  1.00  0.00     0.125 A 
ATOM      9  C   UNL     1      15.808  16.582  29.242  1.00  0.00     0.078 A 
ATOM     10  C   UNL     1      14.635  15.942  29.653  1.00  0.00     0.223 A 
ENDROOT
BRANCH   1  11
ATOM     11  C   UNL     1      12.852  15.626  31.418  1.00  0.00     0.084 A 
ATOM     12  C   UNL     1      12.912  14.711  32.481  1.00  0.00     0.022 A 
ATOM     13  C   UNL     1      11.745  14.128  32.984  1.00  0.00     0.047 A 
ATOM     14  C   UNL     1      10.501  14.464  32.440  1.00  0.00     0.115 A 
ATOM     15  C   UNL     1      11.596  15.974  30.888  1.00  0.00     0.022 A 
ATOM     16  C   UNL     1      10.429  15.391  31.392  1.00  0.00     0.047 A 
BRANCH  14  17
ATOM     17  O   UNL     1       9.346  13.875  32.949  1.00  0.00    -0.508 OA
ATOM     18  H   UNL     1       8.452  13.975  32.482  1.00  0.00     0.293 HD
ENDBRANCH  14  17
ENDBRANCH   1  11
BRANCH  10  19
ATOM     19  O   UNL     1      14.028  14.996  28.826  1.00  0.00    -0.500 OA
ATOM     20  H   UNL     1      14.549  14.220  28.434  1.00  0.00     0.294 HD
ENDBRANCH  10  19
BRANCH   5  21
ATOM     21  O   UNL     1      18.223  20.177  32.812  1.00  0.00    -0.507 OA
ATOM     22  H   UNL     1      17.837  20.339  33.735  1.00  0.00     0.293 HD
ENDBRANCH   5  21
BRANCH   7  23
ATOM     23  O   UNL     1      18.289  18.021  28.524  1.00  0.00    -0.507 OA
ATOM     24  H   UNL     1      19.288  17.931  28.415  1.00  0.00     0.293 HD
ENDBRANCH   7  23
TORSDOF 5
ENDMDL
MODEL 4
REMARK VINA RESULT:    -5.219      2.753      4.141
REMARK INTER + INTRA:          -6.093
REMARK INTER:                  -5.782
REMARK INTRA:                  -0.311
REMARK UNBOUND:                 0.042
REMARK SMILES Oc1ccc(-c2[o+]c3cc(O)cc(O)c3cc2O)cc1.[Cl-]
REMARK SMILES IDX 6 1 7 2 8 3 9 4 10 5 12 6 13 7 15 8 16 9 17 10 5 11 4 12
REMARK SMILES IDX 3 13 2 14 19 15 20 16 1 17 18 19 11 21 14 23
REMARK H PARENT 1 18 18 20 11 22 14 24
REMARK Flexibility Score: inf
ROOT
ATOM      1  C   UNL     1      13.004  16.106  32.343  1.00  0.00     0.401 A 
ATOM      2  O   UNL     1      13.974  16.921  32.749  1.00  0.00    -0.202 OA
ATOM      3  C   UNL     1      14.920  17.387  31.942  1.00  0.00     0.368 A 
ATOM      4  C   UNL     1      15.897  18.242  32.462  1.00  0.00     0.162 A 
ATOM      5  C   UNL     1      16.902  18.750  31.635  1.00  0.00     0.128 A 
ATOM      6  C   UNL     1      16.932  18.402  30.283  1.00  0.00     0.093 A 
ATOM      7  C   UNL     1      15.966  17.547  29.737  1.00  0.00     0.136 A 
ATOM      8  C   UNL     1      14.945  17.027  30.574  1.00  0.00     0.125 A 
ATOM      9  C   UNL     1      13.944  16.154  30.117  1.00  0.00     0.078 A 
ATOM     10  C   UNL     1      12.971  15.678  31.002  1.00  0.00     0.223 A 
ENDROOT
BRANCH   1  11
ATOM     11  C   UNL     1      12.000  15.662  33.337  1.00  0.00     0.084 A 
ATOM     12  C   UNL     1      10.849  16.439  33.551  1.00  0.00     0.022 A 
ATOM     13  C   UNL     1       9.877  16.029  34.468  1.00  0.00     0.047 A 
ATOM     14  C   UNL     1      10.034  14.831  35.172  1.00  0.00     0.115 A 
ATOM     15  C   UNL     1      12.143  14.449  34.033  1.00  0.00     0.022 A 
ATOM     16  C   UNL     1      11.169  14.040  34.950  1.00  0.00     0.047 A 
BRANCH  14  17
ATOM     17  O   UNL     1       9.059  14.435  36.084  1.00  0.00    -0.508 OA
ATOM     18  H   UNL     1       9.252  13.741  36.796  1.00  0.00     0.293 HD
ENDBRANCH  14  17
ENDBRANCH   1  11
BRANCH  10  19
ATOM     19  O   UNL     1      12.006  14.772  30.561  1.00  0.00    -0.500 OA
ATOM     20  H   UNL     1      12.259  13.862  30.195  1.00  0.00     0.294 HD
ENDBRANCH  10  19
BRANCH   5  21
ATOM     21  O   UNL     1      17.879  19.603  32.145  1.00  0.00    -0.507 OA
ATOM     22  H   UNL     1      17.730  20.125  33.001  1.00  0.00     0.293 HD
ENDBRANCH   5  21
BRANCH   7  23
ATOM     23  O   UNL     1      16.065  17.250  28.375  1.00  0.00    -0.507 OA
ATOM     24  H   UNL     1      15.355  16.767  27.844  1.00  0.00     0.293 HD
ENDBRANCH   7  23
TORSDOF 5
ENDMDL
MODEL 5
REMARK VINA RESULT:    -5.177      2.281      4.019
REMARK INTER + INTRA:          -6.043
REMARK INTER:                  -5.723
REMARK INTRA:                  -0.320
REMARK UNBOUND:                 0.042
REMARK SMILES Oc1ccc(-c2[o+]c3cc(O)cc(O)c3cc2O)cc1.[Cl-]
REMARK SMILES IDX 6 1 7 2 8 3 9 4 10 5 12 6 13 7 15 8 16 9 17 10 5 11 4 12
REMARK SMILES IDX 3 13 2 14 19 15 20 16 1 17 18 19 11 21 14 23
REMARK H PARENT 1 18 18 20 11 22 14 24
REMARK Flexibility Score: inf
ROOT
ATOM      1  C   UNL     1      16.771  18.042  31.015  1.00  0.00     0.401 A 
ATOM      2  O   UNL     1      17.502  17.958  29.907  1.00  0.00    -0.202 OA
ATOM      3  C   UNL     1      18.550  18.736  29.663  1.00  0.00     0.368 A 
ATOM      4  C   UNL     1      19.259  18.570  28.469  1.00  0.00     0.162 A 
ATOM      5  C   UNL     1      20.367  19.374  28.189  1.00  0.00     0.128 A 
ATOM      6  C   UNL     1      20.770  20.347  29.105  1.00  0.00     0.093 A 
ATOM      7  C   UNL     1      20.078  20.535  30.308  1.00  0.00     0.136 A 
ATOM      8  C   UNL     1      18.950  19.723  30.596  1.00  0.00     0.125 A 
ATOM      9  C   UNL     1      18.188  19.849  31.770  1.00  0.00     0.078 A 
ATOM     10  C   UNL     1      17.086  19.016  31.983  1.00  0.00     0.223 A 
ENDROOT
BRANCH   1  11
ATOM     11  C   UNL     1      15.633  17.110  31.176  1.00  0.00     0.084 A 
ATOM     12  C   UNL     1      14.410  17.397  30.547  1.00  0.00     0.022 A 
ATOM     13  C   UNL     1      13.327  16.521  30.666  1.00  0.00     0.047 A 
ATOM     14  C   UNL     1      13.457  15.339  31.403  1.00  0.00     0.115 A 
ATOM     15  C   UNL     1      15.762  15.910  31.899  1.00  0.00     0.022 A 
ATOM     16  C   UNL     1      14.678  15.034  32.017  1.00  0.00     0.047 A 
BRANCH  14  17
ATOM     17  O   UNL     1      12.369  14.475  31.515  1.00  0.00    -0.508 OA
ATOM     18  H   UNL     1      12.214  13.730  30.846  1.00  0.00     0.293 HD
ENDBRANCH  14  17
ENDBRANCH   1  11
BRANCH  10  19
ATOM     19  O   UNL     1      16.299  19.173  33.124  1.00  0.00    -0.500 OA
ATOM     20  H   UNL     1      15.447  18.643  33.260  1.00  0.00     0.294 HD
ENDBRANCH  10  19
BRANCH   5  21
ATOM     21  O   UNL     1      21.079  19.213  27.001  1.00  0.00    -0.507 OA
ATOM     22  H   UNL     1      20.726  18.635  26.248  1.00  0.00     0.293 HD
ENDBRANCH   5  21
BRANCH   7  23
ATOM     23  O   UNL     1      20.545  21.529  31.172  1.00  0.00    -0.507 OA
ATOM     24  H   UNL     1      20.382  22.517  31.046  1.00  0.00     0.293 HD
ENDBRANCH   7  23
TORSDOF 5
ENDMDL
MODEL 6
REMARK VINA RESULT:    -5.173      3.179      4.779
REMARK INTER + INTRA:          -6.039
REMARK INTER:                  -5.763
REMARK INTRA:                  -0.276
REMARK UNBOUND:                 0.042
REMARK SMILES Oc1ccc(-c2[o+]c3cc(O)cc(O)c3cc2O)cc1.[Cl-]
REMARK SMILES IDX 6 1 7 2 8 3 9 4 10 5 12 6 13 7 15 8 16 9 17 10 5 11 4 12
REMARK SMILES IDX 3 13 2 14 19 15 20 16 1 17 18 19 11 21 14 23
REMARK H PARENT 1 18 18 20 11 22 14 24
REMARK Flexibility Score: inf
ROOT
ATOM      1  C   UNL     1      13.550  16.974  33.822  1.00  0.00     0.401 A 
ATOM      2  O   UNL     1      13.770  16.782  32.524  1.00  0.00    -0.202 OA
ATOM      3  C   UNL     1      14.791  17.324  31.869  1.00  0.00     0.368 A 
ATOM      4  C   UNL     1      14.940  17.061  30.504  1.00  0.00     0.162 A 
ATOM      5  C   UNL     1      16.007  17.615  29.791  1.00  0.00     0.128 A 
ATOM      6  C   UNL     1      16.928  18.436  30.445  1.00  0.00     0.093 A 
ATOM      7  C   UNL     1      16.801  18.715  31.811  1.00  0.00     0.136 A 
ATOM      8  C   UNL     1      15.718  18.157  32.539  1.00  0.00     0.125 A 
ATOM      9  C   UNL     1      15.505  18.394  33.907  1.00  0.00     0.078 A 
ATOM     10  C   UNL     1      14.411  17.811  34.556  1.00  0.00     0.223 A 
ENDROOT
BRANCH   1  11
ATOM     11  C   UNL     1      12.383  16.306  34.441  1.00  0.00     0.084 A 
ATOM     12  C   UNL     1      11.088  16.762  34.144  1.00  0.00     0.022 A 
ATOM     13  C   UNL     1       9.969  16.133  34.700  1.00  0.00     0.047 A 
ATOM     14  C   UNL     1      10.130  15.032  35.546  1.00  0.00     0.115 A 
ATOM     15  C   UNL     1      12.537  15.186  35.278  1.00  0.00     0.022 A 
ATOM     16  C   UNL     1      11.417  14.558  35.832  1.00  0.00     0.047 A 
BRANCH  14  17
ATOM     17  O   UNL     1       9.007  14.416  36.094  1.00  0.00    -0.508 OA
ATOM     18  H   UNL     1       9.046  13.948  36.992  1.00  0.00     0.293 HD
ENDBRANCH  14  17
ENDBRANCH   1  11
BRANCH  10  19
ATOM     19  O   UNL     1      14.170  18.085  35.903  1.00  0.00    -0.500 OA
ATOM     20  H   UNL     1      13.692  17.424  36.502  1.00  0.00     0.294 HD
ENDBRANCH  10  19
BRANCH   5  21
ATOM     21  O   UNL     1      16.162  17.356  28.431  1.00  0.00    -0.507 OA
ATOM     22  H   UNL     1      15.391  17.022  27.864  1.00  0.00     0.293 HD
ENDBRANCH   5  21
BRANCH   7  23
ATOM     23  O   UNL     1      17.766  19.544  32.391  1.00  0.00    -0.507 OA
ATOM     24  H   UNL     1      17.609  20.506  32.651  1.00  0.00     0.293 HD
ENDBRANCH   7  23
TORSDOF 5
ENDMDL
MODEL 7
REMARK VINA RESULT:    -5.153      2.042      2.758
REMARK INTER + INTRA:          -6.015
REMARK INTER:                  -5.984
REMARK INTRA:                  -0.031
REMARK UNBOUND:                 0.042
REMARK SMILES Oc1ccc(-c2[o+]c3cc(O)cc(O)c3cc2O)cc1.[Cl-]
REMARK SMILES IDX 6 1 7 2 8 3 9 4 10 5 12 6 13 7 15 8 16 9 17 10 5 11 4 12
REMARK SMILES IDX 3 13 2 14 19 15 20 16 1 17 18 19 11 21 14 23
REMARK H PARENT 1 18 18 20 11 22 14 24
REMARK Flexibility Score: inf
ROOT
ATOM      1  C   UNL     1      14.949  17.271  31.177  1.00  0.00     0.401 A 
ATOM      2  O   UNL     1      15.756  18.136  31.783  1.00  0.00    -0.202 OA
ATOM      3  C   UNL     1      16.890  18.575  31.248  1.00  0.00     0.368 A 
ATOM      4  C   UNL     1      17.672  19.488  31.962  1.00  0.00     0.162 A 
ATOM      5  C   UNL     1      18.867  19.969  31.421  1.00  0.00     0.128 A 
ATOM      6  C   UNL     1      19.284  19.534  30.161  1.00  0.00     0.093 A 
ATOM      7  C   UNL     1      18.520  18.620  29.425  1.00  0.00     0.136 A 
ATOM      8  C   UNL     1      17.306  18.127  29.972  1.00  0.00     0.125 A 
ATOM      9  C   UNL     1      16.484  17.199  29.312  1.00  0.00     0.078 A 
ATOM     10  C   UNL     1      15.303  16.756  29.916  1.00  0.00     0.223 A 
ENDROOT
BRANCH   1  11
ATOM     11  C   UNL     1      13.706  16.866  31.873  1.00  0.00     0.084 A 
ATOM     12  C   UNL     1      13.761  16.500  33.228  1.00  0.00     0.022 A 
ATOM     13  C   UNL     1      12.597  16.135  33.912  1.00  0.00     0.047 A 
ATOM     14  C   UNL     1      11.363  16.146  33.256  1.00  0.00     0.115 A 
ATOM     15  C   UNL     1      12.459  16.893  31.224  1.00  0.00     0.022 A 
ATOM     16  C   UNL     1      11.296  16.529  31.909  1.00  0.00     0.047 A 
BRANCH  14  17
ATOM     17  O   UNL     1      10.211  15.778  33.948  1.00  0.00    -0.508 OA
ATOM     18  H   UNL     1      10.013  14.809  34.169  1.00  0.00     0.293 HD
ENDBRANCH  14  17
ENDBRANCH   1  11
BRANCH  10  19
ATOM     19  O   UNL     1      14.511  15.797  29.284  1.00  0.00    -0.500 OA
ATOM     20  H   UNL     1      14.909  14.952  28.893  1.00  0.00     0.294 HD
ENDBRANCH  10  19
BRANCH   5  21
ATOM     21  O   UNL     1      19.651  20.879  32.127  1.00  0.00    -0.507 OA
ATOM     22  H   UNL     1      20.417  21.372  31.683  1.00  0.00     0.293 HD
ENDBRANCH   5  21
BRANCH   7  23
ATOM     23  O   UNL     1      19.005  18.237  28.172  1.00  0.00    -0.507 OA
ATOM     24  H   UNL     1      19.534  17.395  27.998  1.00  0.00     0.293 HD
ENDBRANCH   7  23
TORSDOF 5
ENDMDL
MODEL 8
REMARK VINA RESULT:    -5.068      2.250      5.973
REMARK INTER + INTRA:          -5.915
REMARK INTER:                  -5.623
REMARK INTRA:                  -0.292
REMARK UNBOUND:                 0.042
REMARK SMILES Oc1ccc(-c2[o+]c3cc(O)cc(O)c3cc2O)cc1.[Cl-]
REMARK SMILES IDX 6 1 7 2 8 3 9 4 10 5 12 6 13 7 15 8 16 9 17 10 5 11 4 12
REMARK SMILES IDX 3 13 2 14 19 15 20 16 1 17 18 19 11 21 14 23
REMARK H PARENT 1 18 18 20 11 22 14 24
REMARK Flexibility Score: inf
ROOT
ATOM      1  C   UNL     1      15.797  17.384  31.057  1.00  0.00     0.401 A 
ATOM      2  O   UNL     1      15.424  17.495  32.328  1.00  0.00    -0.202 OA
ATOM      3  C   UNL     1      14.210  17.176  32.764  1.00  0.00     0.368 A 
ATOM      4  C   UNL     1      13.913  17.324  34.122  1.00  0.00     0.162 A 
ATOM      5  C   UNL     1      12.645  16.993  34.607  1.00  0.00     0.128 A 
ATOM      6  C   UNL     1      11.670  16.512  33.731  1.00  0.00     0.093 A 
ATOM      7  C   UNL     1      11.941  16.354  32.366  1.00  0.00     0.136 A 
ATOM      8  C   UNL     1      13.227  16.691  31.869  1.00  0.00     0.125 A 
ATOM      9  C   UNL     1      13.584  16.579  30.515  1.00  0.00     0.078 A 
ATOM     10  C   UNL     1      14.870  16.935  30.097  1.00  0.00     0.223 A 
ENDROOT
BRANCH   1  11
ATOM     11  C   UNL     1      17.183  17.762  30.697  1.00  0.00     0.084 A 
ATOM     12  C   UNL     1      18.144  16.757  30.497  1.00  0.00     0.022 A 
ATOM     13  C   UNL     1      19.453  17.089  30.136  1.00  0.00     0.047 A 
ATOM     14  C   UNL     1      19.815  18.427  29.956  1.00  0.00     0.115 A 
ATOM     15  C   UNL     1      17.549  19.105  30.496  1.00  0.00     0.022 A 
ATOM     16  C   UNL     1      18.859  19.435  30.134  1.00  0.00     0.047 A 
BRANCH  14  17
ATOM     17  O   UNL     1      21.124  18.744  29.598  1.00  0.00    -0.508 OA
ATOM     18  H   UNL     1      21.390  19.690  29.352  1.00  0.00     0.293 HD
ENDBRANCH  14  17
ENDBRANCH   1  11
BRANCH  10  19
ATOM     19  O   UNL     1      15.210  16.870  28.746  1.00  0.00    -0.500 OA
ATOM     20  H   UNL     1      15.808  16.138  28.382  1.00  0.00     0.294 HD
ENDBRANCH  10  19
BRANCH   5  21
ATOM     21  O   UNL     1      12.342  17.138  35.959  1.00  0.00    -0.507 OA
ATOM     22  H   UNL     1      12.846  17.792  36.547  1.00  0.00     0.293 HD
ENDBRANCH   5  21
BRANCH   7  23
ATOM     23  O   UNL     1      10.912  15.865  31.558  1.00  0.00    -0.507 OA
ATOM     24  H   UNL     1      10.481  14.959  31.670  1.00  0.00     0.293 HD
ENDBRANCH   7  23
TORSDOF 5
ENDMDL
MODEL 9
REMARK VINA RESULT:    -4.983      1.302      6.705
REMARK INTER + INTRA:          -5.815
REMARK INTER:                  -5.908
REMARK INTRA:                   0.093
REMARK UNBOUND:                 0.042
REMARK SMILES Oc1ccc(-c2[o+]c3cc(O)cc(O)c3cc2O)cc1.[Cl-]
REMARK SMILES IDX 6 1 7 2 8 3 9 4 10 5 12 6 13 7 15 8 16 9 17 10 5 11 4 12
REMARK SMILES IDX 3 13 2 14 19 15 20 16 1 17 18 19 11 21 14 23
REMARK H PARENT 1 18 18 20 11 22 14 24
REMARK Flexibility Score: inf
ROOT
ATOM      1  C   UNL     1      15.293  16.970  31.121  1.00  0.00     0.401 A 
ATOM      2  O   UNL     1      14.054  16.886  31.596  1.00  0.00    -0.202 OA
ATOM      3  C   UNL     1      13.101  16.157  31.026  1.00  0.00     0.368 A 
ATOM      4  C   UNL     1      11.828  16.128  31.603  1.00  0.00     0.162 A 
ATOM      5  C   UNL     1      10.809  15.367  31.026  1.00  0.00     0.128 A 
ATOM      6  C   UNL     1      11.062  14.631  29.867  1.00  0.00     0.093 A 
ATOM      7  C   UNL     1      12.328  14.642  29.268  1.00  0.00     0.136 A 
ATOM      8  C   UNL     1      13.366  15.415  29.850  1.00  0.00     0.125 A 
ATOM      9  C   UNL     1      14.661  15.497  29.312  1.00  0.00     0.078 A 
ATOM     10  C   UNL     1      15.632  16.284  29.938  1.00  0.00     0.223 A 
ENDROOT
BRANCH   1  11
ATOM     11  C   UNL     1      16.270  17.808  31.853  1.00  0.00     0.084 A 
ATOM     12  C   UNL     1      17.074  18.714  31.142  1.00  0.00     0.022 A 
ATOM     13  C   UNL     1      17.987  19.531  31.815  1.00  0.00     0.047 A 
ATOM     14  C   UNL     1      18.098  19.465  33.207  1.00  0.00     0.115 A 
ATOM     15  C   UNL     1      16.372  17.760  33.255  1.00  0.00     0.022 A 
ATOM     16  C   UNL     1      17.286  18.579  33.927  1.00  0.00     0.047 A 
BRANCH  14  17
ATOM     17  O   UNL     1      19.013  20.284  33.865  1.00  0.00    -0.508 OA
ATOM     18  H   UNL     1      19.631  20.903  33.353  1.00  0.00     0.293 HD
ENDBRANCH  14  17
ENDBRANCH   1  11
BRANCH  10  19
ATOM     19  O   UNL     1      16.904  16.405  29.378  1.00  0.00    -0.500 OA
ATOM     20  H   UNL     1      17.111  16.058  28.450  1.00  0.00     0.294 HD
ENDBRANCH  10  19
BRANCH   5  21
ATOM     21  O   UNL     1       9.538  15.334  31.596  1.00  0.00    -0.507 OA
ATOM     22  H   UNL     1       9.194  14.509  32.075  1.00  0.00     0.293 HD
ENDBRANCH   5  21
BRANCH   7  23
ATOM     23  O   UNL     1      12.500  13.877  28.112  1.00  0.00    -0.507 OA
ATOM     24  H   UNL     1      12.980  12.989  28.082  1.00  0.00     0.293 HD
ENDBRANCH   7  23
TORSDOF 5
ENDMDL
