MODEL 1
REMARK VINA RESULT:     4.550      0.000      0.000
REMARK INTER + INTRA:           6.143
REMARK INTER:                   6.279
REMARK INTRA:                  -0.136
REMARK UNBOUND:                -0.136
REMARK SMILES CC[C@@H](CC[C@@H](C)[C@@H]1CC[C@@H]2[C@H]3CC=C4C[C@H](O)CC[C@@]4(C)[C@@H]3CC[C@]21C)C(C)C
REMARK SMILES IDX 5 1 4 2 3 3 2 4 1 5 28 6 29 7 30 8 6 9 7 10 8 11 9 12 26 13
REMARK SMILES IDX 10 14 11 15 25 16 27 17 12 18 24 19 23 20 13 21 21 22 14 23
REMARK SMILES IDX 15 24 20 25 22 26 16 27 19 28 17 29 18 30
REMARK H PARENT 18 31
REMARK Flexibility Score: inf
ROOT
ATOM      1  C   UNL     1      79.465  36.125  50.890  1.00  0.00     0.004 C 
ENDROOT
BRANCH   1   2
ATOM      2  C   UNL     1      80.106  35.049  49.977  1.00  0.00     0.004 C 
BRANCH   2   3
ATOM      3  C   UNL     1      81.036  34.062  50.739  1.00  0.00    -0.009 C 
BRANCH   3   4
ATOM      4  C   UNL     1      81.145  32.716  49.968  1.00  0.00     0.000 C 
ATOM      5  C   UNL     1      81.076  32.887  48.449  1.00  0.00     0.004 C 
ENDBRANCH   3   4
BRANCH   3   6
ATOM      6  C   UNL     1      80.599  33.852  52.230  1.00  0.00    -0.014 C 
ATOM      7  C   UNL     1      80.580  32.364  52.615  1.00  0.00     0.007 C 
ATOM      8  C   UNL     1      81.440  34.648  53.244  1.00  0.00     0.007 C 
ENDBRANCH   3   6
ENDBRANCH   2   3
ENDBRANCH   1   2
BRANCH   1   9
ATOM      9  C   UNL     1      77.913  36.094  50.917  1.00  0.00    -0.011 C 
ATOM     10  C   UNL     1      77.357  35.995  49.480  1.00  0.00     0.008 C 
BRANCH   9  11
ATOM     11  C   UNL     1      77.405  34.970  51.894  1.00  0.00    -0.002 C 
ATOM     12  C   UNL     1      77.624  33.497  51.459  1.00  0.00     0.005 C 
ATOM     13  C   UNL     1      75.916  35.024  52.329  1.00  0.00    -0.026 C 
ATOM     14  C   UNL     1      76.509  32.676  52.136  1.00  0.00     0.005 C 
ATOM     15  C   UNL     1      75.799  33.673  53.048  1.00  0.00    -0.001 C 
ATOM     16  C   UNL     1      75.585  36.125  53.362  1.00  0.00     0.007 C 
ATOM     17  C   UNL     1      74.974  35.143  51.089  1.00  0.00     0.012 C 
ATOM     18  C   UNL     1      74.363  33.365  53.518  1.00  0.00     0.000 C 
ATOM     19  C   UNL     1      74.172  35.928  53.963  1.00  0.00     0.005 C 
ATOM     20  C   UNL     1      73.909  34.483  54.508  1.00  0.00     0.003 C 
ATOM     21  C   UNL     1      74.312  32.007  54.233  1.00  0.00     0.031 C 
ATOM     22  C   UNL     1      72.431  34.244  55.005  1.00  0.00    -0.008 C 
ATOM     23  C   UNL     1      73.014  31.777  54.953  1.00  0.00    -0.027 C 
ATOM     24  C   UNL     1      72.226  32.775  55.413  1.00  0.00    -0.065 C 
ATOM     25  C   UNL     1      72.166  35.144  56.252  1.00  0.00     0.014 C 
ATOM     26  C   UNL     1      71.399  34.589  53.895  1.00  0.00     0.016 C 
ATOM     27  C   UNL     1      71.000  32.407  56.229  1.00  0.00     0.063 C 
ATOM     28  C   UNL     1      70.862  34.806  56.990  1.00  0.00     0.033 C 
ATOM     29  C   UNL     1      70.845  33.342  57.435  1.00  0.00     0.118 C 
BRANCH  29  30
ATOM     30  O   UNL     1      69.631  33.075  58.089  1.00  0.00    -0.393 OA
ATOM     31  H   UNL     1      69.129  32.439  57.517  1.00  0.00     0.210 HD
ENDBRANCH  29  30
ENDBRANCH   9  11
ENDBRANCH   1   9
TORSDOF 7
ENDMDL
MODEL 2
REMARK VINA RESULT:     6.479      3.207      8.768
REMARK INTER + INTRA:           8.805
REMARK INTER:                   8.555
REMARK INTRA:                   0.250
REMARK UNBOUND:                -0.136
REMARK SMILES CC[C@@H](CC[C@@H](C)[C@@H]1CC[C@@H]2[C@H]3CC=C4C[C@H](O)CC[C@@]4(C)[C@@H]3CC[C@]21C)C(C)C
REMARK SMILES IDX 5 1 4 2 3 3 2 4 1 5 28 6 29 7 30 8 6 9 7 10 8 11 9 12 26 13
REMARK SMILES IDX 10 14 11 15 25 16 27 17 12 18 24 19 23 20 13 21 21 22 14 23
REMARK SMILES IDX 15 24 20 25 22 26 16 27 19 28 17 29 18 30
REMARK H PARENT 18 31
REMARK Flexibility Score: inf
ROOT
ATOM      1  C   UNL     1      71.373  34.232  54.842  1.00  0.00     0.004 C 
ENDROOT
BRANCH   1   2
ATOM      2  C   UNL     1      71.695  34.216  56.357  1.00  0.00     0.004 C 
BRANCH   2   3
ATOM      3  C   UNL     1      71.273  32.898  57.068  1.00  0.00    -0.009 C 
BRANCH   3   4
ATOM      4  C   UNL     1      69.932  33.100  57.831  1.00  0.00     0.000 C 
ATOM      5  C   UNL     1      69.089  34.245  57.267  1.00  0.00     0.004 C 
ENDBRANCH   3   4
BRANCH   3   6
ATOM      6  C   UNL     1      72.398  32.328  57.999  1.00  0.00    -0.014 C 
ATOM      7  C   UNL     1      73.766  32.312  57.299  1.00  0.00     0.007 C 
ATOM      8  C   UNL     1      72.508  33.047  59.356  1.00  0.00     0.007 C 
ENDBRANCH   3   6
ENDBRANCH   2   3
ENDBRANCH   1   2
BRANCH   1   9
ATOM      9  C   UNL     1      72.420  34.985  53.977  1.00  0.00    -0.011 C 
ATOM     10  C   UNL     1      73.065  36.125  54.793  1.00  0.00     0.008 C 
BRANCH   9  11
ATOM     11  C   UNL     1      73.444  33.969  53.348  1.00  0.00    -0.002 C 
ATOM     12  C   UNL     1      73.691  32.643  54.115  1.00  0.00     0.005 C 
ATOM     13  C   UNL     1      74.867  34.498  53.029  1.00  0.00    -0.026 C 
ATOM     14  C   UNL     1      75.119  32.192  53.749  1.00  0.00     0.005 C 
ATOM     15  C   UNL     1      75.569  33.179  52.677  1.00  0.00    -0.001 C 
ATOM     16  C   UNL     1      74.952  35.411  51.784  1.00  0.00     0.007 C 
ATOM     17  C   UNL     1      75.491  35.213  54.269  1.00  0.00     0.012 C 
ATOM     18  C   UNL     1      77.078  33.355  52.408  1.00  0.00     0.000 C 
ATOM     19  C   UNL     1      76.421  35.652  51.360  1.00  0.00     0.005 C 
ATOM     20  C   UNL     1      77.262  34.339  51.210  1.00  0.00     0.003 C 
ATOM     21  C   UNL     1      77.721  32.005  52.057  1.00  0.00     0.031 C 
ATOM     22  C   UNL     1      78.789  34.587  50.902  1.00  0.00    -0.008 C 
ATOM     23  C   UNL     1      79.115  32.149  51.516  1.00  0.00    -0.027 C 
ATOM     24  C   UNL     1      79.564  33.258  50.886  1.00  0.00    -0.065 C 
ATOM     25  C   UNL     1      78.919  35.251  49.495  1.00  0.00     0.014 C 
ATOM     26  C   UNL     1      79.437  35.514  51.968  1.00  0.00     0.016 C 
ATOM     27  C   UNL     1      80.956  33.230  50.282  1.00  0.00     0.063 C 
ATOM     28  C   UNL     1      80.360  35.296  48.965  1.00  0.00     0.033 C 
ATOM     29  C   UNL     1      80.965  33.891  48.898  1.00  0.00     0.118 C 
BRANCH  29  30
ATOM     30  O   UNL     1      82.284  33.982  48.424  1.00  0.00    -0.393 OA
ATOM     31  H   UNL     1      82.317  33.487  47.564  1.00  0.00     0.210 HD
ENDBRANCH  29  30
ENDBRANCH   9  11
ENDBRANCH   1   9
TORSDOF 7
ENDMDL
