MODEL 1
REMARK VINA RESULT:    -8.982      0.000      0.000
REMARK INTER + INTRA:          -9.769
REMARK INTER:                  -9.769
REMARK INTRA:                   0.000
REMARK UNBOUND:                 0.000
REMARK SMILES C[C@H]1CC[C@@H]2[N@H+](C1)C[C@@H]1[C@H]3C[C@@H]4[C@H](C[C@H](O)[C@@H]5C[C@H](O)CC[C@]45C)[C@H]3CC[C@H]1[C@@]2(C)O
REMARK SMILES IDX 5 1 6 2 8 3 7 4 4 5 29 6 3 7 28 8 30 9 2 10 27 11 9 12 1 13
REMARK SMILES IDX 26 14 10 15 25 16 11 17 13 18 12 19 14 20 23 21 15 22 17 23
REMARK SMILES IDX 22 24 24 25 18 26 21 27 19 28 31 30 16 32 20 34
REMARK H PARENT 6 29 31 31 16 33 20 35
REMARK Flexibility Score: inf
ROOT
ATOM      1  C   UNL     1      22.372 -23.993  26.303  1.00  0.00     0.216 C 
ATOM      2  N   UNL     1      23.304 -22.837  26.125  1.00  0.00    -0.330 N 
ATOM      3  C   UNL     1      24.087 -22.467  27.353  1.00  0.00     0.266 C 
ATOM      4  C   UNL     1      24.262 -22.992  24.992  1.00  0.00     0.265 C 
ATOM      5  C   UNL     1      21.614 -24.450  25.032  1.00  0.00     0.069 C 
ATOM      6  C   UNL     1      22.892 -25.178  27.203  1.00  0.00     0.117 C 
ATOM      7  C   UNL     1      22.071 -23.702  23.775  1.00  0.00     0.015 C 
ATOM      8  C   UNL     1      23.619 -24.589  28.499  1.00  0.00     0.036 C 
ATOM      9  C   UNL     1      23.856 -26.214  26.572  1.00  0.00     0.049 C 
ATOM     10  C   UNL     1      23.608 -23.512  23.695  1.00  0.00     0.041 C 
ATOM     11  C   UNL     1      23.288 -25.325  29.854  1.00  0.00     0.007 C 
ATOM     12  C   UNL     1      23.441 -23.058  28.613  1.00  0.00     0.054 C 
ATOM     13  C   UNL     1      24.303 -24.813  23.166  1.00  0.00     0.013 C 
ATOM     14  C   UNL     1      22.341 -24.526  30.744  1.00  0.00     0.004 C 
ATOM     15  C   UNL     1      23.934 -22.581  30.015  1.00  0.00     0.002 C 
ATOM     16  C   UNL     1      22.984 -23.163  31.106  1.00  0.00    -0.004 C 
ATOM     17  C   UNL     1      23.862 -21.055  30.217  1.00  0.00     0.009 C 
ATOM     18  C   UNL     1      21.919 -22.069  31.257  1.00  0.00    -0.001 C 
ATOM     19  C   UNL     1      22.711 -20.794  31.219  1.00  0.00    -0.001 C 
ATOM     20  C   UNL     1      21.109 -22.093  32.539  1.00  0.00     0.036 C 
ATOM     21  C   UNL     1      21.791 -19.526  31.055  1.00  0.00    -0.024 C 
ATOM     22  C   UNL     1      19.935 -21.127  32.377  1.00  0.00     0.118 C 
ATOM     23  C   UNL     1      20.278 -19.786  31.562  1.00  0.00     0.026 C 
ATOM     24  C   UNL     1      21.809 -19.038  29.553  1.00  0.00     0.010 C 
ATOM     25  C   UNL     1      22.459 -18.409  31.909  1.00  0.00     0.012 C 
ATOM     26  C   UNL     1      19.242 -19.589  30.413  1.00  0.00     0.038 C 
ATOM     27  C   UNL     1      20.804 -17.952  29.202  1.00  0.00     0.032 C 
ATOM     28  C   UNL     1      19.393 -18.212  29.739  1.00  0.00     0.114 C 
ATOM     29  H   UNL     1      22.729 -21.995  25.892  1.00  0.00     0.348 HD
ENDROOT
BRANCH   6  30
ATOM     30  O   UNL     1      21.769 -25.882  27.663  1.00  0.00    -0.384 OA
ATOM     31  H   UNL     1      21.571 -26.671  27.103  1.00  0.00     0.211 HD
ENDBRANCH   6  30
BRANCH  22  32
ATOM     32  O   UNL     1      18.799 -21.785  31.812  1.00  0.00    -0.393 OA
ATOM     33  H   UNL     1      18.554 -22.594  32.335  1.00  0.00     0.210 HD
ENDBRANCH  22  32
BRANCH  28  34
ATOM     34  O   UNL     1      18.469 -17.998  28.690  1.00  0.00    -0.393 OA
ATOM     35  H   UNL     1      18.892 -18.246  27.811  1.00  0.00     0.210 HD
ENDBRANCH  28  34
TORSDOF 3
ENDMDL
MODEL 2
REMARK VINA RESULT:    -8.094      3.939      6.437
REMARK INTER + INTRA:          -8.804
REMARK INTER:                  -8.804
REMARK INTRA:                   0.000
REMARK UNBOUND:                 0.000
REMARK SMILES C[C@H]1CC[C@@H]2[N@H+](C1)C[C@@H]1[C@H]3C[C@@H]4[C@H](C[C@H](O)[C@@H]5C[C@H](O)CC[C@]45C)[C@H]3CC[C@H]1[C@@]2(C)O
REMARK SMILES IDX 5 1 6 2 8 3 7 4 4 5 29 6 3 7 28 8 30 9 2 10 27 11 9 12 1 13
REMARK SMILES IDX 26 14 10 15 25 16 11 17 13 18 12 19 14 20 23 21 15 22 17 23
REMARK SMILES IDX 22 24 24 25 18 26 21 27 19 28 31 30 16 32 20 34
REMARK H PARENT 6 29 31 31 16 33 20 35
REMARK Flexibility Score: inf
ROOT
ATOM      1  C   UNL     1      24.039 -23.810  28.533  1.00  0.00     0.216 C 
ATOM      2  N   UNL     1      24.725 -25.130  28.381  1.00  0.00    -0.330 N 
ATOM      3  C   UNL     1      24.066 -26.267  29.109  1.00  0.00     0.266 C 
ATOM      4  C   UNL     1      24.942 -25.548  26.965  1.00  0.00     0.265 C 
ATOM      5  C   UNL     1      24.647 -22.636  27.724  1.00  0.00     0.069 C 
ATOM      6  C   UNL     1      22.463 -23.838  28.538  1.00  0.00     0.117 C 
ATOM      7  C   UNL     1      25.781 -23.088  26.797  1.00  0.00     0.015 C 
ATOM      8  C   UNL     1      21.951 -25.061  29.431  1.00  0.00     0.036 C 
ATOM      9  C   UNL     1      21.722 -23.925  27.180  1.00  0.00     0.049 C 
ATOM     10  C   UNL     1      25.484 -24.421  26.062  1.00  0.00     0.041 C 
ATOM     11  C   UNL     1      20.730 -24.742  30.378  1.00  0.00     0.007 C 
ATOM     12  C   UNL     1      23.111 -25.744  30.190  1.00  0.00     0.054 C 
ATOM     13  C   UNL     1      24.569 -24.175  24.813  1.00  0.00     0.013 C 
ATOM     14  C   UNL     1      21.139 -24.609  31.842  1.00  0.00     0.004 C 
ATOM     15  C   UNL     1      22.527 -26.744  31.237  1.00  0.00     0.002 C 
ATOM     16  C   UNL     1      21.769 -25.937  32.334  1.00  0.00    -0.004 C 
ATOM     17  C   UNL     1      23.600 -27.534  32.012  1.00  0.00     0.009 C 
ATOM     18  C   UNL     1      22.857 -25.678  33.386  1.00  0.00    -0.001 C 
ATOM     19  C   UNL     1      23.599 -26.981  33.458  1.00  0.00    -0.001 C 
ATOM     20  C   UNL     1      22.374 -25.323  34.779  1.00  0.00     0.036 C 
ATOM     21  C   UNL     1      24.950 -26.853  34.257  1.00  0.00    -0.024 C 
ATOM     22  C   UNL     1      23.573 -24.832  35.588  1.00  0.00     0.118 C 
ATOM     23  C   UNL     1      24.946 -25.609  35.291  1.00  0.00     0.026 C 
ATOM     24  C   UNL     1      26.164 -26.750  33.251  1.00  0.00     0.010 C 
ATOM     25  C   UNL     1      25.109 -28.195  35.031  1.00  0.00     0.012 C 
ATOM     26  C   UNL     1      26.073 -24.582  34.962  1.00  0.00     0.038 C 
ATOM     27  C   UNL     1      27.509 -26.411  33.875  1.00  0.00     0.032 C 
ATOM     28  C   UNL     1      27.455 -25.258  34.882  1.00  0.00     0.114 C 
ATOM     29  H   UNL     1      25.680 -25.043  28.796  1.00  0.00     0.348 HD
ENDROOT
BRANCH   6  30
ATOM     30  O   UNL     1      22.023 -22.668  29.176  1.00  0.00    -0.384 OA
ATOM     31  H   UNL     1      21.358 -22.178  28.634  1.00  0.00     0.211 HD
ENDBRANCH   6  30
BRANCH  22  32
ATOM     32  O   UNL     1      23.750 -23.420  35.443  1.00  0.00    -0.393 OA
ATOM     33  H   UNL     1      24.675 -23.146  35.684  1.00  0.00     0.210 HD
ENDBRANCH  22  32
BRANCH  28  34
ATOM     34  O   UNL     1      28.503 -24.356  34.585  1.00  0.00    -0.393 OA
ATOM     35  H   UNL     1      29.072 -24.217  35.403  1.00  0.00     0.210 HD
ENDBRANCH  28  34
TORSDOF 3
ENDMDL
MODEL 3
REMARK VINA RESULT:    -8.093      3.472      6.633
REMARK INTER + INTRA:          -8.803
REMARK INTER:                  -8.803
REMARK INTRA:                   0.000
REMARK UNBOUND:                 0.000
REMARK SMILES C[C@H]1CC[C@@H]2[N@H+](C1)C[C@@H]1[C@H]3C[C@@H]4[C@H](C[C@H](O)[C@@H]5C[C@H](O)CC[C@]45C)[C@H]3CC[C@H]1[C@@]2(C)O
REMARK SMILES IDX 5 1 6 2 8 3 7 4 4 5 29 6 3 7 28 8 30 9 2 10 27 11 9 12 1 13
REMARK SMILES IDX 26 14 10 15 25 16 11 17 13 18 12 19 14 20 23 21 15 22 17 23
REMARK SMILES IDX 22 24 24 25 18 26 21 27 19 28 31 30 16 32 20 34
REMARK H PARENT 6 29 31 31 16 33 20 35
REMARK Flexibility Score: inf
ROOT
ATOM      1  C   UNL     1      23.875 -24.045  27.592  1.00  0.00     0.216 C 
ATOM      2  N   UNL     1      22.930 -25.201  27.499  1.00  0.00    -0.330 N 
ATOM      3  C   UNL     1      21.928 -25.283  28.615  1.00  0.00     0.266 C 
ATOM      4  C   UNL     1      22.193 -25.285  26.204  1.00  0.00     0.265 C 
ATOM      5  C   UNL     1      24.865 -23.886  26.411  1.00  0.00     0.069 C 
ATOM      6  C   UNL     1      23.268 -22.686  28.110  1.00  0.00     0.117 C 
ATOM      7  C   UNL     1      24.595 -24.885  25.280  1.00  0.00     0.015 C 
ATOM      8  C   UNL     1      22.298 -22.969  29.350  1.00  0.00     0.036 C 
ATOM      9  C   UNL     1      22.483 -21.801  27.111  1.00  0.00     0.049 C 
ATOM     10  C   UNL     1      23.087 -25.069  24.966  1.00  0.00     0.041 C 
ATOM     11  C   UNL     1      22.427 -21.959  30.554  1.00  0.00     0.007 C 
ATOM     12  C   UNL     1      22.375 -24.441  29.816  1.00  0.00     0.054 C 
ATOM     13  C   UNL     1      22.563 -23.905  24.056  1.00  0.00     0.013 C 
ATOM     14  C   UNL     1      23.163 -22.556  31.749  1.00  0.00     0.004 C 
ATOM     15  C   UNL     1      21.623 -24.593  31.175  1.00  0.00     0.002 C 
ATOM     16  C   UNL     1      22.397 -23.799  32.270  1.00  0.00    -0.004 C 
ATOM     17  C   UNL     1      21.580 -26.039  31.706  1.00  0.00     0.009 C 
ATOM     18  C   UNL     1      23.362 -24.847  32.840  1.00  0.00    -0.001 C 
ATOM     19  C   UNL     1      22.524 -26.090  32.931  1.00  0.00    -0.001 C 
ATOM     20  C   UNL     1      23.939 -24.554  34.212  1.00  0.00     0.036 C 
ATOM     21  C   UNL     1      23.393 -27.374  33.209  1.00  0.00    -0.024 C 
ATOM     22  C   UNL     1      25.071 -25.547  34.474  1.00  0.00     0.118 C 
ATOM     23  C   UNL     1      24.807 -27.028  33.914  1.00  0.00     0.026 C 
ATOM     24  C   UNL     1      23.611 -28.178  31.868  1.00  0.00     0.010 C 
ATOM     25  C   UNL     1      22.530 -28.270  34.146  1.00  0.00     0.012 C 
ATOM     26  C   UNL     1      26.015 -27.484  33.039  1.00  0.00     0.038 C 
ATOM     27  C   UNL     1      24.605 -29.327  31.943  1.00  0.00     0.032 C 
ATOM     28  C   UNL     1      25.913 -28.973  32.657  1.00  0.00     0.114 C 
ATOM     29  H   UNL     1      23.493 -26.080  27.558  1.00  0.00     0.348 HD
ENDROOT
BRANCH   6  30
ATOM     30  O   UNL     1      24.329 -21.913  28.605  1.00  0.00    -0.384 OA
ATOM     31  H   UNL     1      24.585 -22.177  29.522  1.00  0.00     0.211 HD
ENDBRANCH   6  30
BRANCH  22  32
ATOM     32  O   UNL     1      26.321 -25.042  33.996  1.00  0.00    -0.393 OA
ATOM     33  H   UNL     1      26.297 -24.893  33.014  1.00  0.00     0.210 HD
ENDBRANCH  22  32
BRANCH  28  34
ATOM     34  O   UNL     1      26.991 -29.423  31.863  1.00  0.00    -0.393 OA
ATOM     35  H   UNL     1      27.400 -30.243  32.278  1.00  0.00     0.210 HD
ENDBRANCH  28  34
TORSDOF 3
ENDMDL
MODEL 4
REMARK VINA RESULT:    -7.904      2.243      7.648
REMARK INTER + INTRA:          -8.597
REMARK INTER:                  -8.597
REMARK INTRA:                   0.000
REMARK UNBOUND:                 0.000
REMARK SMILES C[C@H]1CC[C@@H]2[N@H+](C1)C[C@@H]1[C@H]3C[C@@H]4[C@H](C[C@H](O)[C@@H]5C[C@H](O)CC[C@]45C)[C@H]3CC[C@H]1[C@@]2(C)O
REMARK SMILES IDX 5 1 6 2 8 3 7 4 4 5 29 6 3 7 28 8 30 9 2 10 27 11 9 12 1 13
REMARK SMILES IDX 26 14 10 15 25 16 11 17 13 18 12 19 14 20 23 21 15 22 17 23
REMARK SMILES IDX 22 24 24 25 18 26 21 27 19 28 31 30 16 32 20 34
REMARK H PARENT 6 29 31 31 16 33 20 35
REMARK Flexibility Score: inf
ROOT
ATOM      1  C   UNL     1      19.234 -20.954  32.075  1.00  0.00     0.216 C 
ATOM      2  N   UNL     1      20.432 -21.551  32.743  1.00  0.00    -0.330 N 
ATOM      3  C   UNL     1      21.752 -21.048  32.230  1.00  0.00     0.266 C 
ATOM      4  C   UNL     1      20.432 -21.423  34.230  1.00  0.00     0.265 C 
ATOM      5  C   UNL     1      17.859 -21.390  32.642  1.00  0.00     0.069 C 
ATOM      6  C   UNL     1      19.324 -19.422  31.716  1.00  0.00     0.117 C 
ATOM      7  C   UNL     1      17.991 -22.266  33.892  1.00  0.00     0.015 C 
ATOM      8  C   UNL     1      20.767 -19.098  31.107  1.00  0.00     0.036 C 
ATOM      9  C   UNL     1      19.061 -18.385  32.837  1.00  0.00     0.049 C 
ATOM     10  C   UNL     1      19.078 -21.771  34.882  1.00  0.00     0.041 C 
ATOM     11  C   UNL     1      20.772 -18.139  29.855  1.00  0.00     0.007 C 
ATOM     12  C   UNL     1      21.588 -20.384  30.857  1.00  0.00     0.054 C 
ATOM     13  C   UNL     1      18.531 -20.599  35.767  1.00  0.00     0.013 C 
ATOM     14  C   UNL     1      21.034 -18.879  28.546  1.00  0.00     0.004 C 
ATOM     15  C   UNL     1      22.860 -20.032  30.025  1.00  0.00     0.002 C 
ATOM     16  C   UNL     1      22.420 -19.571  28.602  1.00  0.00    -0.004 C 
ATOM     17  C   UNL     1      23.792 -21.233  29.769  1.00  0.00     0.009 C 
ATOM     18  C   UNL     1      22.421 -20.879  27.800  1.00  0.00    -0.001 C 
ATOM     19  C   UNL     1      23.662 -21.582  28.267  1.00  0.00    -0.001 C 
ATOM     20  C   UNL     1      22.486 -20.741  26.291  1.00  0.00     0.036 C 
ATOM     21  C   UNL     1      23.707 -23.085  27.797  1.00  0.00    -0.024 C 
ATOM     22  C   UNL     1      22.191 -22.108  25.675  1.00  0.00     0.118 C 
ATOM     23  C   UNL     1      22.801 -23.353  26.485  1.00  0.00     0.026 C 
ATOM     24  C   UNL     1      23.281 -24.034  28.984  1.00  0.00     0.010 C 
ATOM     25  C   UNL     1      25.204 -23.382  27.485  1.00  0.00     0.012 C 
ATOM     26  C   UNL     1      21.679 -24.401  26.764  1.00  0.00     0.038 C 
ATOM     27  C   UNL     1      23.076 -25.496  28.617  1.00  0.00     0.032 C 
ATOM     28  C   UNL     1      22.251 -25.708  27.344  1.00  0.00     0.114 C 
ATOM     29  H   UNL     1      20.426 -22.578  32.551  1.00  0.00     0.348 HD
ENDROOT
BRANCH   6  30
ATOM     30  O   UNL     1      18.396 -19.174  30.694  1.00  0.00    -0.384 OA
ATOM     31  H   UNL     1      17.549 -18.805  31.044  1.00  0.00     0.211 HD
ENDBRANCH   6  30
BRANCH  22  32
ATOM     32  O   UNL     1      20.789 -22.285  25.458  1.00  0.00    -0.393 OA
ATOM     33  H   UNL     1      20.286 -22.264  26.314  1.00  0.00     0.210 HD
ENDBRANCH  22  32
BRANCH  28  34
ATOM     34  O   UNL     1      21.262 -26.682  27.610  1.00  0.00    -0.393 OA
ATOM     35  H   UNL     1      21.610 -27.595  27.366  1.00  0.00     0.210 HD
ENDBRANCH  28  34
TORSDOF 3
ENDMDL
MODEL 5
REMARK VINA RESULT:    -7.825      1.936      2.592
REMARK INTER + INTRA:          -8.511
REMARK INTER:                  -8.511
REMARK INTRA:                   0.000
REMARK UNBOUND:                 0.000
REMARK SMILES C[C@H]1CC[C@@H]2[N@H+](C1)C[C@@H]1[C@H]3C[C@@H]4[C@H](C[C@H](O)[C@@H]5C[C@H](O)CC[C@]45C)[C@H]3CC[C@H]1[C@@]2(C)O
REMARK SMILES IDX 5 1 6 2 8 3 7 4 4 5 29 6 3 7 28 8 30 9 2 10 27 11 9 12 1 13
REMARK SMILES IDX 26 14 10 15 25 16 11 17 13 18 12 19 14 20 23 21 15 22 17 23
REMARK SMILES IDX 22 24 24 25 18 26 21 27 19 28 31 30 16 32 20 34
REMARK H PARENT 6 29 31 31 16 33 20 35
REMARK Flexibility Score: inf
ROOT
ATOM      1  C   UNL     1      22.046 -24.761  26.872  1.00  0.00     0.216 C 
ATOM      2  N   UNL     1      22.266 -23.282  26.843  1.00  0.00    -0.330 N 
ATOM      3  C   UNL     1      23.156 -22.759  27.935  1.00  0.00     0.266 C 
ATOM      4  C   UNL     1      22.775 -22.764  25.540  1.00  0.00     0.265 C 
ATOM      5  C   UNL     1      21.202 -25.341  25.710  1.00  0.00     0.069 C 
ATOM      6  C   UNL     1      23.290 -25.645  27.266  1.00  0.00     0.117 C 
ATOM      7  C   UNL     1      20.855 -24.286  24.654  1.00  0.00     0.015 C 
ATOM      8  C   UNL     1      24.059 -24.973  28.497  1.00  0.00     0.036 C 
ATOM      9  C   UNL     1      24.351 -25.950  26.179  1.00  0.00     0.049 C 
ATOM     10  C   UNL     1      22.037 -23.341  24.314  1.00  0.00     0.041 C 
ATOM     11  C   UNL     1      24.538 -25.969  29.621  1.00  0.00     0.007 C 
ATOM     12  C   UNL     1      23.275 -23.774  29.078  1.00  0.00     0.054 C 
ATOM     13  C   UNL     1      23.021 -24.023  23.301  1.00  0.00     0.013 C 
ATOM     14  C   UNL     1      23.677 -25.897  30.879  1.00  0.00     0.004 C 
ATOM     15  C   UNL     1      23.930 -23.332  30.424  1.00  0.00     0.002 C 
ATOM     16  C   UNL     1      23.738 -24.467  31.475  1.00  0.00    -0.004 C 
ATOM     17  C   UNL     1      23.267 -22.097  31.065  1.00  0.00     0.009 C 
ATOM     18  C   UNL     1      22.413 -24.091  32.151  1.00  0.00    -0.001 C 
ATOM     19  C   UNL     1      22.507 -22.601  32.316  1.00  0.00    -0.001 C 
ATOM     20  C   UNL     1      22.153 -24.709  33.511  1.00  0.00     0.036 C 
ATOM     21  C   UNL     1      21.127 -21.958  32.717  1.00  0.00    -0.024 C 
ATOM     22  C   UNL     1      20.693 -24.450  33.880  1.00  0.00     0.118 C 
ATOM     23  C   UNL     1      20.132 -23.014  33.431  1.00  0.00     0.026 C 
ATOM     24  C   UNL     1      20.447 -21.308  31.449  1.00  0.00     0.010 C 
ATOM     25  C   UNL     1      21.473 -20.798  33.697  1.00  0.00     0.012 C 
ATOM     26  C   UNL     1      18.807 -23.193  32.628  1.00  0.00     0.038 C 
ATOM     27  C   UNL     1      19.014 -20.833  31.640  1.00  0.00     0.032 C 
ATOM     28  C   UNL     1      18.115 -21.843  32.361  1.00  0.00     0.114 C 
ATOM     29  H   UNL     1      21.340 -22.819  26.986  1.00  0.00     0.348 HD
ENDROOT
BRANCH   6  30
ATOM     30  O   UNL     1      22.803 -26.877  27.728  1.00  0.00    -0.384 OA
ATOM     31  H   UNL     1      22.572 -27.487  26.985  1.00  0.00     0.211 HD
ENDBRANCH   6  30
BRANCH  22  32
ATOM     32  O   UNL     1      19.845 -25.496  33.399  1.00  0.00    -0.393 OA
ATOM     33  H   UNL     1      19.103 -25.680  34.034  1.00  0.00     0.210 HD
ENDBRANCH  22  32
BRANCH  28  34
ATOM     34  O   UNL     1      16.910 -21.966  31.633  1.00  0.00    -0.393 OA
ATOM     35  H   UNL     1      16.146 -22.133  32.268  1.00  0.00     0.210 HD
ENDBRANCH  28  34
TORSDOF 3
ENDMDL
MODEL 6
REMARK VINA RESULT:    -7.773      8.027     10.634
REMARK INTER + INTRA:          -8.454
REMARK INTER:                  -8.454
REMARK INTRA:                   0.000
REMARK UNBOUND:                 0.000
REMARK SMILES C[C@H]1CC[C@@H]2[N@H+](C1)C[C@@H]1[C@H]3C[C@@H]4[C@H](C[C@H](O)[C@@H]5C[C@H](O)CC[C@]45C)[C@H]3CC[C@H]1[C@@]2(C)O
REMARK SMILES IDX 5 1 6 2 8 3 7 4 4 5 29 6 3 7 28 8 30 9 2 10 27 11 9 12 1 13
REMARK SMILES IDX 26 14 10 15 25 16 11 17 13 18 12 19 14 20 23 21 15 22 17 23
REMARK SMILES IDX 22 24 24 25 18 26 21 27 19 28 31 30 16 32 20 34
REMARK H PARENT 6 29 31 31 16 33 20 35
REMARK Flexibility Score: inf
ROOT
ATOM      1  C   UNL     1      24.591 -28.467  33.233  1.00  0.00     0.216 C 
ATOM      2  N   UNL     1      23.417 -27.540  33.230  1.00  0.00    -0.330 N 
ATOM      3  C   UNL     1      23.173 -26.833  34.534  1.00  0.00     0.266 C 
ATOM      4  C   UNL     1      23.448 -26.517  32.145  1.00  0.00     0.265 C 
ATOM      5  C   UNL     1      24.918 -29.146  31.879  1.00  0.00     0.069 C 
ATOM      6  C   UNL     1      25.860 -27.986  34.034  1.00  0.00     0.117 C 
ATOM      7  C   UNL     1      24.040 -28.625  30.735  1.00  0.00     0.015 C 
ATOM      8  C   UNL     1      25.405 -27.341  35.425  1.00  0.00     0.036 C 
ATOM      9  C   UNL     1      26.819 -26.975  33.357  1.00  0.00     0.049 C 
ATOM     10  C   UNL     1      23.834 -27.089  30.765  1.00  0.00     0.041 C 
ATOM     11  C   UNL     1      26.281 -27.741  36.674  1.00  0.00     0.007 C 
ATOM     12  C   UNL     1      23.895 -27.544  35.686  1.00  0.00     0.054 C 
ATOM     13  C   UNL     1      25.070 -26.350  30.145  1.00  0.00     0.013 C 
ATOM     14  C   UNL     1      25.584 -28.747  37.585  1.00  0.00     0.004 C 
ATOM     15  C   UNL     1      23.565 -27.138  37.156  1.00  0.00     0.002 C 
ATOM     16  C   UNL     1      24.263 -28.141  38.124  1.00  0.00    -0.004 C 
ATOM     17  C   UNL     1      22.068 -27.239  37.510  1.00  0.00     0.009 C 
ATOM     18  C   UNL     1      23.196 -29.226  38.325  1.00  0.00    -0.001 C 
ATOM     19  C   UNL     1      21.919 -28.448  38.465  1.00  0.00    -0.001 C 
ATOM     20  C   UNL     1      23.357 -30.109  39.547  1.00  0.00     0.036 C 
ATOM     21  C   UNL     1      20.647 -29.373  38.379  1.00  0.00    -0.024 C 
ATOM     22  C   UNL     1      22.387 -31.282  39.418  1.00  0.00     0.118 C 
ATOM     23  C   UNL     1      20.967 -30.909  38.768  1.00  0.00     0.026 C 
ATOM     24  C   UNL     1      20.005 -29.274  36.940  1.00  0.00     0.010 C 
ATOM     25  C   UNL     1      19.620 -28.768  39.382  1.00  0.00     0.012 C 
ATOM     26  C   UNL     1      20.657 -31.879  37.587  1.00  0.00     0.038 C 
ATOM     27  C   UNL     1      18.893 -30.270  36.645  1.00  0.00     0.032 C 
ATOM     28  C   UNL     1      19.217 -31.707  37.069  1.00  0.00     0.114 C 
ATOM     29  H   UNL     1      22.560 -28.111  33.053  1.00  0.00     0.348 HD
ENDROOT
BRANCH   6  30
ATOM     30  O   UNL     1      26.615 -29.125  34.352  1.00  0.00    -0.384 OA
ATOM     31  H   UNL     1      26.048 -29.927  34.456  1.00  0.00     0.211 HD
ENDBRANCH   6  30
BRANCH  22  32
ATOM     32  O   UNL     1      22.989 -32.376  38.723  1.00  0.00    -0.393 OA
ATOM     33  H   UNL     1      22.625 -33.247  39.035  1.00  0.00     0.210 HD
ENDBRANCH  22  32
BRANCH  28  34
ATOM     34  O   UNL     1      18.900 -32.571  35.996  1.00  0.00    -0.393 OA
ATOM     35  H   UNL     1      19.376 -33.449  36.117  1.00  0.00     0.210 HD
ENDBRANCH  28  34
TORSDOF 3
ENDMDL
MODEL 7
REMARK VINA RESULT:    -7.627      6.897     10.283
REMARK INTER + INTRA:          -8.296
REMARK INTER:                  -8.296
REMARK INTRA:                   0.000
REMARK UNBOUND:                 0.000
REMARK SMILES C[C@H]1CC[C@@H]2[N@H+](C1)C[C@@H]1[C@H]3C[C@@H]4[C@H](C[C@H](O)[C@@H]5C[C@H](O)CC[C@]45C)[C@H]3CC[C@H]1[C@@]2(C)O
REMARK SMILES IDX 5 1 6 2 8 3 7 4 4 5 29 6 3 7 28 8 30 9 2 10 27 11 9 12 1 13
REMARK SMILES IDX 26 14 10 15 25 16 11 17 13 18 12 19 14 20 23 21 15 22 17 23
REMARK SMILES IDX 22 24 24 25 18 26 21 27 19 28 31 30 16 32 20 34
REMARK H PARENT 6 29 31 31 16 33 20 35
REMARK Flexibility Score: inf
ROOT
ATOM      1  C   UNL     1      19.486 -31.329  33.390  1.00  0.00     0.216 C 
ATOM      2  N   UNL     1      20.219 -31.496  34.683  1.00  0.00    -0.330 N 
ATOM      3  C   UNL     1      20.407 -30.227  35.465  1.00  0.00     0.266 C 
ATOM      4  C   UNL     1      19.628 -32.520  35.593  1.00  0.00     0.265 C 
ATOM      5  C   UNL     1      19.202 -32.633  32.602  1.00  0.00     0.069 C 
ATOM      6  C   UNL     1      18.287 -30.306  33.392  1.00  0.00     0.117 C 
ATOM      7  C   UNL     1      19.617 -33.888  33.377  1.00  0.00     0.015 C 
ATOM      8  C   UNL     1      18.707 -28.989  34.196  1.00  0.00     0.036 C 
ATOM      9  C   UNL     1      16.923 -30.771  33.961  1.00  0.00     0.049 C 
ATOM     10  C   UNL     1      19.248 -33.835  34.883  1.00  0.00     0.041 C 
ATOM     11  C   UNL     1      18.268 -27.625  33.537  1.00  0.00     0.007 C 
ATOM     12  C   UNL     1      20.207 -28.997  34.570  1.00  0.00     0.054 C 
ATOM     13  C   UNL     1      17.740 -34.206  35.099  1.00  0.00     0.013 C 
ATOM     14  C   UNL     1      19.431 -26.886  32.882  1.00  0.00     0.004 C 
ATOM     15  C   UNL     1      20.613 -27.590  35.109  1.00  0.00     0.002 C 
ATOM     16  C   UNL     1      20.510 -26.557  33.946  1.00  0.00    -0.004 C 
ATOM     17  C   UNL     1      22.080 -27.499  35.575  1.00  0.00     0.009 C 
ATOM     18  C   UNL     1      21.918 -26.582  33.335  1.00  0.00    -0.001 C 
ATOM     19  C   UNL     1      22.824 -26.632  34.531  1.00  0.00    -0.001 C 
ATOM     20  C   UNL     1      22.304 -25.385  32.488  1.00  0.00     0.036 C 
ATOM     21  C   UNL     1      24.311 -26.968  34.137  1.00  0.00    -0.024 C 
ATOM     22  C   UNL     1      23.600 -25.723  31.751  1.00  0.00     0.118 C 
ATOM     23  C   UNL     1      24.649 -26.590  32.602  1.00  0.00     0.026 C 
ATOM     24  C   UNL     1      24.614 -28.490  34.426  1.00  0.00     0.010 C 
ATOM     25  C   UNL     1      25.201 -26.132  35.105  1.00  0.00     0.012 C 
ATOM     26  C   UNL     1      25.084 -27.843  31.782  1.00  0.00     0.038 C 
ATOM     27  C   UNL     1      25.945 -29.008  33.901  1.00  0.00     0.032 C 
ATOM     28  C   UNL     1      26.249 -28.592  32.459  1.00  0.00     0.114 C 
ATOM     29  H   UNL     1      21.182 -31.839  34.463  1.00  0.00     0.348 HD
ENDROOT
BRANCH   6  30
ATOM     30  O   UNL     1      18.070 -29.908  32.065  1.00  0.00    -0.384 OA
ATOM     31  H   UNL     1      18.011 -30.680  31.451  1.00  0.00     0.211 HD
ENDBRANCH   6  30
BRANCH  22  32
ATOM     32  O   UNL     1      23.330 -26.347  30.493  1.00  0.00    -0.393 OA
ATOM     33  H   UNL     1      23.550 -25.743  29.736  1.00  0.00     0.210 HD
ENDBRANCH  22  32
BRANCH  28  34
ATOM     34  O   UNL     1      26.670 -29.735  31.743  1.00  0.00    -0.393 OA
ATOM     35  H   UNL     1      27.520 -30.093  32.146  1.00  0.00     0.210 HD
ENDBRANCH  28  34
TORSDOF 3
ENDMDL
MODEL 8
REMARK VINA RESULT:    -7.600      1.645      2.626
REMARK INTER + INTRA:          -8.267
REMARK INTER:                  -8.267
REMARK INTRA:                   0.000
REMARK UNBOUND:                 0.000
REMARK SMILES C[C@H]1CC[C@@H]2[N@H+](C1)C[C@@H]1[C@H]3C[C@@H]4[C@H](C[C@H](O)[C@@H]5C[C@H](O)CC[C@]45C)[C@H]3CC[C@H]1[C@@]2(C)O
REMARK SMILES IDX 5 1 6 2 8 3 7 4 4 5 29 6 3 7 28 8 30 9 2 10 27 11 9 12 1 13
REMARK SMILES IDX 26 14 10 15 25 16 11 17 13 18 12 19 14 20 23 21 15 22 17 23
REMARK SMILES IDX 22 24 24 25 18 26 21 27 19 28 31 30 16 32 20 34
REMARK H PARENT 6 29 31 31 16 33 20 35
REMARK Flexibility Score: inf
ROOT
ATOM      1  C   UNL     1      22.339 -23.505  28.094  1.00  0.00     0.216 C 
ATOM      2  N   UNL     1      23.628 -22.789  27.847  1.00  0.00    -0.330 N 
ATOM      3  C   UNL     1      24.208 -22.106  29.053  1.00  0.00     0.266 C 
ATOM      4  C   UNL     1      24.693 -23.638  27.237  1.00  0.00     0.265 C 
ATOM      5  C   UNL     1      21.761 -24.290  26.890  1.00  0.00     0.069 C 
ATOM      6  C   UNL     1      22.211 -24.259  29.473  1.00  0.00     0.117 C 
ATOM      7  C   UNL     1      22.707 -24.295  25.684  1.00  0.00     0.015 C 
ATOM      8  C   UNL     1      22.801 -23.341  30.643  1.00  0.00     0.036 C 
ATOM      9  C   UNL     1      22.869 -25.654  29.614  1.00  0.00     0.049 C 
ATOM     10  C   UNL     1      24.194 -24.511  26.067  1.00  0.00     0.041 C 
ATOM     11  C   UNL     1      21.953 -23.313  31.972  1.00  0.00     0.007 C 
ATOM     12  C   UNL     1      23.143 -21.920  30.142  1.00  0.00     0.054 C 
ATOM     13  C   UNL     1      24.492 -26.033  26.299  1.00  0.00     0.013 C 
ATOM     14  C   UNL     1      21.173 -22.013  32.146  1.00  0.00     0.004 C 
ATOM     15  C   UNL     1      23.457 -21.002  31.363  1.00  0.00     0.002 C 
ATOM     16  C   UNL     1      22.154 -20.814  32.200  1.00  0.00    -0.004 C 
ATOM     17  C   UNL     1      23.875 -19.569  30.978  1.00  0.00     0.009 C 
ATOM     18  C   UNL     1      21.527 -19.556  31.585  1.00  0.00    -0.001 C 
ATOM     19  C   UNL     1      22.699 -18.643  31.370  1.00  0.00    -0.001 C 
ATOM     20  C   UNL     1      20.503 -18.831  32.437  1.00  0.00     0.036 C 
ATOM     21  C   UNL     1      22.332 -17.404  30.469  1.00  0.00    -0.024 C 
ATOM     22  C   UNL     1      19.800 -17.797  31.559  1.00  0.00     0.118 C 
ATOM     23  C   UNL     1      20.751 -17.066  30.492  1.00  0.00     0.026 C 
ATOM     24  C   UNL     1      22.839 -17.643  28.993  1.00  0.00     0.010 C 
ATOM     25  C   UNL     1      23.145 -16.208  31.046  1.00  0.00     0.012 C 
ATOM     26  C   UNL     1      20.119 -17.165  29.069  1.00  0.00     0.038 C 
ATOM     27  C   UNL     1      22.372 -16.625  27.963  1.00  0.00     0.032 C 
ATOM     28  C   UNL     1      20.878 -16.297  28.046  1.00  0.00     0.114 C 
ATOM     29  H   UNL     1      23.443 -22.029  27.153  1.00  0.00     0.348 HD
ENDROOT
BRANCH   6  30
ATOM     30  O   UNL     1      20.844 -24.415  29.743  1.00  0.00    -0.384 OA
ATOM     31  H   UNL     1      20.493 -23.690  30.315  1.00  0.00     0.211 HD
ENDBRANCH   6  30
BRANCH  22  32
ATOM     32  O   UNL     1      18.655 -18.361  30.914  1.00  0.00    -0.393 OA
ATOM     33  H   UNL     1      17.926 -17.692  30.825  1.00  0.00     0.210 HD
ENDBRANCH  22  32
BRANCH  28  34
ATOM     34  O   UNL     1      20.333 -16.363  26.743  1.00  0.00    -0.393 OA
ATOM     35  H   UNL     1      20.908 -16.953  26.165  1.00  0.00     0.210 HD
ENDBRANCH  28  34
TORSDOF 3
ENDMDL
MODEL 9
REMARK VINA RESULT:    -7.576      2.510      7.248
REMARK INTER + INTRA:          -8.241
REMARK INTER:                  -8.241
REMARK INTRA:                   0.000
REMARK UNBOUND:                 0.000
REMARK SMILES C[C@H]1CC[C@@H]2[N@H+](C1)C[C@@H]1[C@H]3C[C@@H]4[C@H](C[C@H](O)[C@@H]5C[C@H](O)CC[C@]45C)[C@H]3CC[C@H]1[C@@]2(C)O
REMARK SMILES IDX 5 1 6 2 8 3 7 4 4 5 29 6 3 7 28 8 30 9 2 10 27 11 9 12 1 13
REMARK SMILES IDX 26 14 10 15 25 16 11 17 13 18 12 19 14 20 23 21 15 22 17 23
REMARK SMILES IDX 22 24 24 25 18 26 21 27 19 28 31 30 16 32 20 34
REMARK H PARENT 6 29 31 31 16 33 20 35
REMARK Flexibility Score: inf
ROOT
ATOM      1  C   UNL     1      23.104 -20.658  31.319  1.00  0.00     0.216 C 
ATOM      2  N   UNL     1      22.252 -20.234  30.166  1.00  0.00    -0.330 N 
ATOM      3  C   UNL     1      21.378 -21.317  29.599  1.00  0.00     0.266 C 
ATOM      4  C   UNL     1      21.396 -19.043  30.442  1.00  0.00     0.265 C 
ATOM      5  C   UNL     1      23.952 -19.542  31.979  1.00  0.00     0.069 C 
ATOM      6  C   UNL     1      22.443 -21.655  32.346  1.00  0.00     0.117 C 
ATOM      7  C   UNL     1      23.651 -18.156  31.397  1.00  0.00     0.015 C 
ATOM      8  C   UNL     1      21.630 -22.781  31.554  1.00  0.00     0.036 C 
ATOM      9  C   UNL     1      21.489 -21.079  33.423  1.00  0.00     0.049 C 
ATOM     10  C   UNL     1      22.140 -17.899  31.162  1.00  0.00     0.041 C 
ATOM     11  C   UNL     1      21.796 -24.249  32.106  1.00  0.00     0.007 C 
ATOM     12  C   UNL     1      21.875 -22.703  30.030  1.00  0.00     0.054 C 
ATOM     13  C   UNL     1      21.432 -17.486  32.498  1.00  0.00     0.013 C 
ATOM     14  C   UNL     1      22.697 -25.111  31.226  1.00  0.00     0.004 C 
ATOM     15  C   UNL     1      21.279 -23.971  29.344  1.00  0.00     0.002 C 
ATOM     16  C   UNL     1      22.092 -25.220  29.803  1.00  0.00    -0.004 C 
ATOM     17  C   UNL     1      21.409 -23.970  27.808  1.00  0.00     0.009 C 
ATOM     18  C   UNL     1      23.193 -25.325  28.739  1.00  0.00    -0.001 C 
ATOM     19  C   UNL     1      22.474 -25.036  27.453  1.00  0.00    -0.001 C 
ATOM     20  C   UNL     1      23.880 -26.671  28.613  1.00  0.00     0.036 C 
ATOM     21  C   UNL     1      23.470 -24.793  26.257  1.00  0.00    -0.024 C 
ATOM     22  C   UNL     1      25.111 -26.497  27.725  1.00  0.00     0.118 C 
ATOM     23  C   UNL     1      24.914 -25.478  26.500  1.00  0.00     0.026 C 
ATOM     24  C   UNL     1      23.615 -23.245  25.983  1.00  0.00     0.010 C 
ATOM     25  C   UNL     1      22.783 -25.417  25.006  1.00  0.00     0.012 C 
ATOM     26  C   UNL     1      26.060 -24.420  26.505  1.00  0.00     0.038 C 
ATOM     27  C   UNL     1      24.703 -22.850  24.995  1.00  0.00     0.032 C 
ATOM     28  C   UNL     1      26.043 -23.553  25.231  1.00  0.00     0.114 C 
ATOM     29  H   UNL     1      22.888 -19.947  29.387  1.00  0.00     0.348 HD
ENDROOT
BRANCH   6  30
ATOM     30  O   UNL     1      23.481 -22.314  33.021  1.00  0.00    -0.384 OA
ATOM     31  H   UNL     1      23.737 -23.157  32.574  1.00  0.00     0.211 HD
ENDBRANCH   6  30
BRANCH  22  32
ATOM     32  O   UNL     1      26.260 -26.141  28.498  1.00  0.00    -0.393 OA
ATOM     33  H   UNL     1      26.999 -26.791  28.364  1.00  0.00     0.210 HD
ENDBRANCH  22  32
BRANCH  28  34
ATOM     34  O   UNL     1      27.069 -22.582  25.201  1.00  0.00    -0.393 OA
ATOM     35  H   UNL     1      26.938 -21.975  24.408  1.00  0.00     0.210 HD
ENDBRANCH  28  34
TORSDOF 3
ENDMDL
