MODEL 1
REMARK VINA RESULT:    -4.962      0.000      0.000
REMARK INTER + INTRA:          -8.843
REMARK INTER:                  -6.848
REMARK INTRA:                  -1.995
REMARK UNBOUND:                -1.995
REMARK SMILES CC[C@@H](CC[C@H](C)[C@@H]1CC[C@H]2[C@H]3CC=C4C[C@H](O)CC[C@@]4(C)[C@H]3CC[C@]21C)C(C)C
REMARK SMILES IDX 5 1 4 2 3 3 2 4 1 5 28 6 29 7 30 8 6 9 7 10 8 11 9 12 26 13
REMARK SMILES IDX 10 14 11 15 25 16 27 17 12 18 24 19 23 20 13 21 21 22 14 23
REMARK SMILES IDX 15 24 20 25 22 26 16 27 19 28 17 29 18 30
REMARK H PARENT 18 31
REMARK Flexibility Score: inf
ROOT
ATOM      1  C   UNL     1      17.975   1.759  20.926  1.00  0.00     0.004 C 
ENDROOT
BRANCH   1   2
ATOM      2  C   UNL     1      16.594   1.094  20.710  1.00  0.00     0.004 C 
BRANCH   2   3
ATOM      3  C   UNL     1      16.379  -0.315  21.343  1.00  0.00    -0.009 C 
BRANCH   3   4
ATOM      4  C   UNL     1      17.243  -0.466  22.627  1.00  0.00     0.000 C 
ATOM      5  C   UNL     1      16.475  -1.083  23.799  1.00  0.00     0.004 C 
ENDBRANCH   3   4
BRANCH   3   6
ATOM      6  C   UNL     1      16.616  -1.484  20.327  1.00  0.00    -0.014 C 
ATOM      7  C   UNL     1      15.432  -2.464  20.274  1.00  0.00     0.007 C 
ATOM      8  C   UNL     1      17.928  -2.251  20.569  1.00  0.00     0.007 C 
ENDBRANCH   3   6
ENDBRANCH   2   3
ENDBRANCH   1   2
BRANCH   1   9
ATOM      9  C   UNL     1      19.023   1.595  19.774  1.00  0.00    -0.011 C 
ATOM     10  C   UNL     1      18.241   1.304  18.475  1.00  0.00     0.008 C 
BRANCH   9  11
ATOM     11  C   UNL     1      20.071   0.453  20.052  1.00  0.00    -0.002 C 
ATOM     12  C   UNL     1      20.639   0.466  21.469  1.00  0.00     0.005 C 
ATOM     13  C   UNL     1      21.345   0.357  19.118  1.00  0.00    -0.026 C 
ATOM     14  C   UNL     1      21.860  -0.421  21.407  1.00  0.00     0.005 C 
ATOM     15  C   UNL     1      22.515  -0.053  20.079  1.00  0.00    -0.001 C 
ATOM     16  C   UNL     1      21.123  -0.711  18.007  1.00  0.00     0.007 C 
ATOM     17  C   UNL     1      21.729   1.707  18.457  1.00  0.00     0.012 C 
ATOM     18  C   UNL     1      23.526  -1.107  19.512  1.00  0.00     0.000 C 
ATOM     19  C   UNL     1      21.373  -2.133  18.521  1.00  0.00     0.005 C 
ATOM     20  C   UNL     1      22.876  -2.360  18.799  1.00  0.00     0.003 C 
ATOM     21  C   UNL     1      24.599  -1.478  20.562  1.00  0.00     0.031 C 
ATOM     22  C   UNL     1      23.240  -3.767  19.453  1.00  0.00    -0.008 C 
ATOM     23  C   UNL     1      24.110  -2.571  21.461  1.00  0.00    -0.027 C 
ATOM     24  C   UNL     1      23.439  -3.626  20.963  1.00  0.00    -0.065 C 
ATOM     25  C   UNL     1      22.148  -4.856  19.192  1.00  0.00     0.014 C 
ATOM     26  C   UNL     1      24.567  -4.277  18.816  1.00  0.00     0.016 C 
ATOM     27  C   UNL     1      22.724  -4.557  21.920  1.00  0.00     0.063 C 
ATOM     28  C   UNL     1      22.450  -6.185  19.905  1.00  0.00     0.033 C 
ATOM     29  C   UNL     1      22.702  -6.021  21.428  1.00  0.00     0.118 C 
BRANCH  29  30
ATOM     30  O   UNL     1      23.873  -6.696  21.811  1.00  0.00    -0.393 OA
ATOM     31  H   UNL     1      24.023  -7.432  21.163  1.00  0.00     0.210 HD
ENDBRANCH  29  30
ENDBRANCH   9  11
ENDBRANCH   1   9
TORSDOF 7
ENDMDL
MODEL 2
REMARK VINA RESULT:    -4.747      2.091      4.004
REMARK INTER + INTRA:          -8.546
REMARK INTER:                  -6.564
REMARK INTRA:                  -1.982
REMARK UNBOUND:                -1.995
REMARK SMILES CC[C@@H](CC[C@H](C)[C@@H]1CC[C@H]2[C@H]3CC=C4C[C@H](O)CC[C@@]4(C)[C@H]3CC[C@]21C)C(C)C
REMARK SMILES IDX 5 1 4 2 3 3 2 4 1 5 28 6 29 7 30 8 6 9 7 10 8 11 9 12 26 13
REMARK SMILES IDX 10 14 11 15 25 16 27 17 12 18 24 19 23 20 13 21 21 22 14 23
REMARK SMILES IDX 15 24 20 25 22 26 16 27 19 28 17 29 18 30
REMARK H PARENT 18 31
REMARK Flexibility Score: inf
ROOT
ATOM      1  C   UNL     1      20.108  -0.053  18.504  1.00  0.00     0.004 C 
ENDROOT
BRANCH   1   2
ATOM      2  C   UNL     1      19.196   0.237  19.721  1.00  0.00     0.004 C 
BRANCH   2   3
ATOM      3  C   UNL     1      18.401  -0.966  20.315  1.00  0.00    -0.009 C 
BRANCH   3   4
ATOM      4  C   UNL     1      16.889  -0.616  20.413  1.00  0.00     0.000 C 
ATOM      5  C   UNL     1      15.976  -1.803  20.098  1.00  0.00     0.004 C 
ENDBRANCH   3   4
BRANCH   3   6
ATOM      6  C   UNL     1      18.984  -1.469  21.679  1.00  0.00    -0.014 C 
ATOM      7  C   UNL     1      19.041  -3.005  21.762  1.00  0.00     0.007 C 
ATOM      8  C   UNL     1      18.251  -0.900  22.907  1.00  0.00     0.007 C 
ENDBRANCH   3   6
ENDBRANCH   2   3
ENDBRANCH   1   2
BRANCH   1   9
ATOM      9  C   UNL     1      21.635  -0.236  18.797  1.00  0.00    -0.011 C 
ATOM     10  C   UNL     1      22.410   0.565  17.728  1.00  0.00     0.008 C 
BRANCH   9  11
ATOM     11  C   UNL     1      22.089  -1.744  18.787  1.00  0.00    -0.002 C 
ATOM     12  C   UNL     1      20.937  -2.735  18.625  1.00  0.00     0.005 C 
ATOM     13  C   UNL     1      22.908  -2.292  20.026  1.00  0.00    -0.026 C 
ATOM     14  C   UNL     1      21.516  -4.072  19.024  1.00  0.00     0.005 C 
ATOM     15  C   UNL     1      22.378  -3.752  20.241  1.00  0.00    -0.001 C 
ATOM     16  C   UNL     1      24.432  -2.282  19.713  1.00  0.00     0.007 C 
ATOM     17  C   UNL     1      22.651  -1.499  21.335  1.00  0.00     0.012 C 
ATOM     18  C   UNL     1      23.463  -4.825  20.599  1.00  0.00     0.000 C 
ATOM     19  C   UNL     1      24.855  -3.495  18.877  1.00  0.00     0.005 C 
ATOM     20  C   UNL     1      24.772  -4.792  19.713  1.00  0.00     0.003 C 
ATOM     21  C   UNL     1      22.838  -6.233  20.731  1.00  0.00     0.031 C 
ATOM     22  C   UNL     1      25.072  -6.136  18.911  1.00  0.00    -0.008 C 
ATOM     23  C   UNL     1      22.750  -6.906  19.396  1.00  0.00    -0.027 C 
ATOM     24  C   UNL     1      23.769  -6.835  18.520  1.00  0.00    -0.065 C 
ATOM     25  C   UNL     1      25.917  -5.892  17.617  1.00  0.00     0.014 C 
ATOM     26  C   UNL     1      25.895  -7.086  19.832  1.00  0.00     0.016 C 
ATOM     27  C   UNL     1      23.538  -7.280  17.090  1.00  0.00     0.063 C 
ATOM     28  C   UNL     1      26.123  -7.173  16.791  1.00  0.00     0.033 C 
ATOM     29  C   UNL     1      24.797  -7.901  16.445  1.00  0.00     0.118 C 
BRANCH  29  30
ATOM     30  O   UNL     1      24.890  -9.270  16.746  1.00  0.00    -0.393 OA
ATOM     31  H   UNL     1      23.989  -9.667  16.629  1.00  0.00     0.210 HD
ENDBRANCH  29  30
ENDBRANCH   9  11
ENDBRANCH   1   9
TORSDOF 7
ENDMDL
MODEL 3
REMARK VINA RESULT:    -4.728      2.601      7.231
REMARK INTER + INTRA:          -8.520
REMARK INTER:                  -6.429
REMARK INTRA:                  -2.091
REMARK UNBOUND:                -1.995
REMARK SMILES CC[C@@H](CC[C@H](C)[C@@H]1CC[C@H]2[C@H]3CC=C4C[C@H](O)CC[C@@]4(C)[C@H]3CC[C@]21C)C(C)C
REMARK SMILES IDX 5 1 4 2 3 3 2 4 1 5 28 6 29 7 30 8 6 9 7 10 8 11 9 12 26 13
REMARK SMILES IDX 10 14 11 15 25 16 27 17 12 18 24 19 23 20 13 21 21 22 14 23
REMARK SMILES IDX 15 24 20 25 22 26 16 27 19 28 17 29 18 30
REMARK H PARENT 18 31
REMARK Flexibility Score: inf
ROOT
ATOM      1  C   UNL     1      24.857  -3.639  19.997  1.00  0.00     0.004 C 
ENDROOT
BRANCH   1   2
ATOM      2  C   UNL     1      24.892  -5.135  19.599  1.00  0.00     0.004 C 
BRANCH   2   3
ATOM      3  C   UNL     1      23.523  -5.822  19.304  1.00  0.00    -0.009 C 
BRANCH   3   4
ATOM      4  C   UNL     1      23.074  -6.673  20.526  1.00  0.00     0.000 C 
ATOM      5  C   UNL     1      21.665  -6.328  21.014  1.00  0.00     0.004 C 
ENDBRANCH   3   4
BRANCH   3   6
ATOM      6  C   UNL     1      23.529  -6.650  17.974  1.00  0.00    -0.014 C 
ATOM      7  C   UNL     1      23.620  -8.165  18.227  1.00  0.00     0.007 C 
ATOM      8  C   UNL     1      24.622  -6.212  16.984  1.00  0.00     0.007 C 
ENDBRANCH   3   6
ENDBRANCH   2   3
ENDBRANCH   1   2
BRANCH   1   9
ATOM      9  C   UNL     1      23.955  -2.700  19.128  1.00  0.00    -0.011 C 
ATOM     10  C   UNL     1      24.807  -1.476  18.731  1.00  0.00     0.008 C 
BRANCH   9  11
ATOM     11  C   UNL     1      22.647  -2.239  19.875  1.00  0.00    -0.002 C 
ATOM     12  C   UNL     1      22.457  -2.885  21.246  1.00  0.00     0.005 C 
ATOM     13  C   UNL     1      21.255  -2.440  19.149  1.00  0.00    -0.026 C 
ATOM     14  C   UNL     1      21.013  -2.624  21.601  1.00  0.00     0.005 C 
ATOM     15  C   UNL     1      20.263  -2.851  20.292  1.00  0.00    -0.001 C 
ATOM     16  C   UNL     1      20.808  -1.118  18.459  1.00  0.00     0.007 C 
ATOM     17  C   UNL     1      21.265  -3.583  18.099  1.00  0.00     0.012 C 
ATOM     18  C   UNL     1      18.833  -2.216  20.216  1.00  0.00     0.000 C 
ATOM     19  C   UNL     1      20.168  -0.141  19.452  1.00  0.00     0.005 C 
ATOM     20  C   UNL     1      18.792  -0.663  19.924  1.00  0.00     0.003 C 
ATOM     21  C   UNL     1      17.963  -2.645  21.420  1.00  0.00     0.031 C 
ATOM     22  C   UNL     1      18.085   0.213  21.052  1.00  0.00    -0.008 C 
ATOM     23  C   UNL     1      18.196  -1.744  22.594  1.00  0.00    -0.027 C 
ATOM     24  C   UNL     1      18.296  -0.412  22.433  1.00  0.00    -0.065 C 
ATOM     25  C   UNL     1      18.605   1.688  21.087  1.00  0.00     0.014 C 
ATOM     26  C   UNL     1      16.558   0.265  20.751  1.00  0.00     0.016 C 
ATOM     27  C   UNL     1      18.807   0.430  23.585  1.00  0.00     0.063 C 
ATOM     28  C   UNL     1      17.996   2.507  22.238  1.00  0.00     0.033 C 
ATOM     29  C   UNL     1      18.171   1.836  23.627  1.00  0.00     0.118 C 
BRANCH  29  30
ATOM     30  O   UNL     1      16.950   1.813  24.322  1.00  0.00    -0.393 OA
ATOM     31  H   UNL     1      17.077   2.307  25.174  1.00  0.00     0.210 HD
ENDBRANCH  29  30
ENDBRANCH   9  11
ENDBRANCH   1   9
TORSDOF 7
ENDMDL
MODEL 4
REMARK VINA RESULT:    -4.717      2.308      4.214
REMARK INTER + INTRA:          -8.504
REMARK INTER:                  -7.377
REMARK INTRA:                  -1.127
REMARK UNBOUND:                -1.995
REMARK SMILES CC[C@@H](CC[C@H](C)[C@@H]1CC[C@H]2[C@H]3CC=C4C[C@H](O)CC[C@@]4(C)[C@H]3CC[C@]21C)C(C)C
REMARK SMILES IDX 5 1 4 2 3 3 2 4 1 5 28 6 29 7 30 8 6 9 7 10 8 11 9 12 26 13
REMARK SMILES IDX 10 14 11 15 25 16 27 17 12 18 24 19 23 20 13 21 21 22 14 23
REMARK SMILES IDX 15 24 20 25 22 26 16 27 19 28 17 29 18 30
REMARK H PARENT 18 31
REMARK Flexibility Score: inf
ROOT
ATOM      1  C   UNL     1      18.790  -2.492  21.021  1.00  0.00     0.004 C 
ENDROOT
BRANCH   1   2
ATOM      2  C   UNL     1      18.149  -1.433  21.950  1.00  0.00     0.004 C 
BRANCH   2   3
ATOM      3  C   UNL     1      16.903  -0.672  21.403  1.00  0.00    -0.009 C 
BRANCH   3   4
ATOM      4  C   UNL     1      16.293  -1.436  20.194  1.00  0.00     0.000 C 
ATOM      5  C   UNL     1      15.234  -2.463  20.604  1.00  0.00     0.004 C 
ENDBRANCH   3   4
BRANCH   3   6
ATOM      6  C   UNL     1      17.202   0.829  21.067  1.00  0.00    -0.014 C 
ATOM      7  C   UNL     1      15.968   1.729  21.254  1.00  0.00     0.007 C 
ATOM      8  C   UNL     1      17.800   1.036  19.665  1.00  0.00     0.007 C 
ENDBRANCH   3   6
ENDBRANCH   2   3
ENDBRANCH   1   2
BRANCH   1   9
ATOM      9  C   UNL     1      20.257  -2.219  20.548  1.00  0.00    -0.011 C 
ATOM     10  C   UNL     1      20.178  -1.467  19.203  1.00  0.00     0.008 C 
BRANCH   9  11
ATOM     11  C   UNL     1      21.110  -3.535  20.391  1.00  0.00    -0.002 C 
ATOM     12  C   UNL     1      20.794  -4.604  21.435  1.00  0.00     0.005 C 
ATOM     13  C   UNL     1      22.688  -3.417  20.413  1.00  0.00    -0.026 C 
ATOM     14  C   UNL     1      21.945  -5.578  21.353  1.00  0.00     0.005 C 
ATOM     15  C   UNL     1      23.173  -4.686  21.195  1.00  0.00    -0.001 C 
ATOM     16  C   UNL     1      23.249  -3.396  18.961  1.00  0.00     0.007 C 
ATOM     17  C   UNL     1      23.203  -2.167  21.176  1.00  0.00     0.012 C 
ATOM     18  C   UNL     1      24.450  -5.392  20.624  1.00  0.00     0.000 C 
ATOM     19  C   UNL     1      23.347  -4.803  18.364  1.00  0.00     0.005 C 
ATOM     20  C   UNL     1      24.461  -5.618  19.059  1.00  0.00     0.003 C 
ATOM     21  C   UNL     1      24.802  -6.660  21.436  1.00  0.00     0.031 C 
ATOM     22  C   UNL     1      24.574  -7.140  18.602  1.00  0.00    -0.008 C 
ATOM     23  C   UNL     1      24.037  -7.846  20.933  1.00  0.00    -0.027 C 
ATOM     24  C   UNL     1      23.888  -8.061  19.613  1.00  0.00    -0.065 C 
ATOM     25  C   UNL     1      23.951  -7.396  17.190  1.00  0.00     0.014 C 
ATOM     26  C   UNL     1      26.083  -7.519  18.520  1.00  0.00     0.016 C 
ATOM     27  C   UNL     1      22.884  -9.096  19.148  1.00  0.00     0.063 C 
ATOM     28  C   UNL     1      23.971  -8.881  16.790  1.00  0.00     0.033 C 
ATOM     29  C   UNL     1      23.319  -9.810  17.849  1.00  0.00     0.118 C 
BRANCH  29  30
ATOM     30  O   UNL     1      24.157 -10.902  18.133  1.00  0.00    -0.393 OA
ATOM     31  H   UNL     1      24.972 -10.549  18.575  1.00  0.00     0.210 HD
ENDBRANCH  29  30
ENDBRANCH   9  11
ENDBRANCH   1   9
TORSDOF 7
ENDMDL
MODEL 5
REMARK VINA RESULT:    -4.653      3.019      8.012
REMARK INTER + INTRA:          -8.416
REMARK INTER:                  -7.051
REMARK INTRA:                  -1.365
REMARK UNBOUND:                -1.995
REMARK SMILES CC[C@@H](CC[C@H](C)[C@@H]1CC[C@H]2[C@H]3CC=C4C[C@H](O)CC[C@@]4(C)[C@H]3CC[C@]21C)C(C)C
REMARK SMILES IDX 5 1 4 2 3 3 2 4 1 5 28 6 29 7 30 8 6 9 7 10 8 11 9 12 26 13
REMARK SMILES IDX 10 14 11 15 25 16 27 17 12 18 24 19 23 20 13 21 21 22 14 23
REMARK SMILES IDX 15 24 20 25 22 26 16 27 19 28 17 29 18 30
REMARK H PARENT 18 31
REMARK Flexibility Score: inf
ROOT
ATOM      1  C   UNL     1      23.142  -5.778  18.087  1.00  0.00     0.004 C 
ENDROOT
BRANCH   1   2
ATOM      2  C   UNL     1      24.567  -6.004  17.527  1.00  0.00     0.004 C 
BRANCH   2   3
ATOM      3  C   UNL     1      25.088  -7.473  17.486  1.00  0.00    -0.009 C 
BRANCH   3   4
ATOM      4  C   UNL     1      25.640  -7.809  16.071  1.00  0.00     0.000 C 
ATOM      5  C   UNL     1      25.725  -6.586  15.153  1.00  0.00     0.004 C 
ENDBRANCH   3   4
BRANCH   3   6
ATOM      6  C   UNL     1      24.023  -8.514  17.969  1.00  0.00    -0.014 C 
ATOM      7  C   UNL     1      24.389  -9.142  19.325  1.00  0.00     0.007 C 
ATOM      8  C   UNL     1      23.730  -9.617  16.937  1.00  0.00     0.007 C 
ENDBRANCH   3   6
ENDBRANCH   2   3
ENDBRANCH   1   2
BRANCH   1   9
ATOM      9  C   UNL     1      23.038  -5.105  19.497  1.00  0.00    -0.011 C 
ATOM     10  C   UNL     1      22.421  -6.142  20.460  1.00  0.00     0.008 C 
BRANCH   9  11
ATOM     11  C   UNL     1      22.178  -3.785  19.488  1.00  0.00    -0.002 C 
ATOM     12  C   UNL     1      21.374  -3.581  18.206  1.00  0.00     0.005 C 
ATOM     13  C   UNL     1      22.916  -2.404  19.714  1.00  0.00    -0.026 C 
ATOM     14  C   UNL     1      20.953  -2.131  18.239  1.00  0.00     0.005 C 
ATOM     15  C   UNL     1      22.188  -1.399  18.755  1.00  0.00    -0.001 C 
ATOM     16  C   UNL     1      22.792  -1.960  21.200  1.00  0.00     0.007 C 
ATOM     17  C   UNL     1      24.417  -2.433  19.315  1.00  0.00     0.012 C 
ATOM     18  C   UNL     1      21.930   0.033  19.336  1.00  0.00     0.000 C 
ATOM     19  C   UNL     1      21.439  -1.302  21.491  1.00  0.00     0.005 C 
ATOM     20  C   UNL     1      21.341   0.077  20.802  1.00  0.00     0.003 C 
ATOM     21  C   UNL     1      21.158   0.917  18.329  1.00  0.00     0.031 C 
ATOM     22  C   UNL     1      19.928   0.803  20.934  1.00  0.00    -0.008 C 
ATOM     23  C   UNL     1      19.681   0.703  18.455  1.00  0.00    -0.027 C 
ATOM     24  C   UNL     1      19.099   0.607  19.664  1.00  0.00    -0.065 C 
ATOM     25  C   UNL     1      19.098   0.291  22.157  1.00  0.00     0.014 C 
ATOM     26  C   UNL     1      20.175   2.327  21.145  1.00  0.00     0.016 C 
ATOM     27  C   UNL     1      17.668   0.116  19.751  1.00  0.00     0.063 C 
ATOM     28  C   UNL     1      17.695   0.919  22.229  1.00  0.00     0.033 C 
ATOM     29  C   UNL     1      16.883   0.759  20.916  1.00  0.00     0.118 C 
BRANCH  29  30
ATOM     30  O   UNL     1      16.327   1.989  20.525  1.00  0.00    -0.393 OA
ATOM     31  H   UNL     1      15.856   1.847  19.664  1.00  0.00     0.210 HD
ENDBRANCH  29  30
ENDBRANCH   9  11
ENDBRANCH   1   9
TORSDOF 7
ENDMDL
MODEL 6
REMARK VINA RESULT:    -4.597      2.981      5.581
REMARK INTER + INTRA:          -8.339
REMARK INTER:                  -6.932
REMARK INTRA:                  -1.407
REMARK UNBOUND:                -1.995
REMARK SMILES CC[C@@H](CC[C@H](C)[C@@H]1CC[C@H]2[C@H]3CC=C4C[C@H](O)CC[C@@]4(C)[C@H]3CC[C@]21C)C(C)C
REMARK SMILES IDX 5 1 4 2 3 3 2 4 1 5 28 6 29 7 30 8 6 9 7 10 8 11 9 12 26 13
REMARK SMILES IDX 10 14 11 15 25 16 27 17 12 18 24 19 23 20 13 21 21 22 14 23
REMARK SMILES IDX 15 24 20 25 22 26 16 27 19 28 17 29 18 30
REMARK H PARENT 18 31
REMARK Flexibility Score: inf
ROOT
ATOM      1  C   UNL     1      21.182  -1.798  20.113  1.00  0.00     0.004 C 
ENDROOT
BRANCH   1   2
ATOM      2  C   UNL     1      20.012  -1.058  19.421  1.00  0.00     0.004 C 
BRANCH   2   3
ATOM      3  C   UNL     1      18.938  -0.407  20.345  1.00  0.00    -0.009 C 
BRANCH   3   4
ATOM      4  C   UNL     1      18.271  -1.491  21.239  1.00  0.00     0.000 C 
ATOM      5  C   UNL     1      17.370  -2.448  20.453  1.00  0.00     0.004 C 
ENDBRANCH   3   4
BRANCH   3   6
ATOM      6  C   UNL     1      17.885   0.442  19.556  1.00  0.00    -0.014 C 
ATOM      7  C   UNL     1      18.508   1.185  18.361  1.00  0.00     0.007 C 
ATOM      8  C   UNL     1      17.102   1.427  20.442  1.00  0.00     0.007 C 
ENDBRANCH   3   6
ENDBRANCH   2   3
ENDBRANCH   1   2
BRANCH   1   9
ATOM      9  C   UNL     1      21.712  -3.092  19.409  1.00  0.00    -0.011 C 
ATOM     10  C   UNL     1      20.944  -3.242  18.078  1.00  0.00     0.008 C 
BRANCH   9  11
ATOM     11  C   UNL     1      21.542  -4.386  20.290  1.00  0.00    -0.002 C 
ATOM     12  C   UNL     1      20.594  -4.209  21.474  1.00  0.00     0.005 C 
ATOM     13  C   UNL     1      22.837  -5.045  20.918  1.00  0.00    -0.026 C 
ATOM     14  C   UNL     1      20.870  -5.390  22.373  1.00  0.00     0.005 C 
ATOM     15  C   UNL     1      22.388  -5.534  22.338  1.00  0.00    -0.001 C 
ATOM     16  C   UNL     1      23.323  -6.233  20.037  1.00  0.00     0.007 C 
ATOM     17  C   UNL     1      24.007  -4.044  21.112  1.00  0.00     0.012 C 
ATOM     18  C   UNL     1      22.943  -6.929  22.787  1.00  0.00     0.000 C 
ATOM     19  C   UNL     1      22.522  -7.511  20.306  1.00  0.00     0.005 C 
ATOM     20  C   UNL     1      22.850  -8.078  21.706  1.00  0.00     0.003 C 
ATOM     21  C   UNL     1      22.391  -7.334  24.173  1.00  0.00     0.031 C 
ATOM     22  C   UNL     1      21.985  -9.343  22.145  1.00  0.00    -0.008 C 
ATOM     23  C   UNL     1      21.062  -8.012  24.041  1.00  0.00    -0.027 C 
ATOM     24  C   UNL     1      20.845  -8.922  23.074  1.00  0.00    -0.065 C 
ATOM     25  C   UNL     1      21.378 -10.113  20.926  1.00  0.00     0.014 C 
ATOM     26  C   UNL     1      22.915 -10.335  22.906  1.00  0.00     0.016 C 
ATOM     27  C   UNL     1      19.425  -9.372  22.797  1.00  0.00     0.063 C 
ATOM     28  C   UNL     1      20.463 -11.274  21.351  1.00  0.00     0.033 C 
ATOM     29  C   UNL     1      19.343 -10.844  22.335  1.00  0.00     0.118 C 
BRANCH  29  30
ATOM     30  O   UNL     1      19.292 -11.713  23.439  1.00  0.00    -0.393 OA
ATOM     31  H   UNL     1      19.398 -12.639  23.099  1.00  0.00     0.210 HD
ENDBRANCH  29  30
ENDBRANCH   9  11
ENDBRANCH   1   9
TORSDOF 7
ENDMDL
MODEL 7
REMARK VINA RESULT:    -4.531      2.947      7.696
REMARK INTER + INTRA:          -8.248
REMARK INTER:                  -6.509
REMARK INTRA:                  -1.739
REMARK UNBOUND:                -1.995
REMARK SMILES CC[C@@H](CC[C@H](C)[C@@H]1CC[C@H]2[C@H]3CC=C4C[C@H](O)CC[C@@]4(C)[C@H]3CC[C@]21C)C(C)C
REMARK SMILES IDX 5 1 4 2 3 3 2 4 1 5 28 6 29 7 30 8 6 9 7 10 8 11 9 12 26 13
REMARK SMILES IDX 10 14 11 15 25 16 27 17 12 18 24 19 23 20 13 21 21 22 14 23
REMARK SMILES IDX 15 24 20 25 22 26 16 27 19 28 17 29 18 30
REMARK H PARENT 18 31
REMARK Flexibility Score: inf
ROOT
ATOM      1  C   UNL     1      22.384  -6.788  20.181  1.00  0.00     0.004 C 
ENDROOT
BRANCH   1   2
ATOM      2  C   UNL     1      23.863  -7.169  19.932  1.00  0.00     0.004 C 
BRANCH   2   3
ATOM      3  C   UNL     1      24.225  -7.718  18.517  1.00  0.00    -0.009 C 
BRANCH   3   4
ATOM      4  C   UNL     1      24.044  -6.606  17.446  1.00  0.00     0.000 C 
ATOM      5  C   UNL     1      24.834  -5.333  17.762  1.00  0.00     0.004 C 
ENDBRANCH   3   4
BRANCH   3   6
ATOM      6  C   UNL     1      23.446  -9.027  18.152  1.00  0.00    -0.014 C 
ATOM      7  C   UNL     1      23.558 -10.102  19.247  1.00  0.00     0.007 C 
ATOM      8  C   UNL     1      23.843  -9.617  16.788  1.00  0.00     0.007 C 
ENDBRANCH   3   6
ENDBRANCH   2   3
ENDBRANCH   1   2
BRANCH   1   9
ATOM      9  C   UNL     1      22.110  -5.711  21.284  1.00  0.00    -0.011 C 
ATOM     10  C   UNL     1      20.923  -6.212  22.135  1.00  0.00     0.008 C 
BRANCH   9  11
ATOM     11  C   UNL     1      21.798  -4.286  20.691  1.00  0.00    -0.002 C 
ATOM     12  C   UNL     1      21.515  -4.289  19.191  1.00  0.00     0.005 C 
ATOM     13  C   UNL     1      22.869  -3.138  20.887  1.00  0.00    -0.026 C 
ATOM     14  C   UNL     1      21.628  -2.843  18.771  1.00  0.00     0.005 C 
ATOM     15  C   UNL     1      22.837  -2.328  19.545  1.00  0.00    -0.001 C 
ATOM     16  C   UNL     1      22.487  -2.241  22.100  1.00  0.00     0.007 C 
ATOM     17  C   UNL     1      24.315  -3.669  21.083  1.00  0.00     0.012 C 
ATOM     18  C   UNL     1      22.934  -0.770  19.685  1.00  0.00     0.000 C 
ATOM     19  C   UNL     1      21.419  -1.204  21.732  1.00  0.00     0.005 C 
ATOM     20  C   UNL     1      22.003  -0.127  20.790  1.00  0.00     0.003 C 
ATOM     21  C   UNL     1      22.834  -0.075  18.308  1.00  0.00     0.031 C 
ATOM     22  C   UNL     1      20.951   0.938  20.243  1.00  0.00    -0.008 C 
ATOM     23  C   UNL     1      21.403   0.144  17.922  1.00  0.00    -0.027 C 
ATOM     24  C   UNL     1      20.505   0.577  18.825  1.00  0.00    -0.065 C 
ATOM     25  C   UNL     1      19.683   1.057  21.151  1.00  0.00     0.014 C 
ATOM     26  C   UNL     1      21.637   2.337  20.214  1.00  0.00     0.016 C 
ATOM     27  C   UNL     1      19.031   0.517  18.478  1.00  0.00     0.063 C 
ATOM     28  C   UNL     1      18.624   2.011  20.573  1.00  0.00     0.033 C 
ATOM     29  C   UNL     1      18.218   1.666  19.115  1.00  0.00     0.118 C 
BRANCH  29  30
ATOM     30  O   UNL     1      18.255   2.814  18.306  1.00  0.00    -0.393 OA
ATOM     31  H   UNL     1      17.408   2.847  17.790  1.00  0.00     0.210 HD
ENDBRANCH  29  30
ENDBRANCH   9  11
ENDBRANCH   1   9
TORSDOF 7
ENDMDL
MODEL 8
REMARK VINA RESULT:    -4.530      1.532      2.850
REMARK INTER + INTRA:          -8.247
REMARK INTER:                  -6.059
REMARK INTRA:                  -2.188
REMARK UNBOUND:                -1.995
REMARK SMILES CC[C@@H](CC[C@H](C)[C@@H]1CC[C@H]2[C@H]3CC=C4C[C@H](O)CC[C@@]4(C)[C@H]3CC[C@]21C)C(C)C
REMARK SMILES IDX 5 1 4 2 3 3 2 4 1 5 28 6 29 7 30 8 6 9 7 10 8 11 9 12 26 13
REMARK SMILES IDX 10 14 11 15 25 16 27 17 12 18 24 19 23 20 13 21 21 22 14 23
REMARK SMILES IDX 15 24 20 25 22 26 16 27 19 28 17 29 18 30
REMARK H PARENT 18 31
REMARK Flexibility Score: inf
ROOT
ATOM      1  C   UNL     1      17.863   0.558  19.556  1.00  0.00     0.004 C 
ENDROOT
BRANCH   1   2
ATOM      2  C   UNL     1      16.851   1.181  20.547  1.00  0.00     0.004 C 
BRANCH   2   3
ATOM      3  C   UNL     1      16.114   0.206  21.516  1.00  0.00    -0.009 C 
BRANCH   3   4
ATOM      4  C   UNL     1      16.362   0.626  22.993  1.00  0.00     0.000 C 
ATOM      5  C   UNL     1      17.389   1.753  23.133  1.00  0.00     0.004 C 
ENDBRANCH   3   4
BRANCH   3   6
ATOM      6  C   UNL     1      16.470  -1.297  21.259  1.00  0.00    -0.014 C 
ATOM      7  C   UNL     1      15.268  -2.104  20.738  1.00  0.00     0.007 C 
ATOM      8  C   UNL     1      17.089  -1.999  22.480  1.00  0.00     0.007 C 
ENDBRANCH   3   6
ENDBRANCH   2   3
ENDBRANCH   1   2
BRANCH   1   9
ATOM      9  C   UNL     1      19.381   0.759  19.880  1.00  0.00    -0.011 C 
ATOM     10  C   UNL     1      19.951   1.740  18.833  1.00  0.00     0.008 C 
BRANCH   9  11
ATOM     11  C   UNL     1      20.197  -0.589  19.869  1.00  0.00    -0.002 C 
ATOM     12  C   UNL     1      19.355  -1.819  19.539  1.00  0.00     0.005 C 
ATOM     13  C   UNL     1      20.994  -0.996  21.174  1.00  0.00    -0.026 C 
ATOM     14  C   UNL     1      20.206  -2.995  19.954  1.00  0.00     0.005 C 
ATOM     15  C   UNL     1      20.829  -2.552  21.274  1.00  0.00    -0.001 C 
ATOM     16  C   UNL     1      22.492  -0.592  21.042  1.00  0.00     0.007 C 
ATOM     17  C   UNL     1      20.412  -0.375  22.473  1.00  0.00     0.012 C 
ATOM     18  C   UNL     1      22.105  -3.346  21.717  1.00  0.00     0.000 C 
ATOM     19  C   UNL     1      23.290  -1.609  20.218  1.00  0.00     0.005 C 
ATOM     20  C   UNL     1      23.448  -2.937  20.992  1.00  0.00     0.003 C 
ATOM     21  C   UNL     1      21.843  -4.870  21.726  1.00  0.00     0.031 C 
ATOM     22  C   UNL     1      24.159  -4.112  20.183  1.00  0.00    -0.008 C 
ATOM     23  C   UNL     1      22.067  -5.457  20.366  1.00  0.00    -0.027 C 
ATOM     24  C   UNL     1      23.120  -5.083  19.617  1.00  0.00    -0.065 C 
ATOM     25  C   UNL     1      25.044  -3.587  19.005  1.00  0.00     0.014 C 
ATOM     26  C   UNL     1      25.093  -4.887  21.159  1.00  0.00     0.016 C 
ATOM     27  C   UNL     1      23.158  -5.480  18.155  1.00  0.00     0.063 C 
ATOM     28  C   UNL     1      25.651  -4.722  18.163  1.00  0.00     0.033 C 
ATOM     29  C   UNL     1      24.593  -5.730  17.640  1.00  0.00     0.118 C 
BRANCH  29  30
ATOM     30  O   UNL     1      24.995  -7.051  17.901  1.00  0.00    -0.393 OA
ATOM     31  H   UNL     1      25.906  -7.168  17.525  1.00  0.00     0.210 HD
ENDBRANCH  29  30
ENDBRANCH   9  11
ENDBRANCH   1   9
TORSDOF 7
ENDMDL
MODEL 9
REMARK VINA RESULT:    -4.478      2.977      5.965
REMARK INTER + INTRA:          -8.175
REMARK INTER:                  -6.547
REMARK INTRA:                  -1.628
REMARK UNBOUND:                -1.995
REMARK SMILES CC[C@@H](CC[C@H](C)[C@@H]1CC[C@H]2[C@H]3CC=C4C[C@H](O)CC[C@@]4(C)[C@H]3CC[C@]21C)C(C)C
REMARK SMILES IDX 5 1 4 2 3 3 2 4 1 5 28 6 29 7 30 8 6 9 7 10 8 11 9 12 26 13
REMARK SMILES IDX 10 14 11 15 25 16 27 17 12 18 24 19 23 20 13 21 21 22 14 23
REMARK SMILES IDX 15 24 20 25 22 26 16 27 19 28 17 29 18 30
REMARK H PARENT 18 31
REMARK Flexibility Score: inf
ROOT
ATOM      1  C   UNL     1      20.143  -1.952  19.915  1.00  0.00     0.004 C 
ENDROOT
BRANCH   1   2
ATOM      2  C   UNL     1      20.597  -0.605  20.528  1.00  0.00     0.004 C 
BRANCH   2   3
ATOM      3  C   UNL     1      20.828   0.581  19.542  1.00  0.00    -0.009 C 
BRANCH   3   4
ATOM      4  C   UNL     1      19.958   0.397  18.266  1.00  0.00     0.000 C 
ATOM      5  C   UNL     1      18.655   1.200  18.306  1.00  0.00     0.004 C 
ENDBRANCH   3   4
BRANCH   3   6
ATOM      6  C   UNL     1      22.340   0.808  19.201  1.00  0.00    -0.014 C 
ATOM      7  C   UNL     1      22.670   0.461  17.739  1.00  0.00     0.007 C 
ATOM      8  C   UNL     1      23.300   0.069  20.150  1.00  0.00     0.007 C 
ENDBRANCH   3   6
ENDBRANCH   2   3
ENDBRANCH   1   2
BRANCH   1   9
ATOM      9  C   UNL     1      21.270  -2.978  19.557  1.00  0.00    -0.011 C 
ATOM     10  C   UNL     1      21.123  -3.322  18.059  1.00  0.00     0.008 C 
BRANCH   9  11
ATOM     11  C   UNL     1      21.210  -4.288  20.429  1.00  0.00    -0.002 C 
ATOM     12  C   UNL     1      20.309  -4.173  21.656  1.00  0.00     0.005 C 
ATOM     13  C   UNL     1      22.566  -4.881  20.990  1.00  0.00    -0.026 C 
ATOM     14  C   UNL     1      20.689  -5.347  22.528  1.00  0.00     0.005 C 
ATOM     15  C   UNL     1      22.210  -5.407  22.424  1.00  0.00    -0.001 C 
ATOM     16  C   UNL     1      23.074  -6.032  20.074  1.00  0.00     0.007 C 
ATOM     17  C   UNL     1      23.688  -3.819  21.143  1.00  0.00     0.012 C 
ATOM     18  C   UNL     1      22.859  -6.773  22.830  1.00  0.00     0.000 C 
ATOM     19  C   UNL     1      22.357  -7.355  20.365  1.00  0.00     0.005 C 
ATOM     20  C   UNL     1      22.779  -7.916  21.741  1.00  0.00     0.003 C 
ATOM     21  C   UNL     1      22.394  -7.221  24.236  1.00  0.00     0.031 C 
ATOM     22  C   UNL     1      22.005  -9.230  22.204  1.00  0.00    -0.008 C 
ATOM     23  C   UNL     1      21.099  -7.969  24.155  1.00  0.00    -0.027 C 
ATOM     24  C   UNL     1      20.887  -8.881  23.189  1.00  0.00    -0.065 C 
ATOM     25  C   UNL     1      21.385 -10.021  21.005  1.00  0.00     0.014 C 
ATOM     26  C   UNL     1      23.020 -10.177  22.911  1.00  0.00     0.016 C 
ATOM     27  C   UNL     1      19.482  -9.405  22.970  1.00  0.00     0.063 C 
ATOM     28  C   UNL     1      20.555 -11.234  21.457  1.00  0.00     0.033 C 
ATOM     29  C   UNL     1      19.459 -10.875  22.496  1.00  0.00     0.118 C 
BRANCH  29  30
ATOM     30  O   UNL     1      19.506 -11.755  23.590  1.00  0.00    -0.393 OA
ATOM     31  H   UNL     1      19.789 -11.233  24.385  1.00  0.00     0.210 HD
ENDBRANCH  29  30
ENDBRANCH   9  11
ENDBRANCH   1   9
TORSDOF 7
ENDMDL
