MODEL 1
REMARK VINA RESULT:    67.863      0.000      0.000
REMARK INTER + INTRA:          93.177
REMARK INTER:                  93.651
REMARK INTRA:                  -0.474
REMARK UNBOUND:                -0.474
REMARK SMILES CC[C@H](CC[C@H](C)[C@@H]1CC[C@H]2[C@@H]3CC=C4C[C@@H](O)CC[C@]4(C)[C@@H]3CC[C@]21C)C(C)C
REMARK SMILES IDX 5 1 4 2 3 3 2 4 1 5 28 6 29 7 30 8 6 9 7 10 8 11 9 12 26 13
REMARK SMILES IDX 10 14 11 15 25 16 27 17 12 18 24 19 23 20 13 21 21 22 14 23
REMARK SMILES IDX 15 24 20 25 22 26 16 27 19 28 17 29 18 30
REMARK H PARENT 18 31
REMARK Flexibility Score: inf
ROOT
ATOM      1  C   UNL     1      16.047  19.863  21.194  1.00  0.00     0.004 C 
ENDROOT
BRANCH   1   2
ATOM      2  C   UNL     1      15.269  21.113  20.739  1.00  0.00     0.004 C 
BRANCH   2   3
ATOM      3  C   UNL     1      16.224  22.307  20.419  1.00  0.00    -0.009 C 
BRANCH   3   4
ATOM      4  C   UNL     1      17.104  22.019  19.175  1.00  0.00     0.000 C 
ATOM      5  C   UNL     1      17.440  23.283  18.381  1.00  0.00     0.004 C 
ENDBRANCH   3   4
BRANCH   3   6
ATOM      6  C   UNL     1      15.481  23.674  20.272  1.00  0.00    -0.014 C 
ATOM      7  C   UNL     1      15.116  24.276  21.640  1.00  0.00     0.007 C 
ATOM      8  C   UNL     1      14.242  23.613  19.360  1.00  0.00     0.007 C 
ENDBRANCH   3   6
ENDBRANCH   2   3
ENDBRANCH   1   2
BRANCH   1   9
ATOM      9  C   UNL     1      15.984  19.639  22.729  1.00  0.00    -0.011 C 
ATOM     10  C   UNL     1      15.250  20.794  23.441  1.00  0.00     0.008 C 
BRANCH   9  11
ATOM     11  C   UNL     1      17.368  19.225  23.369  1.00  0.00    -0.002 C 
ATOM     12  C   UNL     1      18.123  18.272  22.424  1.00  0.00     0.005 C 
ATOM     13  C   UNL     1      17.425  18.506  24.767  1.00  0.00    -0.026 C 
ATOM     14  C   UNL     1      18.016  16.868  23.018  1.00  0.00     0.005 C 
ATOM     15  C   UNL     1      17.342  16.997  24.396  1.00  0.00    -0.001 C 
ATOM     16  C   UNL     1      18.800  18.830  25.433  1.00  0.00     0.007 C 
ATOM     17  C   UNL     1      16.311  18.972  25.737  1.00  0.00     0.012 C 
ATOM     18  C   UNL     1      17.932  15.976  25.421  1.00  0.00     0.000 C 
ATOM     19  C   UNL     1      19.213  17.852  26.544  1.00  0.00     0.005 C 
ATOM     20  C   UNL     1      19.304  16.407  26.003  1.00  0.00     0.003 C 
ATOM     21  C   UNL     1      16.922  15.640  26.533  1.00  0.00     0.031 C 
ATOM     22  C   UNL     1      19.881  15.318  27.005  1.00  0.00    -0.008 C 
ATOM     23  C   UNL     1      17.492  14.763  27.605  1.00  0.00    -0.027 C 
ATOM     24  C   UNL     1      18.803  14.719  27.916  1.00  0.00    -0.065 C 
ATOM     25  C   UNL     1      21.014  15.911  27.905  1.00  0.00     0.014 C 
ATOM     26  C   UNL     1      20.480  14.163  26.154  1.00  0.00     0.016 C 
ATOM     27  C   UNL     1      19.238  13.832  29.071  1.00  0.00     0.063 C 
ATOM     28  C   UNL     1      21.521  14.944  28.986  1.00  0.00     0.033 C 
ATOM     29  C   UNL     1      20.361  14.488  29.887  1.00  0.00     0.118 C 
BRANCH  29  30
ATOM     30  O   UNL     1      20.822  13.618  30.888  1.00  0.00    -0.393 OA
ATOM     31  H   UNL     1      21.633  14.024  31.292  1.00  0.00     0.210 HD
ENDBRANCH  29  30
ENDBRANCH   9  11
ENDBRANCH   1   9
TORSDOF 7
ENDMDL
MODEL 2
REMARK VINA RESULT:    68.190      3.123      5.921
REMARK INTER + INTRA:          93.628
REMARK INTER:                  94.201
REMARK INTRA:                  -0.573
REMARK UNBOUND:                -0.474
REMARK SMILES CC[C@H](CC[C@H](C)[C@@H]1CC[C@H]2[C@@H]3CC=C4C[C@@H](O)CC[C@]4(C)[C@@H]3CC[C@]21C)C(C)C
REMARK SMILES IDX 5 1 4 2 3 3 2 4 1 5 28 6 29 7 30 8 6 9 7 10 8 11 9 12 26 13
REMARK SMILES IDX 10 14 11 15 25 16 27 17 12 18 24 19 23 20 13 21 21 22 14 23
REMARK SMILES IDX 15 24 20 25 22 26 16 27 19 28 17 29 18 30
REMARK H PARENT 18 31
REMARK Flexibility Score: inf
ROOT
ATOM      1  C   UNL     1      15.849  15.810  23.602  1.00  0.00     0.004 C 
ENDROOT
BRANCH   1   2
ATOM      2  C   UNL     1      14.945  15.375  24.771  1.00  0.00     0.004 C 
BRANCH   2   3
ATOM      3  C   UNL     1      14.712  13.831  24.782  1.00  0.00    -0.009 C 
BRANCH   3   4
ATOM      4  C   UNL     1      15.473  13.143  25.946  1.00  0.00     0.000 C 
ATOM      5  C   UNL     1      15.428  11.615  25.862  1.00  0.00     0.004 C 
ENDBRANCH   3   4
BRANCH   3   6
ATOM      6  C   UNL     1      13.201  13.431  24.790  1.00  0.00    -0.014 C 
ATOM      7  C   UNL     1      12.514  13.819  26.110  1.00  0.00     0.007 C 
ATOM      8  C   UNL     1      12.949  11.948  24.465  1.00  0.00     0.007 C 
ENDBRANCH   3   6
ENDBRANCH   2   3
ENDBRANCH   1   2
BRANCH   1   9
ATOM      9  C   UNL     1      16.520  17.189  23.839  1.00  0.00    -0.011 C 
ATOM     10  C   UNL     1      16.488  18.061  22.567  1.00  0.00     0.008 C 
BRANCH   9  11
ATOM     11  C   UNL     1      17.923  17.100  24.559  1.00  0.00    -0.002 C 
ATOM     12  C   UNL     1      18.807  16.046  23.866  1.00  0.00     0.005 C 
ATOM     13  C   UNL     1      18.023  16.739  26.087  1.00  0.00    -0.026 C 
ATOM     14  C   UNL     1      18.842  14.818  24.773  1.00  0.00     0.005 C 
ATOM     15  C   UNL     1      18.121  15.187  26.082  1.00  0.00    -0.001 C 
ATOM     16  C   UNL     1      19.334  17.367  26.659  1.00  0.00     0.007 C 
ATOM     17  C   UNL     1      16.837  17.287  26.920  1.00  0.00     0.012 C 
ATOM     18  C   UNL     1      18.793  14.509  27.319  1.00  0.00     0.000 C 
ATOM     19  C   UNL     1      19.823  16.731  27.969  1.00  0.00     0.005 C 
ATOM     20  C   UNL     1      20.092  15.220  27.783  1.00  0.00     0.003 C 
ATOM     21  C   UNL     1      17.797  14.327  28.478  1.00  0.00     0.031 C 
ATOM     22  C   UNL     1      20.760  14.471  29.013  1.00  0.00    -0.008 C 
ATOM     23  C   UNL     1      18.433  13.798  29.727  1.00  0.00    -0.027 C 
ATOM     24  C   UNL     1      19.731  13.980  30.040  1.00  0.00    -0.065 C 
ATOM     25  C   UNL     1      21.794  15.385  29.749  1.00  0.00     0.014 C 
ATOM     26  C   UNL     1      21.508  13.226  28.458  1.00  0.00     0.016 C 
ATOM     27  C   UNL     1      20.231  13.445  31.372  1.00  0.00     0.063 C 
ATOM     28  C   UNL     1      22.377  14.763  31.027  1.00  0.00     0.033 C 
ATOM     29  C   UNL     1      21.251  14.400  32.009  1.00  0.00     0.118 C 
BRANCH  29  30
ATOM     30  O   UNL     1      21.779  13.847  33.188  1.00  0.00    -0.393 OA
ATOM     31  H   UNL     1      22.719  13.585  33.004  1.00  0.00     0.210 HD
ENDBRANCH  29  30
ENDBRANCH   9  11
ENDBRANCH   1   9
TORSDOF 7
ENDMDL
MODEL 3
REMARK VINA RESULT:    69.279      1.279      3.109
REMARK INTER + INTRA:          95.130
REMARK INTER:                  95.969
REMARK INTRA:                  -0.839
REMARK UNBOUND:                -0.474
REMARK SMILES CC[C@H](CC[C@H](C)[C@@H]1CC[C@H]2[C@@H]3CC=C4C[C@@H](O)CC[C@]4(C)[C@@H]3CC[C@]21C)C(C)C
REMARK SMILES IDX 5 1 4 2 3 3 2 4 1 5 28 6 29 7 30 8 6 9 7 10 8 11 9 12 26 13
REMARK SMILES IDX 10 14 11 15 25 16 27 17 12 18 24 19 23 20 13 21 21 22 14 23
REMARK SMILES IDX 15 24 20 25 22 26 16 27 19 28 17 29 18 30
REMARK H PARENT 18 31
REMARK Flexibility Score: inf
ROOT
ATOM      1  C   UNL     1      15.789  20.763  20.742  1.00  0.00     0.004 C 
ENDROOT
BRANCH   1   2
ATOM      2  C   UNL     1      16.547  21.496  19.618  1.00  0.00     0.004 C 
BRANCH   2   3
ATOM      3  C   UNL     1      16.393  23.046  19.729  1.00  0.00    -0.009 C 
BRANCH   3   4
ATOM      4  C   UNL     1      16.692  23.750  18.379  1.00  0.00     0.000 C 
ATOM      5  C   UNL     1      17.989  23.261  17.730  1.00  0.00     0.004 C 
ENDBRANCH   3   4
BRANCH   3   6
ATOM      6  C   UNL     1      15.008  23.494  20.297  1.00  0.00    -0.014 C 
ATOM      7  C   UNL     1      14.131  24.149  19.216  1.00  0.00     0.007 C 
ATOM      8  C   UNL     1      15.108  24.401  21.535  1.00  0.00     0.007 C 
ENDBRANCH   3   6
ENDBRANCH   2   3
ENDBRANCH   1   2
BRANCH   1   9
ATOM      9  C   UNL     1      15.275  19.364  20.310  1.00  0.00    -0.011 C 
ATOM     10  C   UNL     1      13.934  19.461  19.554  1.00  0.00     0.008 C 
BRANCH   9  11
ATOM     11  C   UNL     1      15.322  18.284  21.463  1.00  0.00    -0.002 C 
ATOM     12  C   UNL     1      14.333  18.662  22.582  1.00  0.00     0.005 C 
ATOM     13  C   UNL     1      16.664  17.976  22.224  1.00  0.00    -0.026 C 
ATOM     14  C   UNL     1      15.157  19.195  23.752  1.00  0.00     0.005 C 
ATOM     15  C   UNL     1      16.644  18.986  23.407  1.00  0.00    -0.001 C 
ATOM     16  C   UNL     1      16.604  16.510  22.757  1.00  0.00     0.007 C 
ATOM     17  C   UNL     1      17.917  18.099  21.321  1.00  0.00     0.012 C 
ATOM     18  C   UNL     1      17.481  18.620  24.674  1.00  0.00     0.000 C 
ATOM     19  C   UNL     1      17.586  16.209  23.900  1.00  0.00     0.005 C 
ATOM     20  C   UNL     1      17.329  17.138  25.108  1.00  0.00     0.003 C 
ATOM     21  C   UNL     1      18.959  19.017  24.512  1.00  0.00     0.031 C 
ATOM     22  C   UNL     1      18.164  16.826  26.423  1.00  0.00    -0.008 C 
ATOM     23  C   UNL     1      19.821  18.569  25.652  1.00  0.00    -0.027 C 
ATOM     24  C   UNL     1      19.542  17.500  26.425  1.00  0.00    -0.065 C 
ATOM     25  C   UNL     1      18.367  15.288  26.621  1.00  0.00     0.014 C 
ATOM     26  C   UNL     1      17.361  17.379  27.634  1.00  0.00     0.016 C 
ATOM     27  C   UNL     1      20.536  17.117  27.508  1.00  0.00     0.063 C 
ATOM     28  C   UNL     1      19.279  14.927  27.803  1.00  0.00     0.033 C 
ATOM     29  C   UNL     1      20.656  15.591  27.641  1.00  0.00     0.118 C 
BRANCH  29  30
ATOM     30  O   UNL     1      21.502  15.251  28.710  1.00  0.00    -0.393 OA
ATOM     31  H   UNL     1      21.901  16.091  29.057  1.00  0.00     0.210 HD
ENDBRANCH  29  30
ENDBRANCH   9  11
ENDBRANCH   1   9
TORSDOF 7
ENDMDL
