MODEL 1
REMARK VINA RESULT:    -6.971      0.000      0.000
REMARK INTER + INTRA:         -10.592
REMARK INTER:                  -9.620
REMARK INTRA:                  -0.971
REMARK UNBOUND:                -0.971
REMARK SMILES CC[C@H](CC[C@@H](C)[C@H]1CC[C@H]2[C@@H]3CC=C4C[C@@H](O)CC[C@@]4(C)[C@H]3CC[C@]12C)C(C)C
REMARK SMILES IDX 5 1 4 2 3 3 2 4 1 5 28 6 29 7 30 8 6 9 7 10 8 11 9 12 26 13
REMARK SMILES IDX 10 14 11 15 25 16 27 17 12 18 24 19 23 20 13 21 21 22 14 23
REMARK SMILES IDX 15 24 20 25 22 26 16 27 19 28 17 29 18 30
REMARK H PARENT 18 31
REMARK Flexibility Score: inf
ROOT
ATOM      1  C   UNL     1      11.016  -8.043  27.074  1.00  0.00     0.004 C 
ENDROOT
BRANCH   1   2
ATOM      2  C   UNL     1       9.829  -7.378  27.803  1.00  0.00     0.004 C 
BRANCH   2   3
ATOM      3  C   UNL     1       8.803  -8.382  28.401  1.00  0.00    -0.009 C 
BRANCH   3   4
ATOM      4  C   UNL     1       9.456  -9.248  29.517  1.00  0.00     0.000 C 
ATOM      5  C   UNL     1       9.820  -8.508  30.806  1.00  0.00     0.004 C 
ENDBRANCH   3   4
BRANCH   3   6
ATOM      6  C   UNL     1       7.411  -7.747  28.752  1.00  0.00    -0.014 C 
ATOM      7  C   UNL     1       6.943  -6.726  27.703  1.00  0.00     0.007 C 
ATOM      8  C   UNL     1       6.288  -8.753  29.065  1.00  0.00     0.007 C 
ENDBRANCH   3   6
ENDBRANCH   2   3
ENDBRANCH   1   2
BRANCH   1   9
ATOM      9  C   UNL     1      10.639  -8.606  25.664  1.00  0.00    -0.011 C 
ATOM     10  C   UNL     1       9.937  -7.504  24.851  1.00  0.00     0.008 C 
BRANCH   9  11
ATOM     11  C   UNL     1      11.900  -9.178  24.925  1.00  0.00    -0.002 C 
ATOM     12  C   UNL     1      13.194  -8.398  25.297  1.00  0.00     0.005 C 
ATOM     13  C   UNL     1      12.295 -10.669  25.163  1.00  0.00    -0.026 C 
ATOM     14  C   UNL     1      14.356  -9.400  25.269  1.00  0.00     0.005 C 
ATOM     15  C   UNL     1      13.748 -10.649  24.659  1.00  0.00    -0.001 C 
ATOM     16  C   UNL     1      11.543 -11.707  24.289  1.00  0.00     0.007 C 
ATOM     17  C   UNL     1      12.182 -11.032  26.679  1.00  0.00     0.012 C 
ATOM     18  C   UNL     1      14.490 -11.992  24.843  1.00  0.00     0.000 C 
ATOM     19  C   UNL     1      12.196 -13.104  24.391  1.00  0.00     0.005 C 
ATOM     20  C   UNL     1      13.726 -13.103  24.068  1.00  0.00     0.003 C 
ATOM     21  C   UNL     1      15.911 -11.899  24.270  1.00  0.00     0.031 C 
ATOM     22  C   UNL     1      14.425 -14.519  24.211  1.00  0.00    -0.008 C 
ATOM     23  C   UNL     1      16.609 -13.221  24.355  1.00  0.00    -0.027 C 
ATOM     24  C   UNL     1      15.961 -14.403  24.288  1.00  0.00    -0.065 C 
ATOM     25  C   UNL     1      13.955 -15.262  25.502  1.00  0.00     0.014 C 
ATOM     26  C   UNL     1      14.054 -15.361  22.962  1.00  0.00     0.016 C 
ATOM     27  C   UNL     1      16.750 -15.669  24.552  1.00  0.00     0.063 C 
ATOM     28  C   UNL     1      14.750 -16.547  25.819  1.00  0.00     0.033 C 
ATOM     29  C   UNL     1      16.267 -16.309  25.860  1.00  0.00     0.118 C 
BRANCH  29  30
ATOM     30  O   UNL     1      16.583 -15.486  26.955  1.00  0.00    -0.393 OA
ATOM     31  H   UNL     1      17.562 -15.327  26.921  1.00  0.00     0.210 HD
ENDBRANCH  29  30
ENDBRANCH   9  11
ENDBRANCH   1   9
TORSDOF 7
ENDMDL
MODEL 2
REMARK VINA RESULT:    -6.341      1.838      3.011
REMARK INTER + INTRA:          -9.722
REMARK INTER:                  -8.985
REMARK INTRA:                  -0.737
REMARK UNBOUND:                -0.971
REMARK SMILES CC[C@H](CC[C@@H](C)[C@H]1CC[C@H]2[C@@H]3CC=C4C[C@@H](O)CC[C@@]4(C)[C@H]3CC[C@]12C)C(C)C
REMARK SMILES IDX 5 1 4 2 3 3 2 4 1 5 28 6 29 7 30 8 6 9 7 10 8 11 9 12 26 13
REMARK SMILES IDX 10 14 11 15 25 16 27 17 12 18 24 19 23 20 13 21 21 22 14 23
REMARK SMILES IDX 15 24 20 25 22 26 16 27 19 28 17 29 18 30
REMARK H PARENT 18 31
REMARK Flexibility Score: inf
ROOT
ATOM      1  C   UNL     1      10.998  -9.127  27.568  1.00  0.00     0.004 C 
ENDROOT
BRANCH   1   2
ATOM      2  C   UNL     1       9.555  -8.593  27.461  1.00  0.00     0.004 C 
BRANCH   2   3
ATOM      3  C   UNL     1       8.753  -8.646  28.793  1.00  0.00    -0.009 C 
BRANCH   3   4
ATOM      4  C   UNL     1       9.701  -8.501  30.019  1.00  0.00     0.000 C 
ATOM      5  C   UNL     1       9.412  -9.434  31.197  1.00  0.00     0.004 C 
ENDBRANCH   3   4
BRANCH   3   6
ATOM      6  C   UNL     1       7.469  -7.744  28.808  1.00  0.00    -0.014 C 
ATOM      7  C   UNL     1       7.419  -6.764  27.625  1.00  0.00     0.007 C 
ATOM      8  C   UNL     1       6.134  -8.499  28.940  1.00  0.00     0.007 C 
ENDBRANCH   3   6
ENDBRANCH   2   3
ENDBRANCH   1   2
BRANCH   1   9
ATOM      9  C   UNL     1      11.564  -9.658  26.209  1.00  0.00    -0.011 C 
ATOM     10  C   UNL     1      12.357  -8.533  25.519  1.00  0.00     0.008 C 
BRANCH   9  11
ATOM     11  C   UNL     1      12.428 -10.950  26.420  1.00  0.00    -0.002 C 
ATOM     12  C   UNL     1      11.644 -12.055  27.185  1.00  0.00     0.005 C 
ATOM     13  C   UNL     1      12.975 -11.699  25.164  1.00  0.00    -0.026 C 
ATOM     14  C   UNL     1      12.127 -13.412  26.655  1.00  0.00     0.005 C 
ATOM     15  C   UNL     1      13.324 -13.060  25.789  1.00  0.00    -0.001 C 
ATOM     16  C   UNL     1      14.294 -11.138  24.573  1.00  0.00     0.007 C 
ATOM     17  C   UNL     1      11.871 -11.800  24.062  1.00  0.00     0.012 C 
ATOM     18  C   UNL     1      13.822 -14.107  24.766  1.00  0.00     0.000 C 
ATOM     19  C   UNL     1      14.896 -12.103  23.526  1.00  0.00     0.005 C 
ATOM     20  C   UNL     1      15.096 -13.558  24.062  1.00  0.00     0.003 C 
ATOM     21  C   UNL     1      14.194 -15.414  25.479  1.00  0.00     0.031 C 
ATOM     22  C   UNL     1      15.669 -14.576  22.990  1.00  0.00    -0.008 C 
ATOM     23  C   UNL     1      14.768 -16.404  24.514  1.00  0.00    -0.027 C 
ATOM     24  C   UNL     1      15.468 -16.045  23.417  1.00  0.00    -0.065 C 
ATOM     25  C   UNL     1      14.971 -14.401  21.603  1.00  0.00     0.014 C 
ATOM     26  C   UNL     1      17.190 -14.308  22.844  1.00  0.00     0.016 C 
ATOM     27  C   UNL     1      15.855 -17.125  22.428  1.00  0.00     0.063 C 
ATOM     28  C   UNL     1      15.323 -15.496  20.573  1.00  0.00     0.033 C 
ATOM     29  C   UNL     1      15.090 -16.915  21.115  1.00  0.00     0.118 C 
BRANCH  29  30
ATOM     30  O   UNL     1      13.713 -17.122  21.310  1.00  0.00    -0.393 OA
ATOM     31  H   UNL     1      13.455 -17.889  20.736  1.00  0.00     0.210 HD
ENDBRANCH  29  30
ENDBRANCH   9  11
ENDBRANCH   1   9
TORSDOF 7
ENDMDL
MODEL 3
REMARK VINA RESULT:    -6.329      3.563      5.388
REMARK INTER + INTRA:          -9.705
REMARK INTER:                 -10.011
REMARK INTRA:                   0.306
REMARK UNBOUND:                -0.971
REMARK SMILES CC[C@H](CC[C@@H](C)[C@H]1CC[C@H]2[C@@H]3CC=C4C[C@@H](O)CC[C@@]4(C)[C@H]3CC[C@]12C)C(C)C
REMARK SMILES IDX 5 1 4 2 3 3 2 4 1 5 28 6 29 7 30 8 6 9 7 10 8 11 9 12 26 13
REMARK SMILES IDX 10 14 11 15 25 16 27 17 12 18 24 19 23 20 13 21 21 22 14 23
REMARK SMILES IDX 15 24 20 25 22 26 16 27 19 28 17 29 18 30
REMARK H PARENT 18 31
REMARK Flexibility Score: inf
ROOT
ATOM      1  C   UNL     1      11.850  -4.810  25.978  1.00  0.00     0.004 C 
ENDROOT
BRANCH   1   2
ATOM      2  C   UNL     1      11.469  -3.362  25.605  1.00  0.00     0.004 C 
BRANCH   2   3
ATOM      3  C   UNL     1      12.469  -2.286  26.117  1.00  0.00    -0.009 C 
BRANCH   3   4
ATOM      4  C   UNL     1      13.725  -2.213  25.201  1.00  0.00     0.000 C 
ATOM      5  C   UNL     1      14.992  -2.866  25.757  1.00  0.00     0.004 C 
ENDBRANCH   3   4
BRANCH   3   6
ATOM      6  C   UNL     1      11.804  -0.910  26.480  1.00  0.00    -0.014 C 
ATOM      7  C   UNL     1      12.288  -0.357  27.830  1.00  0.00     0.007 C 
ATOM      8  C   UNL     1      11.893   0.173  25.390  1.00  0.00     0.007 C 
ENDBRANCH   3   6
ENDBRANCH   2   3
ENDBRANCH   1   2
BRANCH   1   9
ATOM      9  C   UNL     1      10.620  -5.689  26.382  1.00  0.00    -0.011 C 
ATOM     10  C   UNL     1       9.714  -5.884  25.153  1.00  0.00     0.008 C 
BRANCH   9  11
ATOM     11  C   UNL     1      11.078  -7.054  27.005  1.00  0.00    -0.002 C 
ATOM     12  C   UNL     1       9.932  -7.746  27.798  1.00  0.00     0.005 C 
ATOM     13  C   UNL     1      11.588  -8.179  26.050  1.00  0.00    -0.026 C 
ATOM     14  C   UNL     1      10.118  -9.261  27.644  1.00  0.00     0.005 C 
ATOM     15  C   UNL     1      11.477  -9.398  26.982  1.00  0.00    -0.001 C 
ATOM     16  C   UNL     1      13.079  -8.080  25.636  1.00  0.00     0.007 C 
ATOM     17  C   UNL     1      10.667  -8.289  24.792  1.00  0.00     0.012 C 
ATOM     18  C   UNL     1      11.828 -10.739  26.299  1.00  0.00     0.000 C 
ATOM     19  C   UNL     1      13.555  -9.373  24.935  1.00  0.00     0.005 C 
ATOM     20  C   UNL     1      13.289 -10.668  25.770  1.00  0.00     0.003 C 
ATOM     21  C   UNL     1      11.741 -11.891  27.310  1.00  0.00     0.031 C 
ATOM     22  C   UNL     1      13.727 -12.011  25.049  1.00  0.00    -0.008 C 
ATOM     23  C   UNL     1      12.172 -13.182  26.686  1.00  0.00    -0.027 C 
ATOM     24  C   UNL     1      13.092 -13.255  25.702  1.00  0.00    -0.065 C 
ATOM     25  C   UNL     1      13.308 -12.016  23.544  1.00  0.00     0.014 C 
ATOM     26  C   UNL     1      15.270 -12.128  25.159  1.00  0.00     0.016 C 
ATOM     27  C   UNL     1      13.325 -14.596  25.036  1.00  0.00     0.063 C 
ATOM     28  C   UNL     1      13.509 -13.373  22.835  1.00  0.00     0.033 C 
ATOM     29  C   UNL     1      12.839 -14.536  23.582  1.00  0.00     0.118 C 
BRANCH  29  30
ATOM     30  O   UNL     1      11.443 -14.381  23.536  1.00  0.00    -0.393 OA
ATOM     31  H   UNL     1      11.049 -15.249  23.813  1.00  0.00     0.210 HD
ENDBRANCH  29  30
ENDBRANCH   9  11
ENDBRANCH   1   9
TORSDOF 7
ENDMDL
MODEL 4
REMARK VINA RESULT:    -6.258      4.261      7.559
REMARK INTER + INTRA:          -9.607
REMARK INTER:                  -7.698
REMARK INTRA:                  -1.908
REMARK UNBOUND:                -0.971
REMARK SMILES CC[C@H](CC[C@@H](C)[C@H]1CC[C@H]2[C@@H]3CC=C4C[C@@H](O)CC[C@@]4(C)[C@H]3CC[C@]12C)C(C)C
REMARK SMILES IDX 5 1 4 2 3 3 2 4 1 5 28 6 29 7 30 8 6 9 7 10 8 11 9 12 26 13
REMARK SMILES IDX 10 14 11 15 25 16 27 17 12 18 24 19 23 20 13 21 21 22 14 23
REMARK SMILES IDX 15 24 20 25 22 26 16 27 19 28 17 29 18 30
REMARK H PARENT 18 31
REMARK Flexibility Score: inf
ROOT
ATOM      1  C   UNL     1      13.617 -14.807  26.093  1.00  0.00     0.004 C 
ENDROOT
BRANCH   1   2
ATOM      2  C   UNL     1      12.521 -13.728  25.975  1.00  0.00     0.004 C 
BRANCH   2   3
ATOM      3  C   UNL     1      12.731 -12.729  24.802  1.00  0.00    -0.009 C 
BRANCH   3   4
ATOM      4  C   UNL     1      11.719 -13.000  23.651  1.00  0.00     0.000 C 
ATOM      5  C   UNL     1      11.161 -11.760  22.950  1.00  0.00     0.004 C 
ENDBRANCH   3   4
BRANCH   3   6
ATOM      6  C   UNL     1      12.875 -11.230  25.249  1.00  0.00    -0.014 C 
ATOM      7  C   UNL     1      12.140 -10.932  26.566  1.00  0.00     0.007 C 
ATOM      8  C   UNL     1      14.317 -10.694  25.302  1.00  0.00     0.007 C 
ENDBRANCH   3   6
ENDBRANCH   2   3
ENDBRANCH   1   2
BRANCH   1   9
ATOM      9  C   UNL     1      14.962 -14.401  25.405  1.00  0.00    -0.011 C 
ATOM     10  C   UNL     1      16.071 -14.329  26.469  1.00  0.00     0.008 C 
BRANCH   9  11
ATOM     11  C   UNL     1      15.322 -15.386  24.237  1.00  0.00    -0.002 C 
ATOM     12  C   UNL     1      14.053 -15.894  23.494  1.00  0.00     0.005 C 
ATOM     13  C   UNL     1      16.238 -14.874  23.082  1.00  0.00    -0.026 C 
ATOM     14  C   UNL     1      14.436 -16.100  22.022  1.00  0.00     0.005 C 
ATOM     15  C   UNL     1      15.945 -15.938  22.011  1.00  0.00    -0.001 C 
ATOM     16  C   UNL     1      17.762 -14.940  23.358  1.00  0.00     0.007 C 
ATOM     17  C   UNL     1      15.814 -13.435  22.641  1.00  0.00     0.012 C 
ATOM     18  C   UNL     1      16.644 -15.671  20.658  1.00  0.00     0.000 C 
ATOM     19  C   UNL     1      18.579 -14.685  22.071  1.00  0.00     0.005 C 
ATOM     20  C   UNL     1      18.183 -15.626  20.885  1.00  0.00     0.003 C 
ATOM     21  C   UNL     1      16.340 -16.804  19.668  1.00  0.00     0.031 C 
ATOM     22  C   UNL     1      18.975 -15.350  19.540  1.00  0.00    -0.008 C 
ATOM     23  C   UNL     1      17.088 -16.607  18.386  1.00  0.00    -0.027 C 
ATOM     24  C   UNL     1      18.289 -15.996  18.319  1.00  0.00    -0.065 C 
ATOM     25  C   UNL     1      19.093 -13.820  19.247  1.00  0.00     0.014 C 
ATOM     26  C   UNL     1      20.394 -15.961  19.691  1.00  0.00     0.016 C 
ATOM     27  C   UNL     1      18.871 -15.707  16.950  1.00  0.00     0.063 C 
ATOM     28  C   UNL     1      19.662 -13.484  17.852  1.00  0.00     0.033 C 
ATOM     29  C   UNL     1      18.903 -14.190  16.718  1.00  0.00     0.118 C 
BRANCH  29  30
ATOM     30  O   UNL     1      17.596 -13.679  16.638  1.00  0.00    -0.393 OA
ATOM     31  H   UNL     1      17.567 -12.876  17.220  1.00  0.00     0.210 HD
ENDBRANCH  29  30
ENDBRANCH   9  11
ENDBRANCH   1   9
TORSDOF 7
ENDMDL
MODEL 5
REMARK VINA RESULT:    -6.227      1.888      3.619
REMARK INTER + INTRA:          -9.565
REMARK INTER:                  -8.516
REMARK INTRA:                  -1.048
REMARK UNBOUND:                -0.971
REMARK SMILES CC[C@H](CC[C@@H](C)[C@H]1CC[C@H]2[C@@H]3CC=C4C[C@@H](O)CC[C@@]4(C)[C@H]3CC[C@]12C)C(C)C
REMARK SMILES IDX 5 1 4 2 3 3 2 4 1 5 28 6 29 7 30 8 6 9 7 10 8 11 9 12 26 13
REMARK SMILES IDX 10 14 11 15 25 16 27 17 12 18 24 19 23 20 13 21 21 22 14 23
REMARK SMILES IDX 15 24 20 25 22 26 16 27 19 28 17 29 18 30
REMARK H PARENT 18 31
REMARK Flexibility Score: inf
ROOT
ATOM      1  C   UNL     1      11.246  -9.229  25.410  1.00  0.00     0.004 C 
ENDROOT
BRANCH   1   2
ATOM      2  C   UNL     1      11.047  -7.936  26.227  1.00  0.00     0.004 C 
BRANCH   2   3
ATOM      3  C   UNL     1       9.587  -7.398  26.227  1.00  0.00    -0.009 C 
BRANCH   3   4
ATOM      4  C   UNL     1       8.859  -7.764  27.553  1.00  0.00     0.000 C 
ATOM      5  C   UNL     1       7.587  -6.969  27.855  1.00  0.00     0.004 C 
ENDBRANCH   3   4
BRANCH   3   6
ATOM      6  C   UNL     1       9.450  -5.906  25.759  1.00  0.00    -0.014 C 
ATOM      7  C   UNL     1      10.806  -5.189  25.660  1.00  0.00     0.007 C 
ATOM      8  C   UNL     1       8.631  -5.691  24.474  1.00  0.00     0.007 C 
ENDBRANCH   3   6
ENDBRANCH   2   3
ENDBRANCH   1   2
BRANCH   1   9
ATOM      9  C   UNL     1      12.022 -10.342  26.191  1.00  0.00    -0.011 C 
ATOM     10  C   UNL     1      11.413 -10.488  27.597  1.00  0.00     0.008 C 
BRANCH   9  11
ATOM     11  C   UNL     1      12.021 -11.696  25.400  1.00  0.00    -0.002 C 
ATOM     12  C   UNL     1      11.408 -11.539  23.978  1.00  0.00     0.005 C 
ATOM     13  C   UNL     1      13.386 -12.405  25.129  1.00  0.00    -0.026 C 
ATOM     14  C   UNL     1      12.143 -12.517  23.051  1.00  0.00     0.005 C 
ATOM     15  C   UNL     1      12.974 -13.363  23.998  1.00  0.00    -0.001 C 
ATOM     16  C   UNL     1      13.918 -13.294  26.283  1.00  0.00     0.007 C 
ATOM     17  C   UNL     1      14.465 -11.366  24.683  1.00  0.00     0.012 C 
ATOM     18  C   UNL     1      14.150 -14.178  23.413  1.00  0.00     0.000 C 
ATOM     19  C   UNL     1      15.108 -14.164  25.819  1.00  0.00     0.005 C 
ATOM     20  C   UNL     1      14.795 -15.022  24.549  1.00  0.00     0.003 C 
ATOM     21  C   UNL     1      13.644 -15.141  22.330  1.00  0.00     0.031 C 
ATOM     22  C   UNL     1      16.017 -15.888  24.028  1.00  0.00    -0.008 C 
ATOM     23  C   UNL     1      14.757 -16.004  21.821  1.00  0.00    -0.027 C 
ATOM     24  C   UNL     1      15.805 -16.382  22.583  1.00  0.00    -0.065 C 
ATOM     25  C   UNL     1      17.347 -15.068  24.044  1.00  0.00     0.014 C 
ATOM     26  C   UNL     1      16.156 -17.122  24.958  1.00  0.00     0.016 C 
ATOM     27  C   UNL     1      16.950 -17.116  21.915  1.00  0.00     0.063 C 
ATOM     28  C   UNL     1      18.534 -15.773  23.352  1.00  0.00     0.033 C 
ATOM     29  C   UNL     1      18.200 -16.227  21.922  1.00  0.00     0.118 C 
BRANCH  29  30
ATOM     30  O   UNL     1      18.006 -15.100  21.105  1.00  0.00    -0.393 OA
ATOM     31  H   UNL     1      17.426 -15.387  20.353  1.00  0.00     0.210 HD
ENDBRANCH  29  30
ENDBRANCH   9  11
ENDBRANCH   1   9
TORSDOF 7
ENDMDL
MODEL 6
REMARK VINA RESULT:    -6.098      4.393      8.295
REMARK INTER + INTRA:          -9.387
REMARK INTER:                  -7.553
REMARK INTRA:                  -1.833
REMARK UNBOUND:                -0.971
REMARK SMILES CC[C@H](CC[C@@H](C)[C@H]1CC[C@H]2[C@@H]3CC=C4C[C@@H](O)CC[C@@]4(C)[C@H]3CC[C@]12C)C(C)C
REMARK SMILES IDX 5 1 4 2 3 3 2 4 1 5 28 6 29 7 30 8 6 9 7 10 8 11 9 12 26 13
REMARK SMILES IDX 10 14 11 15 25 16 27 17 12 18 24 19 23 20 13 21 21 22 14 23
REMARK SMILES IDX 15 24 20 25 22 26 16 27 19 28 17 29 18 30
REMARK H PARENT 18 31
REMARK Flexibility Score: inf
ROOT
ATOM      1  C   UNL     1      14.652 -15.862  23.815  1.00  0.00     0.004 C 
ENDROOT
BRANCH   1   2
ATOM      2  C   UNL     1      13.930 -15.340  25.075  1.00  0.00     0.004 C 
BRANCH   2   3
ATOM      3  C   UNL     1      13.105 -14.042  24.848  1.00  0.00    -0.009 C 
BRANCH   3   4
ATOM      4  C   UNL     1      12.380 -14.076  23.471  1.00  0.00     0.000 C 
ATOM      5  C   UNL     1      12.247 -12.731  22.756  1.00  0.00     0.004 C 
ENDBRANCH   3   4
BRANCH   3   6
ATOM      6  C   UNL     1      12.223 -13.616  26.076  1.00  0.00    -0.014 C 
ATOM      7  C   UNL     1      12.545 -14.422  27.344  1.00  0.00     0.007 C 
ATOM      8  C   UNL     1      12.207 -12.108  26.383  1.00  0.00     0.007 C 
ENDBRANCH   3   6
ENDBRANCH   2   3
ENDBRANCH   1   2
BRANCH   1   9
ATOM      9  C   UNL     1      16.149 -15.415  23.730  1.00  0.00    -0.011 C 
ATOM     10  C   UNL     1      17.053 -16.617  24.059  1.00  0.00     0.008 C 
BRANCH   9  11
ATOM     11  C   UNL     1      16.477 -14.792  22.328  1.00  0.00    -0.002 C 
ATOM     12  C   UNL     1      15.253 -14.841  21.369  1.00  0.00     0.005 C 
ATOM     13  C   UNL     1      16.930 -13.299  22.260  1.00  0.00    -0.026 C 
ATOM     14  C   UNL     1      15.324 -13.600  20.469  1.00  0.00     0.005 C 
ATOM     15  C   UNL     1      16.691 -13.011  20.768  1.00  0.00    -0.001 C 
ATOM     16  C   UNL     1      18.438 -13.046  22.518  1.00  0.00     0.007 C 
ATOM     17  C   UNL     1      16.048 -12.415  23.199  1.00  0.00     0.012 C 
ATOM     18  C   UNL     1      16.960 -11.542  20.366  1.00  0.00     0.000 C 
ATOM     19  C   UNL     1      18.835 -11.598  22.151  1.00  0.00     0.005 C 
ATOM     20  C   UNL     1      18.440 -11.192  20.694  1.00  0.00     0.003 C 
ATOM     21  C   UNL     1      16.747 -11.355  18.857  1.00  0.00     0.031 C 
ATOM     22  C   UNL     1      18.796  -9.695  20.313  1.00  0.00    -0.008 C 
ATOM     23  C   UNL     1      17.097  -9.961  18.438  1.00  0.00    -0.027 C 
ATOM     24  C   UNL     1      18.042  -9.221  19.053  1.00  0.00    -0.065 C 
ATOM     25  C   UNL     1      18.431  -8.708  21.467  1.00  0.00     0.014 C 
ATOM     26  C   UNL     1      20.320  -9.626  20.032  1.00  0.00     0.016 C 
ATOM     27  C   UNL     1      18.193  -7.769  18.648  1.00  0.00     0.063 C 
ATOM     28  C   UNL     1      18.550  -7.216  21.086  1.00  0.00     0.033 C 
ATOM     29  C   UNL     1      17.765  -6.866  19.813  1.00  0.00     0.118 C 
BRANCH  29  30
ATOM     30  O   UNL     1      16.387  -7.001  20.059  1.00  0.00    -0.393 OA
ATOM     31  H   UNL     1      16.225  -6.657  20.975  1.00  0.00     0.210 HD
ENDBRANCH  29  30
ENDBRANCH   9  11
ENDBRANCH   1   9
TORSDOF 7
ENDMDL
MODEL 7
REMARK VINA RESULT:    -6.055      5.251      8.822
REMARK INTER + INTRA:          -9.327
REMARK INTER:                  -7.511
REMARK INTRA:                  -1.816
REMARK UNBOUND:                -0.971
REMARK SMILES CC[C@H](CC[C@@H](C)[C@H]1CC[C@H]2[C@@H]3CC=C4C[C@@H](O)CC[C@@]4(C)[C@H]3CC[C@]12C)C(C)C
REMARK SMILES IDX 5 1 4 2 3 3 2 4 1 5 28 6 29 7 30 8 6 9 7 10 8 11 9 12 26 13
REMARK SMILES IDX 10 14 11 15 25 16 27 17 12 18 24 19 23 20 13 21 21 22 14 23
REMARK SMILES IDX 15 24 20 25 22 26 16 27 19 28 17 29 18 30
REMARK H PARENT 18 31
REMARK Flexibility Score: inf
ROOT
ATOM      1  C   UNL     1      20.317 -10.786  18.972  1.00  0.00     0.004 C 
ENDROOT
BRANCH   1   2
ATOM      2  C   UNL     1      19.552  -9.542  18.473  1.00  0.00     0.004 C 
BRANCH   2   3
ATOM      3  C   UNL     1      18.470  -9.018  19.460  1.00  0.00    -0.009 C 
BRANCH   3   4
ATOM      4  C   UNL     1      19.124  -8.477  20.765  1.00  0.00     0.000 C 
ATOM      5  C   UNL     1      18.369  -8.779  22.061  1.00  0.00     0.004 C 
ENDBRANCH   3   4
BRANCH   3   6
ATOM      6  C   UNL     1      17.390  -8.091  18.798  1.00  0.00    -0.014 C 
ATOM      7  C   UNL     1      17.413  -6.660  19.360  1.00  0.00     0.007 C 
ATOM      8  C   UNL     1      17.395  -8.067  17.259  1.00  0.00     0.007 C 
ENDBRANCH   3   6
ENDBRANCH   2   3
ENDBRANCH   1   2
BRANCH   1   9
ATOM      9  C   UNL     1      19.461 -12.095  18.937  1.00  0.00    -0.011 C 
ATOM     10  C   UNL     1      19.997 -13.018  17.828  1.00  0.00     0.008 C 
BRANCH   9  11
ATOM     11  C   UNL     1      19.442 -12.798  20.339  1.00  0.00    -0.002 C 
ATOM     12  C   UNL     1      20.173 -11.955  21.423  1.00  0.00     0.005 C 
ATOM     13  C   UNL     1      18.063 -13.117  20.998  1.00  0.00    -0.026 C 
ATOM     14  C   UNL     1      19.456 -12.202  22.757  1.00  0.00     0.005 C 
ATOM     15  C   UNL     1      18.503 -13.344  22.454  1.00  0.00    -0.001 C 
ATOM     16  C   UNL     1      17.389 -14.435  20.534  1.00  0.00     0.007 C 
ATOM     17  C   UNL     1      17.086 -11.907  20.839  1.00  0.00     0.012 C 
ATOM     18  C   UNL     1      17.330 -13.599  23.428  1.00  0.00     0.000 C 
ATOM     19  C   UNL     1      16.189 -14.800  21.437  1.00  0.00     0.005 C 
ATOM     20  C   UNL     1      16.548 -14.859  22.958  1.00  0.00     0.003 C 
ATOM     21  C   UNL     1      17.860 -13.864  24.843  1.00  0.00     0.031 C 
ATOM     22  C   UNL     1      15.321 -15.186  23.907  1.00  0.00    -0.008 C 
ATOM     23  C   UNL     1      16.741 -14.207  25.777  1.00  0.00    -0.027 C 
ATOM     24  C   UNL     1      15.616 -14.837  25.380  1.00  0.00    -0.065 C 
ATOM     25  C   UNL     1      14.045 -14.386  23.491  1.00  0.00     0.014 C 
ATOM     26  C   UNL     1      15.035 -16.708  23.807  1.00  0.00     0.016 C 
ATOM     27  C   UNL     1      14.485 -14.982  26.378  1.00  0.00     0.063 C 
ATOM     28  C   UNL     1      12.877 -14.490  24.494  1.00  0.00     0.033 C 
ATOM     29  C   UNL     1      13.293 -14.127  25.928  1.00  0.00     0.118 C 
BRANCH  29  30
ATOM     30  O   UNL     1      13.618 -12.760  25.990  1.00  0.00    -0.393 OA
ATOM     31  H   UNL     1      12.786 -12.279  26.238  1.00  0.00     0.210 HD
ENDBRANCH  29  30
ENDBRANCH   9  11
ENDBRANCH   1   9
TORSDOF 7
ENDMDL
MODEL 8
REMARK VINA RESULT:    -6.025      4.510      8.077
REMARK INTER + INTRA:          -9.286
REMARK INTER:                  -7.267
REMARK INTRA:                  -2.019
REMARK UNBOUND:                -0.971
REMARK SMILES CC[C@H](CC[C@@H](C)[C@H]1CC[C@H]2[C@@H]3CC=C4C[C@@H](O)CC[C@@]4(C)[C@H]3CC[C@]12C)C(C)C
REMARK SMILES IDX 5 1 4 2 3 3 2 4 1 5 28 6 29 7 30 8 6 9 7 10 8 11 9 12 26 13
REMARK SMILES IDX 10 14 11 15 25 16 27 17 12 18 24 19 23 20 13 21 21 22 14 23
REMARK SMILES IDX 15 24 20 25 22 26 16 27 19 28 17 29 18 30
REMARK H PARENT 18 31
REMARK Flexibility Score: inf
ROOT
ATOM      1  C   UNL     1      21.125  -9.438  22.019  1.00  0.00     0.004 C 
ENDROOT
BRANCH   1   2
ATOM      2  C   UNL     1      20.934  -7.977  22.475  1.00  0.00     0.004 C 
BRANCH   2   3
ATOM      3  C   UNL     1      19.492  -7.639  22.949  1.00  0.00    -0.009 C 
BRANCH   3   4
ATOM      4  C   UNL     1      19.440  -7.466  24.495  1.00  0.00     0.000 C 
ATOM      5  C   UNL     1      20.794  -7.406  25.204  1.00  0.00     0.004 C 
ENDBRANCH   3   4
BRANCH   3   6
ATOM      6  C   UNL     1      18.784  -6.516  22.110  1.00  0.00    -0.014 C 
ATOM      7  C   UNL     1      19.683  -5.290  21.885  1.00  0.00     0.007 C 
ATOM      8  C   UNL     1      18.161  -6.980  20.781  1.00  0.00     0.007 C 
ENDBRANCH   3   6
ENDBRANCH   2   3
ENDBRANCH   1   2
BRANCH   1   9
ATOM      9  C   UNL     1      19.798 -10.116  21.540  1.00  0.00    -0.011 C 
ATOM     10  C   UNL     1      19.946 -10.528  20.065  1.00  0.00     0.008 C 
BRANCH   9  11
ATOM     11  C   UNL     1      19.416 -11.328  22.461  1.00  0.00    -0.002 C 
ATOM     12  C   UNL     1      20.027 -11.193  23.885  1.00  0.00     0.005 C 
ATOM     13  C   UNL     1      17.906 -11.609  22.740  1.00  0.00    -0.026 C 
ATOM     14  C   UNL     1      19.039 -11.831  24.871  1.00  0.00     0.005 C 
ATOM     15  C   UNL     1      18.022 -12.517  23.976  1.00  0.00    -0.001 C 
ATOM     16  C   UNL     1      17.168 -12.438  21.657  1.00  0.00     0.007 C 
ATOM     17  C   UNL     1      17.145 -10.276  23.034  1.00  0.00     0.012 C 
ATOM     18  C   UNL     1      16.659 -12.916  24.587  1.00  0.00     0.000 C 
ATOM     19  C   UNL     1      15.779 -12.900  22.152  1.00  0.00     0.005 C 
ATOM     20  C   UNL     1      15.826 -13.670  23.512  1.00  0.00     0.003 C 
ATOM     21  C   UNL     1      16.867 -13.859  25.780  1.00  0.00     0.031 C 
ATOM     22  C   UNL     1      14.406 -14.113  24.061  1.00  0.00    -0.008 C 
ATOM     23  C   UNL     1      15.553 -14.331  26.322  1.00  0.00    -0.027 C 
ATOM     24  C   UNL     1      14.453 -14.490  25.556  1.00  0.00    -0.065 C 
ATOM     25  C   UNL     1      13.351 -12.971  23.908  1.00  0.00     0.014 C 
ATOM     26  C   UNL     1      13.949 -15.355  23.252  1.00  0.00     0.016 C 
ATOM     27  C   UNL     1      13.141 -14.811  26.243  1.00  0.00     0.063 C 
ATOM     28  C   UNL     1      12.007 -13.251  24.613  1.00  0.00     0.033 C 
ATOM     29  C   UNL     1      12.181 -13.623  26.093  1.00  0.00     0.118 C 
BRANCH  29  30
ATOM     30  O   UNL     1      12.664 -12.510  26.804  1.00  0.00    -0.393 OA
ATOM     31  H   UNL     1      13.462 -12.181  26.313  1.00  0.00     0.210 HD
ENDBRANCH  29  30
ENDBRANCH   9  11
ENDBRANCH   1   9
TORSDOF 7
ENDMDL
MODEL 9
REMARK VINA RESULT:    -6.005      4.029      8.736
REMARK INTER + INTRA:          -9.258
REMARK INTER:                  -7.789
REMARK INTRA:                  -1.468
REMARK UNBOUND:                -0.971
REMARK SMILES CC[C@H](CC[C@@H](C)[C@H]1CC[C@H]2[C@@H]3CC=C4C[C@@H](O)CC[C@@]4(C)[C@H]3CC[C@]12C)C(C)C
REMARK SMILES IDX 5 1 4 2 3 3 2 4 1 5 28 6 29 7 30 8 6 9 7 10 8 11 9 12 26 13
REMARK SMILES IDX 10 14 11 15 25 16 27 17 12 18 24 19 23 20 13 21 21 22 14 23
REMARK SMILES IDX 15 24 20 25 22 26 16 27 19 28 17 29 18 30
REMARK H PARENT 18 31
REMARK Flexibility Score: inf
ROOT
ATOM      1  C   UNL     1      20.331 -11.425  20.700  1.00  0.00     0.004 C 
ENDROOT
BRANCH   1   2
ATOM      2  C   UNL     1      20.288 -10.027  20.049  1.00  0.00     0.004 C 
BRANCH   2   3
ATOM      3  C   UNL     1      18.876  -9.375  20.026  1.00  0.00    -0.009 C 
BRANCH   3   4
ATOM      4  C   UNL     1      18.868  -8.037  20.820  1.00  0.00     0.000 C 
ATOM      5  C   UNL     1      17.647  -7.800  21.712  1.00  0.00     0.004 C 
ENDBRANCH   3   4
BRANCH   3   6
ATOM      6  C   UNL     1      18.208  -9.333  18.605  1.00  0.00    -0.014 C 
ATOM      7  C   UNL     1      17.020 -10.301  18.480  1.00  0.00     0.007 C 
ATOM      8  C   UNL     1      17.818  -7.932  18.102  1.00  0.00     0.007 C 
ENDBRANCH   3   6
ENDBRANCH   2   3
ENDBRANCH   1   2
BRANCH   1   9
ATOM      9  C   UNL     1      19.340 -12.444  20.046  1.00  0.00    -0.011 C 
ATOM     10  C   UNL     1      20.085 -13.251  18.968  1.00  0.00     0.008 C 
BRANCH   9  11
ATOM     11  C   UNL     1      18.678 -13.366  21.129  1.00  0.00    -0.002 C 
ATOM     12  C   UNL     1      19.570 -13.509  22.395  1.00  0.00     0.005 C 
ATOM     13  C   UNL     1      17.287 -12.960  21.710  1.00  0.00    -0.026 C 
ATOM     14  C   UNL     1      18.634 -13.652  23.603  1.00  0.00     0.005 C 
ATOM     15  C   UNL     1      17.260 -13.826  22.981  1.00  0.00    -0.001 C 
ATOM     16  C   UNL     1      16.059 -13.386  20.865  1.00  0.00     0.007 C 
ATOM     17  C   UNL     1      17.247 -11.428  22.017  1.00  0.00     0.012 C 
ATOM     18  C   UNL     1      16.018 -13.591  23.870  1.00  0.00     0.000 C 
ATOM     19  C   UNL     1      14.742 -13.194  21.651  1.00  0.00     0.005 C 
ATOM     20  C   UNL     1      14.738 -13.906  23.043  1.00  0.00     0.003 C 
ATOM     21  C   UNL     1      16.046 -14.528  25.085  1.00  0.00     0.031 C 
ATOM     22  C   UNL     1      13.414 -13.684  23.887  1.00  0.00    -0.008 C 
ATOM     23  C   UNL     1      14.802 -14.378  25.904  1.00  0.00    -0.027 C 
ATOM     24  C   UNL     1      13.606 -14.042  25.375  1.00  0.00    -0.065 C 
ATOM     25  C   UNL     1      12.941 -12.197  23.829  1.00  0.00     0.014 C 
ATOM     26  C   UNL     1      12.313 -14.604  23.295  1.00  0.00     0.016 C 
ATOM     27  C   UNL     1      12.458 -13.758  26.321  1.00  0.00     0.063 C 
ATOM     28  C   UNL     1      11.785 -11.861  24.796  1.00  0.00     0.033 C 
ATOM     29  C   UNL     1      12.088 -12.271  26.245  1.00  0.00     0.118 C 
BRANCH  29  30
ATOM     30  O   UNL     1      13.136 -11.479  26.748  1.00  0.00    -0.393 OA
ATOM     31  H   UNL     1      13.044 -11.476  27.736  1.00  0.00     0.210 HD
ENDBRANCH  29  30
ENDBRANCH   9  11
ENDBRANCH   1   9
TORSDOF 7
ENDMDL
