MODEL 1
REMARK VINA RESULT:    69.710      0.000      0.000
REMARK INTER + INTRA:         153.227
REMARK INTER:                 147.140
REMARK INTRA:                   6.087
REMARK UNBOUND:                 6.087
REMARK SMILES CCC(=O)CCCCC[C@H]1NC(=O)[C@H]2CCCCN2C(=O)[C@H]([C@@H](C)CC)NC(=O)[C@H](Cc2cn(OC)c3ccccc23)NC1=O
REMARK SMILES IDX 9 1 10 2 44 3 43 4 45 6 30 7 28 8 27 9 29 11 22 12 23 14
REMARK SMILES IDX 24 15 25 16 26 17 31 18 32 19 33 20 42 21 34 22 37 23 41 24
REMARK SMILES IDX 38 25 40 26 39 27 35 28 36 29 11 30 12 31 13 33 14 34 19 35
REMARK SMILES IDX 15 36 18 37 16 38 17 39 20 40 21 41 8 43 7 44 6 45 5 46 3 47
REMARK SMILES IDX 4 48 2 49 1 50
REMARK H PARENT 43 5 27 10 11 32
REMARK Flexibility Score: 80.00
ROOT
ATOM      1  C   UNL     1      -0.241   7.169  -5.231  1.00  0.00     0.035 C 
ENDROOT
BRANCH   1   2
ATOM      2  C   UNL     1       0.602   7.106  -6.520  1.00  0.00     0.171 C 
BRANCH   2   3
ATOM      3  C   UNL     1       0.705   8.447  -7.191  1.00  0.00     0.243 C 
ATOM      4  N   UNL     1       1.883   8.767  -7.937  1.00  0.00    -0.342 N 
ATOM      5  H   UNL     1       2.752   8.227  -7.726  1.00  0.00     0.164 HD
ATOM      6  O   UNL     1      -0.272   9.243  -7.190  1.00  0.00    -0.273 OA
BRANCH   4   7
ATOM      7  C   UNL     1       1.789   9.460  -9.222  1.00  0.00     0.175 C 
BRANCH   7   8
ATOM      8  C   UNL     1       0.537   9.028  -9.942  1.00  0.00     0.243 C 
ATOM      9  N   UNL     1       0.607   8.094 -11.037  1.00  0.00    -0.342 N 
ATOM     10  H   UNL     1       1.542   7.729 -11.325  1.00  0.00     0.164 HD
ATOM     11  O   UNL     1      -0.571   9.517  -9.590  1.00  0.00    -0.273 OA
BRANCH   9  12
ATOM     12  C   UNL     1      -0.565   7.661 -11.805  1.00  0.00     0.174 CG0
ATOM     13  G   UNL     1      -1.054   6.319 -11.267  1.00  0.00     0.000 G0
BRANCH  12  14
ATOM     14  C   UNL     1      -0.269   7.818 -13.337  1.00  0.00     0.018 C 
ATOM     15  C   UNL     1      -0.692   9.150 -13.972  1.00  0.00     0.010 C 
BRANCH  14  16
ATOM     16  C   UNL     1       1.151   7.373 -13.767  1.00  0.00     0.002 C 
ATOM     17  C   UNL     1       1.409   5.874 -13.674  1.00  0.00     0.004 C 
ENDBRANCH  14  16
ENDBRANCH  12  14
ENDBRANCH   9  12
ENDBRANCH   7   8
BRANCH   7  18
ATOM     18  C   UNL     1       3.024   9.172 -10.091  1.00  0.00     0.073 C 
BRANCH  18  19
ATOM     19  C   UNL     1       2.839   9.705 -11.481  1.00  0.00    -0.016 A 
ATOM     20  C   UNL     1       2.083  10.820 -11.830  1.00  0.00     0.134 A 
ATOM     21  C   UNL     1       3.503   9.321 -12.634  1.00  0.00     0.006 A 
ATOM     22  N   UNL     1       2.263  11.105 -13.143  1.00  0.00    -0.191 N 
ATOM     23  C   UNL     1       3.124  10.193 -13.624  1.00  0.00     0.087 A 
ATOM     24  C   UNL     1       4.428   8.302 -12.871  1.00  0.00     0.011 A 
ATOM     25  C   UNL     1       3.644  10.109 -14.915  1.00  0.00     0.030 A 
ATOM     26  C   UNL     1       4.961   8.188 -14.168  1.00  0.00     0.001 A 
ATOM     27  C   UNL     1       4.571   9.087 -15.185  1.00  0.00     0.002 A 
BRANCH  22  28
ATOM     28  O   UNL     1       1.733  12.166 -13.856  1.00  0.00    -0.417 OA
ATOM     29  C   UNL     1       0.863  11.973 -14.965  1.00  0.00     0.313 C 
ENDBRANCH  22  28
ENDBRANCH  18  19
ENDBRANCH   7  18
ENDBRANCH   4   7
ENDBRANCH   2   3
BRANCH   2  30
ATOM     30  N   UNL     1       0.019   6.153  -7.468  1.00  0.00    -0.343 N 
ATOM     31  C   UNL     1       0.475   6.025  -8.826  1.00  0.00     0.243 C 
ATOM     32  H   UNL     1      -0.778   5.563  -7.137  1.00  0.00     0.164 HD
ATOM     33  O   UNL     1       1.205   6.922  -9.330  1.00  0.00    -0.273 OA
BRANCH  31  34
ATOM     34  C   UNL     1       0.125   4.817  -9.663  1.00  0.00     0.174 C 
ATOM     35  N   UNL     1      -0.386   5.139 -11.013  1.00  0.00    -0.329 N 
ATOM     36  C   UNL     1      -0.860   3.877  -8.934  1.00  0.00     0.035 C 
ATOM     37  C   UNL     1      -0.664   3.970 -11.863  1.00  0.00     0.120 C 
ATOM     38  C   UNL     1      -1.139   2.631  -9.781  1.00  0.00     0.004 C 
ATOM     39  C   UNL     1      -1.649   3.024 -11.172  1.00  0.00     0.022 C 
BRANCH  35  40
ATOM     40  C   UNL     1      -1.119   6.350 -11.291  1.00  0.00     0.246 CG0
ATOM     41  O   UNL     1      -2.360   6.359 -11.066  1.00  0.00    -0.272 OA
ATOM     42  G   UNL     1      -0.474   7.646 -11.780  1.00  0.00     0.000 G0
ENDBRANCH  35  40
ENDBRANCH  31  34
ENDBRANCH   2  30
ENDBRANCH   1   2
BRANCH   1  43
ATOM     43  C   UNL     1       0.464   7.978  -4.129  1.00  0.00     0.003 C 
BRANCH  43  44
ATOM     44  C   UNL     1       1.475   7.136  -3.337  1.00  0.00     0.001 C 
BRANCH  44  45
ATOM     45  C   UNL     1       2.920   7.644  -3.492  1.00  0.00     0.008 C 
BRANCH  45  46
ATOM     46  C   UNL     1       3.800   7.262  -2.295  1.00  0.00     0.075 C 
BRANCH  46  47
ATOM     47  C   UNL     1       5.081   6.576  -2.709  1.00  0.00     0.132 C 
ATOM     48  O   UNL     1       6.149   7.004  -2.301  1.00  0.00    -0.300 OA
BRANCH  47  49
ATOM     49  C   UNL     1       5.066   5.386  -3.636  1.00  0.00     0.072 C 
ATOM     50  C   UNL     1       6.407   4.658  -3.617  1.00  0.00     0.012 C 
ENDBRANCH  47  49
ENDBRANCH  46  47
ENDBRANCH  45  46
ENDBRANCH  44  45
ENDBRANCH  43  44
ENDBRANCH   1  43
TORSDOF 12
ENDMDL
MODEL 2
REMARK VINA RESULT:    69.905      3.764      8.177
REMARK INTER + INTRA:         153.638
REMARK INTER:                 141.480
REMARK INTRA:                  12.158
REMARK UNBOUND:                 6.087
REMARK SMILES CCC(=O)CCCCC[C@H]1NC(=O)[C@H]2CCCCN2C(=O)[C@H]([C@@H](C)CC)NC(=O)[C@H](Cc2cn(OC)c3ccccc23)NC1=O
REMARK SMILES IDX 9 1 10 2 44 3 43 4 45 6 30 7 28 8 27 9 29 11 22 12 23 14
REMARK SMILES IDX 24 15 25 16 26 17 31 18 32 19 33 20 42 21 34 22 37 23 41 24
REMARK SMILES IDX 38 25 40 26 39 27 35 28 36 29 11 30 12 31 13 33 14 34 19 35
REMARK SMILES IDX 15 36 18 37 16 38 17 39 20 40 21 41 8 43 7 44 6 45 5 46 3 47
REMARK SMILES IDX 4 48 2 49 1 50
REMARK H PARENT 43 5 27 10 11 32
REMARK Flexibility Score: 80.00
ROOT
ATOM      1  C   UNL     1      -2.183  10.130  -3.010  1.00  0.00     0.035 C 
ENDROOT
BRANCH   1   2
ATOM      2  C   UNL     1      -1.496   8.959  -3.739  1.00  0.00     0.171 C 
BRANCH   2   3
ATOM      3  C   UNL     1       0.000   9.009  -3.600  1.00  0.00     0.243 C 
ATOM      4  N   UNL     1       0.699   7.846  -3.146  1.00  0.00    -0.342 N 
ATOM      5  H   UNL     1       0.154   7.130  -2.615  1.00  0.00     0.164 HD
ATOM      6  O   UNL     1       0.647  10.023  -3.977  1.00  0.00    -0.273 OA
BRANCH   4   7
ATOM      7  C   UNL     1       1.962   7.443  -3.764  1.00  0.00     0.175 C 
BRANCH   7   8
ATOM      8  C   UNL     1       1.868   7.605  -5.260  1.00  0.00     0.243 C 
ATOM      9  N   UNL     1       2.140   8.878  -5.878  1.00  0.00    -0.342 N 
ATOM     10  H   UNL     1       2.399   9.685  -5.268  1.00  0.00     0.164 HD
ATOM     11  O   UNL     1       1.518   6.617  -5.961  1.00  0.00    -0.273 OA
BRANCH   9  12
ATOM     12  C   UNL     1       2.030   9.116  -7.321  1.00  0.00     0.174 CG0
ATOM     13  G   UNL     1       1.229   7.983  -7.960  1.00  0.00     0.000 G0
BRANCH  12  14
ATOM     14  C   UNL     1       3.440   9.485  -7.896  1.00  0.00     0.018 C 
ATOM     15  C   UNL     1       4.644   8.835  -7.198  1.00  0.00     0.010 C 
BRANCH  14  16
ATOM     16  C   UNL     1       3.540   9.430  -9.441  1.00  0.00     0.002 C 
ATOM     17  C   UNL     1       2.407  10.127 -10.182  1.00  0.00     0.004 C 
ENDBRANCH  14  16
ENDBRANCH  12  14
ENDBRANCH   9  12
ENDBRANCH   7   8
BRANCH   7  18
ATOM     18  C   UNL     1       2.304   5.988  -3.410  1.00  0.00     0.073 C 
BRANCH  18  19
ATOM     19  C   UNL     1       3.766   5.840  -3.102  1.00  0.00    -0.016 A 
ATOM     20  C   UNL     1       4.590   4.812  -3.549  1.00  0.00     0.134 A 
ATOM     21  C   UNL     1       4.601   6.757  -2.488  1.00  0.00     0.006 A 
ATOM     22  N   UNL     1       5.877   5.077  -3.215  1.00  0.00    -0.191 N 
ATOM     23  C   UNL     1       5.877   6.256  -2.572  1.00  0.00     0.087 A 
ATOM     24  C   UNL     1       4.339   7.995  -1.898  1.00  0.00     0.011 A 
ATOM     25  C   UNL     1       6.975   6.958  -2.077  1.00  0.00     0.030 A 
ATOM     26  C   UNL     1       5.429   8.721  -1.381  1.00  0.00     0.001 A 
ATOM     27  C   UNL     1       6.740   8.204  -1.470  1.00  0.00     0.002 A 
BRANCH  22  28
ATOM     28  O   UNL     1       7.000   4.330  -3.526  1.00  0.00    -0.417 OA
ATOM     29  C   UNL     1       6.960   3.250  -4.450  1.00  0.00     0.313 C 
ENDBRANCH  22  28
ENDBRANCH  18  19
ENDBRANCH   7  18
ENDBRANCH   4   7
ENDBRANCH   2   3
BRANCH   2  30
ATOM     30  N   UNL     1      -1.833   8.974  -5.165  1.00  0.00    -0.343 N 
ATOM     31  C   UNL     1      -0.847   9.144  -6.198  1.00  0.00     0.243 C 
ATOM     32  H   UNL     1      -2.840   8.880  -5.429  1.00  0.00     0.164 HD
ATOM     33  O   UNL     1       0.305   9.564  -5.903  1.00  0.00    -0.273 OA
BRANCH  31  34
ATOM     34  C   UNL     1      -1.148   8.798  -7.638  1.00  0.00     0.174 C 
ATOM     35  N   UNL     1      -0.134   7.934  -8.280  1.00  0.00    -0.329 N 
ATOM     36  C   UNL     1      -1.388  10.060  -8.496  1.00  0.00     0.035 C 
ATOM     37  C   UNL     1      -0.451   7.531  -9.661  1.00  0.00     0.120 C 
ATOM     38  C   UNL     1      -1.757   9.671  -9.930  1.00  0.00     0.004 C 
ATOM     39  C   UNL     1      -0.683   8.763 -10.540  1.00  0.00     0.022 C 
BRANCH  35  40
ATOM     40  C   UNL     1       1.257   7.965  -7.902  1.00  0.00     0.246 CG0
ATOM     41  O   UNL     1       1.957   6.939  -8.125  1.00  0.00    -0.272 OA
ATOM     42  G   UNL     1       1.954   9.187  -7.309  1.00  0.00     0.000 G0
ENDBRANCH  35  40
ENDBRANCH  31  34
ENDBRANCH   2  30
ENDBRANCH   1   2
BRANCH   1  43
ATOM     43  C   UNL     1      -1.158  11.133  -2.453  1.00  0.00     0.003 C 
BRANCH  43  44
ATOM     44  C   UNL     1      -1.500  11.595  -1.029  1.00  0.00     0.001 C 
BRANCH  44  45
ATOM     45  C   UNL     1      -0.764  12.887  -0.633  1.00  0.00     0.008 C 
BRANCH  45  46
ATOM     46  C   UNL     1      -0.309  13.694  -1.856  1.00  0.00     0.075 C 
BRANCH  46  47
ATOM     47  C   UNL     1      -0.153  15.167  -1.557  1.00  0.00     0.132 C 
ATOM     48  O   UNL     1      -1.096  15.786  -1.087  1.00  0.00    -0.300 OA
BRANCH  47  49
ATOM     49  C   UNL     1       1.137  15.891  -1.849  1.00  0.00     0.072 C 
ATOM     50  C   UNL     1       1.508  15.780  -3.326  1.00  0.00     0.012 C 
ENDBRANCH  47  49
ENDBRANCH  46  47
ENDBRANCH  45  46
ENDBRANCH  44  45
ENDBRANCH  43  44
ENDBRANCH   1  43
TORSDOF 12
ENDMDL
MODEL 3
REMARK VINA RESULT:    70.384      4.019      7.132
REMARK INTER + INTRA:         154.649
REMARK INTER:                 148.970
REMARK INTRA:                   5.680
REMARK UNBOUND:                 6.087
REMARK SMILES CCC(=O)CCCCC[C@H]1NC(=O)[C@H]2CCCCN2C(=O)[C@H]([C@@H](C)CC)NC(=O)[C@H](Cc2cn(OC)c3ccccc23)NC1=O
REMARK SMILES IDX 9 1 10 2 44 3 43 4 45 6 30 7 28 8 27 9 29 11 22 12 23 14
REMARK SMILES IDX 24 15 25 16 26 17 31 18 32 19 33 20 42 21 34 22 37 23 41 24
REMARK SMILES IDX 38 25 40 26 39 27 35 28 36 29 11 30 12 31 13 33 14 34 19 35
REMARK SMILES IDX 15 36 18 37 16 38 17 39 20 40 21 41 8 43 7 44 6 45 5 46 3 47
REMARK SMILES IDX 4 48 2 49 1 50
REMARK H PARENT 43 5 27 10 11 32
REMARK Flexibility Score: 80.00
ROOT
ATOM      1  C   UNL     1      -0.807  10.088  -2.518  1.00  0.00     0.035 C 
ENDROOT
BRANCH   1   2
ATOM      2  C   UNL     1      -0.022  10.186  -3.841  1.00  0.00     0.171 C 
BRANCH   2   3
ATOM      3  C   UNL     1      -0.621   9.321  -4.916  1.00  0.00     0.243 C 
ATOM      4  N   UNL     1      -0.201   9.502  -6.272  1.00  0.00    -0.342 N 
ATOM      5  H   UNL     1       0.234  10.417  -6.527  1.00  0.00     0.164 HD
ATOM      6  O   UNL     1      -1.402   8.378  -4.621  1.00  0.00    -0.273 OA
BRANCH   4   7
ATOM      7  C   UNL     1       0.041   8.350  -7.140  1.00  0.00     0.175 C 
BRANCH   7   8
ATOM      8  C   UNL     1      -0.002   7.083  -6.324  1.00  0.00     0.243 C 
ATOM      9  N   UNL     1       0.713   6.990  -5.076  1.00  0.00    -0.342 N 
ATOM     10  H   UNL     1       1.266   7.815  -4.754  1.00  0.00     0.164 HD
ATOM     11  O   UNL     1      -0.651   6.095  -6.763  1.00  0.00    -0.273 OA
BRANCH   9  12
ATOM     12  C   UNL     1       0.746   5.777  -4.253  1.00  0.00     0.174 CG0
ATOM     13  G   UNL     1       2.153   5.585  -3.691  1.00  0.00     0.000 G0
BRANCH  12  14
ATOM     14  C   UNL     1       0.058   4.603  -5.030  1.00  0.00     0.018 C 
ATOM     15  C   UNL     1       0.991   3.691  -5.839  1.00  0.00     0.010 C 
BRANCH  14  16
ATOM     16  C   UNL     1      -0.987   3.810  -4.206  1.00  0.00     0.002 C 
ATOM     17  C   UNL     1      -2.360   3.690  -4.856  1.00  0.00     0.004 C 
ENDBRANCH  14  16
ENDBRANCH  12  14
ENDBRANCH   9  12
ENDBRANCH   7   8
BRANCH   7  18
ATOM     18  C   UNL     1       1.399   8.475  -7.848  1.00  0.00     0.073 C 
BRANCH  18  19
ATOM     19  C   UNL     1       1.227   8.496  -9.339  1.00  0.00    -0.016 A 
ATOM     20  C   UNL     1       0.125   8.008 -10.036  1.00  0.00     0.134 A 
ATOM     21  C   UNL     1       2.012   9.145 -10.276  1.00  0.00     0.006 A 
ATOM     22  N   UNL     1       0.233   8.330 -11.348  1.00  0.00    -0.191 N 
ATOM     23  C   UNL     1       1.378   9.019 -11.487  1.00  0.00     0.087 A 
ATOM     24  C   UNL     1       3.207   9.857 -10.147  1.00  0.00     0.011 A 
ATOM     25  C   UNL     1       1.890   9.596 -12.648  1.00  0.00     0.030 A 
ATOM     26  C   UNL     1       3.752  10.442 -11.305  1.00  0.00     0.001 A 
ATOM     27  C   UNL     1       3.096  10.312 -12.549  1.00  0.00     0.002 A 
BRANCH  22  28
ATOM     28  O   UNL     1      -0.681   8.076 -12.357  1.00  0.00    -0.417 OA
ATOM     29  C   UNL     1      -0.629   8.744 -13.611  1.00  0.00     0.313 C 
ENDBRANCH  22  28
ENDBRANCH  18  19
ENDBRANCH   7  18
ENDBRANCH   4   7
ENDBRANCH   2   3
BRANCH   2  30
ATOM     30  N   UNL     1       1.373   9.783  -3.641  1.00  0.00    -0.343 N 
ATOM     31  C   UNL     1       1.746   8.496  -3.118  1.00  0.00     0.243 C 
ATOM     32  H   UNL     1       2.118  10.480  -3.869  1.00  0.00     0.164 HD
ATOM     33  O   UNL     1       0.881   7.773  -2.554  1.00  0.00    -0.273 OA
BRANCH  31  34
ATOM     34  C   UNL     1       3.155   7.969  -3.259  1.00  0.00     0.174 C 
ATOM     35  N   UNL     1       3.241   6.611  -3.839  1.00  0.00    -0.329 N 
ATOM     36  C   UNL     1       3.927   8.024  -1.923  1.00  0.00     0.035 C 
ATOM     37  C   UNL     1       4.611   6.114  -4.047  1.00  0.00     0.120 C 
ATOM     38  C   UNL     1       5.369   7.547  -2.116  1.00  0.00     0.004 C 
ATOM     39  C   UNL     1       5.399   6.144  -2.735  1.00  0.00     0.022 C 
BRANCH  35  40
ATOM     40  C   UNL     1       2.200   5.629  -3.661  1.00  0.00     0.246 CG0
ATOM     41  O   UNL     1       2.446   4.626  -2.938  1.00  0.00    -0.272 OA
ATOM     42  G   UNL     1       0.793   5.761  -4.240  1.00  0.00     0.000 G0
ENDBRANCH  35  40
ENDBRANCH  31  34
ENDBRANCH   2  30
ENDBRANCH   1   2
BRANCH   1  43
ATOM     43  C   UNL     1      -1.582  11.383  -2.220  1.00  0.00     0.003 C 
BRANCH  43  44
ATOM     44  C   UNL     1      -1.327  11.907  -0.799  1.00  0.00     0.001 C 
BRANCH  44  45
ATOM     45  C   UNL     1      -0.259  13.014  -0.759  1.00  0.00     0.008 C 
BRANCH  45  46
ATOM     46  C   UNL     1      -0.844  14.397  -1.072  1.00  0.00     0.075 C 
BRANCH  46  47
ATOM     47  C   UNL     1       0.176  15.341  -1.664  1.00  0.00     0.132 C 
ATOM     48  O   UNL     1       0.808  16.081  -0.925  1.00  0.00    -0.300 OA
BRANCH  47  49
ATOM     49  C   UNL     1       0.412  15.403  -3.152  1.00  0.00     0.072 C 
ATOM     50  C   UNL     1       1.274  16.608  -3.522  1.00  0.00     0.012 C 
ENDBRANCH  47  49
ENDBRANCH  46  47
ENDBRANCH  45  46
ENDBRANCH  44  45
ENDBRANCH  43  44
ENDBRANCH   1  43
TORSDOF 12
ENDMDL
MODEL 4
REMARK VINA RESULT:    71.032      1.959      3.070
REMARK INTER + INTRA:         156.018
REMARK INTER:                 151.529
REMARK INTRA:                   4.489
REMARK UNBOUND:                 6.087
REMARK SMILES CCC(=O)CCCCC[C@H]1NC(=O)[C@H]2CCCCN2C(=O)[C@H]([C@@H](C)CC)NC(=O)[C@H](Cc2cn(OC)c3ccccc23)NC1=O
REMARK SMILES IDX 9 1 10 2 44 3 43 4 45 6 30 7 28 8 27 9 29 11 22 12 23 14
REMARK SMILES IDX 24 15 25 16 26 17 31 18 32 19 33 20 42 21 34 22 37 23 41 24
REMARK SMILES IDX 38 25 40 26 39 27 35 28 36 29 11 30 12 31 13 33 14 34 19 35
REMARK SMILES IDX 15 36 18 37 16 38 17 39 20 40 21 41 8 43 7 44 6 45 5 46 3 47
REMARK SMILES IDX 4 48 2 49 1 50
REMARK H PARENT 43 5 27 10 11 32
REMARK Flexibility Score: 80.00
ROOT
ATOM      1  C   UNL     1      -0.259   8.740  -3.777  1.00  0.00     0.035 C 
ENDROOT
BRANCH   1   2
ATOM      2  C   UNL     1       0.474   8.084  -4.964  1.00  0.00     0.171 C 
BRANCH   2   3
ATOM      3  C   UNL     1       1.075   9.106  -5.888  1.00  0.00     0.243 C 
ATOM      4  N   UNL     1       2.108   8.707  -6.794  1.00  0.00    -0.342 N 
ATOM      5  H   UNL     1       2.641   7.837  -6.569  1.00  0.00     0.164 HD
ATOM      6  O   UNL     1       0.608  10.275  -5.945  1.00  0.00    -0.273 OA
BRANCH   4   7
ATOM      7  C   UNL     1       2.124   9.196  -8.173  1.00  0.00     0.175 C 
BRANCH   7   8
ATOM      8  C   UNL     1       1.184   8.370  -9.014  1.00  0.00     0.243 C 
ATOM      9  N   UNL     1       0.552   7.196  -8.468  1.00  0.00    -0.342 N 
ATOM     10  H   UNL     1       0.763   6.928  -7.481  1.00  0.00     0.164 HD
ATOM     11  O   UNL     1       0.982   8.705 -10.213  1.00  0.00    -0.273 OA
BRANCH   9  12
ATOM     12  C   UNL     1      -0.341   6.326  -9.240  1.00  0.00     0.174 CG0
ATOM     13  G   UNL     1      -0.295   4.914  -8.661  1.00  0.00     0.000 G0
BRANCH  12  14
ATOM     14  C   UNL     1      -0.079   6.542 -10.771  1.00  0.00     0.018 C 
ATOM     15  C   UNL     1       0.124   5.270 -11.606  1.00  0.00     0.010 C 
BRANCH  14  16
ATOM     16  C   UNL     1      -1.031   7.559 -11.449  1.00  0.00     0.002 C 
ATOM     17  C   UNL     1      -0.589   8.029 -12.829  1.00  0.00     0.004 C 
ENDBRANCH  14  16
ENDBRANCH  12  14
ENDBRANCH   9  12
ENDBRANCH   7   8
BRANCH   7  18
ATOM     18  C   UNL     1       3.544   9.140  -8.757  1.00  0.00     0.073 C 
BRANCH  18  19
ATOM     19  C   UNL     1       3.517   9.299 -10.249  1.00  0.00    -0.016 A 
ATOM     20  C   UNL     1       3.828   8.310 -11.178  1.00  0.00     0.134 A 
ATOM     21  C   UNL     1       3.020  10.364 -10.981  1.00  0.00     0.006 A 
ATOM     22  N   UNL     1       3.546   8.749 -12.428  1.00  0.00    -0.191 N 
ATOM     23  C   UNL     1       3.058   9.994 -12.303  1.00  0.00     0.087 A 
ATOM     24  C   UNL     1       2.512  11.602 -10.582  1.00  0.00     0.011 A 
ATOM     25  C   UNL     1       2.589  10.833 -13.313  1.00  0.00     0.030 A 
ATOM     26  C   UNL     1       2.042  12.473 -11.583  1.00  0.00     0.001 A 
ATOM     27  C   UNL     1       2.081  12.090 -12.941  1.00  0.00     0.002 A 
BRANCH  22  28
ATOM     28  O   UNL     1       3.662   8.047 -13.616  1.00  0.00    -0.417 OA
ATOM     29  C   UNL     1       4.256   8.614 -14.776  1.00  0.00     0.313 C 
ENDBRANCH  22  28
ENDBRANCH  18  19
ENDBRANCH   7  18
ENDBRANCH   4   7
ENDBRANCH   2   3
BRANCH   2  30
ATOM     30  N   UNL     1      -0.446   7.242  -5.734  1.00  0.00    -0.343 N 
ATOM     31  C   UNL     1      -0.261   5.825  -5.890  1.00  0.00     0.243 C 
ATOM     32  H   UNL     1      -1.254   7.709  -6.204  1.00  0.00     0.164 HD
ATOM     33  O   UNL     1       0.850   5.301  -5.603  1.00  0.00    -0.273 OA
BRANCH  31  34
ATOM     34  C   UNL     1      -1.384   4.933  -6.364  1.00  0.00     0.174 C 
ATOM     35  N   UNL     1      -1.120   4.253  -7.651  1.00  0.00    -0.329 N 
ATOM     36  C   UNL     1      -2.730   5.687  -6.431  1.00  0.00     0.035 C 
ATOM     37  C   UNL     1      -2.177   3.326  -8.088  1.00  0.00     0.120 C 
ATOM     38  C   UNL     1      -3.858   4.738  -6.848  1.00  0.00     0.004 C 
ATOM     39  C   UNL     1      -3.524   4.049  -8.176  1.00  0.00     0.022 C 
BRANCH  35  40
ATOM     40  C   UNL     1      -0.284   4.834  -8.672  1.00  0.00     0.246 CG0
ATOM     41  O   UNL     1       0.569   4.094  -9.234  1.00  0.00    -0.272 OA
ATOM     42  G   UNL     1      -0.411   6.274  -9.164  1.00  0.00     0.000 G0
ENDBRANCH  35  40
ENDBRANCH  31  34
ENDBRANCH   2  30
ENDBRANCH   1   2
BRANCH   1  43
ATOM     43  C   UNL     1       0.430   8.424  -2.439  1.00  0.00     0.003 C 
BRANCH  43  44
ATOM     44  C   UNL     1       0.987   6.994  -2.387  1.00  0.00     0.001 C 
BRANCH  44  45
ATOM     45  C   UNL     1       2.393   6.884  -3.003  1.00  0.00     0.008 C 
BRANCH  45  46
ATOM     46  C   UNL     1       3.494   6.853  -1.935  1.00  0.00     0.075 C 
BRANCH  46  47
ATOM     47  C   UNL     1       4.877   7.030  -2.518  1.00  0.00     0.132 C 
ATOM     48  O   UNL     1       5.456   6.064  -2.990  1.00  0.00    -0.300 OA
BRANCH  47  49
ATOM     49  C   UNL     1       5.563   8.373  -2.506  1.00  0.00     0.072 C 
ATOM     50  C   UNL     1       5.797   8.859  -1.078  1.00  0.00     0.012 C 
ENDBRANCH  47  49
ENDBRANCH  46  47
ENDBRANCH  45  46
ENDBRANCH  44  45
ENDBRANCH  43  44
ENDBRANCH   1  43
TORSDOF 12
ENDMDL
MODEL 5
REMARK VINA RESULT:    71.069      1.903      3.306
REMARK INTER + INTRA:         156.095
REMARK INTER:                 151.042
REMARK INTRA:                   5.053
REMARK UNBOUND:                 6.087
REMARK SMILES CCC(=O)CCCCC[C@H]1NC(=O)[C@H]2CCCCN2C(=O)[C@H]([C@@H](C)CC)NC(=O)[C@H](Cc2cn(OC)c3ccccc23)NC1=O
REMARK SMILES IDX 9 1 10 2 44 3 43 4 45 6 30 7 28 8 27 9 29 11 22 12 23 14
REMARK SMILES IDX 24 15 25 16 26 17 31 18 32 19 33 20 42 21 34 22 37 23 41 24
REMARK SMILES IDX 38 25 40 26 39 27 35 28 36 29 11 30 12 31 13 33 14 34 19 35
REMARK SMILES IDX 15 36 18 37 16 38 17 39 20 40 21 41 8 43 7 44 6 45 5 46 3 47
REMARK SMILES IDX 4 48 2 49 1 50
REMARK H PARENT 43 5 27 10 11 32
REMARK Flexibility Score: 80.00
ROOT
ATOM      1  C   UNL     1       2.878   8.283  -3.553  1.00  0.00     0.035 C 
ENDROOT
BRANCH   1   2
ATOM      2  C   UNL     1       2.357   7.725  -4.891  1.00  0.00     0.171 C 
BRANCH   2   3
ATOM      3  C   UNL     1       2.039   8.820  -5.872  1.00  0.00     0.243 C 
ATOM      4  N   UNL     1       2.894   9.015  -7.002  1.00  0.00    -0.342 N 
ATOM      5  H   UNL     1       3.867   8.640  -6.944  1.00  0.00     0.164 HD
ATOM      6  O   UNL     1       0.978   9.490  -5.764  1.00  0.00    -0.273 OA
BRANCH   4   7
ATOM      7  C   UNL     1       2.334   9.299  -8.324  1.00  0.00     0.175 C 
BRANCH   7   8
ATOM      8  C   UNL     1       1.137   8.415  -8.566  1.00  0.00     0.243 C 
ATOM      9  N   UNL     1       1.138   7.042  -8.126  1.00  0.00    -0.342 N 
ATOM     10  H   UNL     1       1.986   6.673  -7.642  1.00  0.00     0.164 HD
ATOM     11  O   UNL     1       0.145   8.885  -9.187  1.00  0.00    -0.273 OA
BRANCH   9  12
ATOM     12  C   UNL     1       0.026   6.117  -8.364  1.00  0.00     0.174 CG0
ATOM     13  G   UNL     1      -0.006   5.069  -7.254  1.00  0.00     0.000 G0
BRANCH  12  14
ATOM     14  C   UNL     1       0.045   5.656  -9.862  1.00  0.00     0.018 C 
ATOM     15  C   UNL     1       0.113   4.141 -10.100  1.00  0.00     0.010 C 
BRANCH  14  16
ATOM     16  C   UNL     1      -1.000   6.359 -10.765  1.00  0.00     0.002 C 
ATOM     17  C   UNL     1      -0.414   7.292 -11.817  1.00  0.00     0.004 C 
ENDBRANCH  14  16
ENDBRANCH  12  14
ENDBRANCH   9  12
ENDBRANCH   7   8
BRANCH   7  18
ATOM     18  C   UNL     1       3.386   9.078  -9.422  1.00  0.00     0.073 C 
BRANCH  18  19
ATOM     19  C   UNL     1       3.104   9.941 -10.616  1.00  0.00    -0.016 A 
ATOM     20  C   UNL     1       2.931  11.322 -10.598  1.00  0.00     0.134 A 
ATOM     21  C   UNL     1       3.139   9.581 -11.953  1.00  0.00     0.006 A 
ATOM     22  N   UNL     1       2.851  11.792 -11.867  1.00  0.00    -0.191 N 
ATOM     23  C   UNL     1       2.976  10.732 -12.683  1.00  0.00     0.087 A 
ATOM     24  C   UNL     1       3.332   8.344 -12.571  1.00  0.00     0.011 A 
ATOM     25  C   UNL     1       3.000  10.727 -14.077  1.00  0.00     0.030 A 
ATOM     26  C   UNL     1       3.351   8.308 -13.977  1.00  0.00     0.001 A 
ATOM     27  C   UNL     1       3.185   9.493 -14.726  1.00  0.00     0.002 A 
BRANCH  22  28
ATOM     28  O   UNL     1       2.734  13.110 -12.273  1.00  0.00    -0.417 OA
ATOM     29  C   UNL     1       3.870  13.927 -12.528  1.00  0.00     0.313 C 
ENDBRANCH  22  28
ENDBRANCH  18  19
ENDBRANCH   7  18
ENDBRANCH   4   7
ENDBRANCH   2   3
BRANCH   2  30
ATOM     30  N   UNL     1       1.148   6.925  -4.677  1.00  0.00    -0.343 N 
ATOM     31  C   UNL     1      -0.122   7.256  -5.267  1.00  0.00     0.243 C 
ATOM     32  H   UNL     1       1.219   6.094  -4.047  1.00  0.00     0.164 HD
ATOM     33  O   UNL     1      -0.303   8.400  -5.764  1.00  0.00    -0.273 OA
BRANCH  31  34
ATOM     34  C   UNL     1      -1.244   6.246  -5.336  1.00  0.00     0.174 C 
ATOM     35  N   UNL     1      -0.920   5.030  -6.114  1.00  0.00    -0.329 N 
ATOM     36  C   UNL     1      -2.554   6.875  -5.858  1.00  0.00     0.035 C 
ATOM     37  C   UNL     1      -1.979   4.008  -6.130  1.00  0.00     0.120 C 
ATOM     38  C   UNL     1      -3.685   5.843  -5.851  1.00  0.00     0.004 C 
ATOM     39  C   UNL     1      -3.290   4.599  -6.655  1.00  0.00     0.022 C 
BRANCH  35  40
ATOM     40  C   UNL     1       0.002   5.046  -7.222  1.00  0.00     0.246 CG0
ATOM     41  O   UNL     1       0.815   4.088  -7.334  1.00  0.00    -0.272 OA
ATOM     42  G   UNL     1       0.012   6.119  -8.309  1.00  0.00     0.000 G0
ENDBRANCH  35  40
ENDBRANCH  31  34
ENDBRANCH   2  30
ENDBRANCH   1   2
BRANCH   1  43
ATOM     43  C   UNL     1       2.858   7.215  -2.445  1.00  0.00     0.003 C 
BRANCH  43  44
ATOM     44  C   UNL     1       4.154   7.198  -1.621  1.00  0.00     0.001 C 
BRANCH  44  45
ATOM     45  C   UNL     1       5.394   7.549  -2.461  1.00  0.00     0.008 C 
BRANCH  45  46
ATOM     46  C   UNL     1       6.302   6.334  -2.692  1.00  0.00     0.075 C 
BRANCH  46  47
ATOM     47  C   UNL     1       5.657   5.282  -3.564  1.00  0.00     0.132 C 
ATOM     48  O   UNL     1       4.454   5.330  -3.769  1.00  0.00    -0.300 OA
BRANCH  47  49
ATOM     49  C   UNL     1       6.467   4.162  -4.166  1.00  0.00     0.072 C 
ATOM     50  C   UNL     1       6.871   3.143  -3.103  1.00  0.00     0.012 C 
ENDBRANCH  47  49
ENDBRANCH  46  47
ENDBRANCH  45  46
ENDBRANCH  44  45
ENDBRANCH  43  44
ENDBRANCH   1  43
TORSDOF 12
ENDMDL
MODEL 6
REMARK VINA RESULT:    71.128      3.055      5.488
REMARK INTER + INTRA:         156.220
REMARK INTER:                 148.248
REMARK INTRA:                   7.972
REMARK UNBOUND:                 6.087
REMARK SMILES CCC(=O)CCCCC[C@H]1NC(=O)[C@H]2CCCCN2C(=O)[C@H]([C@@H](C)CC)NC(=O)[C@H](Cc2cn(OC)c3ccccc23)NC1=O
REMARK SMILES IDX 9 1 10 2 44 3 43 4 45 6 30 7 28 8 27 9 29 11 22 12 23 14
REMARK SMILES IDX 24 15 25 16 26 17 31 18 32 19 33 20 42 21 34 22 37 23 41 24
REMARK SMILES IDX 38 25 40 26 39 27 35 28 36 29 11 30 12 31 13 33 14 34 19 35
REMARK SMILES IDX 15 36 18 37 16 38 17 39 20 40 21 41 8 43 7 44 6 45 5 46 3 47
REMARK SMILES IDX 4 48 2 49 1 50
REMARK H PARENT 43 5 27 10 11 32
REMARK Flexibility Score: 80.00
ROOT
ATOM      1  C   UNL     1       2.636   7.608  -2.586  1.00  0.00     0.035 C 
ENDROOT
BRANCH   1   2
ATOM      2  C   UNL     1       2.644   7.252  -4.086  1.00  0.00     0.171 C 
BRANCH   2   3
ATOM      3  C   UNL     1       2.179   8.399  -4.940  1.00  0.00     0.243 C 
ATOM      4  N   UNL     1       2.131   8.238  -6.360  1.00  0.00    -0.342 N 
ATOM      5  H   UNL     1       2.718   7.484  -6.783  1.00  0.00     0.164 HD
ATOM      6  O   UNL     1       1.736   9.454  -4.412  1.00  0.00    -0.273 OA
BRANCH   4   7
ATOM      7  C   UNL     1       1.005   8.761  -7.135  1.00  0.00     0.175 C 
BRANCH   7   8
ATOM      8  C   UNL     1      -0.254   8.689  -6.309  1.00  0.00     0.243 C 
ATOM      9  N   UNL     1      -0.226   8.144  -4.975  1.00  0.00    -0.342 N 
ATOM     10  H   UNL     1       0.683   7.796  -4.596  1.00  0.00     0.164 HD
ATOM     11  O   UNL     1      -1.340   9.086  -6.813  1.00  0.00    -0.273 OA
BRANCH   9  12
ATOM     12  C   UNL     1      -1.418   8.009  -4.132  1.00  0.00     0.174 CG0
ATOM     13  G   UNL     1      -2.345   6.955  -4.734  1.00  0.00     0.000 G0
BRANCH  12  14
ATOM     14  C   UNL     1      -1.981   9.433  -3.797  1.00  0.00     0.018 C 
ATOM     15  C   UNL     1      -3.385   9.474  -3.177  1.00  0.00     0.010 C 
BRANCH  14  16
ATOM     16  C   UNL     1      -0.979  10.368  -3.075  1.00  0.00     0.002 C 
ATOM     17  C   UNL     1      -1.617  11.491  -2.267  1.00  0.00     0.004 C 
ENDBRANCH  14  16
ENDBRANCH  12  14
ENDBRANCH   9  12
ENDBRANCH   7   8
BRANCH   7  18
ATOM     18  C   UNL     1       0.826   7.971  -8.441  1.00  0.00     0.073 C 
BRANCH  18  19
ATOM     19  C   UNL     1       1.278   8.778  -9.622  1.00  0.00    -0.016 A 
ATOM     20  C   UNL     1       2.369   9.642  -9.647  1.00  0.00     0.134 A 
ATOM     21  C   UNL     1       0.831   8.694 -10.930  1.00  0.00     0.006 A 
ATOM     22  N   UNL     1       2.579  10.080 -10.912  1.00  0.00    -0.191 N 
ATOM     23  C   UNL     1       1.643   9.503 -11.684  1.00  0.00     0.087 A 
ATOM     24  C   UNL     1      -0.198   7.948 -11.508  1.00  0.00     0.011 A 
ATOM     25  C   UNL     1       1.487   9.619 -13.065  1.00  0.00     0.030 A 
ATOM     26  C   UNL     1      -0.386   8.053 -12.899  1.00  0.00     0.001 A 
ATOM     27  C   UNL     1       0.453   8.885 -13.673  1.00  0.00     0.002 A 
BRANCH  22  28
ATOM     28  O   UNL     1       3.596  10.905 -11.361  1.00  0.00    -0.417 OA
ATOM     29  C   UNL     1       3.351  12.005 -12.229  1.00  0.00     0.313 C 
ENDBRANCH  22  28
ENDBRANCH  18  19
ENDBRANCH   7  18
ENDBRANCH   4   7
ENDBRANCH   2   3
BRANCH   2  30
ATOM     30  N   UNL     1       1.779   6.098  -4.344  1.00  0.00    -0.343 N 
ATOM     31  C   UNL     1       0.418   6.025  -3.886  1.00  0.00     0.243 C 
ATOM     32  H   UNL     1       2.189   5.289  -4.864  1.00  0.00     0.164 HD
ATOM     33  O   UNL     1       0.007   6.832  -3.009  1.00  0.00    -0.273 OA
BRANCH  31  34
ATOM     34  C   UNL     1      -0.552   5.018  -4.459  1.00  0.00     0.174 C 
ATOM     35  N   UNL     1      -1.725   5.618  -5.131  1.00  0.00    -0.329 N 
ATOM     36  C   UNL     1      -1.015   3.996  -3.398  1.00  0.00     0.035 C 
ATOM     37  C   UNL     1      -2.642   4.650  -5.755  1.00  0.00     0.120 C 
ATOM     38  C   UNL     1      -1.942   2.952  -4.028  1.00  0.00     0.004 C 
ATOM     39  C   UNL     1      -3.129   3.628  -4.724  1.00  0.00     0.022 C 
BRANCH  35  40
ATOM     40  C   UNL     1      -2.277   6.889  -4.731  1.00  0.00     0.246 CG0
ATOM     41  O   UNL     1      -3.521   7.062  -4.851  1.00  0.00    -0.272 OA
ATOM     42  G   UNL     1      -1.458   8.018  -4.108  1.00  0.00     0.000 G0
ENDBRANCH  35  40
ENDBRANCH  31  34
ENDBRANCH   2  30
ENDBRANCH   1   2
BRANCH   1  43
ATOM     43  C   UNL     1       3.744   6.866  -1.820  1.00  0.00     0.003 C 
BRANCH  43  44
ATOM     44  C   UNL     1       5.125   7.509  -2.013  1.00  0.00     0.001 C 
BRANCH  44  45
ATOM     45  C   UNL     1       6.165   6.521  -2.571  1.00  0.00     0.008 C 
BRANCH  45  46
ATOM     46  C   UNL     1       5.755   5.956  -3.938  1.00  0.00     0.075 C 
BRANCH  46  47
ATOM     47  C   UNL     1       6.038   4.478  -4.066  1.00  0.00     0.132 C 
ATOM     48  O   UNL     1       5.836   3.920  -5.133  1.00  0.00    -0.300 OA
BRANCH  47  49
ATOM     49  C   UNL     1       6.543   3.674  -2.893  1.00  0.00     0.072 C 
ATOM     50  C   UNL     1       7.248   2.404  -3.361  1.00  0.00     0.012 C 
ENDBRANCH  47  49
ENDBRANCH  46  47
ENDBRANCH  45  46
ENDBRANCH  44  45
ENDBRANCH  43  44
ENDBRANCH   1  43
TORSDOF 12
ENDMDL
MODEL 7
REMARK VINA RESULT:    71.134      3.663      7.442
REMARK INTER + INTRA:         156.232
REMARK INTER:                 148.112
REMARK INTRA:                   8.120
REMARK UNBOUND:                 6.087
REMARK SMILES CCC(=O)CCCCC[C@H]1NC(=O)[C@H]2CCCCN2C(=O)[C@H]([C@@H](C)CC)NC(=O)[C@H](Cc2cn(OC)c3ccccc23)NC1=O
REMARK SMILES IDX 9 1 10 2 44 3 43 4 45 6 30 7 28 8 27 9 29 11 22 12 23 14
REMARK SMILES IDX 24 15 25 16 26 17 31 18 32 19 33 20 42 21 34 22 37 23 41 24
REMARK SMILES IDX 38 25 40 26 39 27 35 28 36 29 11 30 12 31 13 33 14 34 19 35
REMARK SMILES IDX 15 36 18 37 16 38 17 39 20 40 21 41 8 43 7 44 6 45 5 46 3 47
REMARK SMILES IDX 4 48 2 49 1 50
REMARK H PARENT 43 5 27 10 11 32
REMARK Flexibility Score: 80.00
ROOT
ATOM      1  C   UNL     1      -1.162   9.561  -2.914  1.00  0.00     0.035 C 
ENDROOT
BRANCH   1   2
ATOM      2  C   UNL     1      -0.099   8.669  -3.585  1.00  0.00     0.171 C 
BRANCH   2   3
ATOM      3  C   UNL     1       0.944   9.480  -4.304  1.00  0.00     0.243 C 
ATOM      4  N   UNL     1       2.259   8.941  -4.467  1.00  0.00    -0.342 N 
ATOM      5  H   UNL     1       2.555   8.179  -3.815  1.00  0.00     0.164 HD
ATOM      6  O   UNL     1       0.642  10.574  -4.851  1.00  0.00    -0.273 OA
BRANCH   4   7
ATOM      7  C   UNL     1       2.979   9.094  -5.731  1.00  0.00     0.175 C 
BRANCH   7   8
ATOM      8  C   UNL     1       2.159   8.514  -6.855  1.00  0.00     0.243 C 
ATOM      9  N   UNL     1       0.800   8.090  -6.628  1.00  0.00    -0.342 N 
ATOM     10  H   UNL     1       0.399   8.189  -5.669  1.00  0.00     0.164 HD
ATOM     11  O   UNL     1       2.689   8.377  -7.991  1.00  0.00    -0.273 OA
BRANCH   9  12
ATOM     12  C   UNL     1      -0.040   7.482  -7.664  1.00  0.00     0.174 CG0
ATOM     13  G   UNL     1       0.107   5.963  -7.607  1.00  0.00     0.000 G0
BRANCH  12  14
ATOM     14  C   UNL     1       0.188   8.230  -9.023  1.00  0.00     0.018 C 
ATOM     15  C   UNL     1      -0.907   9.223  -9.438  1.00  0.00     0.010 C 
BRANCH  14  16
ATOM     16  C   UNL     1       1.617   8.799  -9.212  1.00  0.00     0.002 C 
ATOM     17  C   UNL     1       1.877   9.440 -10.569  1.00  0.00     0.004 C 
ENDBRANCH  14  16
ENDBRANCH  12  14
ENDBRANCH   9  12
ENDBRANCH   7   8
BRANCH   7  18
ATOM     18  C   UNL     1       4.351   8.404  -5.666  1.00  0.00     0.073 C 
BRANCH  18  19
ATOM     19  C   UNL     1       4.510   7.648  -4.379  1.00  0.00    -0.016 A 
ATOM     20  C   UNL     1       3.882   7.952  -3.175  1.00  0.00     0.134 A 
ATOM     21  C   UNL     1       5.146   6.434  -4.180  1.00  0.00     0.006 A 
ATOM     22  N   UNL     1       4.129   6.975  -2.269  1.00  0.00    -0.191 N 
ATOM     23  C   UNL     1       4.896   6.059  -2.884  1.00  0.00     0.087 A 
ATOM     24  C   UNL     1       5.889   5.628  -5.045  1.00  0.00     0.011 A 
ATOM     25  C   UNL     1       5.366   4.854  -2.364  1.00  0.00     0.030 A 
ATOM     26  C   UNL     1       6.385   4.410  -4.544  1.00  0.00     0.001 A 
ATOM     27  C   UNL     1       6.125   4.025  -3.210  1.00  0.00     0.002 A 
BRANCH  22  28
ATOM     28  O   UNL     1       3.639   6.878  -0.978  1.00  0.00    -0.417 OA
ATOM     29  C   UNL     1       2.339   6.374  -0.697  1.00  0.00     0.313 C 
ENDBRANCH  22  28
ENDBRANCH  18  19
ENDBRANCH   7  18
ENDBRANCH   4   7
ENDBRANCH   2   3
BRANCH   2  30
ATOM     30  N   UNL     1      -0.727   7.759  -4.547  1.00  0.00    -0.343 N 
ATOM     31  C   UNL     1      -0.288   6.402  -4.738  1.00  0.00     0.243 C 
ATOM     32  H   UNL     1      -1.510   8.131  -5.130  1.00  0.00     0.164 HD
ATOM     33  O   UNL     1       0.829   6.034  -4.284  1.00  0.00    -0.273 OA
BRANCH  31  34
ATOM     34  C   UNL     1      -1.155   5.388  -5.447  1.00  0.00     0.174 C 
ATOM     35  N   UNL     1      -0.678   5.019  -6.798  1.00  0.00    -0.329 N 
ATOM     36  C   UNL     1      -2.632   5.836  -5.511  1.00  0.00     0.035 C 
ATOM     37  C   UNL     1      -1.475   3.979  -7.471  1.00  0.00     0.120 C 
ATOM     38  C   UNL     1      -3.492   4.757  -6.174  1.00  0.00     0.004 C 
ATOM     39  C   UNL     1      -2.944   4.401  -7.561  1.00  0.00     0.022 C 
BRANCH  35  40
ATOM     40  C   UNL     1       0.056   5.936  -7.634  1.00  0.00     0.246 CG0
ATOM     41  O   UNL     1       0.823   5.457  -8.513  1.00  0.00    -0.272 OA
ATOM     42  G   UNL     1      -0.087   7.455  -7.567  1.00  0.00     0.000 G0
ENDBRANCH  35  40
ENDBRANCH  31  34
ENDBRANCH   2  30
ENDBRANCH   1   2
BRANCH   1  43
ATOM     43  C   UNL     1      -0.654  10.999  -2.717  1.00  0.00     0.003 C 
BRANCH  43  44
ATOM     44  C   UNL     1      -1.330  11.704  -1.532  1.00  0.00     0.001 C 
BRANCH  44  45
ATOM     45  C   UNL     1      -0.513  12.899  -1.009  1.00  0.00     0.008 C 
BRANCH  45  46
ATOM     46  C   UNL     1      -1.048  14.240  -1.527  1.00  0.00     0.075 C 
BRANCH  46  47
ATOM     47  C   UNL     1       0.043  15.265  -1.727  1.00  0.00     0.132 C 
ATOM     48  O   UNL     1       0.489  15.862  -0.758  1.00  0.00    -0.300 OA
BRANCH  47  49
ATOM     49  C   UNL     1       0.577  15.582  -3.101  1.00  0.00     0.072 C 
ATOM     50  C   UNL     1       1.986  16.165  -3.023  1.00  0.00     0.012 C 
ENDBRANCH  47  49
ENDBRANCH  46  47
ENDBRANCH  45  46
ENDBRANCH  44  45
ENDBRANCH  43  44
ENDBRANCH   1  43
TORSDOF 12
ENDMDL
MODEL 8
REMARK VINA RESULT:    71.177      1.752      2.507
REMARK INTER + INTRA:         156.323
REMARK INTER:                 153.769
REMARK INTRA:                   2.555
REMARK UNBOUND:                 6.087
REMARK SMILES CCC(=O)CCCCC[C@H]1NC(=O)[C@H]2CCCCN2C(=O)[C@H]([C@@H](C)CC)NC(=O)[C@H](Cc2cn(OC)c3ccccc23)NC1=O
REMARK SMILES IDX 9 1 10 2 44 3 43 4 45 6 30 7 28 8 27 9 29 11 22 12 23 14
REMARK SMILES IDX 24 15 25 16 26 17 31 18 32 19 33 20 42 21 34 22 37 23 41 24
REMARK SMILES IDX 38 25 40 26 39 27 35 28 36 29 11 30 12 31 13 33 14 34 19 35
REMARK SMILES IDX 15 36 18 37 16 38 17 39 20 40 21 41 8 43 7 44 6 45 5 46 3 47
REMARK SMILES IDX 4 48 2 49 1 50
REMARK H PARENT 43 5 27 10 11 32
REMARK Flexibility Score: 80.00
ROOT
ATOM      1  C   UNL     1       0.387   8.628  -3.553  1.00  0.00     0.035 C 
ENDROOT
BRANCH   1   2
ATOM      2  C   UNL     1       0.774   8.023  -4.917  1.00  0.00     0.171 C 
BRANCH   2   3
ATOM      3  C   UNL     1       1.119   9.083  -5.926  1.00  0.00     0.243 C 
ATOM      4  N   UNL     1       2.012   8.763  -6.997  1.00  0.00    -0.342 N 
ATOM      5  H   UNL     1       2.647   7.943  -6.871  1.00  0.00     0.164 HD
ATOM      6  O   UNL     1       0.552  10.207  -5.896  1.00  0.00    -0.273 OA
BRANCH   4   7
ATOM      7  C   UNL     1       1.750   9.238  -8.356  1.00  0.00     0.175 C 
BRANCH   7   8
ATOM      8  C   UNL     1       0.637   8.428  -8.970  1.00  0.00     0.243 C 
ATOM      9  N   UNL     1       0.694   6.988  -8.974  1.00  0.00    -0.342 N 
ATOM     10  H   UNL     1       1.525   6.519  -8.547  1.00  0.00     0.164 HD
ATOM     11  O   UNL     1      -0.333   9.029  -9.507  1.00  0.00    -0.273 OA
BRANCH   9  12
ATOM     12  C   UNL     1      -0.333   6.140  -9.587  1.00  0.00     0.174 CG0
ATOM     13  G   UNL     1      -0.300   4.757  -8.939  1.00  0.00     0.000 G0
BRANCH  12  14
ATOM     14  C   UNL     1      -0.245   6.264 -11.147  1.00  0.00     0.018 C 
ATOM     15  C   UNL     1      -0.692   5.033 -11.948  1.00  0.00     0.010 C 
BRANCH  14  16
ATOM     16  C   UNL     1      -0.807   7.589 -11.720  1.00  0.00     0.002 C 
ATOM     17  C   UNL     1      -0.287   7.962 -13.102  1.00  0.00     0.004 C 
ENDBRANCH  14  16
ENDBRANCH  12  14
ENDBRANCH   9  12
ENDBRANCH   7   8
BRANCH   7  18
ATOM     18  C   UNL     1       3.015   9.141  -9.223  1.00  0.00     0.073 C 
BRANCH  18  19
ATOM     19  C   UNL     1       2.888   9.990 -10.454  1.00  0.00    -0.016 A 
ATOM     20  C   UNL     1       2.806  11.379 -10.478  1.00  0.00     0.134 A 
ATOM     21  C   UNL     1       3.008   9.593 -11.775  1.00  0.00     0.006 A 
ATOM     22  N   UNL     1       2.861  11.820 -11.759  1.00  0.00    -0.191 N 
ATOM     23  C   UNL     1       2.982  10.733 -12.540  1.00  0.00     0.087 A 
ATOM     24  C   UNL     1       3.169   8.331 -12.350  1.00  0.00     0.011 A 
ATOM     25  C   UNL     1       3.119  10.691 -13.927  1.00  0.00     0.030 A 
ATOM     26  C   UNL     1       3.299   8.258 -13.749  1.00  0.00     0.001 A 
ATOM     27  C   UNL     1       3.274   9.432 -14.533  1.00  0.00     0.002 A 
BRANCH  22  28
ATOM     28  O   UNL     1       2.865  13.132 -12.200  1.00  0.00    -0.417 OA
ATOM     29  C   UNL     1       3.631  13.551 -13.322  1.00  0.00     0.313 C 
ENDBRANCH  22  28
ENDBRANCH  18  19
ENDBRANCH   7  18
ENDBRANCH   4   7
ENDBRANCH   2   3
BRANCH   2  30
ATOM     30  N   UNL     1      -0.325   7.213  -5.449  1.00  0.00    -0.343 N 
ATOM     31  C   UNL     1      -0.119   6.116  -6.356  1.00  0.00     0.243 C 
ATOM     32  H   UNL     1      -1.299   7.469  -5.168  1.00  0.00     0.164 HD
ATOM     33  O   UNL     1       0.990   5.987  -6.942  1.00  0.00    -0.273 OA
BRANCH  31  34
ATOM     34  C   UNL     1      -1.195   5.084  -6.601  1.00  0.00     0.174 C 
ATOM     35  N   UNL     1      -0.967   4.238  -7.792  1.00  0.00    -0.329 N 
ATOM     36  C   UNL     1      -2.600   5.721  -6.665  1.00  0.00     0.035 C 
ATOM     37  C   UNL     1      -1.972   3.183  -8.002  1.00  0.00     0.120 C 
ATOM     38  C   UNL     1      -3.672   4.642  -6.846  1.00  0.00     0.004 C 
ATOM     39  C   UNL     1      -3.377   3.786  -8.083  1.00  0.00     0.022 C 
BRANCH  35  40
ATOM     40  C   UNL     1      -0.256   4.716  -8.953  1.00  0.00     0.246 CG0
ATOM     41  O   UNL     1       0.472   3.901  -9.582  1.00  0.00    -0.272 OA
ATOM     42  G   UNL     1      -0.381   6.134  -9.507  1.00  0.00     0.000 G0
ENDBRANCH  35  40
ENDBRANCH  31  34
ENDBRANCH   2  30
ENDBRANCH   1   2
BRANCH   1  43
ATOM     43  C   UNL     1       0.136   7.537  -2.498  1.00  0.00     0.003 C 
BRANCH  43  44
ATOM     44  C   UNL     1       1.298   6.539  -2.396  1.00  0.00     0.001 C 
BRANCH  44  45
ATOM     45  C   UNL     1       2.648   7.159  -2.797  1.00  0.00     0.008 C 
BRANCH  45  46
ATOM     46  C   UNL     1       3.812   6.603  -1.966  1.00  0.00     0.075 C 
BRANCH  46  47
ATOM     47  C   UNL     1       5.159   6.875  -2.595  1.00  0.00     0.132 C 
ATOM     48  O   UNL     1       5.753   5.967  -3.156  1.00  0.00    -0.300 OA
BRANCH  47  49
ATOM     49  C   UNL     1       5.794   8.241  -2.521  1.00  0.00     0.072 C 
ATOM     50  C   UNL     1       5.703   8.814  -1.110  1.00  0.00     0.012 C 
ENDBRANCH  47  49
ENDBRANCH  46  47
ENDBRANCH  45  46
ENDBRANCH  44  45
ENDBRANCH  43  44
ENDBRANCH   1  43
TORSDOF 12
ENDMDL
MODEL 9
REMARK VINA RESULT:    71.331      2.107      6.363
REMARK INTER + INTRA:         156.649
REMARK INTER:                 155.182
REMARK INTRA:                   1.467
REMARK UNBOUND:                 6.087
REMARK SMILES CCC(=O)CCCCC[C@H]1NC(=O)[C@H]2CCCCN2C(=O)[C@H]([C@@H](C)CC)NC(=O)[C@H](Cc2cn(OC)c3ccccc23)NC1=O
REMARK SMILES IDX 9 1 10 2 44 3 43 4 45 6 30 7 28 8 27 9 29 11 22 12 23 14
REMARK SMILES IDX 24 15 25 16 26 17 31 18 32 19 33 20 42 21 34 22 37 23 41 24
REMARK SMILES IDX 38 25 40 26 39 27 35 28 36 29 11 30 12 31 13 33 14 34 19 35
REMARK SMILES IDX 15 36 18 37 16 38 17 39 20 40 21 41 8 43 7 44 6 45 5 46 3 47
REMARK SMILES IDX 4 48 2 49 1 50
REMARK H PARENT 43 5 27 10 11 32
REMARK Flexibility Score: 80.00
ROOT
ATOM      1  C   UNL     1       5.184   8.839  -7.185  1.00  0.00     0.035 C 
ENDROOT
BRANCH   1   2
ATOM      2  C   UNL     1       3.956   9.384  -7.940  1.00  0.00     0.171 C 
BRANCH   2   3
ATOM      3  C   UNL     1       2.670   8.810  -7.412  1.00  0.00     0.243 C 
ATOM      4  N   UNL     1       1.428   9.400  -7.807  1.00  0.00    -0.342 N 
ATOM      5  H   UNL     1       1.448  10.383  -8.161  1.00  0.00     0.164 HD
ATOM      6  O   UNL     1       2.673   7.760  -6.716  1.00  0.00    -0.273 OA
BRANCH   4   7
ATOM      7  C   UNL     1       0.276   8.563  -8.143  1.00  0.00     0.175 C 
BRANCH   7   8
ATOM      8  C   UNL     1      -0.025   8.682  -9.615  1.00  0.00     0.243 C 
ATOM      9  N   UNL     1       0.990   8.393 -10.596  1.00  0.00    -0.342 N 
ATOM     10  H   UNL     1       1.938   8.105 -10.265  1.00  0.00     0.164 HD
ATOM     11  O   UNL     1      -1.170   9.067  -9.976  1.00  0.00    -0.273 OA
BRANCH   9  12
ATOM     12  C   UNL     1       0.778   8.526 -12.041  1.00  0.00     0.174 CG0
ATOM     13  G   UNL     1       1.361   9.855 -12.517  1.00  0.00     0.000 G0
BRANCH  12  14
ATOM     14  C   UNL     1      -0.709   8.169 -12.383  1.00  0.00     0.018 C 
ATOM     15  C   UNL     1      -1.281   8.808 -13.656  1.00  0.00     0.010 C 
BRANCH  14  16
ATOM     16  C   UNL     1      -1.054   6.663 -12.260  1.00  0.00     0.002 C 
ATOM     17  C   UNL     1       0.082   5.784 -11.753  1.00  0.00     0.004 C 
ENDBRANCH  14  16
ENDBRANCH  12  14
ENDBRANCH   9  12
ENDBRANCH   7   8
BRANCH   7  18
ATOM     18  C   UNL     1      -0.955   8.969  -7.317  1.00  0.00     0.073 C 
BRANCH  18  19
ATOM     19  C   UNL     1      -0.616   9.058  -5.857  1.00  0.00    -0.016 A 
ATOM     20  C   UNL     1      -0.856  10.153  -5.033  1.00  0.00     0.134 A 
ATOM     21  C   UNL     1      -0.181   8.042  -5.023  1.00  0.00     0.006 A 
ATOM     22  N   UNL     1      -0.570   9.831  -3.747  1.00  0.00    -0.191 N 
ATOM     23  C   UNL     1      -0.162   8.551  -3.748  1.00  0.00     0.087 A 
ATOM     24  C   UNL     1       0.161   6.714  -5.286  1.00  0.00     0.011 A 
ATOM     25  C   UNL     1       0.198   7.769  -2.651  1.00  0.00     0.030 A 
ATOM     26  C   UNL     1       0.538   5.905  -4.198  1.00  0.00     0.001 A 
ATOM     27  C   UNL     1       0.556   6.430  -2.887  1.00  0.00     0.002 A 
BRANCH  22  28
ATOM     28  O   UNL     1      -0.728  10.624  -2.624  1.00  0.00    -0.417 OA
ATOM     29  C   UNL     1      -1.728  11.632  -2.543  1.00  0.00     0.313 C 
ENDBRANCH  22  28
ENDBRANCH  18  19
ENDBRANCH   7  18
ENDBRANCH   4   7
ENDBRANCH   2   3
BRANCH   2  30
ATOM     30  N   UNL     1       4.053   9.074  -9.369  1.00  0.00    -0.343 N 
ATOM     31  C   UNL     1       3.479   9.909 -10.390  1.00  0.00     0.243 C 
ATOM     32  H   UNL     1       4.543   8.192  -9.643  1.00  0.00     0.164 HD
ATOM     33  O   UNL     1       2.634  10.791 -10.077  1.00  0.00    -0.273 OA
BRANCH  31  34
ATOM     34  C   UNL     1       3.892   9.777 -11.837  1.00  0.00     0.174 C 
ATOM     35  N   UNL     1       2.822  10.101 -12.806  1.00  0.00    -0.329 N 
ATOM     36  C   UNL     1       4.480   8.383 -12.145  1.00  0.00     0.035 C 
ATOM     37  C   UNL     1       3.231  10.045 -14.219  1.00  0.00     0.120 C 
ATOM     38  C   UNL     1       4.950   8.308 -13.601  1.00  0.00     0.004 C 
ATOM     39  C   UNL     1       3.809   8.668 -14.559  1.00  0.00     0.022 C 
BRANCH  35  40
ATOM     40  C   UNL     1       1.425   9.891 -12.512  1.00  0.00     0.246 CG0
ATOM     41  O   UNL     1       0.626  10.847 -12.708  1.00  0.00    -0.272 OA
ATOM     42  G   UNL     1       0.843   8.560 -12.041  1.00  0.00     0.000 G0
ENDBRANCH  35  40
ENDBRANCH  31  34
ENDBRANCH   2  30
ENDBRANCH   1   2
BRANCH   1  43
ATOM     43  C   UNL     1       5.107   9.146  -5.680  1.00  0.00     0.003 C 
BRANCH  43  44
ATOM     44  C   UNL     1       5.128   7.875  -4.818  1.00  0.00     0.001 C 
BRANCH  44  45
ATOM     45  C   UNL     1       5.138   8.181  -3.310  1.00  0.00     0.008 C 
BRANCH  45  46
ATOM     46  C   UNL     1       5.278   6.911  -2.461  1.00  0.00     0.075 C 
BRANCH  46  47
ATOM     47  C   UNL     1       4.989   5.652  -3.244  1.00  0.00     0.132 C 
ATOM     48  O   UNL     1       3.975   5.015  -3.003  1.00  0.00    -0.300 OA
BRANCH  47  49
ATOM     49  C   UNL     1       5.942   5.154  -4.302  1.00  0.00     0.072 C 
ATOM     50  C   UNL     1       6.520   3.793  -3.924  1.00  0.00     0.012 C 
ENDBRANCH  47  49
ENDBRANCH  46  47
ENDBRANCH  45  46
ENDBRANCH  44  45
ENDBRANCH  43  44
ENDBRANCH   1  43
TORSDOF 12
ENDMDL
