MODEL 1
REMARK VINA RESULT:    87.466      0.000      0.000
REMARK INTER + INTRA:         189.056
REMARK INTER:                 184.617
REMARK INTRA:                   4.439
REMARK UNBOUND:                 4.439
REMARK SMILES CCC(=O)CCCCC[C@H]1NC(=O)[C@H]2CCCCN2C(=O)[C@H]([C@@H](C)CC)NC(=O)[C@H](Cc2cn(OC)c3ccccc23)NC1=O
REMARK SMILES IDX 9 1 10 2 44 3 43 4 45 6 30 7 28 8 27 9 29 11 22 12 23 14
REMARK SMILES IDX 24 15 25 16 26 17 31 18 32 19 33 20 42 21 34 22 37 23 41 24
REMARK SMILES IDX 38 25 40 26 39 27 35 28 36 29 11 30 12 31 13 33 14 34 19 35
REMARK SMILES IDX 15 36 18 37 16 38 17 39 20 40 21 41 8 43 7 44 6 45 5 46 3 47
REMARK SMILES IDX 4 48 2 49 1 50
REMARK H PARENT 43 5 27 10 11 32
REMARK Flexibility Score: 80.00
ROOT
ATOM      1  C   UNL     1      -8.195 -14.540  14.048  1.00  0.00     0.035 C 
ENDROOT
BRANCH   1   2
ATOM      2  C   UNL     1      -8.518 -13.844  15.403  1.00  0.00     0.171 C 
BRANCH   2   3
ATOM      3  C   UNL     1      -8.323 -14.748  16.595  1.00  0.00     0.243 C 
ATOM      4  N   UNL     1      -8.473 -16.183  16.507  1.00  0.00    -0.342 N 
ATOM      5  H   UNL     1      -8.115 -16.696  15.658  1.00  0.00     0.164 HD
ATOM      6  O   UNL     1      -8.134 -14.202  17.714  1.00  0.00    -0.273 OA
BRANCH   4   7
ATOM      7  C   UNL     1      -9.406 -16.933  17.373  1.00  0.00     0.175 C 
BRANCH   7   8
ATOM      8  C   UNL     1      -9.691 -16.114  18.620  1.00  0.00     0.243 C 
ATOM      9  N   UNL     1      -9.065 -14.849  18.902  1.00  0.00    -0.342 N 
ATOM     10  H   UNL     1      -8.139 -14.649  18.455  1.00  0.00     0.164 HD
ATOM     11  O   UNL     1     -10.423 -16.620  19.512  1.00  0.00    -0.273 OA
BRANCH   9  12
ATOM     12  C   UNL     1      -9.495 -14.027  20.046  1.00  0.00     0.174 CG0
ATOM     13  G   UNL     1     -10.594 -13.073  19.602  1.00  0.00     0.000 G0
BRANCH  12  14
ATOM     14  C   UNL     1      -8.252 -13.304  20.663  1.00  0.00     0.018 C 
ATOM     15  C   UNL     1      -8.020 -11.892  20.056  1.00  0.00     0.010 C 
BRANCH  14  16
ATOM     16  C   UNL     1      -8.310 -13.250  22.208  1.00  0.00     0.002 C 
ATOM     17  C   UNL     1      -7.145 -12.470  22.833  1.00  0.00     0.004 C 
ENDBRANCH  14  16
ENDBRANCH  12  14
ENDBRANCH   9  12
ENDBRANCH   7   8
BRANCH   7  18
ATOM     18  C   UNL     1      -8.872 -18.379  17.567  1.00  0.00     0.073 C 
BRANCH  18  19
ATOM     19  C   UNL     1      -8.750 -19.196  16.311  1.00  0.00    -0.016 A 
ATOM     20  C   UNL     1      -9.821 -19.751  15.608  1.00  0.00     0.134 A 
ATOM     21  C   UNL     1      -7.605 -19.507  15.583  1.00  0.00     0.006 A 
ATOM     22  N   UNL     1      -9.362 -20.361  14.496  1.00  0.00    -0.191 N 
ATOM     23  C   UNL     1      -8.024 -20.216  14.485  1.00  0.00     0.087 A 
ATOM     24  C   UNL     1      -6.255 -19.212  15.784  1.00  0.00     0.011 A 
ATOM     25  C   UNL     1      -7.130 -20.677  13.523  1.00  0.00     0.030 A 
ATOM     26  C   UNL     1      -5.333 -19.646  14.812  1.00  0.00     0.001 A 
ATOM     27  C   UNL     1      -5.768 -20.380  13.687  1.00  0.00     0.002 A 
BRANCH  22  28
ATOM     28  O   UNL     1     -10.123 -21.054  13.584  1.00  0.00    -0.417 OA
ATOM     29  C   UNL     1     -10.734 -20.380  12.495  1.00  0.00     0.313 C 
ENDBRANCH  22  28
ENDBRANCH  18  19
ENDBRANCH   7  18
ENDBRANCH   4   7
ENDBRANCH   2   3
BRANCH   2  30
ATOM     30  N   UNL     1      -9.866 -13.260  15.421  1.00  0.00    -0.343 N 
ATOM     31  C   UNL     1     -10.074 -11.950  15.974  1.00  0.00     0.243 C 
ATOM     32  H   UNL     1     -10.702 -13.808  15.111  1.00  0.00     0.164 HD
ATOM     33  O   UNL     1      -9.833 -10.948  15.231  1.00  0.00    -0.273 OA
BRANCH  31  34
ATOM     34  C   UNL     1     -10.404 -11.751  17.455  1.00  0.00     0.174 C 
ATOM     35  N   UNL     1     -10.828 -13.000  18.114  1.00  0.00    -0.329 N 
ATOM     36  C   UNL     1     -11.508 -10.685  17.667  1.00  0.00     0.035 C 
ATOM     37  C   UNL     1     -12.073 -13.573  17.579  1.00  0.00     0.120 C 
ATOM     38  C   UNL     1     -12.904 -11.188  17.210  1.00  0.00     0.004 C 
ATOM     39  C   UNL     1     -13.246 -12.584  17.791  1.00  0.00     0.022 C 
BRANCH  35  40
ATOM     40  C   UNL     1     -10.621 -13.123  19.545  1.00  0.00     0.246 CG0
ATOM     41  O   UNL     1     -11.384 -12.498  20.327  1.00  0.00    -0.272 OA
ATOM     42  G   UNL     1      -9.509 -13.984  20.125  1.00  0.00     0.000 G0
ENDBRANCH  35  40
ENDBRANCH  31  34
ENDBRANCH   2  30
ENDBRANCH   1   2
BRANCH   1  43
ATOM     43  C   UNL     1      -8.237 -13.574  12.854  1.00  0.00     0.003 C 
BRANCH  43  44
ATOM     44  C   UNL     1      -9.330 -13.961  11.829  1.00  0.00     0.001 C 
BRANCH  44  45
ATOM     45  C   UNL     1     -10.701 -13.355  12.161  1.00  0.00     0.008 C 
BRANCH  45  46
ATOM     46  C   UNL     1     -11.098 -12.271  11.149  1.00  0.00     0.075 C 
BRANCH  46  47
ATOM     47  C   UNL     1     -11.777 -12.877   9.938  1.00  0.00     0.132 C 
ATOM     48  O   UNL     1     -11.553 -12.436   8.827  1.00  0.00    -0.300 OA
BRANCH  47  49
ATOM     49  C   UNL     1     -12.766 -14.006  10.108  1.00  0.00     0.072 C 
ATOM     50  C   UNL     1     -13.287 -14.467   8.757  1.00  0.00     0.012 C 
ENDBRANCH  47  49
ENDBRANCH  46  47
ENDBRANCH  45  46
ENDBRANCH  44  45
ENDBRANCH  43  44
ENDBRANCH   1  43
TORSDOF 12
ENDMDL
MODEL 2
REMARK VINA RESULT:    87.638      2.532      7.592
REMARK INTER + INTRA:         189.421
REMARK INTER:                 188.739
REMARK INTRA:                   0.682
REMARK UNBOUND:                 4.439
REMARK SMILES CCC(=O)CCCCC[C@H]1NC(=O)[C@H]2CCCCN2C(=O)[C@H]([C@@H](C)CC)NC(=O)[C@H](Cc2cn(OC)c3ccccc23)NC1=O
REMARK SMILES IDX 9 1 10 2 44 3 43 4 45 6 30 7 28 8 27 9 29 11 22 12 23 14
REMARK SMILES IDX 24 15 25 16 26 17 31 18 32 19 33 20 42 21 34 22 37 23 41 24
REMARK SMILES IDX 38 25 40 26 39 27 35 28 36 29 11 30 12 31 13 33 14 34 19 35
REMARK SMILES IDX 15 36 18 37 16 38 17 39 20 40 21 41 8 43 7 44 6 45 5 46 3 47
REMARK SMILES IDX 4 48 2 49 1 50
REMARK H PARENT 43 5 27 10 11 32
REMARK Flexibility Score: 80.00
ROOT
ATOM      1  C   UNL     1      -5.556 -19.941  13.483  1.00  0.00     0.035 C 
ENDROOT
BRANCH   1   2
ATOM      2  C   UNL     1      -6.731 -19.034  13.955  1.00  0.00     0.171 C 
BRANCH   2   3
ATOM      3  C   UNL     1      -6.792 -17.715  13.226  1.00  0.00     0.243 C 
ATOM      4  N   UNL     1      -6.214 -16.506  13.769  1.00  0.00    -0.342 N 
ATOM      5  H   UNL     1      -5.287 -16.549  14.270  1.00  0.00     0.164 HD
ATOM      6  O   UNL     1      -7.471 -17.667  12.166  1.00  0.00    -0.273 OA
BRANCH   4   7
ATOM      7  C   UNL     1      -7.004 -15.274  13.968  1.00  0.00     0.175 C 
BRANCH   7   8
ATOM      8  C   UNL     1      -7.216 -15.058  15.457  1.00  0.00     0.243 C 
ATOM      9  N   UNL     1      -8.512 -15.051  16.084  1.00  0.00    -0.342 N 
ATOM     10  H   UNL     1      -9.343 -14.819  15.489  1.00  0.00     0.164 HD
ATOM     11  O   UNL     1      -6.219 -14.751  16.164  1.00  0.00    -0.273 OA
BRANCH   9  12
ATOM     12  C   UNL     1      -8.647 -14.993  17.549  1.00  0.00     0.174 CG0
ATOM     13  G   UNL     1      -9.488 -16.165  18.029  1.00  0.00     0.000 G0
BRANCH  12  14
ATOM     14  C   UNL     1      -9.224 -13.598  17.963  1.00  0.00     0.018 C 
ATOM     15  C   UNL     1     -10.458 -13.187  17.112  1.00  0.00     0.010 C 
BRANCH  14  16
ATOM     16  C   UNL     1      -9.532 -13.515  19.477  1.00  0.00     0.002 C 
ATOM     17  C   UNL     1      -8.316 -13.824  20.362  1.00  0.00     0.004 C 
ENDBRANCH  14  16
ENDBRANCH  12  14
ENDBRANCH   9  12
ENDBRANCH   7   8
BRANCH   7  18
ATOM     18  C   UNL     1      -8.264 -15.323  13.061  1.00  0.00     0.073 C 
BRANCH  18  19
ATOM     19  C   UNL     1      -8.950 -14.005  12.838  1.00  0.00    -0.016 A 
ATOM     20  C   UNL     1      -8.447 -12.763  13.230  1.00  0.00     0.134 A 
ATOM     21  C   UNL     1     -10.146 -13.747  12.175  1.00  0.00     0.006 A 
ATOM     22  N   UNL     1      -9.282 -11.788  12.816  1.00  0.00    -0.191 N 
ATOM     23  C   UNL     1     -10.309 -12.384  12.183  1.00  0.00     0.087 A 
ATOM     24  C   UNL     1     -11.078 -14.585  11.558  1.00  0.00     0.011 A 
ATOM     25  C   UNL     1     -11.406 -11.771  11.584  1.00  0.00     0.030 A 
ATOM     26  C   UNL     1     -12.184 -13.987  10.923  1.00  0.00     0.001 A 
ATOM     27  C   UNL     1     -12.350 -12.585  10.939  1.00  0.00     0.002 A 
BRANCH  22  28
ATOM     28  O   UNL     1      -9.134 -10.442  13.058  1.00  0.00    -0.417 OA
ATOM     29  C   UNL     1     -10.110  -9.733  13.806  1.00  0.00     0.313 C 
ENDBRANCH  22  28
ENDBRANCH  18  19
ENDBRANCH   7  18
ENDBRANCH   4   7
ENDBRANCH   2   3
BRANCH   2  30
ATOM     30  N   UNL     1      -6.713 -18.814  15.408  1.00  0.00    -0.343 N 
ATOM     31  C   UNL     1      -7.867 -19.145  16.198  1.00  0.00     0.243 C 
ATOM     32  H   UNL     1      -5.906 -18.344  15.879  1.00  0.00     0.164 HD
ATOM     33  O   UNL     1      -8.014 -20.356  16.554  1.00  0.00    -0.273 OA
BRANCH  31  34
ATOM     34  C   UNL     1      -8.976 -18.124  16.461  1.00  0.00     0.174 C 
ATOM     35  N   UNL     1      -8.882 -17.518  17.803  1.00  0.00    -0.329 N 
ATOM     36  C   UNL     1     -10.387 -18.742  16.300  1.00  0.00     0.035 C 
ATOM     37  C   UNL     1      -9.051 -18.472  18.910  1.00  0.00     0.120 C 
ATOM     38  C   UNL     1     -10.732 -19.723  17.453  1.00  0.00     0.004 C 
ATOM     39  C   UNL     1     -10.462 -19.109  18.850  1.00  0.00     0.022 C 
BRANCH  35  40
ATOM     40  C   UNL     1      -9.444 -16.194  17.997  1.00  0.00     0.246 CG0
ATOM     41  O   UNL     1     -10.573 -16.086  18.542  1.00  0.00    -0.272 OA
ATOM     42  G   UNL     1      -8.708 -14.937  17.559  1.00  0.00     0.000 G0
ENDBRANCH  35  40
ENDBRANCH  31  34
ENDBRANCH   2  30
ENDBRANCH   1   2
BRANCH   1  43
ATOM     43  C   UNL     1      -6.014 -21.344  13.060  1.00  0.00     0.003 C 
BRANCH  43  44
ATOM     44  C   UNL     1      -7.501 -21.600  13.402  1.00  0.00     0.001 C 
BRANCH  44  45
ATOM     45  C   UNL     1      -8.290 -22.196  12.228  1.00  0.00     0.008 C 
BRANCH  45  46
ATOM     46  C   UNL     1      -7.773 -23.592  11.852  1.00  0.00     0.075 C 
BRANCH  46  47
ATOM     47  C   UNL     1      -8.874 -24.438  11.245  1.00  0.00     0.132 C 
ATOM     48  O   UNL     1      -9.562 -23.992  10.347  1.00  0.00    -0.300 OA
BRANCH  47  49
ATOM     49  C   UNL     1      -9.147 -25.824  11.779  1.00  0.00     0.072 C 
ATOM     50  C   UNL     1      -9.074 -26.850  10.660  1.00  0.00     0.012 C 
ENDBRANCH  47  49
ENDBRANCH  46  47
ENDBRANCH  45  46
ENDBRANCH  44  45
ENDBRANCH  43  44
ENDBRANCH   1  43
TORSDOF 12
ENDMDL
MODEL 3
REMARK VINA RESULT:    89.795      0.901      1.411
REMARK INTER + INTRA:         193.972
REMARK INTER:                 188.278
REMARK INTRA:                   5.694
REMARK UNBOUND:                 4.439
REMARK SMILES CCC(=O)CCCCC[C@H]1NC(=O)[C@H]2CCCCN2C(=O)[C@H]([C@@H](C)CC)NC(=O)[C@H](Cc2cn(OC)c3ccccc23)NC1=O
REMARK SMILES IDX 9 1 10 2 44 3 43 4 45 6 30 7 28 8 27 9 29 11 22 12 23 14
REMARK SMILES IDX 24 15 25 16 26 17 31 18 32 19 33 20 42 21 34 22 37 23 41 24
REMARK SMILES IDX 38 25 40 26 39 27 35 28 36 29 11 30 12 31 13 33 14 34 19 35
REMARK SMILES IDX 15 36 18 37 16 38 17 39 20 40 21 41 8 43 7 44 6 45 5 46 3 47
REMARK SMILES IDX 4 48 2 49 1 50
REMARK H PARENT 43 5 27 10 11 32
REMARK Flexibility Score: 80.00
ROOT
ATOM      1  C   UNL     1      -8.145 -14.546  14.087  1.00  0.00     0.035 C 
ENDROOT
BRANCH   1   2
ATOM      2  C   UNL     1      -8.445 -13.812  15.428  1.00  0.00     0.171 C 
BRANCH   2   3
ATOM      3  C   UNL     1      -8.278 -14.697  16.639  1.00  0.00     0.243 C 
ATOM      4  N   UNL     1      -8.367 -16.138  16.559  1.00  0.00    -0.342 N 
ATOM      5  H   UNL     1      -7.944 -16.644  15.736  1.00  0.00     0.164 HD
ATOM      6  O   UNL     1      -8.171 -14.133  17.760  1.00  0.00    -0.273 OA
BRANCH   4   7
ATOM      7  C   UNL     1      -9.314 -16.916  17.383  1.00  0.00     0.175 C 
BRANCH   7   8
ATOM      8  C   UNL     1      -9.683 -16.105  18.613  1.00  0.00     0.243 C 
ATOM      9  N   UNL     1      -9.014 -14.889  18.995  1.00  0.00    -0.342 N 
ATOM     10  H   UNL     1      -8.033 -14.741  18.657  1.00  0.00     0.164 HD
ATOM     11  O   UNL     1     -10.540 -16.579  19.406  1.00  0.00    -0.273 OA
BRANCH   9  12
ATOM     12  C   UNL     1      -9.515 -14.063  20.106  1.00  0.00     0.174 CG0
ATOM     13  G   UNL     1     -10.604 -13.131  19.597  1.00  0.00     0.000 G0
BRANCH  12  14
ATOM     14  C   UNL     1      -8.317 -13.314  20.779  1.00  0.00     0.018 C 
ATOM     15  C   UNL     1      -8.778 -12.114  21.653  1.00  0.00     0.010 C 
BRANCH  14  16
ATOM     16  C   UNL     1      -7.399 -14.270  21.576  1.00  0.00     0.002 C 
ATOM     17  C   UNL     1      -6.820 -13.637  22.849  1.00  0.00     0.004 C 
ENDBRANCH  14  16
ENDBRANCH  12  14
ENDBRANCH   9  12
ENDBRANCH   7   8
BRANCH   7  18
ATOM     18  C   UNL     1      -8.743 -18.344  17.606  1.00  0.00     0.073 C 
BRANCH  18  19
ATOM     19  C   UNL     1      -8.706 -19.221  16.387  1.00  0.00    -0.016 A 
ATOM     20  C   UNL     1      -9.825 -19.765  15.756  1.00  0.00     0.134 A 
ATOM     21  C   UNL     1      -7.606 -19.612  15.629  1.00  0.00     0.006 A 
ATOM     22  N   UNL     1      -9.438 -20.444  14.656  1.00  0.00    -0.191 N 
ATOM     23  C   UNL     1      -8.098 -20.353  14.583  1.00  0.00     0.087 A 
ATOM     24  C   UNL     1      -6.238 -19.362  15.760  1.00  0.00     0.011 A 
ATOM     25  C   UNL     1      -7.264 -20.894  13.609  1.00  0.00     0.030 A 
ATOM     26  C   UNL     1      -5.375 -19.877  14.772  1.00  0.00     0.001 A 
ATOM     27  C   UNL     1      -5.885 -20.644  13.703  1.00  0.00     0.002 A 
BRANCH  22  28
ATOM     28  O   UNL     1     -10.263 -21.148  13.810  1.00  0.00    -0.417 OA
ATOM     29  C   UNL     1     -10.561 -20.649  12.515  1.00  0.00     0.313 C 
ENDBRANCH  22  28
ENDBRANCH  18  19
ENDBRANCH   7  18
ENDBRANCH   4   7
ENDBRANCH   2   3
BRANCH   2  30
ATOM     30  N   UNL     1      -9.774 -13.186  15.432  1.00  0.00    -0.343 N 
ATOM     31  C   UNL     1      -9.952 -11.885  16.016  1.00  0.00     0.243 C 
ATOM     32  H   UNL     1     -10.620 -13.698  15.091  1.00  0.00     0.164 HD
ATOM     33  O   UNL     1      -9.664 -10.872  15.306  1.00  0.00    -0.273 OA
BRANCH  31  34
ATOM     34  C   UNL     1     -10.308 -11.714  17.495  1.00  0.00     0.174 C 
ATOM     35  N   UNL     1     -10.782 -12.968  18.113  1.00  0.00    -0.329 N 
ATOM     36  C   UNL     1     -11.386 -10.623  17.712  1.00  0.00     0.035 C 
ATOM     37  C   UNL     1     -12.031 -13.490  17.537  1.00  0.00     0.120 C 
ATOM     38  C   UNL     1     -12.786 -11.074  17.213  1.00  0.00     0.004 C 
ATOM     39  C   UNL     1     -13.180 -12.474  17.750  1.00  0.00     0.022 C 
BRANCH  35  40
ATOM     40  C   UNL     1     -10.609 -13.133  19.543  1.00  0.00     0.246 CG0
ATOM     41  O   UNL     1     -11.387 -12.526  20.325  1.00  0.00    -0.272 OA
ATOM     42  G   UNL     1      -9.515 -14.016  20.124  1.00  0.00     0.000 G0
ENDBRANCH  35  40
ENDBRANCH  31  34
ENDBRANCH   2  30
ENDBRANCH   1   2
BRANCH   1  43
ATOM     43  C   UNL     1      -7.696 -13.593  12.969  1.00  0.00     0.003 C 
BRANCH  43  44
ATOM     44  C   UNL     1      -8.802 -13.377  11.908  1.00  0.00     0.001 C 
BRANCH  44  45
ATOM     45  C   UNL     1     -10.208 -13.298  12.519  1.00  0.00     0.008 C 
BRANCH  45  46
ATOM     46  C   UNL     1     -11.239 -12.800  11.497  1.00  0.00     0.075 C 
BRANCH  46  47
ATOM     47  C   UNL     1     -11.269 -11.285  11.445  1.00  0.00     0.132 C 
ATOM     48  O   UNL     1     -12.049 -10.715  10.707  1.00  0.00    -0.300 OA
BRANCH  47  49
ATOM     49  C   UNL     1     -10.304 -10.479  12.280  1.00  0.00     0.072 C 
ATOM     50  C   UNL     1     -11.055  -9.497  13.164  1.00  0.00     0.012 C 
ENDBRANCH  47  49
ENDBRANCH  46  47
ENDBRANCH  45  46
ENDBRANCH  44  45
ENDBRANCH  43  44
ENDBRANCH   1  43
TORSDOF 12
ENDMDL
MODEL 4
REMARK VINA RESULT:    90.127      1.190      1.840
REMARK INTER + INTRA:         194.674
REMARK INTER:                 187.307
REMARK INTRA:                   7.367
REMARK UNBOUND:                 4.439
REMARK SMILES CCC(=O)CCCCC[C@H]1NC(=O)[C@H]2CCCCN2C(=O)[C@H]([C@@H](C)CC)NC(=O)[C@H](Cc2cn(OC)c3ccccc23)NC1=O
REMARK SMILES IDX 9 1 10 2 44 3 43 4 45 6 30 7 28 8 27 9 29 11 22 12 23 14
REMARK SMILES IDX 24 15 25 16 26 17 31 18 32 19 33 20 42 21 34 22 37 23 41 24
REMARK SMILES IDX 38 25 40 26 39 27 35 28 36 29 11 30 12 31 13 33 14 34 19 35
REMARK SMILES IDX 15 36 18 37 16 38 17 39 20 40 21 41 8 43 7 44 6 45 5 46 3 47
REMARK SMILES IDX 4 48 2 49 1 50
REMARK H PARENT 43 5 27 10 11 32
REMARK Flexibility Score: 80.00
ROOT
ATOM      1  C   UNL     1      -7.802 -14.345  13.702  1.00  0.00     0.035 C 
ENDROOT
BRANCH   1   2
ATOM      2  C   UNL     1      -8.229 -13.609  15.007  1.00  0.00     0.171 C 
BRANCH   2   3
ATOM      3  C   UNL     1      -7.971 -14.416  16.255  1.00  0.00     0.243 C 
ATOM      4  N   UNL     1      -7.728 -15.840  16.216  1.00  0.00    -0.342 N 
ATOM      5  H   UNL     1      -7.136 -16.250  15.445  1.00  0.00     0.164 HD
ATOM      6  O   UNL     1      -8.086 -13.827  17.362  1.00  0.00    -0.273 OA
BRANCH   4   7
ATOM      7  C   UNL     1      -8.543 -16.800  16.989  1.00  0.00     0.175 C 
BRANCH   7   8
ATOM      8  C   UNL     1      -9.225 -16.065  18.129  1.00  0.00     0.243 C 
ATOM      9  N   UNL     1      -8.725 -14.843  18.701  1.00  0.00    -0.342 N 
ATOM     10  H   UNL     1      -7.701 -14.640  18.606  1.00  0.00     0.164 HD
ATOM     11  O   UNL     1     -10.216 -16.612  18.684  1.00  0.00    -0.273 OA
BRANCH   9  12
ATOM     12  C   UNL     1      -9.509 -14.093  19.697  1.00  0.00     0.174 CG0
ATOM     13  G   UNL     1     -10.544 -13.233  18.987  1.00  0.00     0.000 G0
BRANCH  12  14
ATOM     14  C   UNL     1      -8.539 -13.274  20.613  1.00  0.00     0.018 C 
ATOM     15  C   UNL     1      -9.296 -12.346  21.604  1.00  0.00     0.010 C 
BRANCH  14  16
ATOM     16  C   UNL     1      -7.525 -14.178  21.352  1.00  0.00     0.002 C 
ATOM     17  C   UNL     1      -6.882 -13.502  22.571  1.00  0.00     0.004 C 
ENDBRANCH  14  16
ENDBRANCH  12  14
ENDBRANCH   9  12
ENDBRANCH   7   8
BRANCH   7  18
ATOM     18  C   UNL     1      -7.673 -18.037  17.346  1.00  0.00     0.073 C 
BRANCH  18  19
ATOM     19  C   UNL     1      -7.345 -18.949  16.198  1.00  0.00    -0.016 A 
ATOM     20  C   UNL     1      -6.059 -19.351  15.834  1.00  0.00     0.134 A 
ATOM     21  C   UNL     1      -8.215 -19.602  15.330  1.00  0.00     0.006 A 
ATOM     22  N   UNL     1      -6.132 -20.219  14.805  1.00  0.00    -0.191 N 
ATOM     23  C   UNL     1      -7.434 -20.367  14.500  1.00  0.00     0.087 A 
ATOM     24  C   UNL     1      -9.607 -19.602  15.218  1.00  0.00     0.011 A 
ATOM     25  C   UNL     1      -7.985 -21.174  13.508  1.00  0.00     0.030 A 
ATOM     26  C   UNL     1     -10.191 -20.430  14.240  1.00  0.00     0.001 A 
ATOM     27  C   UNL     1      -9.383 -21.210  13.384  1.00  0.00     0.002 A 
BRANCH  22  28
ATOM     28  O   UNL     1      -5.063 -20.792  14.155  1.00  0.00    -0.417 OA
ATOM     29  C   UNL     1      -5.059 -20.908  12.741  1.00  0.00     0.313 C 
ENDBRANCH  22  28
ENDBRANCH  18  19
ENDBRANCH   7  18
ENDBRANCH   4   7
ENDBRANCH   2   3
BRANCH   2  30
ATOM     30  N   UNL     1      -9.632 -13.172  14.963  1.00  0.00    -0.343 N 
ATOM     31  C   UNL     1     -10.008 -11.908  15.535  1.00  0.00     0.243 C 
ATOM     32  H   UNL     1     -10.387 -13.795  14.595  1.00  0.00     0.164 HD
ATOM     33  O   UNL     1      -9.837 -10.865  14.831  1.00  0.00    -0.273 OA
BRANCH  31  34
ATOM     34  C   UNL     1     -10.435 -11.789  17.000  1.00  0.00     0.174 C 
ATOM     35  N   UNL     1     -10.717 -13.099  17.617  1.00  0.00    -0.329 N 
ATOM     36  C   UNL     1     -11.683 -10.888  17.171  1.00  0.00     0.035 C 
ATOM     37  C   UNL     1     -11.844 -13.823  17.008  1.00  0.00     0.120 C 
ATOM     38  C   UNL     1     -12.973 -11.565  16.634  1.00  0.00     0.004 C 
ATOM     39  C   UNL     1     -13.150 -13.007  17.174  1.00  0.00     0.022 C 
BRANCH  35  40
ATOM     40  C   UNL     1     -10.566 -13.225  19.054  1.00  0.00     0.246 CG0
ATOM     41  O   UNL     1     -11.358 -12.600  19.807  1.00  0.00    -0.272 OA
ATOM     42  G   UNL     1      -9.479 -14.089  19.675  1.00  0.00     0.000 G0
ENDBRANCH  35  40
ENDBRANCH  31  34
ENDBRANCH   2  30
ENDBRANCH   1   2
BRANCH   1  43
ATOM     43  C   UNL     1      -8.277 -13.630  12.428  1.00  0.00     0.003 C 
BRANCH  43  44
ATOM     44  C   UNL     1      -9.671 -12.983  12.608  1.00  0.00     0.001 C 
BRANCH  44  45
ATOM     45  C   UNL     1     -10.756 -13.658  11.756  1.00  0.00     0.008 C 
BRANCH  45  46
ATOM     46  C   UNL     1     -11.588 -12.625  10.983  1.00  0.00     0.075 C 
BRANCH  46  47
ATOM     47  C   UNL     1     -11.920 -13.123   9.590  1.00  0.00     0.132 C 
ATOM     48  O   UNL     1     -11.726 -12.411   8.624  1.00  0.00    -0.300 OA
BRANCH  47  49
ATOM     49  C   UNL     1     -12.530 -14.491   9.400  1.00  0.00     0.072 C 
ATOM     50  C   UNL     1     -13.918 -14.376   8.791  1.00  0.00     0.012 C 
ENDBRANCH  47  49
ENDBRANCH  46  47
ENDBRANCH  45  46
ENDBRANCH  44  45
ENDBRANCH  43  44
ENDBRANCH   1  43
TORSDOF 12
ENDMDL
MODEL 5
REMARK VINA RESULT:    90.157      2.210      7.351
REMARK INTER + INTRA:         194.737
REMARK INTER:                 193.009
REMARK INTRA:                   1.728
REMARK UNBOUND:                 4.439
REMARK SMILES CCC(=O)CCCCC[C@H]1NC(=O)[C@H]2CCCCN2C(=O)[C@H]([C@@H](C)CC)NC(=O)[C@H](Cc2cn(OC)c3ccccc23)NC1=O
REMARK SMILES IDX 9 1 10 2 44 3 43 4 45 6 30 7 28 8 27 9 29 11 22 12 23 14
REMARK SMILES IDX 24 15 25 16 26 17 31 18 32 19 33 20 42 21 34 22 37 23 41 24
REMARK SMILES IDX 38 25 40 26 39 27 35 28 36 29 11 30 12 31 13 33 14 34 19 35
REMARK SMILES IDX 15 36 18 37 16 38 17 39 20 40 21 41 8 43 7 44 6 45 5 46 3 47
REMARK SMILES IDX 4 48 2 49 1 50
REMARK H PARENT 43 5 27 10 11 32
REMARK Flexibility Score: 80.00
ROOT
ATOM      1  C   UNL     1      -6.611 -16.037  13.022  1.00  0.00     0.035 C 
ENDROOT
BRANCH   1   2
ATOM      2  C   UNL     1      -7.791 -15.240  13.651  1.00  0.00     0.171 C 
BRANCH   2   3
ATOM      3  C   UNL     1      -8.442 -14.282  12.684  1.00  0.00     0.243 C 
ATOM      4  N   UNL     1      -8.455 -12.853  12.904  1.00  0.00    -0.342 N 
ATOM      5  H   UNL     1      -7.600 -12.376  13.296  1.00  0.00     0.164 HD
ATOM      6  O   UNL     1      -9.085 -14.776  11.720  1.00  0.00    -0.273 OA
BRANCH   4   7
ATOM      7  C   UNL     1      -9.709 -12.073  12.941  1.00  0.00     0.175 C 
BRANCH   7   8
ATOM      8  C   UNL     1      -9.816 -11.371  14.284  1.00  0.00     0.243 C 
ATOM      9  N   UNL     1     -10.405 -11.973  15.451  1.00  0.00    -0.342 N 
ATOM     10  H   UNL     1     -11.100 -12.745  15.308  1.00  0.00     0.164 HD
ATOM     11  O   UNL     1      -9.481 -10.158  14.353  1.00  0.00    -0.273 OA
BRANCH   9  12
ATOM     12  C   UNL     1     -10.341 -11.307  16.764  1.00  0.00     0.174 CG0
ATOM     13  G   UNL     1     -10.022 -12.334  17.840  1.00  0.00     0.000 G0
BRANCH  12  14
ATOM     14  C   UNL     1     -11.675 -10.530  17.018  1.00  0.00     0.018 C 
ATOM     15  C   UNL     1     -12.732 -11.388  17.769  1.00  0.00     0.010 C 
BRANCH  14  16
ATOM     16  C   UNL     1     -11.441  -9.176  17.729  1.00  0.00     0.002 C 
ATOM     17  C   UNL     1     -12.263  -9.014  19.015  1.00  0.00     0.004 C 
ENDBRANCH  14  16
ENDBRANCH  12  14
ENDBRANCH   9  12
ENDBRANCH   7   8
BRANCH   7  18
ATOM     18  C   UNL     1     -10.890 -12.983  12.507  1.00  0.00     0.073 C 
BRANCH  18  19
ATOM     19  C   UNL     1     -11.391 -12.766  11.106  1.00  0.00    -0.016 A 
ATOM     20  C   UNL     1     -11.191 -11.608  10.354  1.00  0.00     0.134 A 
ATOM     21  C   UNL     1     -12.077 -13.652  10.281  1.00  0.00     0.006 A 
ATOM     22  N   UNL     1     -11.713 -11.776   9.121  1.00  0.00    -0.191 N 
ATOM     23  C   UNL     1     -12.250 -13.008   9.080  1.00  0.00     0.087 A 
ATOM     24  C   UNL     1     -12.536 -14.956  10.477  1.00  0.00     0.011 A 
ATOM     25  C   UNL     1     -12.892 -13.618   8.005  1.00  0.00     0.030 A 
ATOM     26  C   UNL     1     -13.166 -15.603   9.397  1.00  0.00     0.001 A 
ATOM     27  C   UNL     1     -13.348 -14.936   8.166  1.00  0.00     0.002 A 
BRANCH  22  28
ATOM     28  O   UNL     1     -11.741 -10.831   8.121  1.00  0.00    -0.417 OA
ATOM     29  C   UNL     1     -10.773 -10.852   7.083  1.00  0.00     0.313 C 
ENDBRANCH  22  28
ENDBRANCH  18  19
ENDBRANCH   7  18
ENDBRANCH   4   7
ENDBRANCH   2   3
BRANCH   2  30
ATOM     30  N   UNL     1      -7.393 -14.534  14.877  1.00  0.00    -0.343 N 
ATOM     31  C   UNL     1      -7.862 -14.997  16.155  1.00  0.00     0.243 C 
ATOM     32  H   UNL     1      -6.838 -13.649  14.842  1.00  0.00     0.164 HD
ATOM     33  O   UNL     1      -7.236 -15.955  16.705  1.00  0.00    -0.273 OA
BRANCH  31  34
ATOM     34  C   UNL     1      -9.169 -14.481  16.761  1.00  0.00     0.174 C 
ATOM     35  N   UNL     1      -8.962 -13.328  17.658  1.00  0.00    -0.329 N 
ATOM     36  C   UNL     1      -9.921 -15.584  17.547  1.00  0.00     0.035 C 
ATOM     37  C   UNL     1      -8.148 -13.626  18.847  1.00  0.00     0.120 C 
ATOM     38  C   UNL     1      -9.206 -15.948  18.876  1.00  0.00     0.004 C 
ATOM     39  C   UNL     1      -8.853 -14.696  19.718  1.00  0.00     0.022 C 
BRANCH  35  40
ATOM     40  C   UNL     1     -10.060 -12.398  17.840  1.00  0.00     0.246 CG0
ATOM     41  O   UNL     1     -10.797 -12.517  18.854  1.00  0.00    -0.272 OA
ATOM     42  G   UNL     1     -10.345 -11.285  16.843  1.00  0.00     0.000 G0
ENDBRANCH  35  40
ENDBRANCH  31  34
ENDBRANCH   2  30
ENDBRANCH   1   2
BRANCH   1  43
ATOM     43  C   UNL     1      -7.078 -17.153  12.075  1.00  0.00     0.003 C 
BRANCH  43  44
ATOM     44  C   UNL     1      -7.083 -18.538  12.763  1.00  0.00     0.001 C 
BRANCH  44  45
ATOM     45  C   UNL     1      -7.433 -18.462  14.256  1.00  0.00     0.008 C 
BRANCH  45  46
ATOM     46  C   UNL     1      -6.252 -18.897  15.135  1.00  0.00     0.075 C 
BRANCH  46  47
ATOM     47  C   UNL     1      -6.210 -20.405  15.287  1.00  0.00     0.132 C 
ATOM     48  O   UNL     1      -6.105 -20.905  16.390  1.00  0.00    -0.300 OA
BRANCH  47  49
ATOM     49  C   UNL     1      -6.260 -21.291  14.065  1.00  0.00     0.072 C 
ATOM     50  C   UNL     1      -4.937 -21.243  13.318  1.00  0.00     0.012 C 
ENDBRANCH  47  49
ENDBRANCH  46  47
ENDBRANCH  45  46
ENDBRANCH  44  45
ENDBRANCH  43  44
ENDBRANCH   1  43
TORSDOF 12
ENDMDL
MODEL 6
REMARK VINA RESULT:    90.230      2.791      7.548
REMARK INTER + INTRA:         194.891
REMARK INTER:                 192.514
REMARK INTRA:                   2.377
REMARK UNBOUND:                 4.439
REMARK SMILES CCC(=O)CCCCC[C@H]1NC(=O)[C@H]2CCCCN2C(=O)[C@H]([C@@H](C)CC)NC(=O)[C@H](Cc2cn(OC)c3ccccc23)NC1=O
REMARK SMILES IDX 9 1 10 2 44 3 43 4 45 6 30 7 28 8 27 9 29 11 22 12 23 14
REMARK SMILES IDX 24 15 25 16 26 17 31 18 32 19 33 20 42 21 34 22 37 23 41 24
REMARK SMILES IDX 38 25 40 26 39 27 35 28 36 29 11 30 12 31 13 33 14 34 19 35
REMARK SMILES IDX 15 36 18 37 16 38 17 39 20 40 21 41 8 43 7 44 6 45 5 46 3 47
REMARK SMILES IDX 4 48 2 49 1 50
REMARK H PARENT 43 5 27 10 11 32
REMARK Flexibility Score: 80.00
ROOT
ATOM      1  C   UNL     1     -10.039 -13.169  19.459  1.00  0.00     0.035 C 
ENDROOT
BRANCH   1   2
ATOM      2  C   UNL     1      -9.645 -13.380  17.967  1.00  0.00     0.171 C 
BRANCH   2   3
ATOM      3  C   UNL     1      -8.613 -14.464  17.773  1.00  0.00     0.243 C 
ATOM      4  N   UNL     1      -7.555 -14.354  16.795  1.00  0.00    -0.342 N 
ATOM      5  H   UNL     1      -7.074 -13.427  16.646  1.00  0.00     0.164 HD
ATOM      6  O   UNL     1      -8.767 -15.535  18.417  1.00  0.00    -0.273 OA
BRANCH   4   7
ATOM      7  C   UNL     1      -7.340 -15.373  15.747  1.00  0.00     0.175 C 
BRANCH   7   8
ATOM      8  C   UNL     1      -7.647 -14.762  14.392  1.00  0.00     0.243 C 
ATOM      9  N   UNL     1      -8.826 -13.981  14.118  1.00  0.00    -0.342 N 
ATOM     10  H   UNL     1      -9.666 -14.133  14.726  1.00  0.00     0.164 HD
ATOM     11  O   UNL     1      -6.894 -15.048  13.423  1.00  0.00    -0.273 OA
BRANCH   9  12
ATOM     12  C   UNL     1      -8.994 -13.283  12.832  1.00  0.00     0.174 CG0
ATOM     13  G   UNL     1      -9.482 -11.865  13.084  1.00  0.00     0.000 G0
BRANCH  12  14
ATOM     14  C   UNL     1      -9.944 -14.116  11.909  1.00  0.00     0.018 C 
ATOM     15  C   UNL     1     -10.900 -15.040  12.715  1.00  0.00     0.010 C 
BRANCH  14  16
ATOM     16  C   UNL     1     -10.726 -13.227  10.915  1.00  0.00     0.002 C 
ATOM     17  C   UNL     1     -12.250 -13.343  11.064  1.00  0.00     0.004 C 
ENDBRANCH  14  16
ENDBRANCH  12  14
ENDBRANCH   9  12
ENDBRANCH   7   8
BRANCH   7  18
ATOM     18  C   UNL     1      -8.094 -16.674  16.139  1.00  0.00     0.073 C 
BRANCH  18  19
ATOM     19  C   UNL     1      -7.312 -17.947  15.974  1.00  0.00    -0.016 A 
ATOM     20  C   UNL     1      -7.052 -18.865  16.992  1.00  0.00     0.134 A 
ATOM     21  C   UNL     1      -6.758 -18.484  14.816  1.00  0.00     0.006 A 
ATOM     22  N   UNL     1      -6.384 -19.922  16.486  1.00  0.00    -0.191 N 
ATOM     23  C   UNL     1      -6.205 -19.689  15.173  1.00  0.00     0.087 A 
ATOM     24  C   UNL     1      -6.714 -18.029  13.496  1.00  0.00     0.011 A 
ATOM     25  C   UNL     1      -5.573 -20.512  14.245  1.00  0.00     0.030 A 
ATOM     26  C   UNL     1      -6.103 -18.855  12.533  1.00  0.00     0.001 A 
ATOM     27  C   UNL     1      -5.529 -20.090  12.906  1.00  0.00     0.002 A 
BRANCH  22  28
ATOM     28  O   UNL     1      -5.922 -21.003  17.201  1.00  0.00    -0.417 OA
ATOM     29  C   UNL     1      -6.591 -22.253  17.130  1.00  0.00     0.313 C 
ENDBRANCH  22  28
ENDBRANCH  18  19
ENDBRANCH   7  18
ENDBRANCH   4   7
ENDBRANCH   2   3
BRANCH   2  30
ATOM     30  N   UNL     1      -9.202 -12.133  17.328  1.00  0.00    -0.343 N 
ATOM     31  C   UNL     1     -10.164 -11.259  16.715  1.00  0.00     0.243 C 
ATOM     32  H   UNL     1      -8.187 -11.899  17.235  1.00  0.00     0.164 HD
ATOM     33  O   UNL     1     -10.794 -10.451  17.466  1.00  0.00    -0.273 OA
BRANCH  31  34
ATOM     34  C   UNL     1     -10.552 -11.405  15.242  1.00  0.00     0.174 C 
ATOM     35  N   UNL     1      -9.396 -11.268  14.335  1.00  0.00    -0.329 N 
ATOM     36  C   UNL     1     -11.631 -10.377  14.820  1.00  0.00     0.035 C 
ATOM     37  C   UNL     1      -8.753  -9.945  14.372  1.00  0.00     0.120 C 
ATOM     38  C   UNL     1     -11.066  -8.932  14.743  1.00  0.00     0.004 C 
ATOM     39  C   UNL     1      -9.756  -8.855  13.919  1.00  0.00     0.022 C 
BRANCH  35  40
ATOM     40  C   UNL     1      -9.461 -11.922  13.042  1.00  0.00     0.246 CG0
ATOM     41  O   UNL     1      -9.945 -11.292  12.065  1.00  0.00    -0.272 OA
ATOM     42  G   UNL     1      -8.961 -13.343  12.834  1.00  0.00     0.000 G0
ENDBRANCH  35  40
ENDBRANCH  31  34
ENDBRANCH   2  30
ENDBRANCH   1   2
BRANCH   1  43
ATOM     43  C   UNL     1      -9.083 -13.870  20.436  1.00  0.00     0.003 C 
BRANCH  43  44
ATOM     44  C   UNL     1      -8.956 -13.107  21.776  1.00  0.00     0.001 C 
BRANCH  44  45
ATOM     45  C   UNL     1      -7.558 -12.510  21.993  1.00  0.00     0.008 C 
BRANCH  45  46
ATOM     46  C   UNL     1      -7.190 -12.467  23.483  1.00  0.00     0.075 C 
BRANCH  46  47
ATOM     47  C   UNL     1      -6.286 -11.289  23.788  1.00  0.00     0.132 C 
ATOM     48  O   UNL     1      -5.371 -11.010  23.038  1.00  0.00    -0.300 OA
BRANCH  47  49
ATOM     49  C   UNL     1      -6.494 -10.481  25.047  1.00  0.00     0.072 C 
ATOM     50  C   UNL     1      -5.353  -9.495  25.241  1.00  0.00     0.012 C 
ENDBRANCH  47  49
ENDBRANCH  46  47
ENDBRANCH  45  46
ENDBRANCH  44  45
ENDBRANCH  43  44
ENDBRANCH   1  43
TORSDOF 12
ENDMDL
