MODEL 1
REMARK VINA RESULT:    -6.807      0.000      0.000
REMARK INTER + INTRA:          -7.629
REMARK INTER:                  -8.001
REMARK INTRA:                   0.372
REMARK UNBOUND:                 0.372
REMARK SMILES Oc1ccc(-c2[o+]c3cc(O)cc(O)c3cc2O)cc1.[Cl-]
REMARK SMILES IDX 6 1 7 2 8 3 9 4 10 5 12 6 13 7 15 8 16 9 17 10 5 11 4 12
REMARK SMILES IDX 3 13 2 14 19 15 20 16 1 17 18 19 11 21 14 23
REMARK H PARENT 1 18 18 20 11 22 14 24
REMARK Flexibility Score: inf
ROOT
ATOM      1  C   UNL     1      50.369 113.533  47.105  1.00  0.00     0.401 A 
ATOM      2  O   UNL     1      51.406 113.269  47.897  1.00  0.00    -0.202 OA
ATOM      3  C   UNL     1      52.664 113.247  47.469  1.00  0.00     0.368 A 
ATOM      4  C   UNL     1      53.685 112.962  48.379  1.00  0.00     0.162 A 
ATOM      5  C   UNL     1      55.018 112.935  47.956  1.00  0.00     0.128 A 
ATOM      6  C   UNL     1      55.330 113.193  46.620  1.00  0.00     0.093 A 
ATOM      7  C   UNL     1      54.324 113.481  45.689  1.00  0.00     0.136 A 
ATOM      8  C   UNL     1      52.969 113.507  46.112  1.00  0.00     0.125 A 
ATOM      9  C   UNL     1      51.896 113.773  45.247  1.00  0.00     0.078 A 
ATOM     10  C   UNL     1      50.586 113.778  45.736  1.00  0.00     0.223 A 
ENDROOT
BRANCH   1  11
ATOM     11  C   UNL     1      49.015 113.539  47.702  1.00  0.00     0.084 A 
ATOM     12  C   UNL     1      48.826 113.014  48.992  1.00  0.00     0.022 A 
ATOM     13  C   UNL     1      47.560 113.030  49.585  1.00  0.00     0.047 A 
ATOM     14  C   UNL     1      46.470 113.581  48.904  1.00  0.00     0.115 A 
ATOM     15  C   UNL     1      47.919 114.110  47.030  1.00  0.00     0.022 A 
ATOM     16  C   UNL     1      46.654 114.125  47.626  1.00  0.00     0.047 A 
BRANCH  14  17
ATOM     17  O   UNL     1      45.214 113.589  49.506  1.00  0.00    -0.508 OA
ATOM     18  H   UNL     1      44.523 114.294  49.279  1.00  0.00     0.293 HD
ENDBRANCH  14  17
ENDBRANCH   1  11
BRANCH  10  19
ATOM     19  O   UNL     1      49.515 113.992  44.867  1.00  0.00    -0.500 OA
ATOM     20  H   UNL     1      48.910 114.800  44.956  1.00  0.00     0.294 HD
ENDBRANCH  10  19
BRANCH   5  21
ATOM     21  O   UNL     1      56.043 112.653  48.858  1.00  0.00    -0.507 OA
ATOM     22  H   UNL     1      56.706 111.906  48.689  1.00  0.00     0.293 HD
ENDBRANCH   5  21
BRANCH   7  23
ATOM     23  O   UNL     1      54.719 113.732  44.372  1.00  0.00    -0.507 OA
ATOM     24  H   UNL     1      54.083 113.823  43.593  1.00  0.00     0.293 HD
ENDBRANCH   7  23
TORSDOF 5
ENDMDL
MODEL 2
REMARK VINA RESULT:    -6.639      8.261      9.530
REMARK INTER + INTRA:          -7.431
REMARK INTER:                  -7.256
REMARK INTRA:                  -0.175
REMARK UNBOUND:                 0.372
REMARK SMILES Oc1ccc(-c2[o+]c3cc(O)cc(O)c3cc2O)cc1.[Cl-]
REMARK SMILES IDX 6 1 7 2 8 3 9 4 10 5 12 6 13 7 15 8 16 9 17 10 5 11 4 12
REMARK SMILES IDX 3 13 2 14 19 15 20 16 1 17 18 19 11 21 14 23
REMARK H PARENT 1 18 18 20 11 22 14 24
REMARK Flexibility Score: inf
ROOT
ATOM      1  C   UNL     1      47.804 108.836  53.627  1.00  0.00     0.401 A 
ATOM      2  O   UNL     1      47.208 107.730  53.188  1.00  0.00    -0.202 OA
ATOM      3  C   UNL     1      47.870 106.631  52.844  1.00  0.00     0.368 A 
ATOM      4  C   UNL     1      47.154 105.518  52.398  1.00  0.00     0.162 A 
ATOM      5  C   UNL     1      47.825 104.347  52.033  1.00  0.00     0.128 A 
ATOM      6  C   UNL     1      49.219 104.290  52.113  1.00  0.00     0.093 A 
ATOM      7  C   UNL     1      49.960 105.393  52.558  1.00  0.00     0.136 A 
ATOM      8  C   UNL     1      49.283 106.584  52.927  1.00  0.00     0.125 A 
ATOM      9  C   UNL     1      49.944 107.741  53.370  1.00  0.00     0.078 A 
ATOM     10  C   UNL     1      49.209 108.879  53.714  1.00  0.00     0.223 A 
ENDROOT
BRANCH   1  11
ATOM     11  C   UNL     1      46.956 109.993  53.989  1.00  0.00     0.084 A 
ATOM     12  C   UNL     1      46.930 110.442  55.321  1.00  0.00     0.022 A 
ATOM     13  C   UNL     1      46.153 111.547  55.681  1.00  0.00     0.047 A 
ATOM     14  C   UNL     1      45.404 112.226  54.715  1.00  0.00     0.115 A 
ATOM     15  C   UNL     1      46.216 110.693  53.019  1.00  0.00     0.022 A 
ATOM     16  C   UNL     1      45.440 111.799  53.381  1.00  0.00     0.047 A 
BRANCH  14  17
ATOM     17  O   UNL     1      44.633 113.325  55.089  1.00  0.00    -0.508 OA
ATOM     18  H   UNL     1      43.999 113.773  54.438  1.00  0.00     0.293 HD
ENDBRANCH  14  17
ENDBRANCH   1  11
BRANCH  10  19
ATOM     19  O   UNL     1      49.868 110.045  54.106  1.00  0.00    -0.500 OA
ATOM     20  H   UNL     1      49.955 110.305  55.082  1.00  0.00     0.294 HD
ENDBRANCH  10  19
BRANCH   5  21
ATOM     21  O   UNL     1      47.117 103.232  51.587  1.00  0.00    -0.507 OA
ATOM     22  H   UNL     1      46.353 103.319  50.927  1.00  0.00     0.293 HD
ENDBRANCH   5  21
BRANCH   7  23
ATOM     23  O   UNL     1      51.349 105.253  52.613  1.00  0.00    -0.507 OA
ATOM     24  H   UNL     1      51.972 105.915  53.054  1.00  0.00     0.293 HD
ENDBRANCH   7  23
TORSDOF 5
ENDMDL
MODEL 3
REMARK VINA RESULT:    -6.283      3.855      7.076
REMARK INTER + INTRA:          -7.013
REMARK INTER:                  -6.997
REMARK INTRA:                  -0.016
REMARK UNBOUND:                 0.372
REMARK SMILES Oc1ccc(-c2[o+]c3cc(O)cc(O)c3cc2O)cc1.[Cl-]
REMARK SMILES IDX 6 1 7 2 8 3 9 4 10 5 12 6 13 7 15 8 16 9 17 10 5 11 4 12
REMARK SMILES IDX 3 13 2 14 19 15 20 16 1 17 18 19 11 21 14 23
REMARK H PARENT 1 18 18 20 11 22 14 24
REMARK Flexibility Score: inf
ROOT
ATOM      1  C   UNL     1      54.739 112.704  47.904  1.00  0.00     0.401 A 
ATOM      2  O   UNL     1      53.561 112.413  48.450  1.00  0.00    -0.202 OA
ATOM      3  C   UNL     1      53.263 112.664  49.721  1.00  0.00     0.368 A 
ATOM      4  C   UNL     1      51.996 112.325  50.201  1.00  0.00     0.162 A 
ATOM      5  C   UNL     1      51.655 112.581  51.533  1.00  0.00     0.128 A 
ATOM      6  C   UNL     1      52.585 113.178  52.387  1.00  0.00     0.093 A 
ATOM      7  C   UNL     1      53.862 113.528  51.929  1.00  0.00     0.136 A 
ATOM      8  C   UNL     1      54.214 113.268  50.579  1.00  0.00     0.125 A 
ATOM      9  C   UNL     1      55.473 113.572  50.037  1.00  0.00     0.078 A 
ATOM     10  C   UNL     1      55.748 113.283  48.698  1.00  0.00     0.223 A 
ENDROOT
BRANCH   1  11
ATOM     11  C   UNL     1      54.946 112.385  46.474  1.00  0.00     0.084 A 
ATOM     12  C   UNL     1      54.537 111.135  45.979  1.00  0.00     0.022 A 
ATOM     13  C   UNL     1      54.703 110.820  44.626  1.00  0.00     0.047 A 
ATOM     14  C   UNL     1      55.265 111.754  43.750  1.00  0.00     0.115 A 
ATOM     15  C   UNL     1      55.494 113.326  45.584  1.00  0.00     0.022 A 
ATOM     16  C   UNL     1      55.657 113.010  44.231  1.00  0.00     0.047 A 
BRANCH  14  17
ATOM     17  O   UNL     1      55.425 111.426  42.406  1.00  0.00    -0.508 OA
ATOM     18  H   UNL     1      56.217 110.881  42.084  1.00  0.00     0.293 HD
ENDBRANCH  14  17
ENDBRANCH   1  11
BRANCH  10  19
ATOM     19  O   UNL     1      57.015 113.538  48.173  1.00  0.00    -0.500 OA
ATOM     20  H   UNL     1      57.237 113.351  47.201  1.00  0.00     0.294 HD
ENDBRANCH  10  19
BRANCH   5  21
ATOM     21  O   UNL     1      50.393 112.246  52.020  1.00  0.00    -0.507 OA
ATOM     22  H   UNL     1      50.207 111.336  52.426  1.00  0.00     0.293 HD
ENDBRANCH   5  21
BRANCH   7  23
ATOM     23  O   UNL     1      54.732 114.125  52.845  1.00  0.00    -0.507 OA
ATOM     24  H   UNL     1      54.545 114.216  53.833  1.00  0.00     0.293 HD
ENDBRANCH   7  23
TORSDOF 5
ENDMDL
MODEL 4
REMARK VINA RESULT:    -6.177      7.514      9.690
REMARK INTER + INTRA:          -6.888
REMARK INTER:                  -6.782
REMARK INTRA:                  -0.107
REMARK UNBOUND:                 0.372
REMARK SMILES Oc1ccc(-c2[o+]c3cc(O)cc(O)c3cc2O)cc1.[Cl-]
REMARK SMILES IDX 6 1 7 2 8 3 9 4 10 5 12 6 13 7 15 8 16 9 17 10 5 11 4 12
REMARK SMILES IDX 3 13 2 14 19 15 20 16 1 17 18 19 11 21 14 23
REMARK H PARENT 1 18 18 20 11 22 14 24
REMARK Flexibility Score: inf
ROOT
ATOM      1  C   UNL     1      48.928 108.334  54.226  1.00  0.00     0.401 A 
ATOM      2  O   UNL     1      49.530 109.293  53.528  1.00  0.00    -0.202 OA
ATOM      3  C   UNL     1      49.975 110.422  54.071  1.00  0.00     0.368 A 
ATOM      4  C   UNL     1      50.598 111.369  53.255  1.00  0.00     0.162 A 
ATOM      5  C   UNL     1      51.079 112.563  53.801  1.00  0.00     0.128 A 
ATOM      6  C   UNL     1      50.936 112.810  55.168  1.00  0.00     0.093 A 
ATOM      7  C   UNL     1      50.315 111.876  56.007  1.00  0.00     0.136 A 
ATOM      8  C   UNL     1      49.823 110.663  55.457  1.00  0.00     0.125 A 
ATOM      9  C   UNL     1      49.177 109.677  56.219  1.00  0.00     0.078 A 
ATOM     10  C   UNL     1      48.715 108.509  55.606  1.00  0.00     0.223 A 
ENDROOT
BRANCH   1  11
ATOM     11  C   UNL     1      48.485 107.118  53.507  1.00  0.00     0.084 A 
ATOM     12  C   UNL     1      49.440 106.298  52.883  1.00  0.00     0.022 A 
ATOM     13  C   UNL     1      49.047 105.132  52.217  1.00  0.00     0.047 A 
ATOM     14  C   UNL     1      47.698 104.764  52.180  1.00  0.00     0.115 A 
ATOM     15  C   UNL     1      47.133 106.731  53.483  1.00  0.00     0.022 A 
ATOM     16  C   UNL     1      46.742 105.564  52.818  1.00  0.00     0.047 A 
BRANCH  14  17
ATOM     17  O   UNL     1      47.321 103.601  51.513  1.00  0.00    -0.508 OA
ATOM     18  H   UNL     1      47.982 103.072  50.957  1.00  0.00     0.293 HD
ENDBRANCH  14  17
ENDBRANCH   1  11
BRANCH  10  19
ATOM     19  O   UNL     1      48.028 107.551  56.353  1.00  0.00    -0.500 OA
ATOM     20  H   UNL     1      47.202 107.788  56.892  1.00  0.00     0.294 HD
ENDBRANCH  10  19
BRANCH   5  21
ATOM     21  O   UNL     1      51.701 113.513  52.993  1.00  0.00    -0.507 OA
ATOM     22  H   UNL     1      51.468 113.609  52.012  1.00  0.00     0.293 HD
ENDBRANCH   5  21
BRANCH   7  23
ATOM     23  O   UNL     1      50.215 112.197  57.364  1.00  0.00    -0.507 OA
ATOM     24  H   UNL     1      50.934 112.013  58.048  1.00  0.00     0.293 HD
ENDBRANCH   7  23
TORSDOF 5
ENDMDL
MODEL 5
REMARK VINA RESULT:    -6.021      9.343     10.833
REMARK INTER + INTRA:          -6.704
REMARK INTER:                  -6.511
REMARK INTRA:                  -0.194
REMARK UNBOUND:                 0.372
REMARK SMILES Oc1ccc(-c2[o+]c3cc(O)cc(O)c3cc2O)cc1.[Cl-]
REMARK SMILES IDX 6 1 7 2 8 3 9 4 10 5 12 6 13 7 15 8 16 9 17 10 5 11 4 12
REMARK SMILES IDX 3 13 2 14 19 15 20 16 1 17 18 19 11 21 14 23
REMARK H PARENT 1 18 18 20 11 22 14 24
REMARK Flexibility Score: inf
ROOT
ATOM      1  C   UNL     1      47.375 108.072  55.247  1.00  0.00     0.401 A 
ATOM      2  O   UNL     1      48.456 107.808  54.517  1.00  0.00    -0.202 OA
ATOM      3  C   UNL     1      48.478 106.904  53.543  1.00  0.00     0.368 A 
ATOM      4  C   UNL     1      49.662 106.701  52.831  1.00  0.00     0.162 A 
ATOM      5  C   UNL     1      49.711 105.759  51.799  1.00  0.00     0.128 A 
ATOM      6  C   UNL     1      48.572 105.017  51.479  1.00  0.00     0.093 A 
ATOM      7  C   UNL     1      47.372 105.203  52.178  1.00  0.00     0.136 A 
ATOM      8  C   UNL     1      47.318 106.156  53.228  1.00  0.00     0.125 A 
ATOM      9  C   UNL     1      46.164 106.399  53.991  1.00  0.00     0.078 A 
ATOM     10  C   UNL     1      46.188 107.352  55.013  1.00  0.00     0.223 A 
ENDROOT
BRANCH   1  11
ATOM     11  C   UNL     1      47.474 109.109  56.297  1.00  0.00     0.084 A 
ATOM     12  C   UNL     1      47.449 108.728  57.650  1.00  0.00     0.022 A 
ATOM     13  C   UNL     1      47.564 109.689  58.659  1.00  0.00     0.047 A 
ATOM     14  C   UNL     1      47.720 111.039  58.331  1.00  0.00     0.115 A 
ATOM     15  C   UNL     1      47.651 110.467  55.974  1.00  0.00     0.022 A 
ATOM     16  C   UNL     1      47.768 111.426  56.986  1.00  0.00     0.047 A 
BRANCH  14  17
ATOM     17  O   UNL     1      47.833 111.985  59.347  1.00  0.00    -0.508 OA
ATOM     18  H   UNL     1      47.138 112.058  60.082  1.00  0.00     0.293 HD
ENDBRANCH  14  17
ENDBRANCH   1  11
BRANCH  10  19
ATOM     19  O   UNL     1      45.057 107.557  55.804  1.00  0.00    -0.500 OA
ATOM     20  H   UNL     1      45.077 107.419  56.808  1.00  0.00     0.294 HD
ENDBRANCH  10  19
BRANCH   5  21
ATOM     21  O   UNL     1      50.889 105.551  51.083  1.00  0.00    -0.507 OA
ATOM     22  H   UNL     1      51.761 105.335  51.551  1.00  0.00     0.293 HD
ENDBRANCH   5  21
BRANCH   7  23
ATOM     23  O   UNL     1      46.277 104.424  51.794  1.00  0.00    -0.507 OA
ATOM     24  H   UNL     1      45.319 104.629  52.036  1.00  0.00     0.293 HD
ENDBRANCH   7  23
TORSDOF 5
ENDMDL
MODEL 6
REMARK VINA RESULT:    -5.981      8.386      9.240
REMARK INTER + INTRA:          -6.658
REMARK INTER:                  -6.828
REMARK INTRA:                   0.170
REMARK UNBOUND:                 0.372
REMARK SMILES Oc1ccc(-c2[o+]c3cc(O)cc(O)c3cc2O)cc1.[Cl-]
REMARK SMILES IDX 6 1 7 2 8 3 9 4 10 5 12 6 13 7 15 8 16 9 17 10 5 11 4 12
REMARK SMILES IDX 3 13 2 14 19 15 20 16 1 17 18 19 11 21 14 23
REMARK H PARENT 1 18 18 20 11 22 14 24
REMARK Flexibility Score: inf
ROOT
ATOM      1  C   UNL     1      49.364 108.210  53.676  1.00  0.00     0.401 A 
ATOM      2  O   UNL     1      50.641 108.170  54.045  1.00  0.00    -0.202 OA
ATOM      3  C   UNL     1      51.287 109.215  54.554  1.00  0.00     0.368 A 
ATOM      4  C   UNL     1      52.629 109.073  54.916  1.00  0.00     0.162 A 
ATOM      5  C   UNL     1      53.331 110.155  55.456  1.00  0.00     0.128 A 
ATOM      6  C   UNL     1      52.689 111.382  55.635  1.00  0.00     0.093 A 
ATOM      7  C   UNL     1      51.344 111.549  55.280  1.00  0.00     0.136 A 
ATOM      8  C   UNL     1      50.627 110.455  54.729  1.00  0.00     0.125 A 
ATOM      9  C   UNL     1      49.283 110.534  54.333  1.00  0.00     0.078 A 
ATOM     10  C   UNL     1      48.644 109.414  53.793  1.00  0.00     0.223 A 
ENDROOT
BRANCH   1  11
ATOM     11  C   UNL     1      48.753 106.976  53.132  1.00  0.00     0.084 A 
ATOM     12  C   UNL     1      49.552 106.067  52.416  1.00  0.00     0.022 A 
ATOM     13  C   UNL     1      49.001 104.884  51.913  1.00  0.00     0.047 A 
ATOM     14  C   UNL     1      47.651 104.588  52.129  1.00  0.00     0.115 A 
ATOM     15  C   UNL     1      47.401 106.662  53.362  1.00  0.00     0.022 A 
ATOM     16  C   UNL     1      46.854 105.479  52.859  1.00  0.00     0.047 A 
BRANCH  14  17
ATOM     17  O   UNL     1      47.117 103.407  51.620  1.00  0.00    -0.508 OA
ATOM     18  H   UNL     1      46.209 103.388  51.169  1.00  0.00     0.293 HD
ENDBRANCH  14  17
ENDBRANCH   1  11
BRANCH  10  19
ATOM     19  O   UNL     1      47.323 109.506  53.353  1.00  0.00    -0.500 OA
ATOM     20  H   UNL     1      46.917 110.390  53.069  1.00  0.00     0.294 HD
ENDBRANCH  10  19
BRANCH   5  21
ATOM     21  O   UNL     1      54.670 110.022  55.820  1.00  0.00    -0.507 OA
ATOM     22  H   UNL     1      55.210 109.205  55.560  1.00  0.00     0.293 HD
ENDBRANCH   5  21
BRANCH   7  23
ATOM     23  O   UNL     1      50.774 112.807  55.495  1.00  0.00    -0.507 OA
ATOM     24  H   UNL     1      50.868 113.590  54.865  1.00  0.00     0.293 HD
ENDBRANCH   7  23
TORSDOF 5
ENDMDL
MODEL 7
REMARK VINA RESULT:    -5.937      7.364     10.453
REMARK INTER + INTRA:          -6.606
REMARK INTER:                  -6.286
REMARK INTRA:                  -0.321
REMARK UNBOUND:                 0.372
REMARK SMILES Oc1ccc(-c2[o+]c3cc(O)cc(O)c3cc2O)cc1.[Cl-]
REMARK SMILES IDX 6 1 7 2 8 3 9 4 10 5 12 6 13 7 15 8 16 9 17 10 5 11 4 12
REMARK SMILES IDX 3 13 2 14 19 15 20 16 1 17 18 19 11 21 14 23
REMARK H PARENT 1 18 18 20 11 22 14 24
REMARK Flexibility Score: inf
ROOT
ATOM      1  C   UNL     1      50.049 108.766  53.927  1.00  0.00     0.401 A 
ATOM      2  O   UNL     1      50.052 107.683  53.152  1.00  0.00    -0.202 OA
ATOM      3  C   UNL     1      49.008 106.870  53.030  1.00  0.00     0.368 A 
ATOM      4  C   UNL     1      49.107 105.760  52.188  1.00  0.00     0.162 A 
ATOM      5  C   UNL     1      48.022 104.890  52.038  1.00  0.00     0.128 A 
ATOM      6  C   UNL     1      46.835 105.132  52.733  1.00  0.00     0.093 A 
ATOM      7  C   UNL     1      46.711 106.239  53.583  1.00  0.00     0.136 A 
ATOM      8  C   UNL     1      47.810 107.123  53.740  1.00  0.00     0.125 A 
ATOM      9  C   UNL     1      47.780 108.248  54.580  1.00  0.00     0.078 A 
ATOM     10  C   UNL     1      48.904 109.072  54.687  1.00  0.00     0.223 A 
ENDROOT
BRANCH   1  11
ATOM     11  C   UNL     1      51.271 109.598  53.972  1.00  0.00     0.084 A 
ATOM     12  C   UNL     1      52.318 109.244  54.840  1.00  0.00     0.022 A 
ATOM     13  C   UNL     1      53.491 110.004  54.883  1.00  0.00     0.047 A 
ATOM     14  C   UNL     1      53.640 111.117  54.049  1.00  0.00     0.115 A 
ATOM     15  C   UNL     1      51.435 110.708  53.122  1.00  0.00     0.022 A 
ATOM     16  C   UNL     1      52.610 111.465  53.165  1.00  0.00     0.047 A 
BRANCH  14  17
ATOM     17  O   UNL     1      54.814 111.865  54.103  1.00  0.00    -0.508 OA
ATOM     18  H   UNL     1      55.085 112.364  54.942  1.00  0.00     0.293 HD
ENDBRANCH  14  17
ENDBRANCH   1  11
BRANCH  10  19
ATOM     19  O   UNL     1      48.893 110.161  55.559  1.00  0.00    -0.500 OA
ATOM     20  H   UNL     1      48.128 110.318  56.205  1.00  0.00     0.294 HD
ENDBRANCH  10  19
BRANCH   5  21
ATOM     21  O   UNL     1      48.113 103.780  51.200  1.00  0.00    -0.507 OA
ATOM     22  H   UNL     1      47.289 103.271  50.905  1.00  0.00     0.293 HD
ENDBRANCH   5  21
BRANCH   7  23
ATOM     23  O   UNL     1      45.489 106.412  54.238  1.00  0.00    -0.507 OA
ATOM     24  H   UNL     1      45.267 107.196  54.834  1.00  0.00     0.293 HD
ENDBRANCH   7  23
TORSDOF 5
ENDMDL
MODEL 8
REMARK VINA RESULT:    -5.754      7.392     10.486
REMARK INTER + INTRA:          -6.391
REMARK INTER:                  -6.289
REMARK INTRA:                  -0.102
REMARK UNBOUND:                 0.372
REMARK SMILES Oc1ccc(-c2[o+]c3cc(O)cc(O)c3cc2O)cc1.[Cl-]
REMARK SMILES IDX 6 1 7 2 8 3 9 4 10 5 12 6 13 7 15 8 16 9 17 10 5 11 4 12
REMARK SMILES IDX 3 13 2 14 19 15 20 16 1 17 18 19 11 21 14 23
REMARK H PARENT 1 18 18 20 11 22 14 24
REMARK Flexibility Score: inf
ROOT
ATOM      1  C   UNL     1      46.538 110.195  54.239  1.00  0.00     0.401 A 
ATOM      2  O   UNL     1      46.678 110.698  55.463  1.00  0.00    -0.202 OA
ATOM      3  C   UNL     1      47.048 109.971  56.513  1.00  0.00     0.368 A 
ATOM      4  C   UNL     1      47.171 110.591  57.759  1.00  0.00     0.162 A 
ATOM      5  C   UNL     1      47.562 109.851  58.879  1.00  0.00     0.128 A 
ATOM      6  C   UNL     1      47.832 108.486  58.752  1.00  0.00     0.093 A 
ATOM      7  C   UNL     1      47.717 107.842  57.513  1.00  0.00     0.136 A 
ATOM      8  C   UNL     1      47.317 108.588  56.374  1.00  0.00     0.125 A 
ATOM      9  C   UNL     1      47.163 108.024  55.097  1.00  0.00     0.078 A 
ATOM     10  C   UNL     1      46.762 108.822  54.022  1.00  0.00     0.223 A 
ENDROOT
BRANCH   1  11
ATOM     11  C   UNL     1      46.129 111.109  53.149  1.00  0.00     0.084 A 
ATOM     12  C   UNL     1      44.916 110.884  52.476  1.00  0.00     0.022 A 
ATOM     13  C   UNL     1      44.500 111.748  51.458  1.00  0.00     0.047 A 
ATOM     14  C   UNL     1      45.281 112.854  51.110  1.00  0.00     0.115 A 
ATOM     15  C   UNL     1      46.901 112.235  52.807  1.00  0.00     0.022 A 
ATOM     16  C   UNL     1      46.481 113.098  51.790  1.00  0.00     0.047 A 
BRANCH  14  17
ATOM     17  O   UNL     1      44.854 113.705  50.094  1.00  0.00    -0.508 OA
ATOM     18  H   UNL     1      44.509 114.637  50.294  1.00  0.00     0.293 HD
ENDBRANCH  14  17
ENDBRANCH   1  11
BRANCH  10  19
ATOM     19  O   UNL     1      46.559 108.252  52.765  1.00  0.00    -0.500 OA
ATOM     20  H   UNL     1      46.048 107.384  52.650  1.00  0.00     0.294 HD
ENDBRANCH  10  19
BRANCH   5  21
ATOM     21  O   UNL     1      47.687 110.462  60.125  1.00  0.00    -0.507 OA
ATOM     22  H   UNL     1      48.085 111.389  60.223  1.00  0.00     0.293 HD
ENDBRANCH   5  21
BRANCH   7  23
ATOM     23  O   UNL     1      48.008 106.476  57.470  1.00  0.00    -0.507 OA
ATOM     24  H   UNL     1      48.600 106.041  56.777  1.00  0.00     0.293 HD
ENDBRANCH   7  23
TORSDOF 5
ENDMDL
MODEL 9
REMARK VINA RESULT:    -5.672      8.089     10.074
REMARK INTER + INTRA:          -6.295
REMARK INTER:                  -6.034
REMARK INTRA:                  -0.261
REMARK UNBOUND:                 0.372
REMARK SMILES Oc1ccc(-c2[o+]c3cc(O)cc(O)c3cc2O)cc1.[Cl-]
REMARK SMILES IDX 6 1 7 2 8 3 9 4 10 5 12 6 13 7 15 8 16 9 17 10 5 11 4 12
REMARK SMILES IDX 3 13 2 14 19 15 20 16 1 17 18 19 11 21 14 23
REMARK H PARENT 1 18 18 20 11 22 14 24
REMARK Flexibility Score: inf
ROOT
ATOM      1  C   UNL     1      48.889 109.459  54.489  1.00  0.00     0.401 A 
ATOM      2  O   UNL     1      49.558 108.552  53.782  1.00  0.00    -0.202 OA
ATOM      3  C   UNL     1      49.016 107.419  53.347  1.00  0.00     0.368 A 
ATOM      4  C   UNL     1      49.801 106.530  52.608  1.00  0.00     0.162 A 
ATOM      5  C   UNL     1      49.254 105.333  52.136  1.00  0.00     0.128 A 
ATOM      6  C   UNL     1      47.919 105.023  52.405  1.00  0.00     0.093 A 
ATOM      7  C   UNL     1      47.112 105.898  53.144  1.00  0.00     0.136 A 
ATOM      8  C   UNL     1      47.663 107.113  53.627  1.00  0.00     0.125 A 
ATOM      9  C   UNL     1      46.933 108.042  54.386  1.00  0.00     0.078 A 
ATOM     10  C   UNL     1      47.545 109.218  54.832  1.00  0.00     0.223 A 
ENDROOT
BRANCH   1  11
ATOM     11  C   UNL     1      49.601 110.687  54.907  1.00  0.00     0.084 A 
ATOM     12  C   UNL     1      50.052 110.807  56.233  1.00  0.00     0.022 A 
ATOM     13  C   UNL     1      50.747 111.949  56.644  1.00  0.00     0.047 A 
ATOM     14  C   UNL     1      51.013 112.977  55.734  1.00  0.00     0.115 A 
ATOM     15  C   UNL     1      49.889 111.716  53.992  1.00  0.00     0.022 A 
ATOM     16  C   UNL     1      50.585 112.856  54.406  1.00  0.00     0.047 A 
BRANCH  14  17
ATOM     17  O   UNL     1      51.705 114.109  56.158  1.00  0.00    -0.508 OA
ATOM     18  H   UNL     1      51.276 114.794  56.769  1.00  0.00     0.293 HD
ENDBRANCH  14  17
ENDBRANCH   1  11
BRANCH  10  19
ATOM     19  O   UNL     1      46.835 110.117  55.629  1.00  0.00    -0.500 OA
ATOM     20  H   UNL     1      46.876 111.117  55.469  1.00  0.00     0.294 HD
ENDBRANCH  10  19
BRANCH   5  21
ATOM     21  O   UNL     1      50.031 104.441  51.398  1.00  0.00    -0.507 OA
ATOM     22  H   UNL     1      50.705 103.831  51.844  1.00  0.00     0.293 HD
ENDBRANCH   5  21
BRANCH   7  23
ATOM     23  O   UNL     1      45.786 105.516  53.366  1.00  0.00    -0.507 OA
ATOM     24  H   UNL     1      45.104 106.081  53.850  1.00  0.00     0.293 HD
ENDBRANCH   7  23
TORSDOF 5
ENDMDL
