MODEL 1
REMARK VINA RESULT:    -6.621      0.000      0.000
REMARK INTER + INTRA:          -9.791
REMARK INTER:                  -9.137
REMARK INTRA:                  -0.654
REMARK UNBOUND:                -0.654
REMARK SMILES CC[C@@H](CC[C@H](C)[C@@H]1CC[C@@H]2[C@@H]3CC=C4C[C@@H](O)CC[C@@]4(C)[C@H]3CC[C@@]21C)C(C)C
REMARK SMILES IDX 5 1 4 2 3 3 2 4 1 5 28 6 29 7 30 8 6 9 7 10 8 11 9 12 26 13
REMARK SMILES IDX 10 14 11 15 25 16 27 17 12 18 24 19 23 20 13 21 21 22 14 23
REMARK SMILES IDX 15 24 20 25 22 26 16 27 19 28 17 29 18 30
REMARK H PARENT 18 31
REMARK Flexibility Score: inf
ROOT
ATOM      1  C   UNL     1      -6.954  -1.672   7.852  1.00  0.00     0.004 C 
ENDROOT
BRANCH   1   2
ATOM      2  C   UNL     1      -7.584  -0.282   8.103  1.00  0.00     0.004 C 
BRANCH   2   3
ATOM      3  C   UNL     1      -8.640   0.080   7.011  1.00  0.00    -0.009 C 
BRANCH   3   4
ATOM      4  C   UNL     1      -8.237  -0.553   5.651  1.00  0.00     0.000 C 
ATOM      5  C   UNL     1      -9.365  -1.344   4.981  1.00  0.00     0.004 C 
ENDBRANCH   3   4
BRANCH   3   6
ATOM      6  C   UNL     1      -8.944   1.615   6.928  1.00  0.00    -0.014 C 
ATOM      7  C   UNL     1      -8.589   2.337   8.241  1.00  0.00     0.007 C 
ATOM      8  C   UNL     1      -8.283   2.323   5.731  1.00  0.00     0.007 C 
ENDBRANCH   3   6
ENDBRANCH   2   3
ENDBRANCH   1   2
BRANCH   1   9
ATOM      9  C   UNL     1      -7.761  -2.885   8.400  1.00  0.00    -0.011 C 
ATOM     10  C   UNL     1      -7.183  -3.409   9.728  1.00  0.00     0.008 C 
BRANCH   9  11
ATOM     11  C   UNL     1      -8.041  -4.072   7.400  1.00  0.00    -0.002 C 
ATOM     12  C   UNL     1      -8.739  -5.325   7.953  1.00  0.00     0.005 C 
ATOM     13  C   UNL     1      -6.825  -4.613   6.597  1.00  0.00    -0.026 C 
ATOM     14  C   UNL     1      -8.399  -6.462   6.982  1.00  0.00     0.005 C 
ATOM     15  C   UNL     1      -7.435  -5.870   5.936  1.00  0.00    -0.001 C 
ATOM     16  C   UNL     1      -5.640  -5.006   7.532  1.00  0.00     0.007 C 
ATOM     17  C   UNL     1      -6.365  -3.589   5.526  1.00  0.00     0.012 C 
ATOM     18  C   UNL     1      -6.384  -6.847   5.332  1.00  0.00     0.000 C 
ATOM     19  C   UNL     1      -4.596  -5.902   6.851  1.00  0.00     0.005 C 
ATOM     20  C   UNL     1      -5.234  -7.203   6.302  1.00  0.00     0.003 C 
ATOM     21  C   UNL     1      -7.028  -8.146   4.833  1.00  0.00     0.031 C 
ATOM     22  C   UNL     1      -4.205  -8.278   5.691  1.00  0.00    -0.008 C 
ATOM     23  C   UNL     1      -6.017  -8.896   4.030  1.00  0.00    -0.027 C 
ATOM     24  C   UNL     1      -4.713  -8.911   4.372  1.00  0.00    -0.065 C 
ATOM     25  C   UNL     1      -2.812  -7.647   5.382  1.00  0.00     0.014 C 
ATOM     26  C   UNL     1      -4.039  -9.404   6.745  1.00  0.00     0.016 C 
ATOM     27  C   UNL     1      -3.735  -9.377   3.308  1.00  0.00     0.063 C 
ATOM     28  C   UNL     1      -1.772  -8.612   4.767  1.00  0.00     0.033 C 
ATOM     29  C   UNL     1      -2.355  -9.730   3.876  1.00  0.00     0.118 C 
BRANCH  29  30
ATOM     30  O   UNL     1      -1.463  -9.987   2.822  1.00  0.00    -0.393 OA
ATOM     31  H   UNL     1      -1.160 -10.930   2.919  1.00  0.00     0.210 HD
ENDBRANCH  29  30
ENDBRANCH   9  11
ENDBRANCH   1   9
TORSDOF 7
ENDMDL
MODEL 2
REMARK VINA RESULT:    -6.071     11.767     14.690
REMARK INTER + INTRA:          -9.032
REMARK INTER:                  -8.098
REMARK INTRA:                  -0.934
REMARK UNBOUND:                -0.654
REMARK SMILES CC[C@@H](CC[C@H](C)[C@@H]1CC[C@@H]2[C@@H]3CC=C4C[C@@H](O)CC[C@@]4(C)[C@H]3CC[C@@]21C)C(C)C
REMARK SMILES IDX 5 1 4 2 3 3 2 4 1 5 28 6 29 7 30 8 6 9 7 10 8 11 9 12 26 13
REMARK SMILES IDX 10 14 11 15 25 16 27 17 12 18 24 19 23 20 13 21 21 22 14 23
REMARK SMILES IDX 15 24 20 25 22 26 16 27 19 28 17 29 18 30
REMARK H PARENT 18 31
REMARK Flexibility Score: inf
ROOT
ATOM      1  C   UNL     1      -3.717  -6.315  -4.820  1.00  0.00     0.004 C 
ENDROOT
BRANCH   1   2
ATOM      2  C   UNL     1      -5.171  -6.408  -5.341  1.00  0.00     0.004 C 
BRANCH   2   3
ATOM      3  C   UNL     1      -6.200  -5.906  -4.279  1.00  0.00    -0.009 C 
BRANCH   3   4
ATOM      4  C   UNL     1      -7.145  -7.066  -3.863  1.00  0.00     0.000 C 
ATOM      5  C   UNL     1      -8.627  -6.679  -3.847  1.00  0.00     0.004 C 
ENDBRANCH   3   4
BRANCH   3   6
ATOM      6  C   UNL     1      -6.954  -4.602  -4.714  1.00  0.00    -0.014 C 
ATOM      7  C   UNL     1      -6.407  -3.360  -3.986  1.00  0.00     0.007 C 
ATOM      8  C   UNL     1      -6.974  -4.367  -6.235  1.00  0.00     0.007 C 
ENDBRANCH   3   6
ENDBRANCH   2   3
ENDBRANCH   1   2
BRANCH   1   9
ATOM      9  C   UNL     1      -2.795  -5.314  -5.574  1.00  0.00    -0.011 C 
ATOM     10  C   UNL     1      -3.588  -4.127  -6.156  1.00  0.00     0.008 C 
BRANCH   9  11
ATOM     11  C   UNL     1      -1.811  -5.914  -6.650  1.00  0.00    -0.002 C 
ATOM     12  C   UNL     1      -1.581  -7.434  -6.641  1.00  0.00     0.005 C 
ATOM     13  C   UNL     1      -0.388  -5.294  -6.720  1.00  0.00    -0.026 C 
ATOM     14  C   UNL     1      -0.246  -7.664  -7.361  1.00  0.00     0.005 C 
ATOM     15  C   UNL     1       0.319  -6.268  -7.690  1.00  0.00    -0.001 C 
ATOM     16  C   UNL     1       0.317  -5.299  -5.329  1.00  0.00     0.007 C 
ATOM     17  C   UNL     1      -0.434  -3.860  -7.309  1.00  0.00     0.012 C 
ATOM     18  C   UNL     1       1.870  -6.137  -7.710  1.00  0.00     0.000 C 
ATOM     19  C   UNL     1       1.834  -5.082  -5.412  1.00  0.00     0.005 C 
ATOM     20  C   UNL     1       2.514  -6.149  -6.305  1.00  0.00     0.003 C 
ATOM     21  C   UNL     1       2.528  -7.227  -8.564  1.00  0.00     0.031 C 
ATOM     22  C   UNL     1       4.122  -6.098  -6.349  1.00  0.00    -0.008 C 
ATOM     23  C   UNL     1       3.965  -6.872  -8.758  1.00  0.00    -0.027 C 
ATOM     24  C   UNL     1       4.688  -6.295  -7.777  1.00  0.00    -0.065 C 
ATOM     25  C   UNL     1       4.680  -4.738  -5.826  1.00  0.00     0.014 C 
ATOM     26  C   UNL     1       4.643  -7.249  -5.450  1.00  0.00     0.016 C 
ATOM     27  C   UNL     1       5.999  -5.647  -8.189  1.00  0.00     0.063 C 
ATOM     28  C   UNL     1       6.220  -4.599  -5.860  1.00  0.00     0.033 C 
ATOM     29  C   UNL     1       6.926  -5.363  -7.000  1.00  0.00     0.118 C 
BRANCH  29  30
ATOM     30  O   UNL     1       8.033  -4.617  -7.435  1.00  0.00    -0.393 OA
ATOM     31  H   UNL     1       8.057  -4.680  -8.428  1.00  0.00     0.210 HD
ENDBRANCH  29  30
ENDBRANCH   9  11
ENDBRANCH   1   9
TORSDOF 7
ENDMDL
MODEL 3
REMARK VINA RESULT:    -5.845     11.365     15.679
REMARK INTER + INTRA:          -8.719
REMARK INTER:                  -7.526
REMARK INTRA:                  -1.193
REMARK UNBOUND:                -0.654
REMARK SMILES CC[C@@H](CC[C@H](C)[C@@H]1CC[C@@H]2[C@@H]3CC=C4C[C@@H](O)CC[C@@]4(C)[C@H]3CC[C@@]21C)C(C)C
REMARK SMILES IDX 5 1 4 2 3 3 2 4 1 5 28 6 29 7 30 8 6 9 7 10 8 11 9 12 26 13
REMARK SMILES IDX 10 14 11 15 25 16 27 17 12 18 24 19 23 20 13 21 21 22 14 23
REMARK SMILES IDX 15 24 20 25 22 26 16 27 19 28 17 29 18 30
REMARK H PARENT 18 31
REMARK Flexibility Score: inf
ROOT
ATOM      1  C   UNL     1       2.335  -5.454  -6.080  1.00  0.00     0.004 C 
ENDROOT
BRANCH   1   2
ATOM      2  C   UNL     1       3.859  -5.630  -6.276  1.00  0.00     0.004 C 
BRANCH   2   3
ATOM      3  C   UNL     1       4.489  -6.512  -5.151  1.00  0.00    -0.009 C 
BRANCH   3   4
ATOM      4  C   UNL     1       5.130  -5.608  -4.063  1.00  0.00     0.000 C 
ATOM      5  C   UNL     1       6.349  -4.821  -4.556  1.00  0.00     0.004 C 
ENDBRANCH   3   4
BRANCH   3   6
ATOM      6  C   UNL     1       5.451  -7.621  -5.699  1.00  0.00    -0.014 C 
ATOM      7  C   UNL     1       4.863  -9.031  -5.503  1.00  0.00     0.007 C 
ATOM      8  C   UNL     1       5.876  -7.416  -7.164  1.00  0.00     0.007 C 
ENDBRANCH   3   6
ENDBRANCH   2   3
ENDBRANCH   1   2
BRANCH   1   9
ATOM      9  C   UNL     1       1.436  -6.453  -6.864  1.00  0.00    -0.011 C 
ATOM     10  C   UNL     1       2.255  -7.327  -7.833  1.00  0.00     0.008 C 
BRANCH   9  11
ATOM     11  C   UNL     1       0.160  -5.864  -7.579  1.00  0.00    -0.002 C 
ATOM     12  C   UNL     1       0.006  -4.335  -7.625  1.00  0.00     0.005 C 
ATOM     13  C   UNL     1      -1.220  -6.390  -7.095  1.00  0.00    -0.026 C 
ATOM     14  C   UNL     1      -1.486  -4.067  -7.853  1.00  0.00     0.005 C 
ATOM     15  C   UNL     1      -2.184  -5.441  -7.841  1.00  0.00    -0.001 C 
ATOM     16  C   UNL     1      -1.389  -6.242  -5.552  1.00  0.00     0.007 C 
ATOM     17  C   UNL     1      -1.439  -7.862  -7.534  1.00  0.00     0.012 C 
ATOM     18  C   UNL     1      -3.647  -5.469  -7.309  1.00  0.00     0.000 C 
ATOM     19  C   UNL     1      -2.846  -6.363  -5.083  1.00  0.00     0.005 C 
ATOM     20  C   UNL     1      -3.755  -5.316  -5.775  1.00  0.00     0.003 C 
ATOM     21  C   UNL     1      -4.520  -4.399  -7.975  1.00  0.00     0.031 C 
ATOM     22  C   UNL     1      -5.276  -5.263  -5.253  1.00  0.00    -0.008 C 
ATOM     23  C   UNL     1      -5.947  -4.669  -7.625  1.00  0.00    -0.027 C 
ATOM     24  C   UNL     1      -6.301  -5.127  -6.408  1.00  0.00    -0.065 C 
ATOM     25  C   UNL     1      -5.667  -6.543  -4.452  1.00  0.00     0.014 C 
ATOM     26  C   UNL     1      -5.403  -4.021  -4.335  1.00  0.00     0.016 C 
ATOM     27  C   UNL     1      -7.696  -5.714  -6.279  1.00  0.00     0.063 C 
ATOM     28  C   UNL     1      -7.124  -6.581  -3.936  1.00  0.00     0.033 C 
ATOM     29  C   UNL     1      -8.156  -5.851  -4.823  1.00  0.00     0.118 C 
BRANCH  29  30
ATOM     30  O   UNL     1      -9.374  -6.550  -4.778  1.00  0.00    -0.393 OA
ATOM     31  H   UNL     1      -9.845  -6.264  -3.949  1.00  0.00     0.210 HD
ENDBRANCH  29  30
ENDBRANCH   9  11
ENDBRANCH   1   9
TORSDOF 7
ENDMDL
MODEL 4
REMARK VINA RESULT:    -5.776      3.341      9.228
REMARK INTER + INTRA:          -8.625
REMARK INTER:                  -8.908
REMARK INTRA:                   0.283
REMARK UNBOUND:                -0.654
REMARK SMILES CC[C@@H](CC[C@H](C)[C@@H]1CC[C@@H]2[C@@H]3CC=C4C[C@@H](O)CC[C@@]4(C)[C@H]3CC[C@@]21C)C(C)C
REMARK SMILES IDX 5 1 4 2 3 3 2 4 1 5 28 6 29 7 30 8 6 9 7 10 8 11 9 12 26 13
REMARK SMILES IDX 10 14 11 15 25 16 27 17 12 18 24 19 23 20 13 21 21 22 14 23
REMARK SMILES IDX 15 24 20 25 22 26 16 27 19 28 17 29 18 30
REMARK H PARENT 18 31
REMARK Flexibility Score: inf
ROOT
ATOM      1  C   UNL     1      -3.910  -6.885   6.593  1.00  0.00     0.004 C 
ENDROOT
BRANCH   1   2
ATOM      2  C   UNL     1      -2.977  -7.549   5.553  1.00  0.00     0.004 C 
BRANCH   2   3
ATOM      3  C   UNL     1      -3.678  -8.738   4.822  1.00  0.00    -0.009 C 
BRANCH   3   4
ATOM      4  C   UNL     1      -4.574  -9.522   5.820  1.00  0.00     0.000 C 
ATOM      5  C   UNL     1      -5.833 -10.118   5.181  1.00  0.00     0.004 C 
ENDBRANCH   3   4
BRANCH   3   6
ATOM      6  C   UNL     1      -2.684  -9.645   4.019  1.00  0.00    -0.014 C 
ATOM      7  C   UNL     1      -3.298 -10.123   2.690  1.00  0.00     0.007 C 
ATOM      8  C   UNL     1      -1.307  -9.002   3.773  1.00  0.00     0.007 C 
ENDBRANCH   3   6
ENDBRANCH   2   3
ENDBRANCH   1   2
BRANCH   1   9
ATOM      9  C   UNL     1      -5.318  -6.478   6.070  1.00  0.00    -0.011 C 
ATOM     10  C   UNL     1      -5.234  -5.420   4.952  1.00  0.00     0.008 C 
BRANCH   9  11
ATOM     11  C   UNL     1      -6.397  -6.074   7.147  1.00  0.00    -0.002 C 
ATOM     12  C   UNL     1      -7.875  -6.338   6.815  1.00  0.00     0.005 C 
ATOM     13  C   UNL     1      -6.357  -4.610   7.663  1.00  0.00    -0.026 C 
ATOM     14  C   UNL     1      -8.684  -5.400   7.720  1.00  0.00     0.005 C 
ATOM     15  C   UNL     1      -7.660  -4.545   8.491  1.00  0.00    -0.001 C 
ATOM     16  C   UNL     1      -6.400  -3.580   6.493  1.00  0.00     0.007 C 
ATOM     17  C   UNL     1      -5.115  -4.370   8.562  1.00  0.00     0.012 C 
ATOM     18  C   UNL     1      -8.107  -3.102   8.867  1.00  0.00     0.000 C 
ATOM     19  C   UNL     1      -6.765  -2.158   6.943  1.00  0.00     0.005 C 
ATOM     20  C   UNL     1      -8.133  -2.126   7.669  1.00  0.00     0.003 C 
ATOM     21  C   UNL     1      -9.482  -3.086   9.547  1.00  0.00     0.031 C 
ATOM     22  C   UNL     1      -8.678  -0.663   8.061  1.00  0.00    -0.008 C 
ATOM     23  C   UNL     1      -9.709  -1.725  10.118  1.00  0.00    -0.027 C 
ATOM     24  C   UNL     1      -9.289  -0.613   9.483  1.00  0.00    -0.065 C 
ATOM     25  C   UNL     1      -7.550   0.414   8.016  1.00  0.00     0.014 C 
ATOM     26  C   UNL     1      -9.783  -0.296   7.037  1.00  0.00     0.016 C 
ATOM     27  C   UNL     1      -9.235   0.663  10.306  1.00  0.00     0.063 C 
ATOM     28  C   UNL     1      -7.988   1.845   8.404  1.00  0.00     0.033 C 
ATOM     29  C   UNL     1      -9.126   1.927   9.445  1.00  0.00     0.118 C 
BRANCH  29  30
ATOM     30  O   UNL     1      -8.912   3.043  10.270  1.00  0.00    -0.393 OA
ATOM     31  H   UNL     1      -9.807   3.364  10.565  1.00  0.00     0.210 HD
ENDBRANCH  29  30
ENDBRANCH   9  11
ENDBRANCH   1   9
TORSDOF 7
ENDMDL
MODEL 5
REMARK VINA RESULT:    -5.664     12.052     15.080
REMARK INTER + INTRA:          -8.470
REMARK INTER:                  -7.870
REMARK INTRA:                  -0.600
REMARK UNBOUND:                -0.654
REMARK SMILES CC[C@@H](CC[C@H](C)[C@@H]1CC[C@@H]2[C@@H]3CC=C4C[C@@H](O)CC[C@@]4(C)[C@H]3CC[C@@]21C)C(C)C
REMARK SMILES IDX 5 1 4 2 3 3 2 4 1 5 28 6 29 7 30 8 6 9 7 10 8 11 9 12 26 13
REMARK SMILES IDX 10 14 11 15 25 16 27 17 12 18 24 19 23 20 13 21 21 22 14 23
REMARK SMILES IDX 15 24 20 25 22 26 16 27 19 28 17 29 18 30
REMARK H PARENT 18 31
REMARK Flexibility Score: inf
ROOT
ATOM      1  C   UNL     1      -3.134  -4.418  -6.070  1.00  0.00     0.004 C 
ENDROOT
BRANCH   1   2
ATOM      2  C   UNL     1      -4.474  -4.237  -6.821  1.00  0.00     0.004 C 
BRANCH   2   3
ATOM      3  C   UNL     1      -5.687  -4.187  -5.838  1.00  0.00    -0.009 C 
BRANCH   3   4
ATOM      4  C   UNL     1      -5.270  -3.494  -4.513  1.00  0.00     0.000 C 
ATOM      5  C   UNL     1      -6.061  -2.218  -4.209  1.00  0.00     0.004 C 
ENDBRANCH   3   4
BRANCH   3   6
ATOM      6  C   UNL     1      -6.376  -5.580  -5.634  1.00  0.00    -0.014 C 
ATOM      7  C   UNL     1      -6.152  -6.508  -6.842  1.00  0.00     0.007 C 
ATOM      8  C   UNL     1      -5.978  -6.292  -4.329  1.00  0.00     0.007 C 
ENDBRANCH   3   6
ENDBRANCH   2   3
ENDBRANCH   1   2
BRANCH   1   9
ATOM      9  C   UNL     1      -2.608  -5.880  -5.976  1.00  0.00    -0.011 C 
ATOM     10  C   UNL     1      -2.181  -6.247  -4.541  1.00  0.00     0.008 C 
BRANCH   9  11
ATOM     11  C   UNL     1      -1.510  -6.317  -7.020  1.00  0.00    -0.002 C 
ATOM     12  C   UNL     1      -1.148  -7.810  -7.095  1.00  0.00     0.005 C 
ATOM     13  C   UNL     1      -0.146  -5.577  -6.953  1.00  0.00    -0.026 C 
ATOM     14  C   UNL     1       0.244  -7.874  -7.737  1.00  0.00     0.005 C 
ATOM     15  C   UNL     1       0.702  -6.416  -7.935  1.00  0.00    -0.001 C 
ATOM     16  C   UNL     1       0.470  -5.621  -5.521  1.00  0.00     0.007 C 
ATOM     17  C   UNL     1      -0.283  -4.113  -7.448  1.00  0.00     0.012 C 
ATOM     18  C   UNL     1       2.234  -6.153  -7.842  1.00  0.00     0.000 C 
ATOM     19  C   UNL     1       1.964  -5.271  -5.487  1.00  0.00     0.005 C 
ATOM     20  C   UNL     1       2.789  -6.211  -6.401  1.00  0.00     0.003 C 
ATOM     21  C   UNL     1       3.037  -7.121  -8.719  1.00  0.00     0.031 C 
ATOM     22  C   UNL     1       4.386  -6.022  -6.333  1.00  0.00    -0.008 C 
ATOM     23  C   UNL     1       4.446  -6.634  -8.792  1.00  0.00    -0.027 C 
ATOM     24  C   UNL     1       5.054  -6.069  -7.730  1.00  0.00    -0.065 C 
ATOM     25  C   UNL     1       4.788  -4.660  -5.686  1.00  0.00     0.014 C 
ATOM     26  C   UNL     1       4.950  -7.186  -5.478  1.00  0.00     0.016 C 
ATOM     27  C   UNL     1       6.324  -5.285  -8.009  1.00  0.00     0.063 C 
ATOM     28  C   UNL     1       6.309  -4.390  -5.607  1.00  0.00     0.033 C 
ATOM     29  C   UNL     1       7.148  -5.010  -6.745  1.00  0.00     0.118 C 
BRANCH  29  30
ATOM     30  O   UNL     1       8.210  -4.143  -7.054  1.00  0.00    -0.393 OA
ATOM     31  H   UNL     1       8.768  -4.599  -7.741  1.00  0.00     0.210 HD
ENDBRANCH  29  30
ENDBRANCH   9  11
ENDBRANCH   1   9
TORSDOF 7
ENDMDL
MODEL 6
REMARK VINA RESULT:    -5.554     11.980     15.952
REMARK INTER + INTRA:          -8.319
REMARK INTER:                  -7.968
REMARK INTRA:                  -0.351
REMARK UNBOUND:                -0.654
REMARK SMILES CC[C@@H](CC[C@H](C)[C@@H]1CC[C@@H]2[C@@H]3CC=C4C[C@@H](O)CC[C@@]4(C)[C@H]3CC[C@@]21C)C(C)C
REMARK SMILES IDX 5 1 4 2 3 3 2 4 1 5 28 6 29 7 30 8 6 9 7 10 8 11 9 12 26 13
REMARK SMILES IDX 10 14 11 15 25 16 27 17 12 18 24 19 23 20 13 21 21 22 14 23
REMARK SMILES IDX 15 24 20 25 22 26 16 27 19 28 17 29 18 30
REMARK H PARENT 18 31
REMARK Flexibility Score: inf
ROOT
ATOM      1  C   UNL     1       1.293  -6.375  -8.010  1.00  0.00     0.004 C 
ENDROOT
BRANCH   1   2
ATOM      2  C   UNL     1       2.773  -6.823  -7.980  1.00  0.00     0.004 C 
BRANCH   2   3
ATOM      3  C   UNL     1       3.641  -5.893  -7.074  1.00  0.00    -0.009 C 
BRANCH   3   4
ATOM      4  C   UNL     1       5.149  -6.110  -7.380  1.00  0.00     0.000 C 
ATOM      5  C   UNL     1       5.570  -5.632  -8.773  1.00  0.00     0.004 C 
ENDBRANCH   3   4
BRANCH   3   6
ATOM      6  C   UNL     1       3.283  -5.999  -5.552  1.00  0.00    -0.014 C 
ATOM      7  C   UNL     1       4.545  -6.026  -4.671  1.00  0.00     0.007 C 
ATOM      8  C   UNL     1       2.308  -4.915  -5.060  1.00  0.00     0.007 C 
ENDBRANCH   3   6
ENDBRANCH   2   3
ENDBRANCH   1   2
BRANCH   1   9
ATOM      9  C   UNL     1       0.268  -7.402  -7.446  1.00  0.00    -0.011 C 
ATOM     10  C   UNL     1      -0.468  -8.158  -8.569  1.00  0.00     0.008 C 
BRANCH   9  11
ATOM     11  C   UNL     1      -0.748  -6.879  -6.359  1.00  0.00    -0.002 C 
ATOM     12  C   UNL     1      -1.721  -7.897  -5.740  1.00  0.00     0.005 C 
ATOM     13  C   UNL     1      -1.635  -5.667  -6.755  1.00  0.00    -0.026 C 
ATOM     14  C   UNL     1      -2.889  -7.077  -5.178  1.00  0.00     0.005 C 
ATOM     15  C   UNL     1      -2.618  -5.609  -5.563  1.00  0.00    -0.001 C 
ATOM     16  C   UNL     1      -2.404  -5.920  -8.088  1.00  0.00     0.007 C 
ATOM     17  C   UNL     1      -0.793  -4.367  -6.844  1.00  0.00     0.012 C 
ATOM     18  C   UNL     1      -3.869  -4.716  -5.810  1.00  0.00     0.000 C 
ATOM     19  C   UNL     1      -3.575  -4.953  -8.311  1.00  0.00     0.005 C 
ATOM     20  C   UNL     1      -4.592  -5.012  -7.144  1.00  0.00     0.003 C 
ATOM     21  C   UNL     1      -4.884  -4.821  -4.665  1.00  0.00     0.031 C 
ATOM     22  C   UNL     1      -5.929  -4.139  -7.342  1.00  0.00    -0.008 C 
ATOM     23  C   UNL     1      -5.903  -3.743  -4.838  1.00  0.00    -0.027 C 
ATOM     24  C   UNL     1      -6.341  -3.375  -6.059  1.00  0.00    -0.065 C 
ATOM     25  C   UNL     1      -5.772  -3.073  -8.471  1.00  0.00     0.014 C 
ATOM     26  C   UNL     1      -7.068  -5.123  -7.716  1.00  0.00     0.016 C 
ATOM     27  C   UNL     1      -7.077  -2.049  -6.147  1.00  0.00     0.063 C 
ATOM     28  C   UNL     1      -7.008  -2.174  -8.706  1.00  0.00     0.033 C 
ATOM     29  C   UNL     1      -7.864  -1.887  -7.454  1.00  0.00     0.118 C 
BRANCH  29  30
ATOM     30  O   UNL     1      -8.373  -0.581  -7.537  1.00  0.00    -0.393 OA
ATOM     31  H   UNL     1      -9.199  -0.624  -8.091  1.00  0.00     0.210 HD
ENDBRANCH  29  30
ENDBRANCH   9  11
ENDBRANCH   1   9
TORSDOF 7
ENDMDL
MODEL 7
REMARK VINA RESULT:    -5.482     11.584     14.475
REMARK INTER + INTRA:          -8.219
REMARK INTER:                  -6.716
REMARK INTRA:                  -1.503
REMARK UNBOUND:                -0.654
REMARK SMILES CC[C@@H](CC[C@H](C)[C@@H]1CC[C@@H]2[C@@H]3CC=C4C[C@@H](O)CC[C@@]4(C)[C@H]3CC[C@@]21C)C(C)C
REMARK SMILES IDX 5 1 4 2 3 3 2 4 1 5 28 6 29 7 30 8 6 9 7 10 8 11 9 12 26 13
REMARK SMILES IDX 10 14 11 15 25 16 27 17 12 18 24 19 23 20 13 21 21 22 14 23
REMARK SMILES IDX 15 24 20 25 22 26 16 27 19 28 17 29 18 30
REMARK H PARENT 18 31
REMARK Flexibility Score: inf
ROOT
ATOM      1  C   UNL     1      -5.283  -5.746  -8.038  1.00  0.00     0.004 C 
ENDROOT
BRANCH   1   2
ATOM      2  C   UNL     1      -6.638  -5.454  -7.350  1.00  0.00     0.004 C 
BRANCH   2   3
ATOM      3  C   UNL     1      -6.643  -4.057  -6.651  1.00  0.00    -0.009 C 
BRANCH   3   4
ATOM      4  C   UNL     1      -5.962  -3.002  -7.566  1.00  0.00     0.000 C 
ATOM      5  C   UNL     1      -6.921  -1.926  -8.085  1.00  0.00     0.004 C 
ENDBRANCH   3   4
BRANCH   3   6
ATOM      6  C   UNL     1      -6.072  -4.091  -5.192  1.00  0.00    -0.014 C 
ATOM      7  C   UNL     1      -5.998  -2.681  -4.577  1.00  0.00     0.007 C 
ATOM      8  C   UNL     1      -6.819  -5.051  -4.248  1.00  0.00     0.007 C 
ENDBRANCH   3   6
ENDBRANCH   2   3
ENDBRANCH   1   2
BRANCH   1   9
ATOM      9  C   UNL     1      -4.297  -6.638  -7.229  1.00  0.00    -0.011 C 
ATOM     10  C   UNL     1      -5.037  -7.605  -6.285  1.00  0.00     0.008 C 
BRANCH   9  11
ATOM     11  C   UNL     1      -3.119  -5.908  -6.477  1.00  0.00    -0.002 C 
ATOM     12  C   UNL     1      -2.711  -4.511  -6.971  1.00  0.00     0.005 C 
ATOM     13  C   UNL     1      -1.784  -6.691  -6.341  1.00  0.00    -0.026 C 
ATOM     14  C   UNL     1      -1.277  -4.289  -6.472  1.00  0.00     0.005 C 
ATOM     15  C   UNL     1      -0.848  -5.597  -5.779  1.00  0.00    -0.001 C 
ATOM     16  C   UNL     1      -1.266  -7.200  -7.721  1.00  0.00     0.007 C 
ATOM     17  C   UNL     1      -1.927  -7.867  -5.338  1.00  0.00     0.012 C 
ATOM     18  C   UNL     1       0.666  -5.953  -5.851  1.00  0.00     0.000 C 
ATOM     19  C   UNL     1       0.213  -7.614  -7.703  1.00  0.00     0.005 C 
ATOM     20  C   UNL     1       1.124  -6.450  -7.241  1.00  0.00     0.003 C 
ATOM     21  C   UNL     1       1.553  -4.774  -5.432  1.00  0.00     0.031 C 
ATOM     22  C   UNL     1       2.706  -6.732  -7.320  1.00  0.00    -0.008 C 
ATOM     23  C   UNL     1       2.950  -5.273  -5.261  1.00  0.00    -0.027 C 
ATOM     24  C   UNL     1       3.468  -6.215  -6.074  1.00  0.00    -0.065 C 
ATOM     25  C   UNL     1       3.025  -8.254  -7.445  1.00  0.00     0.014 C 
ATOM     26  C   UNL     1       3.243  -5.988  -8.569  1.00  0.00     0.016 C 
ATOM     27  C   UNL     1       4.733  -6.908  -5.596  1.00  0.00     0.063 C 
ATOM     28  C   UNL     1       4.529  -8.611  -7.500  1.00  0.00     0.033 C 
ATOM     29  C   UNL     1       5.461  -7.664  -6.713  1.00  0.00     0.118 C 
BRANCH  29  30
ATOM     30  O   UNL     1       6.516  -8.412  -6.166  1.00  0.00    -0.393 OA
ATOM     31  H   UNL     1       6.618  -8.124  -5.219  1.00  0.00     0.210 HD
ENDBRANCH  29  30
ENDBRANCH   9  11
ENDBRANCH   1   9
TORSDOF 7
ENDMDL
MODEL 8
REMARK VINA RESULT:    -5.473      1.496      2.833
REMARK INTER + INTRA:          -8.206
REMARK INTER:                  -7.149
REMARK INTRA:                  -1.057
REMARK UNBOUND:                -0.654
REMARK SMILES CC[C@@H](CC[C@H](C)[C@@H]1CC[C@@H]2[C@@H]3CC=C4C[C@@H](O)CC[C@@]4(C)[C@H]3CC[C@@]21C)C(C)C
REMARK SMILES IDX 5 1 4 2 3 3 2 4 1 5 28 6 29 7 30 8 6 9 7 10 8 11 9 12 26 13
REMARK SMILES IDX 10 14 11 15 25 16 27 17 12 18 24 19 23 20 13 21 21 22 14 23
REMARK SMILES IDX 15 24 20 25 22 26 16 27 19 28 17 29 18 30
REMARK H PARENT 18 31
REMARK Flexibility Score: inf
ROOT
ATOM      1  C   UNL     1      -9.077  -0.243   7.855  1.00  0.00     0.004 C 
ENDROOT
BRANCH   1   2
ATOM      2  C   UNL     1     -10.123   0.885   8.016  1.00  0.00     0.004 C 
BRANCH   2   3
ATOM      3  C   UNL     1      -9.448   2.261   8.321  1.00  0.00    -0.009 C 
BRANCH   3   4
ATOM      4  C   UNL     1      -9.775   2.702   9.774  1.00  0.00     0.000 C 
ATOM      5  C   UNL     1      -9.174   1.787  10.846  1.00  0.00     0.004 C 
ENDBRANCH   3   4
BRANCH   3   6
ATOM      6  C   UNL     1      -9.758   3.355   7.243  1.00  0.00    -0.014 C 
ATOM      7  C   UNL     1      -9.657   4.776   7.830  1.00  0.00     0.007 C 
ATOM      8  C   UNL     1      -8.903   3.239   5.968  1.00  0.00     0.007 C 
ENDBRANCH   3   6
ENDBRANCH   2   3
ENDBRANCH   1   2
BRANCH   1   9
ATOM      9  C   UNL     1      -9.015  -0.908   6.449  1.00  0.00    -0.011 C 
ATOM     10  C   UNL     1      -9.916  -0.184   5.430  1.00  0.00     0.008 C 
BRANCH   9  11
ATOM     11  C   UNL     1      -9.231  -2.469   6.382  1.00  0.00    -0.002 C 
ATOM     12  C   UNL     1      -9.612  -3.196   7.682  1.00  0.00     0.005 C 
ATOM     13  C   UNL     1      -8.073  -3.310   5.777  1.00  0.00    -0.026 C 
ATOM     14  C   UNL     1      -9.229  -4.666   7.472  1.00  0.00     0.005 C 
ATOM     15  C   UNL     1      -8.547  -4.747   6.092  1.00  0.00    -0.001 C 
ATOM     16  C   UNL     1      -6.712  -3.016   6.480  1.00  0.00     0.007 C 
ATOM     17  C   UNL     1      -7.962  -3.084   4.246  1.00  0.00     0.012 C 
ATOM     18  C   UNL     1      -7.445  -5.833   5.927  1.00  0.00     0.000 C 
ATOM     19  C   UNL     1      -5.642  -4.083   6.210  1.00  0.00     0.005 C 
ATOM     20  C   UNL     1      -6.120  -5.491   6.645  1.00  0.00     0.003 C 
ATOM     21  C   UNL     1      -7.921  -7.212   6.403  1.00  0.00     0.031 C 
ATOM     22  C   UNL     1      -5.022  -6.662   6.535  1.00  0.00    -0.008 C 
ATOM     23  C   UNL     1      -6.927  -8.233   5.960  1.00  0.00    -0.027 C 
ATOM     24  C   UNL     1      -5.604  -7.974   5.953  1.00  0.00    -0.065 C 
ATOM     25  C   UNL     1      -3.821  -6.257   5.626  1.00  0.00     0.014 C 
ATOM     26  C   UNL     1      -4.509  -6.946   7.971  1.00  0.00     0.016 C 
ATOM     27  C   UNL     1      -4.729  -8.921   5.150  1.00  0.00     0.063 C 
ATOM     28  C   UNL     1      -2.733  -7.341   5.448  1.00  0.00     0.033 C 
ATOM     29  C   UNL     1      -3.239  -8.799   5.495  1.00  0.00     0.118 C 
BRANCH  29  30
ATOM     30  O   UNL     1      -2.483  -9.575   4.602  1.00  0.00    -0.393 OA
ATOM     31  H   UNL     1      -3.043 -10.360   4.351  1.00  0.00     0.210 HD
ENDBRANCH  29  30
ENDBRANCH   9  11
ENDBRANCH   1   9
TORSDOF 7
ENDMDL
MODEL 9
REMARK VINA RESULT:    -5.380      1.854      4.252
REMARK INTER + INTRA:          -8.078
REMARK INTER:                  -7.822
REMARK INTRA:                  -0.257
REMARK UNBOUND:                -0.654
REMARK SMILES CC[C@@H](CC[C@H](C)[C@@H]1CC[C@@H]2[C@@H]3CC=C4C[C@@H](O)CC[C@@]4(C)[C@H]3CC[C@@]21C)C(C)C
REMARK SMILES IDX 5 1 4 2 3 3 2 4 1 5 28 6 29 7 30 8 6 9 7 10 8 11 9 12 26 13
REMARK SMILES IDX 10 14 11 15 25 16 27 17 12 18 24 19 23 20 13 21 21 22 14 23
REMARK SMILES IDX 15 24 20 25 22 26 16 27 19 28 17 29 18 30
REMARK H PARENT 18 31
REMARK Flexibility Score: inf
ROOT
ATOM      1  C   UNL     1      -8.594   2.086   8.457  1.00  0.00     0.004 C 
ENDROOT
BRANCH   1   2
ATOM      2  C   UNL     1     -10.051   2.604   8.498  1.00  0.00     0.004 C 
BRANCH   2   3
ATOM      3  C   UNL     1     -10.112   4.142   8.766  1.00  0.00    -0.009 C 
BRANCH   3   4
ATOM      4  C   UNL     1      -9.252   4.899   7.717  1.00  0.00     0.000 C 
ATOM      5  C   UNL     1      -9.965   5.120   6.379  1.00  0.00     0.004 C 
ENDBRANCH   3   4
BRANCH   3   6
ATOM      6  C   UNL     1      -9.784   4.526  10.249  1.00  0.00    -0.014 C 
ATOM      7  C   UNL     1      -9.288   3.311  11.055  1.00  0.00     0.007 C 
ATOM      8  C   UNL     1      -8.799   5.701  10.390  1.00  0.00     0.007 C 
ENDBRANCH   3   6
ENDBRANCH   2   3
ENDBRANCH   1   2
BRANCH   1   9
ATOM      9  C   UNL     1      -8.261   1.108   7.293  1.00  0.00    -0.011 C 
ATOM     10  C   UNL     1      -8.510   1.748   5.914  1.00  0.00     0.008 C 
BRANCH   9  11
ATOM     11  C   UNL     1      -8.890  -0.336   7.366  1.00  0.00    -0.002 C 
ATOM     12  C   UNL     1      -9.189  -0.918   8.757  1.00  0.00     0.005 C 
ATOM     13  C   UNL     1      -8.137  -1.467   6.612  1.00  0.00    -0.026 C 
ATOM     14  C   UNL     1      -9.257  -2.439   8.573  1.00  0.00     0.005 C 
ATOM     15  C   UNL     1      -8.903  -2.717   7.099  1.00  0.00    -0.001 C 
ATOM     16  C   UNL     1      -6.637  -1.545   7.032  1.00  0.00     0.007 C 
ATOM     17  C   UNL     1      -8.270  -1.296   5.076  1.00  0.00     0.012 C 
ATOM     18  C   UNL     1      -8.181  -4.064   6.803  1.00  0.00     0.000 C 
ATOM     19  C   UNL     1      -5.960  -2.866   6.637  1.00  0.00     0.005 C 
ATOM     20  C   UNL     1      -6.699  -4.086   7.241  1.00  0.00     0.003 C 
ATOM     21  C   UNL     1      -8.903  -5.256   7.444  1.00  0.00     0.031 C 
ATOM     22  C   UNL     1      -5.993  -5.513   7.005  1.00  0.00    -0.008 C 
ATOM     23  C   UNL     1      -8.320  -6.514   6.891  1.00  0.00    -0.027 C 
ATOM     24  C   UNL     1      -7.003  -6.624   6.624  1.00  0.00    -0.065 C 
ATOM     25  C   UNL     1      -4.929  -5.460   5.866  1.00  0.00     0.014 C 
ATOM     26  C   UNL     1      -5.304  -5.910   8.336  1.00  0.00     0.016 C 
ATOM     27  C   UNL     1      -6.583  -7.782   5.735  1.00  0.00     0.063 C 
ATOM     28  C   UNL     1      -4.222  -6.800   5.559  1.00  0.00     0.033 C 
ATOM     29  C   UNL     1      -5.077  -8.065   5.791  1.00  0.00     0.118 C 
BRANCH  29  30
ATOM     30  O   UNL     1      -4.742  -9.027   4.825  1.00  0.00    -0.393 OA
ATOM     31  H   UNL     1      -5.272  -8.818   4.008  1.00  0.00     0.210 HD
ENDBRANCH  29  30
ENDBRANCH   9  11
ENDBRANCH   1   9
TORSDOF 7
ENDMDL
