MODEL 1
REMARK VINA RESULT:    -3.721      0.000      0.000
REMARK INTER + INTRA:         -11.047
REMARK INTER:                  -7.853
REMARK INTRA:                  -3.194
REMARK UNBOUND:                -3.194
REMARK SMILES CCC(=O)CCCCC[C@H]1NC(=O)[C@H]2CCCCN2C(=O)[C@@H]([C@H](C)CC)NC(=O)[C@H](Cc2cn(OC)c3ccccc23)NC1=O
REMARK SMILES IDX 9 1 10 2 44 3 43 4 45 6 30 7 28 8 27 9 29 11 22 12 23 14
REMARK SMILES IDX 24 15 25 16 26 17 31 18 32 19 33 20 42 21 34 22 37 23 41 24
REMARK SMILES IDX 38 25 40 26 39 27 35 28 36 29 11 30 12 31 13 33 14 34 19 35
REMARK SMILES IDX 15 36 18 37 16 38 17 39 20 40 21 41 8 43 7 44 6 45 5 46 3 47
REMARK SMILES IDX 4 48 2 49 1 50
REMARK H PARENT 43 5 27 10 11 32
REMARK Flexibility Score: 80.00
ROOT
ATOM      1  C   UNL     1      58.242  34.019  57.998  1.00  0.00     0.035 C 
ENDROOT
BRANCH   1   2
ATOM      2  C   UNL     1      59.718  33.583  57.840  1.00  0.00     0.171 C 
BRANCH   2   3
ATOM      3  C   UNL     1      59.906  32.092  57.947  1.00  0.00     0.243 C 
ATOM      4  N   UNL     1      60.139  31.471  59.223  1.00  0.00    -0.342 N 
ATOM      5  H   UNL     1      59.911  32.005  60.091  1.00  0.00     0.164 HD
ATOM      6  O   UNL     1      59.885  31.394  56.896  1.00  0.00    -0.273 OA
BRANCH   4   7
ATOM      7  C   UNL     1      60.929  30.246  59.392  1.00  0.00     0.175 C 
BRANCH   7   8
ATOM      8  C   UNL     1      62.317  30.474  58.849  1.00  0.00     0.243 C 
ATOM      9  N   UNL     1      63.132  31.498  59.440  1.00  0.00    -0.342 N 
ATOM     10  H   UNL     1      62.814  31.906  60.346  1.00  0.00     0.164 HD
ATOM     11  O   UNL     1      62.736  29.817  57.853  1.00  0.00    -0.273 OA
BRANCH   9  12
ATOM     12  C   UNL     1      64.385  31.954  58.826  1.00  0.00     0.174 CG0
ATOM     13  G   UNL     1      64.498  33.471  58.842  1.00  0.00     0.000 G0
BRANCH  12  14
ATOM     14  C   UNL     1      65.596  31.216  59.470  1.00  0.00     0.018 C 
ATOM     15  C   UNL     1      66.386  30.370  58.454  1.00  0.00     0.010 C 
BRANCH  14  16
ATOM     16  C   UNL     1      65.170  30.379  60.701  1.00  0.00     0.002 C 
ATOM     17  C   UNL     1      65.935  29.060  60.815  1.00  0.00     0.004 C 
ENDBRANCH  14  16
ENDBRANCH  12  14
ENDBRANCH   9  12
ENDBRANCH   7   8
BRANCH   7  18
ATOM     18  C   UNL     1      60.220  29.021  58.778  1.00  0.00     0.073 C 
BRANCH  18  19
ATOM     19  C   UNL     1      59.031  28.624  59.603  1.00  0.00    -0.016 A 
ATOM     20  C   UNL     1      59.043  27.758  60.693  1.00  0.00     0.134 A 
ATOM     21  C   UNL     1      57.697  28.859  59.320  1.00  0.00     0.006 A 
ATOM     22  N   UNL     1      57.778  27.504  61.090  1.00  0.00    -0.191 N 
ATOM     23  C   UNL     1      56.959  28.155  60.242  1.00  0.00     0.087 A 
ATOM     24  C   UNL     1      57.091  29.568  58.282  1.00  0.00     0.011 A 
ATOM     25  C   UNL     1      55.564  28.096  60.169  1.00  0.00     0.030 A 
ATOM     26  C   UNL     1      55.685  29.557  58.210  1.00  0.00     0.001 A 
ATOM     27  C   UNL     1      54.927  28.823  59.146  1.00  0.00     0.002 A 
BRANCH  22  28
ATOM     28  O   UNL     1      57.421  26.601  62.069  1.00  0.00    -0.417 OA
ATOM     29  C   UNL     1      57.226  25.224  61.767  1.00  0.00     0.313 C 
ENDBRANCH  22  28
ENDBRANCH  18  19
ENDBRANCH   7  18
ENDBRANCH   4   7
ENDBRANCH   2   3
BRANCH   2  30
ATOM     30  N   UNL     1      60.598  34.273  58.794  1.00  0.00    -0.343 N 
ATOM     31  C   UNL     1      61.889  34.784  58.399  1.00  0.00     0.243 C 
ATOM     32  H   UNL     1      60.358  34.207  59.803  1.00  0.00     0.164 HD
ATOM     33  O   UNL     1      62.210  34.777  57.177  1.00  0.00    -0.273 OA
BRANCH  31  34
ATOM     34  C   UNL     1      62.891  35.345  59.396  1.00  0.00     0.174 C 
ATOM     35  N   UNL     1      63.869  34.322  59.829  1.00  0.00    -0.329 N 
ATOM     36  C   UNL     1      62.223  35.987  60.631  1.00  0.00     0.035 C 
ATOM     37  C   UNL     1      64.498  34.442  61.156  1.00  0.00     0.120 C 
ATOM     38  C   UNL     1      63.258  36.640  61.564  1.00  0.00     0.004 C 
ATOM     39  C   UNL     1      64.616  35.915  61.569  1.00  0.00     0.022 C 
BRANCH  35  40
ATOM     40  C   UNL     1      64.521  33.489  58.851  1.00  0.00     0.246 CG0
ATOM     41  O   UNL     1      65.194  34.039  57.938  1.00  0.00    -0.272 OA
ATOM     42  G   UNL     1      64.346  31.978  58.830  1.00  0.00     0.000 G0
ENDBRANCH  35  40
ENDBRANCH  31  34
ENDBRANCH   2  30
ENDBRANCH   1   2
BRANCH   1  43
ATOM     43  C   UNL     1      57.763  35.100  57.009  1.00  0.00     0.003 C 
BRANCH  43  44
ATOM     44  C   UNL     1      58.432  34.972  55.630  1.00  0.00     0.001 C 
BRANCH  44  45
ATOM     45  C   UNL     1      57.417  35.009  54.475  1.00  0.00     0.008 C 
BRANCH  45  46
ATOM     46  C   UNL     1      57.166  33.613  53.879  1.00  0.00     0.075 C 
BRANCH  46  47
ATOM     47  C   UNL     1      56.381  32.684  54.777  1.00  0.00     0.132 C 
ATOM     48  O   UNL     1      56.862  31.628  55.163  1.00  0.00    -0.300 OA
BRANCH  47  49
ATOM     49  C   UNL     1      55.008  33.081  55.242  1.00  0.00     0.072 C 
ATOM     50  C   UNL     1      54.820  32.760  56.722  1.00  0.00     0.012 C 
ENDBRANCH  47  49
ENDBRANCH  46  47
ENDBRANCH  45  46
ENDBRANCH  44  45
ENDBRANCH  43  44
ENDBRANCH   1  43
TORSDOF 12
ENDMDL
MODEL 2
REMARK VINA RESULT:    -3.709     11.091     13.952
REMARK INTER + INTRA:         -11.022
REMARK INTER:                  -9.006
REMARK INTRA:                  -2.016
REMARK UNBOUND:                -3.194
REMARK SMILES CCC(=O)CCCCC[C@H]1NC(=O)[C@H]2CCCCN2C(=O)[C@@H]([C@H](C)CC)NC(=O)[C@H](Cc2cn(OC)c3ccccc23)NC1=O
REMARK SMILES IDX 9 1 10 2 44 3 43 4 45 6 30 7 28 8 27 9 29 11 22 12 23 14
REMARK SMILES IDX 24 15 25 16 26 17 31 18 32 19 33 20 42 21 34 22 37 23 41 24
REMARK SMILES IDX 38 25 40 26 39 27 35 28 36 29 11 30 12 31 13 33 14 34 19 35
REMARK SMILES IDX 15 36 18 37 16 38 17 39 20 40 21 41 8 43 7 44 6 45 5 46 3 47
REMARK SMILES IDX 4 48 2 49 1 50
REMARK H PARENT 43 5 27 10 11 32
REMARK Flexibility Score: 80.00
ROOT
ATOM      1  C   UNL     1      60.236  19.753  48.819  1.00  0.00     0.035 C 
ENDROOT
BRANCH   1   2
ATOM      2  C   UNL     1      60.405  20.034  50.331  1.00  0.00     0.171 C 
BRANCH   2   3
ATOM      3  C   UNL     1      60.143  21.472  50.696  1.00  0.00     0.243 C 
ATOM      4  N   UNL     1      60.722  22.542  49.928  1.00  0.00    -0.342 N 
ATOM      5  H   UNL     1      61.094  22.332  48.975  1.00  0.00     0.164 HD
ATOM      6  O   UNL     1      59.429  21.729  51.704  1.00  0.00    -0.273 OA
BRANCH   4   7
ATOM      7  C   UNL     1      61.074  23.846  50.500  1.00  0.00     0.175 C 
BRANCH   7   8
ATOM      8  C   UNL     1      61.919  23.636  51.729  1.00  0.00     0.243 C 
ATOM      9  N   UNL     1      63.111  22.841  51.624  1.00  0.00    -0.342 N 
ATOM     10  H   UNL     1      63.453  22.609  50.665  1.00  0.00     0.164 HD
ATOM     11  O   UNL     1      61.557  24.100  52.848  1.00  0.00    -0.273 OA
BRANCH   9  12
ATOM     12  C   UNL     1      63.854  22.382  52.803  1.00  0.00     0.174 CG0
ATOM     13  G   UNL     1      64.340  20.950  52.636  1.00  0.00     0.000 G0
BRANCH  12  14
ATOM     14  C   UNL     1      64.977  23.401  53.157  1.00  0.00     0.018 C 
ATOM     15  C   UNL     1      64.551  24.398  54.252  1.00  0.00     0.010 C 
BRANCH  14  16
ATOM     16  C   UNL     1      65.511  24.128  51.900  1.00  0.00     0.002 C 
ATOM     17  C   UNL     1      67.035  24.064  51.780  1.00  0.00     0.004 C 
ENDBRANCH  14  16
ENDBRANCH  12  14
ENDBRANCH   9  12
ENDBRANCH   7   8
BRANCH   7  18
ATOM     18  C   UNL     1      59.823  24.714  50.752  1.00  0.00     0.073 C 
BRANCH  18  19
ATOM     19  C   UNL     1      60.031  26.111  50.244  1.00  0.00    -0.016 A 
ATOM     20  C   UNL     1      61.258  26.699  49.944  1.00  0.00     0.134 A 
ATOM     21  C   UNL     1      59.097  27.130  50.182  1.00  0.00     0.006 A 
ATOM     22  N   UNL     1      61.083  28.009  49.670  1.00  0.00    -0.191 N 
ATOM     23  C   UNL     1      59.773  28.277  49.837  1.00  0.00     0.087 A 
ATOM     24  C   UNL     1      57.735  27.144  50.480  1.00  0.00     0.011 A 
ATOM     25  C   UNL     1      59.131  29.517  49.790  1.00  0.00     0.030 A 
ATOM     26  C   UNL     1      57.055  28.374  50.402  1.00  0.00     0.001 A 
ATOM     27  C   UNL     1      57.751  29.554  50.062  1.00  0.00     0.002 A 
BRANCH  22  28
ATOM     28  O   UNL     1      62.099  28.913  49.443  1.00  0.00    -0.417 OA
ATOM     29  C   UNL     1      63.280  28.536  48.745  1.00  0.00     0.313 C 
ENDBRANCH  22  28
ENDBRANCH  18  19
ENDBRANCH   7  18
ENDBRANCH   4   7
ENDBRANCH   2   3
BRANCH   2  30
ATOM     30  N   UNL     1      61.727  19.621  50.820  1.00  0.00    -0.343 N 
ATOM     31  C   UNL     1      62.943  20.070  50.185  1.00  0.00     0.243 C 
ATOM     32  H   UNL     1      61.763  18.842  51.507  1.00  0.00     0.164 HD
ATOM     33  O   UNL     1      62.882  20.955  49.285  1.00  0.00    -0.273 OA
BRANCH  31  34
ATOM     34  C   UNL     1      64.314  19.526  50.557  1.00  0.00     0.174 C 
ATOM     35  N   UNL     1      65.020  20.413  51.508  1.00  0.00    -0.329 N 
ATOM     36  C   UNL     1      65.211  19.254  49.330  1.00  0.00     0.035 C 
ATOM     37  C   UNL     1      66.493  20.424  51.526  1.00  0.00     0.120 C 
ATOM     38  C   UNL     1      66.547  18.604  49.733  1.00  0.00     0.004 C 
ATOM     39  C   UNL     1      67.051  19.056  51.115  1.00  0.00     0.022 C 
BRANCH  35  40
ATOM     40  C   UNL     1      64.331  20.920  52.667  1.00  0.00     0.246 CG0
ATOM     41  O   UNL     1      64.031  20.118  53.592  1.00  0.00    -0.272 OA
ATOM     42  G   UNL     1      63.875  22.368  52.769  1.00  0.00     0.000 G0
ENDBRANCH  35  40
ENDBRANCH  31  34
ENDBRANCH   2  30
ENDBRANCH   1   2
BRANCH   1  43
ATOM     43  C   UNL     1      59.640  18.376  48.466  1.00  0.00     0.003 C 
BRANCH  43  44
ATOM     44  C   UNL     1      59.608  17.423  49.672  1.00  0.00     0.001 C 
BRANCH  44  45
ATOM     45  C   UNL     1      58.198  16.876  49.954  1.00  0.00     0.008 C 
BRANCH  45  46
ATOM     46  C   UNL     1      57.677  17.303  51.338  1.00  0.00     0.075 C 
BRANCH  46  47
ATOM     47  C   UNL     1      56.945  18.626  51.346  1.00  0.00     0.132 C 
ATOM     48  O   UNL     1      56.366  19.029  50.348  1.00  0.00    -0.300 OA
BRANCH  47  49
ATOM     49  C   UNL     1      56.886  19.437  52.610  1.00  0.00     0.072 C 
ATOM     50  C   UNL     1      55.739  18.973  53.502  1.00  0.00     0.012 C 
ENDBRANCH  47  49
ENDBRANCH  46  47
ENDBRANCH  45  46
ENDBRANCH  44  45
ENDBRANCH  43  44
ENDBRANCH   1  43
TORSDOF 12
ENDMDL
MODEL 3
REMARK VINA RESULT:    -3.693      1.199      2.214
REMARK INTER + INTRA:         -10.990
REMARK INTER:                  -8.572
REMARK INTRA:                  -2.417
REMARK UNBOUND:                -3.194
REMARK SMILES CCC(=O)CCCCC[C@H]1NC(=O)[C@H]2CCCCN2C(=O)[C@@H]([C@H](C)CC)NC(=O)[C@H](Cc2cn(OC)c3ccccc23)NC1=O
REMARK SMILES IDX 9 1 10 2 44 3 43 4 45 6 30 7 28 8 27 9 29 11 22 12 23 14
REMARK SMILES IDX 24 15 25 16 26 17 31 18 32 19 33 20 42 21 34 22 37 23 41 24
REMARK SMILES IDX 38 25 40 26 39 27 35 28 36 29 11 30 12 31 13 33 14 34 19 35
REMARK SMILES IDX 15 36 18 37 16 38 17 39 20 40 21 41 8 43 7 44 6 45 5 46 3 47
REMARK SMILES IDX 4 48 2 49 1 50
REMARK H PARENT 43 5 27 10 11 32
REMARK Flexibility Score: 80.00
ROOT
ATOM      1  C   UNL     1      58.062  34.091  57.873  1.00  0.00     0.035 C 
ENDROOT
BRANCH   1   2
ATOM      2  C   UNL     1      59.526  33.618  57.714  1.00  0.00     0.171 C 
BRANCH   2   3
ATOM      3  C   UNL     1      59.676  32.122  57.818  1.00  0.00     0.243 C 
ATOM      4  N   UNL     1      59.772  31.482  59.103  1.00  0.00    -0.342 N 
ATOM      5  H   UNL     1      59.471  32.010  59.951  1.00  0.00     0.164 HD
ATOM      6  O   UNL     1      59.744  31.437  56.761  1.00  0.00    -0.273 OA
BRANCH   4   7
ATOM      7  C   UNL     1      60.520  30.240  59.331  1.00  0.00     0.175 C 
BRANCH   7   8
ATOM      8  C   UNL     1      61.935  30.419  58.846  1.00  0.00     0.243 C 
ATOM      9  N   UNL     1      62.797  31.331  59.544  1.00  0.00    -0.342 N 
ATOM     10  H   UNL     1      62.478  31.681  60.474  1.00  0.00     0.164 HD
ATOM     11  O   UNL     1      62.341  29.823  57.807  1.00  0.00    -0.273 OA
BRANCH   9  12
ATOM     12  C   UNL     1      64.096  31.751  59.004  1.00  0.00     0.174 CG0
ATOM     13  G   UNL     1      64.192  33.265  58.889  1.00  0.00     0.000 G0
BRANCH  12  14
ATOM     14  C   UNL     1      65.250  31.098  59.819  1.00  0.00     0.018 C 
ATOM     15  C   UNL     1      66.312  30.435  58.921  1.00  0.00     0.010 C 
BRANCH  14  16
ATOM     16  C   UNL     1      64.714  30.115  60.889  1.00  0.00     0.002 C 
ATOM     17  C   UNL     1      65.412  28.755  60.847  1.00  0.00     0.004 C 
ENDBRANCH  14  16
ENDBRANCH  12  14
ENDBRANCH   9  12
ENDBRANCH   7   8
BRANCH   7  18
ATOM     18  C   UNL     1      59.804  29.022  58.711  1.00  0.00     0.073 C 
BRANCH  18  19
ATOM     19  C   UNL     1      59.314  28.090  59.781  1.00  0.00    -0.016 A 
ATOM     20  C   UNL     1      57.987  27.904  60.158  1.00  0.00     0.134 A 
ATOM     21  C   UNL     1      60.073  27.416  60.720  1.00  0.00     0.006 A 
ATOM     22  N   UNL     1      57.928  27.118  61.254  1.00  0.00    -0.191 N 
ATOM     23  C   UNL     1      59.197  26.840  61.610  1.00  0.00     0.087 A 
ATOM     24  C   UNL     1      61.455  27.338  60.897  1.00  0.00     0.011 A 
ATOM     25  C   UNL     1      59.649  26.167  62.748  1.00  0.00     0.030 A 
ATOM     26  C   UNL     1      61.937  26.632  62.016  1.00  0.00     0.001 A 
ATOM     27  C   UNL     1      61.039  26.053  62.937  1.00  0.00     0.002 A 
BRANCH  22  28
ATOM     28  O   UNL     1      56.779  26.824  61.958  1.00  0.00    -0.417 OA
ATOM     29  C   UNL     1      55.889  27.851  62.379  1.00  0.00     0.313 C 
ENDBRANCH  22  28
ENDBRANCH  18  19
ENDBRANCH   7  18
ENDBRANCH   4   7
ENDBRANCH   2   3
BRANCH   2  30
ATOM     30  N   UNL     1      60.424  34.283  58.668  1.00  0.00    -0.343 N 
ATOM     31  C   UNL     1      61.732  34.750  58.276  1.00  0.00     0.243 C 
ATOM     32  H   UNL     1      60.177  34.230  59.676  1.00  0.00     0.164 HD
ATOM     33  O   UNL     1      62.059  34.727  57.056  1.00  0.00    -0.273 OA
BRANCH  31  34
ATOM     34  C   UNL     1      62.748  35.283  59.275  1.00  0.00     0.174 C 
ATOM     35  N   UNL     1      63.626  34.211  59.794  1.00  0.00    -0.329 N 
ATOM     36  C   UNL     1      62.099  36.044  60.451  1.00  0.00     0.035 C 
ATOM     37  C   UNL     1      64.224  34.353  61.133  1.00  0.00     0.120 C 
ATOM     38  C   UNL     1      63.157  36.662  61.383  1.00  0.00     0.004 C 
ATOM     39  C   UNL     1      64.450  35.832  61.472  1.00  0.00     0.022 C 
BRANCH  35  40
ATOM     40  C   UNL     1      64.235  33.275  58.883  1.00  0.00     0.246 CG0
ATOM     41  O   UNL     1      64.866  33.722  57.888  1.00  0.00    -0.272 OA
ATOM     42  G   UNL     1      64.063  31.771  59.034  1.00  0.00     0.000 G0
ENDBRANCH  35  40
ENDBRANCH  31  34
ENDBRANCH   2  30
ENDBRANCH   1   2
BRANCH   1  43
ATOM     43  C   UNL     1      57.571  35.089  56.805  1.00  0.00     0.003 C 
BRANCH  43  44
ATOM     44  C   UNL     1      58.270  34.889  55.450  1.00  0.00     0.001 C 
BRANCH  44  45
ATOM     45  C   UNL     1      57.328  35.134  54.258  1.00  0.00     0.008 C 
BRANCH  45  46
ATOM     46  C   UNL     1      56.910  33.822  53.571  1.00  0.00     0.075 C 
BRANCH  46  47
ATOM     47  C   UNL     1      55.421  33.558  53.586  1.00  0.00     0.132 C 
ATOM     48  O   UNL     1      54.873  33.000  52.646  1.00  0.00    -0.300 OA
BRANCH  47  49
ATOM     49  C   UNL     1      54.608  33.942  54.791  1.00  0.00     0.072 C 
ATOM     50  C   UNL     1      54.747  32.899  55.896  1.00  0.00     0.012 C 
ENDBRANCH  47  49
ENDBRANCH  46  47
ENDBRANCH  45  46
ENDBRANCH  44  45
ENDBRANCH  43  44
ENDBRANCH   1  43
TORSDOF 12
ENDMDL
MODEL 4
REMARK VINA RESULT:    -3.592      9.671     13.069
REMARK INTER + INTRA:         -10.775
REMARK INTER:                  -8.220
REMARK INTRA:                  -2.555
REMARK UNBOUND:                -3.194
REMARK SMILES CCC(=O)CCCCC[C@H]1NC(=O)[C@H]2CCCCN2C(=O)[C@@H]([C@H](C)CC)NC(=O)[C@H](Cc2cn(OC)c3ccccc23)NC1=O
REMARK SMILES IDX 9 1 10 2 44 3 43 4 45 6 30 7 28 8 27 9 29 11 22 12 23 14
REMARK SMILES IDX 24 15 25 16 26 17 31 18 32 19 33 20 42 21 34 22 37 23 41 24
REMARK SMILES IDX 38 25 40 26 39 27 35 28 36 29 11 30 12 31 13 33 14 34 19 35
REMARK SMILES IDX 15 36 18 37 16 38 17 39 20 40 21 41 8 43 7 44 6 45 5 46 3 47
REMARK SMILES IDX 4 48 2 49 1 50
REMARK H PARENT 43 5 27 10 11 32
REMARK Flexibility Score: 80.00
ROOT
ATOM      1  C   UNL     1      55.873  23.966  53.655  1.00  0.00     0.035 C 
ENDROOT
BRANCH   1   2
ATOM      2  C   UNL     1      57.082  23.019  53.833  1.00  0.00     0.171 C 
BRANCH   2   3
ATOM      3  C   UNL     1      58.404  23.695  53.573  1.00  0.00     0.243 C 
ATOM      4  N   UNL     1      58.955  23.741  52.245  1.00  0.00    -0.342 N 
ATOM      5  H   UNL     1      58.326  23.551  51.433  1.00  0.00     0.164 HD
ATOM      6  O   UNL     1      59.037  24.198  54.541  1.00  0.00    -0.273 OA
BRANCH   4   7
ATOM      7  C   UNL     1      60.396  23.767  51.970  1.00  0.00     0.175 C 
BRANCH   7   8
ATOM      8  C   UNL     1      61.045  22.574  52.624  1.00  0.00     0.243 C 
ATOM      9  N   UNL     1      60.589  21.258  52.274  1.00  0.00    -0.342 N 
ATOM     10  H   UNL     1      59.970  21.168  51.439  1.00  0.00     0.164 HD
ATOM     11  O   UNL     1      61.936  22.728  53.508  1.00  0.00    -0.273 OA
BRANCH   9  12
ATOM     12  C   UNL     1      60.984  20.064  53.030  1.00  0.00     0.174 CG0
ATOM     13  G   UNL     1      59.879  19.020  53.048  1.00  0.00     0.000 G0
BRANCH  12  14
ATOM     14  C   UNL     1      62.356  19.535  52.516  1.00  0.00     0.018 C 
ATOM     15  C   UNL     1      63.517  19.862  53.474  1.00  0.00     0.010 C 
BRANCH  14  16
ATOM     16  C   UNL     1      62.653  20.016  51.075  1.00  0.00     0.002 C 
ATOM     17  C   UNL     1      63.692  19.148  50.363  1.00  0.00     0.004 C 
ENDBRANCH  14  16
ENDBRANCH  12  14
ENDBRANCH   9  12
ENDBRANCH   7   8
BRANCH   7  18
ATOM     18  C   UNL     1      61.029  25.114  52.376  1.00  0.00     0.073 C 
BRANCH  18  19
ATOM     19  C   UNL     1      61.051  26.065  51.215  1.00  0.00    -0.016 A 
ATOM     20  C   UNL     1      62.179  26.453  50.497  1.00  0.00     0.134 A 
ATOM     21  C   UNL     1      60.025  26.885  50.782  1.00  0.00     0.006 A 
ATOM     22  N   UNL     1      61.855  27.438  49.632  1.00  0.00    -0.191 N 
ATOM     23  C   UNL     1      60.550  27.716  49.821  1.00  0.00     0.087 A 
ATOM     24  C   UNL     1      58.705  27.009  51.217  1.00  0.00     0.011 A 
ATOM     25  C   UNL     1      59.793  28.742  49.249  1.00  0.00     0.030 A 
ATOM     26  C   UNL     1      57.909  28.010  50.628  1.00  0.00     0.001 A 
ATOM     27  C   UNL     1      58.451  28.873  49.653  1.00  0.00     0.002 A 
BRANCH  22  28
ATOM     28  O   UNL     1      62.752  28.130  48.847  1.00  0.00    -0.417 OA
ATOM     29  C   UNL     1      63.516  29.208  49.375  1.00  0.00     0.313 C 
ENDBRANCH  22  28
ENDBRANCH  18  19
ENDBRANCH   7  18
ENDBRANCH   4   7
ENDBRANCH   2   3
BRANCH   2  30
ATOM     30  N   UNL     1      56.960  21.812  53.004  1.00  0.00    -0.343 N 
ATOM     31  C   UNL     1      57.349  20.513  53.497  1.00  0.00     0.243 C 
ATOM     32  H   UNL     1      56.777  21.944  51.989  1.00  0.00     0.164 HD
ATOM     33  O   UNL     1      57.658  20.379  54.715  1.00  0.00    -0.273 OA
BRANCH  31  34
ATOM     34  C   UNL     1      57.398  19.277  52.611  1.00  0.00     0.174 C 
ATOM     35  N   UNL     1      58.770  18.993  52.136  1.00  0.00    -0.329 N 
ATOM     36  C   UNL     1      56.433  19.356  51.408  1.00  0.00     0.035 C 
ATOM     37  C   UNL     1      58.959  18.281  50.861  1.00  0.00     0.120 C 
ATOM     38  C   UNL     1      56.428  18.049  50.595  1.00  0.00     0.004 C 
ATOM     39  C   UNL     1      57.788  17.328  50.594  1.00  0.00     0.022 C 
BRANCH  35  40
ATOM     40  C   UNL     1      59.872  19.010  53.065  1.00  0.00     0.246 CG0
ATOM     41  O   UNL     1      59.893  18.160  53.995  1.00  0.00    -0.272 OA
ATOM     42  G   UNL     1      60.957  20.075  53.014  1.00  0.00     0.000 G0
ENDBRANCH  35  40
ENDBRANCH  31  34
ENDBRANCH   2  30
ENDBRANCH   1   2
BRANCH   1  43
ATOM     43  C   UNL     1      55.327  24.592  54.954  1.00  0.00     0.003 C 
BRANCH  43  44
ATOM     44  C   UNL     1      54.628  25.940  54.707  1.00  0.00     0.001 C 
BRANCH  44  45
ATOM     45  C   UNL     1      53.883  25.982  53.362  1.00  0.00     0.008 C 
BRANCH  45  46
ATOM     46  C   UNL     1      54.299  27.193  52.508  1.00  0.00     0.075 C 
BRANCH  46  47
ATOM     47  C   UNL     1      54.510  26.879  51.043  1.00  0.00     0.132 C 
ATOM     48  O   UNL     1      54.972  25.803  50.692  1.00  0.00    -0.300 OA
BRANCH  47  49
ATOM     49  C   UNL     1      54.106  27.884  50.001  1.00  0.00     0.072 C 
ATOM     50  C   UNL     1      54.417  29.304  50.464  1.00  0.00     0.012 C 
ENDBRANCH  47  49
ENDBRANCH  46  47
ENDBRANCH  45  46
ENDBRANCH  44  45
ENDBRANCH  43  44
ENDBRANCH   1  43
TORSDOF 12
ENDMDL
MODEL 5
REMARK VINA RESULT:    -3.486      7.509      9.644
REMARK INTER + INTRA:         -10.552
REMARK INTER:                  -8.469
REMARK INTRA:                  -2.083
REMARK UNBOUND:                -3.194
REMARK SMILES CCC(=O)CCCCC[C@H]1NC(=O)[C@H]2CCCCN2C(=O)[C@@H]([C@H](C)CC)NC(=O)[C@H](Cc2cn(OC)c3ccccc23)NC1=O
REMARK SMILES IDX 9 1 10 2 44 3 43 4 45 6 30 7 28 8 27 9 29 11 22 12 23 14
REMARK SMILES IDX 24 15 25 16 26 17 31 18 32 19 33 20 42 21 34 22 37 23 41 24
REMARK SMILES IDX 38 25 40 26 39 27 35 28 36 29 11 30 12 31 13 33 14 34 19 35
REMARK SMILES IDX 15 36 18 37 16 38 17 39 20 40 21 41 8 43 7 44 6 45 5 46 3 47
REMARK SMILES IDX 4 48 2 49 1 50
REMARK H PARENT 43 5 27 10 11 32
REMARK Flexibility Score: 80.00
ROOT
ATOM      1  C   UNL     1      62.883  33.793  48.524  1.00  0.00     0.035 C 
ENDROOT
BRANCH   1   2
ATOM      2  C   UNL     1      62.719  33.133  49.912  1.00  0.00     0.171 C 
BRANCH   2   3
ATOM      3  C   UNL     1      62.400  31.663  49.832  1.00  0.00     0.243 C 
ATOM      4  N   UNL     1      61.037  31.212  49.730  1.00  0.00    -0.342 N 
ATOM      5  H   UNL     1      60.302  31.896  49.442  1.00  0.00     0.164 HD
ATOM      6  O   UNL     1      63.342  30.826  49.884  1.00  0.00    -0.273 OA
BRANCH   4   7
ATOM      7  C   UNL     1      60.569  29.929  50.266  1.00  0.00     0.175 C 
BRANCH   7   8
ATOM      8  C   UNL     1      60.949  29.833  51.721  1.00  0.00     0.243 C 
ATOM      9  N   UNL     1      60.210  30.601  52.683  1.00  0.00    -0.342 N 
ATOM     10  H   UNL     1      59.315  31.037  52.368  1.00  0.00     0.164 HD
ATOM     11  O   UNL     1      61.939  29.136  52.085  1.00  0.00    -0.273 OA
BRANCH   9  12
ATOM     12  C   UNL     1      60.658  30.762  54.071  1.00  0.00     0.174 CG0
ATOM     13  G   UNL     1      60.661  32.223  54.494  1.00  0.00     0.000 G0
BRANCH  12  14
ATOM     14  C   UNL     1      59.839  29.827  55.009  1.00  0.00     0.018 C 
ATOM     15  C   UNL     1      60.655  28.618  55.504  1.00  0.00     0.010 C 
BRANCH  14  16
ATOM     16  C   UNL     1      58.504  29.388  54.361  1.00  0.00     0.002 C 
ATOM     17  C   UNL     1      57.308  29.549  55.299  1.00  0.00     0.004 C 
ENDBRANCH  14  16
ENDBRANCH  12  14
ENDBRANCH   9  12
ENDBRANCH   7   8
BRANCH   7  18
ATOM     18  C   UNL     1      61.069  28.741  49.419  1.00  0.00     0.073 C 
BRANCH  18  19
ATOM     19  C   UNL     1      60.228  27.521  49.660  1.00  0.00    -0.016 A 
ATOM     20  C   UNL     1      58.836  27.479  49.685  1.00  0.00     0.134 A 
ATOM     21  C   UNL     1      60.653  26.283  50.106  1.00  0.00     0.006 A 
ATOM     22  N   UNL     1      58.422  26.260  50.088  1.00  0.00    -0.191 N 
ATOM     23  C   UNL     1      59.526  25.539  50.366  1.00  0.00     0.087 A 
ATOM     24  C   UNL     1      61.932  25.794  50.375  1.00  0.00     0.011 A 
ATOM     25  C   UNL     1      59.607  24.264  50.934  1.00  0.00     0.030 A 
ATOM     26  C   UNL     1      62.043  24.497  50.910  1.00  0.00     0.001 A 
ATOM     27  C   UNL     1      60.887  23.738  51.191  1.00  0.00     0.002 A 
BRANCH  22  28
ATOM     28  O   UNL     1      57.111  25.908  50.332  1.00  0.00    -0.417 OA
ATOM     29  C   UNL     1      56.047  26.825  50.105  1.00  0.00     0.313 C 
ENDBRANCH  22  28
ENDBRANCH  18  19
ENDBRANCH   7  18
ENDBRANCH   4   7
ENDBRANCH   2   3
BRANCH   2  30
ATOM     30  N   UNL     1      61.715  33.824  50.733  1.00  0.00    -0.343 N 
ATOM     31  C   UNL     1      61.751  33.774  52.175  1.00  0.00     0.243 C 
ATOM     32  H   UNL     1      60.866  34.181  50.251  1.00  0.00     0.164 HD
ATOM     33  O   UNL     1      62.748  33.255  52.752  1.00  0.00    -0.273 OA
BRANCH  31  34
ATOM     34  C   UNL     1      60.634  34.329  53.045  1.00  0.00     0.174 C 
ATOM     35  N   UNL     1      59.925  33.260  53.782  1.00  0.00    -0.329 N 
ATOM     36  C   UNL     1      59.619  35.184  52.256  1.00  0.00     0.035 C 
ATOM     37  C   UNL     1      58.518  33.462  54.168  1.00  0.00     0.120 C 
ATOM     38  C   UNL     1      58.566  35.819  53.182  1.00  0.00     0.004 C 
ATOM     39  C   UNL     1      58.229  34.950  54.406  1.00  0.00     0.022 C 
BRANCH  35  40
ATOM     40  C   UNL     1      60.674  32.249  54.483  1.00  0.00     0.246 CG0
ATOM     41  O   UNL     1      61.424  32.600  55.433  1.00  0.00    -0.272 OA
ATOM     42  G   UNL     1      60.662  30.789  54.054  1.00  0.00     0.000 G0
ENDBRANCH  35  40
ENDBRANCH  31  34
ENDBRANCH   2  30
ENDBRANCH   1   2
BRANCH   1  43
ATOM     43  C   UNL     1      64.071  34.766  48.390  1.00  0.00     0.003 C 
BRANCH  43  44
ATOM     44  C   UNL     1      64.225  35.311  46.960  1.00  0.00     0.001 C 
BRANCH  44  45
ATOM     45  C   UNL     1      65.685  35.294  46.476  1.00  0.00     0.008 C 
BRANCH  45  46
ATOM     46  C   UNL     1      66.626  34.628  47.496  1.00  0.00     0.075 C 
BRANCH  46  47
ATOM     47  C   UNL     1      67.419  33.464  46.945  1.00  0.00     0.132 C 
ATOM     48  O   UNL     1      68.536  33.631  46.476  1.00  0.00    -0.300 OA
BRANCH  47  49
ATOM     49  C   UNL     1      66.849  32.075  47.014  1.00  0.00     0.072 C 
ATOM     50  C   UNL     1      67.070  31.464  48.395  1.00  0.00     0.012 C 
ENDBRANCH  47  49
ENDBRANCH  46  47
ENDBRANCH  45  46
ENDBRANCH  44  45
ENDBRANCH  43  44
ENDBRANCH   1  43
TORSDOF 12
ENDMDL
MODEL 6
REMARK VINA RESULT:    -3.455      9.306     12.278
REMARK INTER + INTRA:         -10.485
REMARK INTER:                  -7.784
REMARK INTRA:                  -2.702
REMARK UNBOUND:                -3.194
REMARK SMILES CCC(=O)CCCCC[C@H]1NC(=O)[C@H]2CCCCN2C(=O)[C@@H]([C@H](C)CC)NC(=O)[C@H](Cc2cn(OC)c3ccccc23)NC1=O
REMARK SMILES IDX 9 1 10 2 44 3 43 4 45 6 30 7 28 8 27 9 29 11 22 12 23 14
REMARK SMILES IDX 24 15 25 16 26 17 31 18 32 19 33 20 42 21 34 22 37 23 41 24
REMARK SMILES IDX 38 25 40 26 39 27 35 28 36 29 11 30 12 31 13 33 14 34 19 35
REMARK SMILES IDX 15 36 18 37 16 38 17 39 20 40 21 41 8 43 7 44 6 45 5 46 3 47
REMARK SMILES IDX 4 48 2 49 1 50
REMARK H PARENT 43 5 27 10 11 32
REMARK Flexibility Score: 80.00
ROOT
ATOM      1  C   UNL     1      58.424  26.255  50.017  1.00  0.00     0.035 C 
ENDROOT
BRANCH   1   2
ATOM      2  C   UNL     1      59.344  25.457  50.970  1.00  0.00     0.171 C 
BRANCH   2   3
ATOM      3  C   UNL     1      60.596  26.206  51.345  1.00  0.00     0.243 C 
ATOM      4  N   UNL     1      61.813  26.021  50.600  1.00  0.00    -0.342 N 
ATOM      5  H   UNL     1      61.761  25.586  49.653  1.00  0.00     0.164 HD
ATOM      6  O   UNL     1      60.573  26.980  52.341  1.00  0.00    -0.273 OA
BRANCH   4   7
ATOM      7  C   UNL     1      63.149  26.152  51.192  1.00  0.00     0.175 C 
BRANCH   7   8
ATOM      8  C   UNL     1      63.311  25.122  52.280  1.00  0.00     0.243 C 
ATOM      9  N   UNL     1      63.420  23.738  51.912  1.00  0.00    -0.342 N 
ATOM     10  H   UNL     1      63.586  23.517  50.906  1.00  0.00     0.164 HD
ATOM     11  O   UNL     1      63.292  25.460  53.498  1.00  0.00    -0.273 OA
BRANCH   9  12
ATOM     12  C   UNL     1      63.333  22.655  52.899  1.00  0.00     0.174 CG0
ATOM     13  G   UNL     1      62.250  21.650  52.535  1.00  0.00     0.000 G0
BRANCH  12  14
ATOM     14  C   UNL     1      64.739  22.025  53.127  1.00  0.00     0.018 C 
ATOM     15  C   UNL     1      65.359  22.428  54.478  1.00  0.00     0.010 C 
BRANCH  14  16
ATOM     16  C   UNL     1      65.698  22.318  51.949  1.00  0.00     0.002 C 
ATOM     17  C   UNL     1      66.484  21.084  51.503  1.00  0.00     0.004 C 
ENDBRANCH  14  16
ENDBRANCH  12  14
ENDBRANCH   9  12
ENDBRANCH   7   8
BRANCH   7  18
ATOM     18  C   UNL     1      63.425  27.595  51.664  1.00  0.00     0.073 C 
BRANCH  18  19
ATOM     19  C   UNL     1      63.441  28.543  50.500  1.00  0.00    -0.016 A 
ATOM     20  C   UNL     1      64.157  28.375  49.318  1.00  0.00     0.134 A 
ATOM     21  C   UNL     1      62.940  29.832  50.461  1.00  0.00     0.006 A 
ATOM     22  N   UNL     1      64.067  29.492  48.565  1.00  0.00    -0.191 N 
ATOM     23  C   UNL     1      63.346  30.387  49.270  1.00  0.00     0.087 A 
ATOM     24  C   UNL     1      62.234  30.571  51.411  1.00  0.00     0.011 A 
ATOM     25  C   UNL     1      63.090  31.726  48.963  1.00  0.00     0.030 A 
ATOM     26  C   UNL     1      61.930  31.912  51.109  1.00  0.00     0.001 A 
ATOM     27  C   UNL     1      62.359  32.487  49.893  1.00  0.00     0.002 A 
BRANCH  22  28
ATOM     28  O   UNL     1      64.746  29.710  47.386  1.00  0.00    -0.417 OA
ATOM     29  C   UNL     1      66.148  29.955  47.376  1.00  0.00     0.313 C 
ENDBRANCH  22  28
ENDBRANCH  18  19
ENDBRANCH   7  18
ENDBRANCH   4   7
ENDBRANCH   2   3
BRANCH   2  30
ATOM     30  N   UNL     1      59.690  24.138  50.421  1.00  0.00    -0.343 N 
ATOM     31  C   UNL     1      59.924  23.000  51.276  1.00  0.00     0.243 C 
ATOM     32  H   UNL     1      59.959  24.092  49.418  1.00  0.00     0.164 HD
ATOM     33  O   UNL     1      59.680  23.093  52.512  1.00  0.00    -0.273 OA
BRANCH  31  34
ATOM     34  C   UNL     1      60.451  21.672  50.753  1.00  0.00     0.174 C 
ATOM     35  N   UNL     1      61.853  21.436  51.161  1.00  0.00    -0.329 N 
ATOM     36  C   UNL     1      60.319  21.530  49.221  1.00  0.00     0.035 C 
ATOM     37  C   UNL     1      62.715  20.588  50.320  1.00  0.00     0.120 C 
ATOM     38  C   UNL     1      60.759  20.136  48.738  1.00  0.00     0.004 C 
ATOM     39  C   UNL     1      61.885  19.524  49.591  1.00  0.00     0.022 C 
BRANCH  35  40
ATOM     40  C   UNL     1      62.251  21.649  52.529  1.00  0.00     0.246 CG0
ATOM     41  O   UNL     1      61.655  21.013  53.439  1.00  0.00    -0.272 OA
ATOM     42  G   UNL     1      63.299  22.681  52.916  1.00  0.00     0.000 G0
ENDBRANCH  35  40
ENDBRANCH  31  34
ENDBRANCH   2  30
ENDBRANCH   1   2
BRANCH   1  43
ATOM     43  C   UNL     1      56.930  25.878  50.072  1.00  0.00     0.003 C 
BRANCH  43  44
ATOM     44  C   UNL     1      56.026  27.096  50.326  1.00  0.00     0.001 C 
BRANCH  44  45
ATOM     45  C   UNL     1      56.632  28.079  51.343  1.00  0.00     0.008 C 
BRANCH  45  46
ATOM     46  C   UNL     1      56.824  29.484  50.747  1.00  0.00     0.075 C 
BRANCH  46  47
ATOM     47  C   UNL     1      58.268  29.911  50.610  1.00  0.00     0.132 C 
ATOM     48  O   UNL     1      58.947  30.155  51.598  1.00  0.00    -0.300 OA
BRANCH  47  49
ATOM     49  C   UNL     1      58.895  29.993  49.247  1.00  0.00     0.072 C 
ATOM     50  C   UNL     1      59.709  28.738  48.945  1.00  0.00     0.012 C 
ENDBRANCH  47  49
ENDBRANCH  46  47
ENDBRANCH  45  46
ENDBRANCH  44  45
ENDBRANCH  43  44
ENDBRANCH   1  43
TORSDOF 12
ENDMDL
MODEL 7
REMARK VINA RESULT:    -3.388      5.463      8.039
REMARK INTER + INTRA:         -10.345
REMARK INTER:                  -7.771
REMARK INTRA:                  -2.574
REMARK UNBOUND:                -3.194
REMARK SMILES CCC(=O)CCCCC[C@H]1NC(=O)[C@H]2CCCCN2C(=O)[C@@H]([C@H](C)CC)NC(=O)[C@H](Cc2cn(OC)c3ccccc23)NC1=O
REMARK SMILES IDX 9 1 10 2 44 3 43 4 45 6 30 7 28 8 27 9 29 11 22 12 23 14
REMARK SMILES IDX 24 15 25 16 26 17 31 18 32 19 33 20 42 21 34 22 37 23 41 24
REMARK SMILES IDX 38 25 40 26 39 27 35 28 36 29 11 30 12 31 13 33 14 34 19 35
REMARK SMILES IDX 15 36 18 37 16 38 17 39 20 40 21 41 8 43 7 44 6 45 5 46 3 47
REMARK SMILES IDX 4 48 2 49 1 50
REMARK H PARENT 43 5 27 10 11 32
REMARK Flexibility Score: 80.00
ROOT
ATOM      1  C   UNL     1      59.568  28.809  49.623  1.00  0.00     0.035 C 
ENDROOT
BRANCH   1   2
ATOM      2  C   UNL     1      60.459  29.557  50.641  1.00  0.00     0.171 C 
BRANCH   2   3
ATOM      3  C   UNL     1      59.730  29.918  51.909  1.00  0.00     0.243 C 
ATOM      4  N   UNL     1      59.008  31.158  52.014  1.00  0.00    -0.342 N 
ATOM      5  H   UNL     1      58.766  31.673  51.139  1.00  0.00     0.164 HD
ATOM      6  O   UNL     1      59.782  29.129  52.892  1.00  0.00    -0.273 OA
BRANCH   4   7
ATOM      7  C   UNL     1      58.830  31.883  53.277  1.00  0.00     0.175 C 
BRANCH   7   8
ATOM      8  C   UNL     1      60.180  32.136  53.897  1.00  0.00     0.243 C 
ATOM      9  N   UNL     1      61.081  33.046  53.248  1.00  0.00    -0.342 N 
ATOM     10  H   UNL     1      60.695  33.649  52.488  1.00  0.00     0.164 HD
ATOM     11  O   UNL     1      60.539  31.513  54.937  1.00  0.00    -0.273 OA
BRANCH   9  12
ATOM     12  C   UNL     1      62.492  33.165  53.637  1.00  0.00     0.174 CG0
ATOM     13  G   UNL     1      63.406  33.210  52.422  1.00  0.00     0.000 G0
BRANCH  12  14
ATOM     14  C   UNL     1      62.676  34.357  54.621  1.00  0.00     0.018 C 
ATOM     15  C   UNL     1      62.916  33.898  56.072  1.00  0.00     0.010 C 
BRANCH  14  16
ATOM     16  C   UNL     1      61.507  35.366  54.528  1.00  0.00     0.002 C 
ATOM     17  C   UNL     1      60.781  35.558  55.861  1.00  0.00     0.004 C 
ENDBRANCH  14  16
ENDBRANCH  12  14
ENDBRANCH   9  12
ENDBRANCH   7   8
BRANCH   7  18
ATOM     18  C   UNL     1      57.845  31.157  54.217  1.00  0.00     0.073 C 
BRANCH  18  19
ATOM     19  C   UNL     1      56.897  32.132  54.852  1.00  0.00    -0.016 A 
ATOM     20  C   UNL     1      55.778  32.697  54.247  1.00  0.00     0.134 A 
ATOM     21  C   UNL     1      57.063  32.807  56.049  1.00  0.00     0.006 A 
ATOM     22  N   UNL     1      55.253  33.647  55.050  1.00  0.00    -0.191 N 
ATOM     23  C   UNL     1      56.048  33.730  56.135  1.00  0.00     0.087 A 
ATOM     24  C   UNL     1      58.068  32.729  57.013  1.00  0.00     0.011 A 
ATOM     25  C   UNL     1      55.986  34.652  57.185  1.00  0.00     0.030 A 
ATOM     26  C   UNL     1      58.008  33.621  58.101  1.00  0.00     0.001 A 
ATOM     27  C   UNL     1      56.974  34.578  58.184  1.00  0.00     0.002 A 
BRANCH  22  28
ATOM     28  O   UNL     1      54.208  34.481  54.714  1.00  0.00    -0.417 OA
ATOM     29  C   UNL     1      53.210  34.833  55.664  1.00  0.00     0.313 C 
ENDBRANCH  22  28
ENDBRANCH  18  19
ENDBRANCH   7  18
ENDBRANCH   4   7
ENDBRANCH   2   3
BRANCH   2  30
ATOM     30  N   UNL     1      61.074  30.756  50.054  1.00  0.00    -0.343 N 
ATOM     31  C   UNL     1      62.380  31.213  50.463  1.00  0.00     0.243 C 
ATOM     32  H   UNL     1      60.466  31.378  49.486  1.00  0.00     0.164 HD
ATOM     33  O   UNL     1      63.079  30.491  51.229  1.00  0.00    -0.273 OA
BRANCH  31  34
ATOM     34  C   UNL     1      62.968  32.540  50.005  1.00  0.00     0.174 C 
ATOM     35  N   UNL     1      62.954  33.552  51.084  1.00  0.00    -0.329 N 
ATOM     36  C   UNL     1      62.276  33.106  48.746  1.00  0.00     0.035 C 
ATOM     37  C   UNL     1      62.893  34.981  50.731  1.00  0.00     0.120 C 
ATOM     38  C   UNL     1      62.963  34.389  48.246  1.00  0.00     0.004 C 
ATOM     39  C   UNL     1      63.570  35.236  49.380  1.00  0.00     0.022 C 
BRANCH  35  40
ATOM     40  C   UNL     1      63.421  33.205  52.402  1.00  0.00     0.246 CG0
ATOM     41  O   UNL     1      64.619  32.838  52.544  1.00  0.00    -0.272 OA
ATOM     42  G   UNL     1      62.494  33.179  53.608  1.00  0.00     0.000 G0
ENDBRANCH  35  40
ENDBRANCH  31  34
ENDBRANCH   2  30
ENDBRANCH   1   2
BRANCH   1  43
ATOM     43  C   UNL     1      59.672  27.271  49.658  1.00  0.00     0.003 C 
BRANCH  43  44
ATOM     44  C   UNL     1      58.550  26.625  50.488  1.00  0.00     0.001 C 
BRANCH  44  45
ATOM     45  C   UNL     1      57.155  26.875  49.890  1.00  0.00     0.008 C 
BRANCH  45  46
ATOM     46  C   UNL     1      56.153  27.376  50.946  1.00  0.00     0.075 C 
BRANCH  46  47
ATOM     47  C   UNL     1      55.822  28.847  50.842  1.00  0.00     0.132 C 
ATOM     48  O   UNL     1      56.683  29.698  51.011  1.00  0.00    -0.300 OA
BRANCH  47  49
ATOM     49  C   UNL     1      54.426  29.273  50.482  1.00  0.00     0.072 C 
ATOM     50  C   UNL     1      53.567  28.067  50.113  1.00  0.00     0.012 C 
ENDBRANCH  47  49
ENDBRANCH  46  47
ENDBRANCH  45  46
ENDBRANCH  44  45
ENDBRANCH  43  44
ENDBRANCH   1  43
TORSDOF 12
ENDMDL
MODEL 8
REMARK VINA RESULT:    -3.318      5.730      8.334
REMARK INTER + INTRA:         -10.197
REMARK INTER:                  -7.286
REMARK INTRA:                  -2.910
REMARK UNBOUND:                -3.194
REMARK SMILES CCC(=O)CCCCC[C@H]1NC(=O)[C@H]2CCCCN2C(=O)[C@@H]([C@H](C)CC)NC(=O)[C@H](Cc2cn(OC)c3ccccc23)NC1=O
REMARK SMILES IDX 9 1 10 2 44 3 43 4 45 6 30 7 28 8 27 9 29 11 22 12 23 14
REMARK SMILES IDX 24 15 25 16 26 17 31 18 32 19 33 20 42 21 34 22 37 23 41 24
REMARK SMILES IDX 38 25 40 26 39 27 35 28 36 29 11 30 12 31 13 33 14 34 19 35
REMARK SMILES IDX 15 36 18 37 16 38 17 39 20 40 21 41 8 43 7 44 6 45 5 46 3 47
REMARK SMILES IDX 4 48 2 49 1 50
REMARK H PARENT 43 5 27 10 11 32
REMARK Flexibility Score: 80.00
ROOT
ATOM      1  C   UNL     1      59.064  29.456  49.602  1.00  0.00     0.035 C 
ENDROOT
BRANCH   1   2
ATOM      2  C   UNL     1      60.093  29.983  50.630  1.00  0.00     0.171 C 
BRANCH   2   3
ATOM      3  C   UNL     1      59.481  30.291  51.971  1.00  0.00     0.243 C 
ATOM      4  N   UNL     1      58.928  31.591  52.244  1.00  0.00    -0.342 N 
ATOM      5  H   UNL     1      58.710  32.223  51.442  1.00  0.00     0.164 HD
ATOM      6  O   UNL     1      59.482  29.402  52.866  1.00  0.00    -0.273 OA
BRANCH   4   7
ATOM      7  C   UNL     1      58.908  32.194  53.582  1.00  0.00     0.175 C 
BRANCH   7   8
ATOM      8  C   UNL     1      60.316  32.262  54.115  1.00  0.00     0.243 C 
ATOM      9  N   UNL     1      61.305  32.991  53.372  1.00  0.00    -0.342 N 
ATOM     10  H   UNL     1      60.970  33.611  52.602  1.00  0.00     0.164 HD
ATOM     11  O   UNL     1      60.638  31.638  55.168  1.00  0.00    -0.273 OA
BRANCH   9  12
ATOM     12  C   UNL     1      62.737  32.906  53.679  1.00  0.00     0.174 CG0
ATOM     13  G   UNL     1      63.584  32.927  52.416  1.00  0.00     0.000 G0
BRANCH  12  14
ATOM     14  C   UNL     1      63.125  33.991  54.726  1.00  0.00     0.018 C 
ATOM     15  C   UNL     1      63.472  33.393  56.103  1.00  0.00     0.010 C 
BRANCH  14  16
ATOM     16  C   UNL     1      62.043  35.093  54.840  1.00  0.00     0.002 C 
ATOM     17  C   UNL     1      61.515  35.261  56.265  1.00  0.00     0.004 C 
ENDBRANCH  14  16
ENDBRANCH  12  14
ENDBRANCH   9  12
ENDBRANCH   7   8
BRANCH   7  18
ATOM     18  C   UNL     1      57.927  31.464  54.522  1.00  0.00     0.073 C 
BRANCH  18  19
ATOM     19  C   UNL     1      56.997  32.438  55.185  1.00  0.00    -0.016 A 
ATOM     20  C   UNL     1      55.820  32.946  54.640  1.00  0.00     0.134 A 
ATOM     21  C   UNL     1      57.227  33.167  56.338  1.00  0.00     0.006 A 
ATOM     22  N   UNL     1      55.326  33.914  55.441  1.00  0.00    -0.191 N 
ATOM     23  C   UNL     1      56.193  34.064  56.461  1.00  0.00     0.087 A 
ATOM     24  C   UNL     1      58.300  33.157  57.229  1.00  0.00     0.011 A 
ATOM     25  C   UNL     1      56.179  35.027  57.475  1.00  0.00     0.030 A 
ATOM     26  C   UNL     1      58.290  34.092  58.282  1.00  0.00     0.001 A 
ATOM     27  C   UNL     1      57.237  35.023  58.402  1.00  0.00     0.002 A 
BRANCH  22  28
ATOM     28  O   UNL     1      54.235  34.705  55.148  1.00  0.00    -0.417 OA
ATOM     29  C   UNL     1      53.680  34.740  53.838  1.00  0.00     0.313 C 
ENDBRANCH  22  28
ENDBRANCH  18  19
ENDBRANCH   7  18
ENDBRANCH   4   7
ENDBRANCH   2   3
BRANCH   2  30
ATOM     30  N   UNL     1      60.820  31.155  50.125  1.00  0.00    -0.343 N 
ATOM     31  C   UNL     1      62.237  31.319  50.345  1.00  0.00     0.243 C 
ATOM     32  H   UNL     1      60.257  31.958  49.782  1.00  0.00     0.164 HD
ATOM     33  O   UNL     1      62.901  30.368  50.847  1.00  0.00    -0.273 OA
BRANCH  31  34
ATOM     34  C   UNL     1      62.983  32.597  49.989  1.00  0.00     0.174 C 
ATOM     35  N   UNL     1      63.149  33.483  51.161  1.00  0.00    -0.329 N 
ATOM     36  C   UNL     1      62.327  33.377  48.829  1.00  0.00     0.035 C 
ATOM     37  C   UNL     1      63.269  34.937  50.955  1.00  0.00     0.120 C 
ATOM     38  C   UNL     1      63.163  34.604  48.423  1.00  0.00     0.004 C 
ATOM     39  C   UNL     1      63.923  35.240  49.601  1.00  0.00     0.022 C 
BRANCH  35  40
ATOM     40  C   UNL     1      63.614  32.943  52.413  1.00  0.00     0.246 CG0
ATOM     41  O   UNL     1      64.758  32.416  52.457  1.00  0.00    -0.272 OA
ATOM     42  G   UNL     1      62.736  32.905  53.655  1.00  0.00     0.000 G0
ENDBRANCH  35  40
ENDBRANCH  31  34
ENDBRANCH   2  30
ENDBRANCH   1   2
BRANCH   1  43
ATOM     43  C   UNL     1      59.131  27.942  49.317  1.00  0.00     0.003 C 
BRANCH  43  44
ATOM     44  C   UNL     1      58.496  27.105  50.441  1.00  0.00     0.001 C 
BRANCH  44  45
ATOM     45  C   UNL     1      58.859  25.613  50.343  1.00  0.00     0.008 C 
BRANCH  45  46
ATOM     46  C   UNL     1      60.380  25.383  50.393  1.00  0.00     0.075 C 
BRANCH  46  47
ATOM     47  C   UNL     1      60.890  24.875  51.723  1.00  0.00     0.132 C 
ATOM     48  O   UNL     1      60.745  23.704  52.045  1.00  0.00    -0.300 OA
BRANCH  47  49
ATOM     49  C   UNL     1      61.627  25.807  52.644  1.00  0.00     0.072 C 
ATOM     50  C   UNL     1      62.068  27.066  51.904  1.00  0.00     0.012 C 
ENDBRANCH  47  49
ENDBRANCH  46  47
ENDBRANCH  45  46
ENDBRANCH  44  45
ENDBRANCH  43  44
ENDBRANCH   1  43
TORSDOF 12
ENDMDL
MODEL 9
REMARK VINA RESULT:    -3.264      4.201      7.901
REMARK INTER + INTRA:         -10.084
REMARK INTER:                  -7.856
REMARK INTRA:                  -2.228
REMARK UNBOUND:                -3.194
REMARK SMILES CCC(=O)CCCCC[C@H]1NC(=O)[C@H]2CCCCN2C(=O)[C@@H]([C@H](C)CC)NC(=O)[C@H](Cc2cn(OC)c3ccccc23)NC1=O
REMARK SMILES IDX 9 1 10 2 44 3 43 4 45 6 30 7 28 8 27 9 29 11 22 12 23 14
REMARK SMILES IDX 24 15 25 16 26 17 31 18 32 19 33 20 42 21 34 22 37 23 41 24
REMARK SMILES IDX 38 25 40 26 39 27 35 28 36 29 11 30 12 31 13 33 14 34 19 35
REMARK SMILES IDX 15 36 18 37 16 38 17 39 20 40 21 41 8 43 7 44 6 45 5 46 3 47
REMARK SMILES IDX 4 48 2 49 1 50
REMARK H PARENT 43 5 27 10 11 32
REMARK Flexibility Score: 80.00
ROOT
ATOM      1  C   UNL     1      54.657  30.268  57.737  1.00  0.00     0.035 C 
ENDROOT
BRANCH   1   2
ATOM      2  C   UNL     1      55.568  31.364  57.137  1.00  0.00     0.171 C 
BRANCH   2   3
ATOM      3  C   UNL     1      55.556  31.379  55.630  1.00  0.00     0.243 C 
ATOM      4  N   UNL     1      56.478  30.567  54.880  1.00  0.00    -0.342 N 
ATOM      5  H   UNL     1      56.961  29.779  55.365  1.00  0.00     0.164 HD
ATOM      6  O   UNL     1      54.744  32.135  55.030  1.00  0.00    -0.273 OA
BRANCH   4   7
ATOM      7  C   UNL     1      56.990  30.941  53.557  1.00  0.00     0.175 C 
BRANCH   7   8
ATOM      8  C   UNL     1      57.651  32.292  53.647  1.00  0.00     0.243 C 
ATOM      9  N   UNL     1      58.865  32.421  54.403  1.00  0.00    -0.342 N 
ATOM     10  H   UNL     1      59.350  31.543  54.692  1.00  0.00     0.164 HD
ATOM     11  O   UNL     1      57.118  33.308  53.116  1.00  0.00    -0.273 OA
BRANCH   9  12
ATOM     12  C   UNL     1      59.440  33.727  54.748  1.00  0.00     0.174 CG0
ATOM     13  G   UNL     1      59.781  33.816  56.228  1.00  0.00     0.000 G0
BRANCH  12  14
ATOM     14  C   UNL     1      60.627  34.057  53.797  1.00  0.00     0.018 C 
ATOM     15  C   UNL     1      60.221  34.988  52.639  1.00  0.00     0.010 C 
BRANCH  14  16
ATOM     16  C   UNL     1      61.323  32.775  53.280  1.00  0.00     0.002 C 
ATOM     17  C   UNL     1      61.836  32.915  51.846  1.00  0.00     0.004 C 
ENDBRANCH  14  16
ENDBRANCH  12  14
ENDBRANCH   9  12
ENDBRANCH   7   8
BRANCH   7  18
ATOM     18  C   UNL     1      55.891  30.863  52.478  1.00  0.00     0.073 C 
BRANCH  18  19
ATOM     19  C   UNL     1      56.047  29.623  51.646  1.00  0.00    -0.016 A 
ATOM     20  C   UNL     1      55.184  28.531  51.635  1.00  0.00     0.134 A 
ATOM     21  C   UNL     1      57.156  29.238  50.913  1.00  0.00     0.006 A 
ATOM     22  N   UNL     1      55.716  27.534  50.897  1.00  0.00    -0.191 N 
ATOM     23  C   UNL     1      56.924  27.955  50.476  1.00  0.00     0.087 A 
ATOM     24  C   UNL     1      58.367  29.888  50.672  1.00  0.00     0.011 A 
ATOM     25  C   UNL     1      57.902  27.230  49.788  1.00  0.00     0.030 A 
ATOM     26  C   UNL     1      59.354  29.194  49.947  1.00  0.00     0.001 A 
ATOM     27  C   UNL     1      59.123  27.872  49.510  1.00  0.00     0.002 A 
BRANCH  22  28
ATOM     28  O   UNL     1      55.179  26.270  50.767  1.00  0.00    -0.417 OA
ATOM     29  C   UNL     1      54.483  25.882  49.588  1.00  0.00     0.313 C 
ENDBRANCH  22  28
ENDBRANCH  18  19
ENDBRANCH   7  18
ENDBRANCH   4   7
ENDBRANCH   2   3
BRANCH   2  30
ATOM     30  N   UNL     1      56.948  31.260  57.630  1.00  0.00    -0.343 N 
ATOM     31  C   UNL     1      57.755  32.431  57.872  1.00  0.00     0.243 C 
ATOM     32  H   UNL     1      57.396  30.322  57.608  1.00  0.00     0.164 HD
ATOM     33  O   UNL     1      57.223  33.575  57.807  1.00  0.00    -0.273 OA
BRANCH  31  34
ATOM     34  C   UNL     1      59.236  32.354  58.214  1.00  0.00     0.174 C 
ATOM     35  N   UNL     1      60.089  32.664  57.046  1.00  0.00    -0.329 N 
ATOM     36  C   UNL     1      59.648  30.994  58.818  1.00  0.00     0.035 C 
ATOM     37  C   UNL     1      61.442  32.086  56.968  1.00  0.00     0.120 C 
ATOM     38  C   UNL     1      61.124  30.986  59.252  1.00  0.00     0.004 C 
ATOM     39  C   UNL     1      62.023  31.873  58.371  1.00  0.00     0.022 C 
BRANCH  35  40
ATOM     40  C   UNL     1      59.804  33.819  56.232  1.00  0.00     0.246 CG0
ATOM     41  O   UNL     1      59.790  34.955  56.777  1.00  0.00    -0.272 OA
ATOM     42  G   UNL     1      59.430  33.701  54.763  1.00  0.00     0.000 G0
ENDBRANCH  35  40
ENDBRANCH  31  34
ENDBRANCH   2  30
ENDBRANCH   1   2
BRANCH   1  43
ATOM     43  C   UNL     1      55.335  28.905  57.982  1.00  0.00     0.003 C 
BRANCH  43  44
ATOM     44  C   UNL     1      55.488  28.586  59.479  1.00  0.00     0.001 C 
BRANCH  44  45
ATOM     45  C   UNL     1      56.933  28.223  59.861  1.00  0.00     0.008 C 
BRANCH  45  46
ATOM     46  C   UNL     1      57.008  27.486  61.209  1.00  0.00     0.075 C 
BRANCH  46  47
ATOM     47  C   UNL     1      58.210  26.580  61.358  1.00  0.00     0.132 C 
ATOM     48  O   UNL     1      58.921  26.639  62.352  1.00  0.00    -0.300 OA
BRANCH  47  49
ATOM     49  C   UNL     1      58.513  25.562  60.295  1.00  0.00     0.072 C 
ATOM     50  C   UNL     1      59.987  25.170  60.320  1.00  0.00     0.012 C 
ENDBRANCH  47  49
ENDBRANCH  46  47
ENDBRANCH  45  46
ENDBRANCH  44  45
ENDBRANCH  43  44
ENDBRANCH   1  43
TORSDOF 12
ENDMDL
