MODEL 1
REMARK VINA RESULT:    25.803      0.000      0.000
REMARK INTER + INTRA:          58.208
REMARK INTER:                  54.464
REMARK INTRA:                   3.744
REMARK UNBOUND:                 3.744
REMARK SMILES CCC(=O)CCCCC[C@H]1NC(=O)[C@@H]2CCCCN2C(=O)[C@@H]([C@@H](C)CC)NC(=O)[C@H](Cc2cn(OC)c3ccccc23)NC1=O
REMARK SMILES IDX 9 1 10 2 44 3 43 4 45 6 30 7 28 8 27 9 29 11 22 12 23 14
REMARK SMILES IDX 24 15 25 16 26 17 31 18 32 19 33 20 42 21 34 22 37 23 41 24
REMARK SMILES IDX 38 25 40 26 39 27 35 28 36 29 11 30 12 31 13 33 14 34 19 35
REMARK SMILES IDX 15 36 18 37 16 38 17 39 20 40 21 41 8 43 7 44 6 45 5 46 3 47
REMARK SMILES IDX 4 48 2 49 1 50
REMARK H PARENT 43 5 27 10 11 32
REMARK Flexibility Score: 80.00
ROOT
ATOM      1  C   UNL     1     -21.065   0.955  14.909  1.00  0.00     0.035 C 
ENDROOT
BRANCH   1   2
ATOM      2  C   UNL     1     -21.550   0.427  13.542  1.00  0.00     0.171 C 
BRANCH   2   3
ATOM      3  C   UNL     1     -20.857  -0.848  13.156  1.00  0.00     0.243 C 
ATOM      4  N   UNL     1     -21.554  -1.825  12.372  1.00  0.00    -0.342 N 
ATOM      5  H   UNL     1     -22.574  -1.691  12.191  1.00  0.00     0.164 HD
ATOM      6  O   UNL     1     -19.641  -1.017  13.449  1.00  0.00    -0.273 OA
BRANCH   4   7
ATOM      7  C   UNL     1     -20.882  -2.974  11.761  1.00  0.00     0.175 C 
BRANCH   7   8
ATOM      8  C   UNL     1     -20.250  -2.589  10.446  1.00  0.00     0.243 C 
ATOM      9  N   UNL     1     -21.033  -2.094   9.342  1.00  0.00    -0.342 N 
ATOM     10  H   UNL     1     -21.916  -2.607   9.123  1.00  0.00     0.164 HD
ATOM     11  O   UNL     1     -19.005  -2.730  10.320  1.00  0.00    -0.273 OA
BRANCH   9  12
ATOM     12  C   UNL     1     -20.788  -0.826   8.623  1.00  0.00     0.174 CG0
ATOM     13  G   UNL     1     -20.371   0.236   9.619  1.00  0.00     0.000 G0
BRANCH  12  14
ATOM     14  C   UNL     1     -19.788  -1.019   7.428  1.00  0.00     0.018 C 
ATOM     15  C   UNL     1     -19.855  -2.474   6.919  1.00  0.00     0.010 C 
BRANCH  14  16
ATOM     16  C   UNL     1     -20.048  -0.058   6.235  1.00  0.00     0.002 C 
ATOM     17  C   UNL     1     -21.540   0.190   5.990  1.00  0.00     0.004 C 
ENDBRANCH  14  16
ENDBRANCH  12  14
ENDBRANCH   9  12
ENDBRANCH   7   8
BRANCH   7  18
ATOM     18  C   UNL     1     -21.883  -4.135  11.595  1.00  0.00     0.073 C 
BRANCH  18  19
ATOM     19  C   UNL     1     -21.381  -5.102  10.559  1.00  0.00    -0.016 A 
ATOM     20  C   UNL     1     -20.135  -5.066   9.941  1.00  0.00     0.134 A 
ATOM     21  C   UNL     1     -22.132  -6.017   9.838  1.00  0.00     0.006 A 
ATOM     22  N   UNL     1     -20.113  -5.931   8.901  1.00  0.00    -0.191 N 
ATOM     23  C   UNL     1     -21.327  -6.497   8.838  1.00  0.00     0.087 A 
ATOM     24  C   UNL     1     -23.467  -6.408   9.954  1.00  0.00     0.011 A 
ATOM     25  C   UNL     1     -21.803  -7.393   7.878  1.00  0.00     0.030 A 
ATOM     26  C   UNL     1     -23.968  -7.323   9.011  1.00  0.00     0.001 A 
ATOM     27  C   UNL     1     -23.140  -7.814   7.977  1.00  0.00     0.002 A 
BRANCH  22  28
ATOM     28  O   UNL     1     -19.080  -6.152   8.006  1.00  0.00    -0.417 OA
ATOM     29  C   UNL     1     -18.116  -5.153   7.698  1.00  0.00     0.313 C 
ENDBRANCH  22  28
ENDBRANCH  18  19
ENDBRANCH   7  18
ENDBRANCH   4   7
ENDBRANCH   2   3
BRANCH   2  30
ATOM     30  N   UNL     1     -21.285   1.410  12.496  1.00  0.00    -0.343 N 
ATOM     31  C   UNL     1     -22.201   1.616  11.411  1.00  0.00     0.243 C 
ATOM     32  H   UNL     1     -20.310   1.780  12.398  1.00  0.00     0.164 HD
ATOM     33  O   UNL     1     -23.388   1.191  11.491  1.00  0.00    -0.273 OA
BRANCH  31  34
ATOM     34  C   UNL     1     -21.743   2.353  10.187  1.00  0.00     0.174 C 
ATOM     35  N   UNL     1     -20.672   1.665   9.448  1.00  0.00    -0.329 N 
ATOM     36  C   UNL     1     -22.880   2.683   9.211  1.00  0.00     0.035 C 
ATOM     37  C   UNL     1     -20.059   2.449   8.375  1.00  0.00     0.120 C 
ATOM     38  C   UNL     1     -22.333   3.574   8.082  1.00  0.00     0.004 C 
ATOM     39  C   UNL     1     -21.138   2.909   7.376  1.00  0.00     0.022 C 
BRANCH  35  40
ATOM     40  C   UNL     1     -20.369   0.259   9.592  1.00  0.00     0.246 CG0
ATOM     41  O   UNL     1     -19.750  -0.132  10.617  1.00  0.00    -0.272 OA
ATOM     42  G   UNL     1     -20.825  -0.759   8.568  1.00  0.00     0.000 G0
ENDBRANCH  35  40
ENDBRANCH  31  34
ENDBRANCH   2  30
ENDBRANCH   1   2
BRANCH   1  43
ATOM     43  C   UNL     1     -20.106   2.149  14.757  1.00  0.00     0.003 C 
BRANCH  43  44
ATOM     44  C   UNL     1     -20.851   3.481  14.577  1.00  0.00     0.001 C 
BRANCH  44  45
ATOM     45  C   UNL     1     -20.047   4.483  13.732  1.00  0.00     0.008 C 
BRANCH  45  46
ATOM     46  C   UNL     1     -20.000   4.096  12.247  1.00  0.00     0.075 C 
BRANCH  46  47
ATOM     47  C   UNL     1     -19.726   5.253  11.311  1.00  0.00     0.132 C 
ATOM     48  O   UNL     1     -18.676   5.877  11.373  1.00  0.00    -0.300 OA
BRANCH  47  49
ATOM     49  C   UNL     1     -20.765   5.658  10.299  1.00  0.00     0.072 C 
ATOM     50  C   UNL     1     -20.116   6.270   9.059  1.00  0.00     0.012 C 
ENDBRANCH  47  49
ENDBRANCH  46  47
ENDBRANCH  45  46
ENDBRANCH  44  45
ENDBRANCH  43  44
ENDBRANCH   1  43
TORSDOF 12
ENDMDL
MODEL 2
REMARK VINA RESULT:    27.382      1.779      8.319
REMARK INTER + INTRA:          61.542
REMARK INTER:                  57.544
REMARK INTRA:                   3.998
REMARK UNBOUND:                 3.744
REMARK SMILES CCC(=O)CCCCC[C@H]1NC(=O)[C@@H]2CCCCN2C(=O)[C@@H]([C@@H](C)CC)NC(=O)[C@H](Cc2cn(OC)c3ccccc23)NC1=O
REMARK SMILES IDX 9 1 10 2 44 3 43 4 45 6 30 7 28 8 27 9 29 11 22 12 23 14
REMARK SMILES IDX 24 15 25 16 26 17 31 18 32 19 33 20 42 21 34 22 37 23 41 24
REMARK SMILES IDX 38 25 40 26 39 27 35 28 36 29 11 30 12 31 13 33 14 34 19 35
REMARK SMILES IDX 15 36 18 37 16 38 17 39 20 40 21 41 8 43 7 44 6 45 5 46 3 47
REMARK SMILES IDX 4 48 2 49 1 50
REMARK H PARENT 43 5 27 10 11 32
REMARK Flexibility Score: 80.00
ROOT
ATOM      1  C   UNL     1     -21.487  -2.167  14.448  1.00  0.00     0.035 C 
ENDROOT
BRANCH   1   2
ATOM      2  C   UNL     1     -20.706  -1.419  13.346  1.00  0.00     0.171 C 
BRANCH   2   3
ATOM      3  C   UNL     1     -21.367  -0.124  12.970  1.00  0.00     0.243 C 
ATOM      4  N   UNL     1     -20.569   0.970  12.500  1.00  0.00    -0.342 N 
ATOM      5  H   UNL     1     -19.528   0.890  12.548  1.00  0.00     0.164 HD
ATOM      6  O   UNL     1     -22.626  -0.031  12.989  1.00  0.00    -0.273 OA
BRANCH   4   7
ATOM      7  C   UNL     1     -21.151   2.170  11.896  1.00  0.00     0.175 C 
BRANCH   7   8
ATOM      8  C   UNL     1     -21.240   2.028  10.397  1.00  0.00     0.243 C 
ATOM      9  N   UNL     1     -20.098   1.665   9.597  1.00  0.00    -0.342 N 
ATOM     10  H   UNL     1     -19.200   2.156   9.809  1.00  0.00     0.164 HD
ATOM     11  O   UNL     1     -22.348   2.257   9.842  1.00  0.00    -0.273 OA
BRANCH   9  12
ATOM     12  C   UNL     1     -20.048   0.538   8.642  1.00  0.00     0.174 CG0
ATOM     13  G   UNL     1     -20.754  -0.656   9.248  1.00  0.00     0.000 G0
BRANCH  12  14
ATOM     14  C   UNL     1     -20.579   0.954   7.225  1.00  0.00     0.018 C 
ATOM     15  C   UNL     1     -20.456   2.481   7.046  1.00  0.00     0.010 C 
BRANCH  14  16
ATOM     16  C   UNL     1     -19.844   0.251   6.051  1.00  0.00     0.002 C 
ATOM     17  C   UNL     1     -18.320   0.370   6.152  1.00  0.00     0.004 C 
ENDBRANCH  14  16
ENDBRANCH  12  14
ENDBRANCH   9  12
ENDBRANCH   7   8
BRANCH   7  18
ATOM     18  C   UNL     1     -20.328   3.409  12.303  1.00  0.00     0.073 C 
BRANCH  18  19
ATOM     19  C   UNL     1     -20.544   4.518  11.312  1.00  0.00    -0.016 A 
ATOM     20  C   UNL     1     -21.599   4.616  10.411  1.00  0.00     0.134 A 
ATOM     21  C   UNL     1     -19.625   5.480  10.922  1.00  0.00     0.006 A 
ATOM     22  N   UNL     1     -21.350   5.604   9.519  1.00  0.00    -0.191 N 
ATOM     23  C   UNL     1     -20.151   6.116   9.828  1.00  0.00     0.087 A 
ATOM     24  C   UNL     1     -18.355   5.793  11.410  1.00  0.00     0.011 A 
ATOM     25  C   UNL     1     -19.440   7.102   9.139  1.00  0.00     0.030 A 
ATOM     26  C   UNL     1     -17.623   6.793  10.745  1.00  0.00     0.001 A 
ATOM     27  C   UNL     1     -18.163   7.446   9.615  1.00  0.00     0.002 A 
BRANCH  22  28
ATOM     28  O   UNL     1     -22.127   5.980   8.436  1.00  0.00    -0.417 OA
ATOM     29  C   UNL     1     -22.636   5.037   7.502  1.00  0.00     0.313 C 
ENDBRANCH  22  28
ENDBRANCH  18  19
ENDBRANCH   7  18
ENDBRANCH   4   7
ENDBRANCH   2   3
BRANCH   2  30
ATOM     30  N   UNL     1     -20.619  -2.238  12.141  1.00  0.00    -0.343 N 
ATOM     31  C   UNL     1     -19.444  -2.240  11.319  1.00  0.00     0.243 C 
ATOM     32  H   UNL     1     -21.505  -2.627  11.741  1.00  0.00     0.164 HD
ATOM     33  O   UNL     1     -18.353  -1.786  11.766  1.00  0.00    -0.273 OA
BRANCH  31  34
ATOM     34  C   UNL     1     -19.517  -2.797   9.927  1.00  0.00     0.174 C 
ATOM     35  N   UNL     1     -20.363  -2.007   9.016  1.00  0.00    -0.329 N 
ATOM     36  C   UNL     1     -18.143  -2.994   9.275  1.00  0.00     0.035 C 
ATOM     37  C   UNL     1     -20.625  -2.630   7.719  1.00  0.00     0.120 C 
ATOM     38  C   UNL     1     -18.322  -3.715   7.927  1.00  0.00     0.004 C 
ATOM     39  C   UNL     1     -19.296  -2.953   7.011  1.00  0.00     0.022 C 
BRANCH  35  40
ATOM     40  C   UNL     1     -20.741  -0.632   9.259  1.00  0.00     0.246 CG0
ATOM     41  O   UNL     1     -21.664  -0.388  10.079  1.00  0.00    -0.272 OA
ATOM     42  G   UNL     1     -20.018   0.518   8.590  1.00  0.00     0.000 G0
ENDBRANCH  35  40
ENDBRANCH  31  34
ENDBRANCH   2  30
ENDBRANCH   1   2
BRANCH   1  43
ATOM     43  C   UNL     1     -21.242  -3.685  14.397  1.00  0.00     0.003 C 
BRANCH  43  44
ATOM     44  C   UNL     1     -22.227  -4.407  13.463  1.00  0.00     0.001 C 
BRANCH  44  45
ATOM     45  C   UNL     1     -21.595  -4.736  12.101  1.00  0.00     0.008 C 
BRANCH  45  46
ATOM     46  C   UNL     1     -22.315  -5.884  11.380  1.00  0.00     0.075 C 
BRANCH  46  47
ATOM     47  C   UNL     1     -21.844  -6.121   9.962  1.00  0.00     0.132 C 
ATOM     48  O   UNL     1     -22.579  -6.644   9.135  1.00  0.00    -0.300 OA
BRANCH  47  49
ATOM     49  C   UNL     1     -20.447  -5.726   9.561  1.00  0.00     0.072 C 
ATOM     50  C   UNL     1     -20.071  -6.332   8.211  1.00  0.00     0.012 C 
ENDBRANCH  47  49
ENDBRANCH  46  47
ENDBRANCH  45  46
ENDBRANCH  44  45
ENDBRANCH  43  44
ENDBRANCH   1  43
TORSDOF 12
ENDMDL
MODEL 3
REMARK VINA RESULT:    27.537      0.967      2.010
REMARK INTER + INTRA:          61.868
REMARK INTER:                  49.982
REMARK INTRA:                  11.886
REMARK UNBOUND:                 3.744
REMARK SMILES CCC(=O)CCCCC[C@H]1NC(=O)[C@@H]2CCCCN2C(=O)[C@@H]([C@@H](C)CC)NC(=O)[C@H](Cc2cn(OC)c3ccccc23)NC1=O
REMARK SMILES IDX 9 1 10 2 44 3 43 4 45 6 30 7 28 8 27 9 29 11 22 12 23 14
REMARK SMILES IDX 24 15 25 16 26 17 31 18 32 19 33 20 42 21 34 22 37 23 41 24
REMARK SMILES IDX 38 25 40 26 39 27 35 28 36 29 11 30 12 31 13 33 14 34 19 35
REMARK SMILES IDX 15 36 18 37 16 38 17 39 20 40 21 41 8 43 7 44 6 45 5 46 3 47
REMARK SMILES IDX 4 48 2 49 1 50
REMARK H PARENT 43 5 27 10 11 32
REMARK Flexibility Score: 80.00
ROOT
ATOM      1  C   UNL     1     -21.029   1.555  14.540  1.00  0.00     0.035 C 
ENDROOT
BRANCH   1   2
ATOM      2  C   UNL     1     -21.442   0.865  13.223  1.00  0.00     0.171 C 
BRANCH   2   3
ATOM      3  C   UNL     1     -20.621  -0.363  12.951  1.00  0.00     0.243 C 
ATOM      4  N   UNL     1     -21.187  -1.442  12.198  1.00  0.00    -0.342 N 
ATOM      5  H   UNL     1     -22.204  -1.411  11.960  1.00  0.00     0.164 HD
ATOM      6  O   UNL     1     -19.412  -0.404  13.312  1.00  0.00    -0.273 OA
BRANCH   4   7
ATOM      7  C   UNL     1     -20.385  -2.559  11.693  1.00  0.00     0.175 C 
BRANCH   7   8
ATOM      8  C   UNL     1     -20.033  -2.354  10.240  1.00  0.00     0.243 C 
ATOM      9  N   UNL     1     -21.008  -1.910   9.276  1.00  0.00    -0.342 N 
ATOM     10  H   UNL     1     -21.945  -2.372   9.306  1.00  0.00     0.164 HD
ATOM     11  O   UNL     1     -18.855  -2.603   9.873  1.00  0.00    -0.273 OA
BRANCH   9  12
ATOM     12  C   UNL     1     -20.855  -0.740   8.386  1.00  0.00     0.174 CG0
ATOM     13  G   UNL     1     -20.348   0.435   9.194  1.00  0.00     0.000 G0
BRANCH  12  14
ATOM     14  C   UNL     1     -19.986  -1.081   7.123  1.00  0.00     0.018 C 
ATOM     15  C   UNL     1     -20.268  -2.528   6.668  1.00  0.00     0.010 C 
BRANCH  14  16
ATOM     16  C   UNL     1     -20.223  -0.122   5.924  1.00  0.00     0.002 C 
ATOM     17  C   UNL     1     -21.701   0.234   5.736  1.00  0.00     0.004 C 
ENDBRANCH  14  16
ENDBRANCH  12  14
ENDBRANCH   9  12
ENDBRANCH   7   8
BRANCH   7  18
ATOM     18  C   UNL     1     -21.142  -3.885  11.915  1.00  0.00     0.073 C 
BRANCH  18  19
ATOM     19  C   UNL     1     -21.214  -4.657  10.627  1.00  0.00    -0.016 A 
ATOM     20  C   UNL     1     -22.219  -5.547  10.262  1.00  0.00     0.134 A 
ATOM     21  C   UNL     1     -20.196  -4.840   9.704  1.00  0.00     0.006 A 
ATOM     22  N   UNL     1     -21.844  -6.234   9.158  1.00  0.00    -0.191 N 
ATOM     23  C   UNL     1     -20.616  -5.808   8.830  1.00  0.00     0.087 A 
ATOM     24  C   UNL     1     -18.922  -4.274   9.614  1.00  0.00     0.011 A 
ATOM     25  C   UNL     1     -19.790  -6.286   7.810  1.00  0.00     0.030 A 
ATOM     26  C   UNL     1     -18.076  -4.724   8.585  1.00  0.00     0.001 A 
ATOM     27  C   UNL     1     -18.507  -5.726   7.686  1.00  0.00     0.002 A 
BRANCH  22  28
ATOM     28  O   UNL     1     -22.539  -7.244   8.514  1.00  0.00    -0.417 OA
ATOM     29  C   UNL     1     -23.957  -7.242   8.407  1.00  0.00     0.313 C 
ENDBRANCH  22  28
ENDBRANCH  18  19
ENDBRANCH   7  18
ENDBRANCH   4   7
ENDBRANCH   2   3
BRANCH   2  30
ATOM     30  N   UNL     1     -21.264   1.775  12.096  1.00  0.00    -0.343 N 
ATOM     31  C   UNL     1     -22.200   1.816  11.010  1.00  0.00     0.243 C 
ATOM     32  H   UNL     1     -20.323   2.214  11.956  1.00  0.00     0.164 HD
ATOM     33  O   UNL     1     -23.348   1.305  11.139  1.00  0.00    -0.273 OA
BRANCH  31  34
ATOM     34  C   UNL     1     -21.811   2.484   9.723  1.00  0.00     0.174 C 
ATOM     35  N   UNL     1     -20.739   1.785   8.994  1.00  0.00    -0.329 N 
ATOM     36  C   UNL     1     -22.991   2.705   8.768  1.00  0.00     0.035 C 
ATOM     37  C   UNL     1     -20.192   2.514   7.850  1.00  0.00     0.120 C 
ATOM     38  C   UNL     1     -22.515   3.535   7.562  1.00  0.00     0.004 C 
ATOM     39  C   UNL     1     -21.319   2.867   6.862  1.00  0.00     0.022 C 
BRANCH  35  40
ATOM     40  C   UNL     1     -20.380   0.402   9.222  1.00  0.00     0.246 CG0
ATOM     41  O   UNL     1     -19.644   0.116  10.202  1.00  0.00    -0.272 OA
ATOM     42  G   UNL     1     -20.910  -0.709   8.341  1.00  0.00     0.000 G0
ENDBRANCH  35  40
ENDBRANCH  31  34
ENDBRANCH   2  30
ENDBRANCH   1   2
BRANCH   1  43
ATOM     43  C   UNL     1     -20.750   3.056  14.340  1.00  0.00     0.003 C 
BRANCH  43  44
ATOM     44  C   UNL     1     -20.001   3.344  13.030  1.00  0.00     0.001 C 
BRANCH  44  45
ATOM     45  C   UNL     1     -20.509   4.621  12.343  1.00  0.00     0.008 C 
BRANCH  45  46
ATOM     46  C   UNL     1     -19.368   5.477  11.774  1.00  0.00     0.075 C 
BRANCH  46  47
ATOM     47  C   UNL     1     -19.645   6.050  10.401  1.00  0.00     0.132 C 
ATOM     48  O   UNL     1     -18.998   6.995   9.972  1.00  0.00    -0.300 OA
BRANCH  47  49
ATOM     49  C   UNL     1     -20.745   5.465   9.554  1.00  0.00     0.072 C 
ATOM     50  C   UNL     1     -21.931   6.423   9.455  1.00  0.00     0.012 C 
ENDBRANCH  47  49
ENDBRANCH  46  47
ENDBRANCH  45  46
ENDBRANCH  44  45
ENDBRANCH  43  44
ENDBRANCH   1  43
TORSDOF 12
ENDMDL
MODEL 4
REMARK VINA RESULT:    27.954      1.648      7.997
REMARK INTER + INTRA:          62.747
REMARK INTER:                  51.201
REMARK INTRA:                  11.546
REMARK UNBOUND:                 3.744
REMARK SMILES CCC(=O)CCCCC[C@H]1NC(=O)[C@@H]2CCCCN2C(=O)[C@@H]([C@@H](C)CC)NC(=O)[C@H](Cc2cn(OC)c3ccccc23)NC1=O
REMARK SMILES IDX 9 1 10 2 44 3 43 4 45 6 30 7 28 8 27 9 29 11 22 12 23 14
REMARK SMILES IDX 24 15 25 16 26 17 31 18 32 19 33 20 42 21 34 22 37 23 41 24
REMARK SMILES IDX 38 25 40 26 39 27 35 28 36 29 11 30 12 31 13 33 14 34 19 35
REMARK SMILES IDX 15 36 18 37 16 38 17 39 20 40 21 41 8 43 7 44 6 45 5 46 3 47
REMARK SMILES IDX 4 48 2 49 1 50
REMARK H PARENT 43 5 27 10 11 32
REMARK Flexibility Score: 80.00
ROOT
ATOM      1  C   UNL     1     -21.241  -2.385  14.454  1.00  0.00     0.035 C 
ENDROOT
BRANCH   1   2
ATOM      2  C   UNL     1     -20.590  -1.545  13.334  1.00  0.00     0.171 C 
BRANCH   2   3
ATOM      3  C   UNL     1     -21.373  -0.297  13.042  1.00  0.00     0.243 C 
ATOM      4  N   UNL     1     -20.695   0.870  12.561  1.00  0.00    -0.342 N 
ATOM      5  H   UNL     1     -19.650   0.874  12.544  1.00  0.00     0.164 HD
ATOM      6  O   UNL     1     -22.632  -0.307  13.139  1.00  0.00    -0.273 OA
BRANCH   4   7
ATOM      7  C   UNL     1     -21.406   2.037  12.034  1.00  0.00     0.175 C 
BRANCH   7   8
ATOM      8  C   UNL     1     -21.406   2.028  10.525  1.00  0.00     0.243 C 
ATOM      9  N   UNL     1     -20.223   1.711   9.766  1.00  0.00    -0.342 N 
ATOM     10  H   UNL     1     -19.332   2.161  10.073  1.00  0.00     0.164 HD
ATOM     11  O   UNL     1     -22.474   2.330   9.929  1.00  0.00    -0.273 OA
BRANCH   9  12
ATOM     12  C   UNL     1     -20.135   0.672   8.719  1.00  0.00     0.174 CG0
ATOM     13  G   UNL     1     -20.804  -0.591   9.218  1.00  0.00     0.000 G0
BRANCH  12  14
ATOM     14  C   UNL     1     -20.676   1.189   7.339  1.00  0.00     0.018 C 
ATOM     15  C   UNL     1     -20.245   2.655   7.123  1.00  0.00     0.010 C 
BRANCH  14  16
ATOM     16  C   UNL     1     -20.202   0.343   6.125  1.00  0.00     0.002 C 
ATOM     17  C   UNL     1     -18.692   0.087   6.137  1.00  0.00     0.004 C 
ENDBRANCH  14  16
ENDBRANCH  12  14
ENDBRANCH   9  12
ENDBRANCH   7   8
BRANCH   7  18
ATOM     18  C   UNL     1     -20.778   3.328  12.597  1.00  0.00     0.073 C 
BRANCH  18  19
ATOM     19  C   UNL     1     -20.375   4.237  11.470  1.00  0.00    -0.016 A 
ATOM     20  C   UNL     1     -19.304   5.124  11.477  1.00  0.00     0.134 A 
ATOM     21  C   UNL     1     -21.126   4.563  10.351  1.00  0.00     0.006 A 
ATOM     22  N   UNL     1     -19.381   5.945  10.404  1.00  0.00    -0.191 N 
ATOM     23  C   UNL     1     -20.490   5.607   9.731  1.00  0.00     0.087 A 
ATOM     24  C   UNL     1     -22.340   4.060   9.877  1.00  0.00     0.011 A 
ATOM     25  C   UNL     1     -21.027   6.228   8.602  1.00  0.00     0.030 A 
ATOM     26  C   UNL     1     -22.895   4.656   8.731  1.00  0.00     0.001 A 
ATOM     27  C   UNL     1     -22.242   5.735   8.095  1.00  0.00     0.002 A 
BRANCH  22  28
ATOM     28  O   UNL     1     -18.537   6.995  10.080  1.00  0.00    -0.417 OA
ATOM     29  C   UNL     1     -17.161   7.001  10.438  1.00  0.00     0.313 C 
ENDBRANCH  22  28
ENDBRANCH  18  19
ENDBRANCH   7  18
ENDBRANCH   4   7
ENDBRANCH   2   3
BRANCH   2  30
ATOM     30  N   UNL     1     -20.512  -2.319  12.099  1.00  0.00    -0.343 N 
ATOM     31  C   UNL     1     -19.418  -2.162  11.184  1.00  0.00     0.243 C 
ATOM     32  H   UNL     1     -21.378  -2.798  11.758  1.00  0.00     0.164 HD
ATOM     33  O   UNL     1     -18.353  -1.595  11.557  1.00  0.00    -0.273 OA
BRANCH  31  34
ATOM     34  C   UNL     1     -19.544  -2.690   9.784  1.00  0.00     0.174 C 
ATOM     35  N   UNL     1     -20.451  -1.901   8.934  1.00  0.00    -0.329 N 
ATOM     36  C   UNL     1     -18.198  -2.838   9.064  1.00  0.00     0.035 C 
ATOM     37  C   UNL     1     -20.759  -2.501   7.636  1.00  0.00     0.120 C 
ATOM     38  C   UNL     1     -18.425  -3.534   7.710  1.00  0.00     0.004 C 
ATOM     39  C   UNL     1     -19.458  -2.775   6.859  1.00  0.00     0.022 C 
BRANCH  35  40
ATOM     40  C   UNL     1     -20.849  -0.541   9.226  1.00  0.00     0.246 CG0
ATOM     41  O   UNL     1     -21.845  -0.343   9.970  1.00  0.00    -0.272 OA
ATOM     42  G   UNL     1     -20.066   0.643   8.701  1.00  0.00     0.000 G0
ENDBRANCH  35  40
ENDBRANCH  31  34
ENDBRANCH   2  30
ENDBRANCH   1   2
BRANCH   1  43
ATOM     43  C   UNL     1     -21.603  -3.802  13.972  1.00  0.00     0.003 C 
BRANCH  43  44
ATOM     44  C   UNL     1     -21.746  -3.883  12.444  1.00  0.00     0.001 C 
BRANCH  44  45
ATOM     45  C   UNL     1     -21.806  -5.336  11.946  1.00  0.00     0.008 C 
BRANCH  45  46
ATOM     46  C   UNL     1     -20.906  -5.578  10.727  1.00  0.00     0.075 C 
BRANCH  46  47
ATOM     47  C   UNL     1     -21.635  -6.108   9.511  1.00  0.00     0.132 C 
ATOM     48  O   UNL     1     -22.795  -6.490   9.589  1.00  0.00    -0.300 OA
BRANCH  47  49
ATOM     49  C   UNL     1     -20.921  -6.187   8.187  1.00  0.00     0.072 C 
ATOM     50  C   UNL     1     -19.406  -6.126   8.374  1.00  0.00     0.012 C 
ENDBRANCH  47  49
ENDBRANCH  46  47
ENDBRANCH  45  46
ENDBRANCH  44  45
ENDBRANCH  43  44
ENDBRANCH   1  43
TORSDOF 12
ENDMDL
