MODEL 1
REMARK VINA RESULT:     9.179      0.000      0.000
REMARK INTER + INTRA:          12.483
REMARK INTER:                  12.667
REMARK INTRA:                  -0.184
REMARK UNBOUND:                -0.184
REMARK SMILES CC[C@@H](CC[C@H](C)[C@@H]1CC[C@H]2[C@H]3CC=C4C[C@H](O)CC[C@]4(C)[C@@H]3CC[C@@]21C)C(C)C
REMARK SMILES IDX 5 1 4 2 3 3 2 4 1 5 28 6 29 7 30 8 6 9 7 10 8 11 9 12 26 13
REMARK SMILES IDX 10 14 11 15 25 16 27 17 12 18 24 19 23 20 13 21 21 22 14 23
REMARK SMILES IDX 15 24 20 25 22 26 16 27 19 28 17 29 18 30
REMARK H PARENT 18 31
REMARK Flexibility Score: inf
ROOT
ATOM      1  C   UNL     1      72.167  34.262  53.607  1.00  0.00     0.004 C 
ENDROOT
BRANCH   1   2
ATOM      2  C   UNL     1      72.680  34.680  55.014  1.00  0.00     0.004 C 
BRANCH   2   3
ATOM      3  C   UNL     1      71.916  33.977  56.172  1.00  0.00    -0.009 C 
BRANCH   3   4
ATOM      4  C   UNL     1      71.184  35.029  57.053  1.00  0.00     0.000 C 
ATOM      5  C   UNL     1      69.659  34.907  56.988  1.00  0.00     0.004 C 
ENDBRANCH   3   4
BRANCH   3   6
ATOM      6  C   UNL     1      72.835  33.034  57.019  1.00  0.00    -0.014 C 
ATOM      7  C   UNL     1      74.183  32.780  56.321  1.00  0.00     0.007 C 
ATOM      8  C   UNL     1      73.070  33.522  58.460  1.00  0.00     0.007 C 
ENDBRANCH   3   6
ENDBRANCH   2   3
ENDBRANCH   1   2
BRANCH   1   9
ATOM      9  C   UNL     1      73.233  34.100  52.474  1.00  0.00    -0.011 C 
ATOM     10  C   UNL     1      73.888  32.704  52.462  1.00  0.00     0.008 C 
BRANCH   9  11
ATOM     11  C   UNL     1      74.309  35.236  52.343  1.00  0.00    -0.002 C 
ATOM     12  C   UNL     1      74.269  36.025  51.003  1.00  0.00     0.005 C 
ATOM     13  C   UNL     1      75.832  34.885  52.583  1.00  0.00    -0.026 C 
ATOM     14  C   UNL     1      75.706  36.121  50.481  1.00  0.00     0.005 C 
ATOM     15  C   UNL     1      76.396  34.951  51.153  1.00  0.00    -0.001 C 
ATOM     16  C   UNL     1      76.204  33.487  53.212  1.00  0.00     0.007 C 
ATOM     17  C   UNL     1      76.400  36.022  53.500  1.00  0.00     0.012 C 
ATOM     18  C   UNL     1      77.929  34.758  51.001  1.00  0.00     0.000 C 
ATOM     19  C   UNL     1      77.471  32.816  52.594  1.00  0.00     0.005 C 
ATOM     20  C   UNL     1      78.518  33.857  52.119  1.00  0.00     0.003 C 
ATOM     21  C   UNL     1      78.793  36.017  50.908  1.00  0.00     0.031 C 
ATOM     22  C   UNL     1      79.934  33.310  51.706  1.00  0.00    -0.008 C 
ATOM     23  C   UNL     1      80.223  35.614  50.629  1.00  0.00    -0.027 C 
ATOM     24  C   UNL     1      80.738  34.399  50.960  1.00  0.00    -0.065 C 
ATOM     25  C   UNL     1      79.819  32.065  50.775  1.00  0.00     0.014 C 
ATOM     26  C   UNL     1      80.705  32.924  52.998  1.00  0.00     0.016 C 
ATOM     27  C   UNL     1      82.076  33.994  50.379  1.00  0.00     0.063 C 
ATOM     28  C   UNL     1      81.165  31.634  50.153  1.00  0.00     0.033 C 
ATOM     29  C   UNL     1      81.884  32.793  49.437  1.00  0.00     0.118 C 
BRANCH  29  30
ATOM     30  O   UNL     1      81.144  33.171  48.303  1.00  0.00    -0.393 OA
ATOM     31  H   UNL     1      80.477  32.453  48.145  1.00  0.00     0.210 HD
ENDBRANCH  29  30
ENDBRANCH   9  11
ENDBRANCH   1   9
TORSDOF 7
ENDMDL
MODEL 2
REMARK VINA RESULT:    10.073     13.983     16.712
REMARK INTER + INTRA:          13.716
REMARK INTER:                  10.482
REMARK INTRA:                   3.234
REMARK UNBOUND:                -0.184
REMARK SMILES CC[C@@H](CC[C@H](C)[C@@H]1CC[C@H]2[C@H]3CC=C4C[C@H](O)CC[C@]4(C)[C@@H]3CC[C@@]21C)C(C)C
REMARK SMILES IDX 5 1 4 2 3 3 2 4 1 5 28 6 29 7 30 8 6 9 7 10 8 11 9 12 26 13
REMARK SMILES IDX 10 14 11 15 25 16 27 17 12 18 24 19 23 20 13 21 21 22 14 23
REMARK SMILES IDX 15 24 20 25 22 26 16 27 19 28 17 29 18 30
REMARK H PARENT 18 31
REMARK Flexibility Score: inf
ROOT
ATOM      1  C   UNL     1      84.744  32.867  63.957  1.00  0.00     0.004 C 
ENDROOT
BRANCH   1   2
ATOM      2  C   UNL     1      83.487  32.823  64.871  1.00  0.00     0.004 C 
BRANCH   2   3
ATOM      3  C   UNL     1      83.479  31.601  65.833  1.00  0.00    -0.009 C 
BRANCH   3   4
ATOM      4  C   UNL     1      82.432  30.551  65.363  1.00  0.00     0.000 C 
ATOM      5  C   UNL     1      82.361  30.418  63.839  1.00  0.00     0.004 C 
ENDBRANCH   3   4
BRANCH   3   6
ATOM      6  C   UNL     1      83.273  32.011  67.330  1.00  0.00    -0.014 C 
ATOM      7  C   UNL     1      82.464  30.954  68.101  1.00  0.00     0.007 C 
ATOM      8  C   UNL     1      84.583  32.323  68.076  1.00  0.00     0.007 C 
ENDBRANCH   3   6
ENDBRANCH   2   3
ENDBRANCH   1   2
BRANCH   1   9
ATOM      9  C   UNL     1      86.005  33.610  64.506  1.00  0.00    -0.011 C 
ATOM     10  C   UNL     1      86.707  34.473  63.439  1.00  0.00     0.008 C 
BRANCH   9  11
ATOM     11  C   UNL     1      87.041  32.749  65.315  1.00  0.00    -0.002 C 
ATOM     12  C   UNL     1      88.517  32.886  64.842  1.00  0.00     0.005 C 
ATOM     13  C   UNL     1      86.791  31.197  65.479  1.00  0.00    -0.026 C 
ATOM     14  C   UNL     1      89.097  31.473  64.726  1.00  0.00     0.005 C 
ATOM     15  C   UNL     1      87.866  30.608  64.550  1.00  0.00    -0.001 C 
ATOM     16  C   UNL     1      85.387  30.603  65.073  1.00  0.00     0.007 C 
ATOM     17  C   UNL     1      87.064  30.871  66.987  1.00  0.00     0.012 C 
ATOM     18  C   UNL     1      87.996  29.060  64.529  1.00  0.00     0.000 C 
ATOM     19  C   UNL     1      85.453  29.217  64.357  1.00  0.00     0.005 C 
ATOM     20  C   UNL     1      86.649  28.358  64.844  1.00  0.00     0.003 C 
ATOM     21  C   UNL     1      89.073  28.432  65.417  1.00  0.00     0.031 C 
ATOM     22  C   UNL     1      86.684  26.854  64.383  1.00  0.00    -0.008 C 
ATOM     23  C   UNL     1      89.124  26.945  65.150  1.00  0.00    -0.027 C 
ATOM     24  C   UNL     1      88.071  26.233  64.666  1.00  0.00    -0.065 C 
ATOM     25  C   UNL     1      86.390  26.716  62.857  1.00  0.00     0.014 C 
ATOM     26  C   UNL     1      85.615  26.069  65.191  1.00  0.00     0.016 C 
ATOM     27  C   UNL     1      88.313  24.826  64.163  1.00  0.00     0.063 C 
ATOM     28  C   UNL     1      86.644  25.295  62.308  1.00  0.00     0.033 C 
ATOM     29  C   UNL     1      88.051  24.771  62.648  1.00  0.00     0.118 C 
BRANCH  29  30
ATOM     30  O   UNL     1      89.011  25.529  61.955  1.00  0.00    -0.393 OA
ATOM     31  H   UNL     1      89.116  26.382  62.453  1.00  0.00     0.210 HD
ENDBRANCH  29  30
ENDBRANCH   9  11
ENDBRANCH   1   9
TORSDOF 7
ENDMDL
MODEL 3
REMARK VINA RESULT:    10.447      1.594      2.994
REMARK INTER + INTRA:          14.233
REMARK INTER:                  14.860
REMARK INTRA:                  -0.627
REMARK UNBOUND:                -0.184
REMARK SMILES CC[C@@H](CC[C@H](C)[C@@H]1CC[C@H]2[C@H]3CC=C4C[C@H](O)CC[C@]4(C)[C@@H]3CC[C@@]21C)C(C)C
REMARK SMILES IDX 5 1 4 2 3 3 2 4 1 5 28 6 29 7 30 8 6 9 7 10 8 11 9 12 26 13
REMARK SMILES IDX 10 14 11 15 25 16 27 17 12 18 24 19 23 20 13 21 21 22 14 23
REMARK SMILES IDX 15 24 20 25 22 26 16 27 19 28 17 29 18 30
REMARK H PARENT 18 31
REMARK Flexibility Score: inf
ROOT
ATOM      1  C   UNL     1      73.696  35.580  54.934  1.00  0.00     0.004 C 
ENDROOT
BRANCH   1   2
ATOM      2  C   UNL     1      72.635  35.704  56.064  1.00  0.00     0.004 C 
BRANCH   2   3
ATOM      3  C   UNL     1      72.157  34.325  56.602  1.00  0.00    -0.009 C 
BRANCH   3   4
ATOM      4  C   UNL     1      70.797  34.476  57.340  1.00  0.00     0.000 C 
ATOM      5  C   UNL     1      69.604  34.569  56.384  1.00  0.00     0.004 C 
ENDBRANCH   3   4
BRANCH   3   6
ATOM      6  C   UNL     1      73.235  33.614  57.488  1.00  0.00    -0.014 C 
ATOM      7  C   UNL     1      72.702  33.318  58.900  1.00  0.00     0.007 C 
ATOM      8  C   UNL     1      73.811  32.332  56.860  1.00  0.00     0.007 C 
ENDBRANCH   3   6
ENDBRANCH   2   3
ENDBRANCH   1   2
BRANCH   1   9
ATOM      9  C   UNL     1      73.224  34.982  53.569  1.00  0.00    -0.011 C 
ATOM     10  C   UNL     1      71.704  34.728  53.518  1.00  0.00     0.008 C 
BRANCH   9  11
ATOM     11  C   UNL     1      74.027  33.750  53.017  1.00  0.00    -0.002 C 
ATOM     12  C   UNL     1      74.419  32.692  54.087  1.00  0.00     0.005 C 
ATOM     13  C   UNL     1      75.337  34.002  52.169  1.00  0.00    -0.026 C 
ATOM     14  C   UNL     1      75.897  32.350  53.877  1.00  0.00     0.005 C 
ATOM     15  C   UNL     1      76.435  33.569  53.156  1.00  0.00    -0.001 C 
ATOM     16  C   UNL     1      75.652  35.463  51.667  1.00  0.00     0.007 C 
ATOM     17  C   UNL     1      75.242  33.048  50.930  1.00  0.00     0.012 C 
ATOM     18  C   UNL     1      77.893  33.581  52.623  1.00  0.00     0.000 C 
ATOM     19  C   UNL     1      77.160  35.860  51.737  1.00  0.00     0.005 C 
ATOM     20  C   UNL     1      78.101  34.648  51.516  1.00  0.00     0.003 C 
ATOM     21  C   UNL     1      78.469  32.257  52.116  1.00  0.00     0.031 C 
ATOM     22  C   UNL     1      79.632  34.955  51.319  1.00  0.00    -0.008 C 
ATOM     23  C   UNL     1      79.928  32.454  51.773  1.00  0.00    -0.027 C 
ATOM     24  C   UNL     1      80.464  33.659  51.438  1.00  0.00    -0.065 C 
ATOM     25  C   UNL     1      80.154  35.970  52.383  1.00  0.00     0.014 C 
ATOM     26  C   UNL     1      79.833  35.544  49.896  1.00  0.00     0.016 C 
ATOM     27  C   UNL     1      81.971  33.799  51.403  1.00  0.00     0.063 C 
ATOM     28  C   UNL     1      81.690  36.125  52.383  1.00  0.00     0.033 C 
ATOM     29  C   UNL     1      82.422  34.775  52.503  1.00  0.00     0.118 C 
BRANCH  29  30
ATOM     30  O   UNL     1      82.182  34.227  53.775  1.00  0.00    -0.393 OA
ATOM     31  H   UNL     1      81.261  34.496  54.034  1.00  0.00     0.210 HD
ENDBRANCH  29  30
ENDBRANCH   9  11
ENDBRANCH   1   9
TORSDOF 7
ENDMDL
MODEL 4
REMARK VINA RESULT:    10.739      2.656      8.441
REMARK INTER + INTRA:          14.636
REMARK INTER:                  12.308
REMARK INTRA:                   2.328
REMARK UNBOUND:                -0.184
REMARK SMILES CC[C@@H](CC[C@H](C)[C@@H]1CC[C@H]2[C@H]3CC=C4C[C@H](O)CC[C@]4(C)[C@@H]3CC[C@@]21C)C(C)C
REMARK SMILES IDX 5 1 4 2 3 3 2 4 1 5 28 6 29 7 30 8 6 9 7 10 8 11 9 12 26 13
REMARK SMILES IDX 10 14 11 15 25 16 27 17 12 18 24 19 23 20 13 21 21 22 14 23
REMARK SMILES IDX 15 24 20 25 22 26 16 27 19 28 17 29 18 30
REMARK H PARENT 18 31
REMARK Flexibility Score: inf
ROOT
ATOM      1  C   UNL     1      80.912  34.553  52.287  1.00  0.00     0.004 C 
ENDROOT
BRANCH   1   2
ATOM      2  C   UNL     1      80.835  35.748  51.295  1.00  0.00     0.004 C 
BRANCH   2   3
ATOM      3  C   UNL     1      81.158  35.343  49.829  1.00  0.00    -0.009 C 
BRANCH   3   4
ATOM      4  C   UNL     1      80.163  36.029  48.849  1.00  0.00     0.000 C 
ATOM      5  C   UNL     1      78.736  36.105  49.401  1.00  0.00     0.004 C 
ENDBRANCH   3   4
BRANCH   3   6
ATOM      6  C   UNL     1      81.211  33.791  49.628  1.00  0.00    -0.014 C 
ATOM      7  C   UNL     1      81.219  33.414  48.136  1.00  0.00     0.007 C 
ATOM      8  C   UNL     1      82.386  33.109  50.352  1.00  0.00     0.007 C 
ENDBRANCH   3   6
ENDBRANCH   2   3
ENDBRANCH   1   2
BRANCH   1   9
ATOM      9  C   UNL     1      79.595  33.751  52.547  1.00  0.00    -0.011 C 
ATOM     10  C   UNL     1      79.765  32.233  52.342  1.00  0.00     0.008 C 
BRANCH   9  11
ATOM     11  C   UNL     1      78.292  34.278  51.845  1.00  0.00    -0.002 C 
ATOM     12  C   UNL     1      78.121  35.824  51.857  1.00  0.00     0.005 C 
ATOM     13  C   UNL     1      76.890  33.693  52.284  1.00  0.00    -0.026 C 
ATOM     14  C   UNL     1      76.684  36.125  52.293  1.00  0.00     0.005 C 
ATOM     15  C   UNL     1      76.286  34.878  53.056  1.00  0.00    -0.001 C 
ATOM     16  C   UNL     1      76.852  32.413  53.205  1.00  0.00     0.007 C 
ATOM     17  C   UNL     1      76.113  33.388  50.958  1.00  0.00     0.012 C 
ATOM     18  C   UNL     1      74.828  34.706  53.565  1.00  0.00     0.000 C 
ATOM     19  C   UNL     1      75.746  32.442  54.307  1.00  0.00     0.005 C 
ATOM     20  C   UNL     1      74.484  33.221  53.855  1.00  0.00     0.003 C 
ATOM     21  C   UNL     1      73.707  35.289  52.702  1.00  0.00     0.031 C 
ATOM     22  C   UNL     1      73.210  33.115  54.774  1.00  0.00    -0.008 C 
ATOM     23  C   UNL     1      72.393  35.137  53.433  1.00  0.00    -0.027 C 
ATOM     24  C   UNL     1      72.167  34.184  54.378  1.00  0.00    -0.065 C 
ATOM     25  C   UNL     1      73.570  33.318  56.278  1.00  0.00     0.014 C 
ATOM     26  C   UNL     1      72.579  31.710  54.574  1.00  0.00     0.016 C 
ATOM     27  C   UNL     1      70.935  34.303  55.249  1.00  0.00     0.063 C 
ATOM     28  C   UNL     1      72.334  33.458  57.193  1.00  0.00     0.033 C 
ATOM     29  C   UNL     1      71.359  34.547  56.708  1.00  0.00     0.118 C 
BRANCH  29  30
ATOM     30  O   UNL     1      71.965  35.808  56.839  1.00  0.00    -0.393 OA
ATOM     31  H   UNL     1      71.483  36.422  56.226  1.00  0.00     0.210 HD
ENDBRANCH  29  30
ENDBRANCH   9  11
ENDBRANCH   1   9
TORSDOF 7
ENDMDL
MODEL 5
REMARK VINA RESULT:    11.895      2.627      8.536
REMARK INTER + INTRA:          16.231
REMARK INTER:                  15.570
REMARK INTRA:                   0.661
REMARK UNBOUND:                -0.184
REMARK SMILES CC[C@@H](CC[C@H](C)[C@@H]1CC[C@H]2[C@H]3CC=C4C[C@H](O)CC[C@]4(C)[C@@H]3CC[C@@]21C)C(C)C
REMARK SMILES IDX 5 1 4 2 3 3 2 4 1 5 28 6 29 7 30 8 6 9 7 10 8 11 9 12 26 13
REMARK SMILES IDX 10 14 11 15 25 16 27 17 12 18 24 19 23 20 13 21 21 22 14 23
REMARK SMILES IDX 15 24 20 25 22 26 16 27 19 28 17 29 18 30
REMARK H PARENT 18 31
REMARK Flexibility Score: inf
ROOT
ATOM      1  C   UNL     1      81.297  34.382  52.589  1.00  0.00     0.004 C 
ENDROOT
BRANCH   1   2
ATOM      2  C   UNL     1      81.725  34.844  51.167  1.00  0.00     0.004 C 
BRANCH   2   3
ATOM      3  C   UNL     1      80.937  34.130  50.033  1.00  0.00    -0.009 C 
BRANCH   3   4
ATOM      4  C   UNL     1      81.753  32.924  49.486  1.00  0.00     0.000 C 
ATOM      5  C   UNL     1      80.876  31.719  49.134  1.00  0.00     0.004 C 
ENDBRANCH   3   4
BRANCH   3   6
ATOM      6  C   UNL     1      80.493  35.109  48.895  1.00  0.00    -0.014 C 
ATOM      7  C   UNL     1      79.190  35.844  49.256  1.00  0.00     0.007 C 
ATOM      8  C   UNL     1      81.577  36.123  48.487  1.00  0.00     0.007 C 
ENDBRANCH   3   6
ENDBRANCH   2   3
ENDBRANCH   1   2
BRANCH   1   9
ATOM      9  C   UNL     1      79.940  33.617  52.716  1.00  0.00    -0.011 C 
ATOM     10  C   UNL     1      80.070  32.109  52.424  1.00  0.00     0.008 C 
BRANCH   9  11
ATOM     11  C   UNL     1      78.702  34.236  51.973  1.00  0.00    -0.002 C 
ATOM     12  C   UNL     1      78.592  35.785  52.062  1.00  0.00     0.005 C 
ATOM     13  C   UNL     1      77.255  33.689  52.298  1.00  0.00    -0.026 C 
ATOM     14  C   UNL     1      77.145  36.124  52.433  1.00  0.00     0.005 C 
ATOM     15  C   UNL     1      76.654  34.855  53.100  1.00  0.00    -0.001 C 
ATOM     16  C   UNL     1      77.112  32.364  53.142  1.00  0.00     0.007 C 
ATOM     17  C   UNL     1      76.546  33.489  50.915  1.00  0.00     0.012 C 
ATOM     18  C   UNL     1      75.163  34.719  53.515  1.00  0.00     0.000 C 
ATOM     19  C   UNL     1      75.945  32.381  54.179  1.00  0.00     0.005 C 
ATOM     20  C   UNL     1      74.743  33.237  53.701  1.00  0.00     0.003 C 
ATOM     21  C   UNL     1      74.119  35.396  52.624  1.00  0.00     0.031 C 
ATOM     22  C   UNL     1      73.415  33.136  54.539  1.00  0.00    -0.008 C 
ATOM     23  C   UNL     1      72.759  35.260  53.270  1.00  0.00    -0.027 C 
ATOM     24  C   UNL     1      72.440  34.269  54.145  1.00  0.00    -0.065 C 
ATOM     25  C   UNL     1      73.693  33.242  56.070  1.00  0.00     0.014 C 
ATOM     26  C   UNL     1      72.741  31.772  54.225  1.00  0.00     0.016 C 
ATOM     27  C   UNL     1      71.164  34.393  54.951  1.00  0.00     0.063 C 
ATOM     28  C   UNL     1      72.411  33.385  56.920  1.00  0.00     0.033 C 
ATOM     29  C   UNL     1      71.511  34.539  56.442  1.00  0.00     0.118 C 
BRANCH  29  30
ATOM     30  O   UNL     1      72.158  35.765  56.678  1.00  0.00    -0.393 OA
ATOM     31  H   UNL     1      73.074  35.681  56.304  1.00  0.00     0.210 HD
ENDBRANCH  29  30
ENDBRANCH   9  11
ENDBRANCH   1   9
TORSDOF 7
ENDMDL
