MODEL 1
REMARK VINA RESULT:    -5.859      0.000      0.000
REMARK INTER + INTRA:          -9.130
REMARK INTER:                  -8.085
REMARK INTRA:                  -1.045
REMARK UNBOUND:                -1.045
REMARK SMILES CC[C@@H](CC[C@H](C)[C@H]1CC[C@@H]2[C@@H]3CC=C4C[C@@H](O)CC[C@@]4(C)[C@H]3CC[C@@]21C)C(C)C
REMARK SMILES IDX 5 1 4 2 3 3 2 4 1 5 28 6 29 7 30 8 6 9 7 10 8 11 9 12 26 13
REMARK SMILES IDX 10 14 11 15 25 16 27 17 12 18 24 19 23 20 13 21 21 22 14 23
REMARK SMILES IDX 15 24 20 25 22 26 16 27 19 28 17 29 18 30
REMARK H PARENT 18 31
REMARK Flexibility Score: inf
ROOT
ATOM      1  C   UNL     1     -17.841  25.415  -8.662  1.00  0.00     0.004 C 
ENDROOT
BRANCH   1   2
ATOM      2  C   UNL     1     -16.863  24.569  -7.805  1.00  0.00     0.004 C 
BRANCH   2   3
ATOM      3  C   UNL     1     -16.186  23.407  -8.591  1.00  0.00    -0.009 C 
BRANCH   3   4
ATOM      4  C   UNL     1     -16.733  22.029  -8.134  1.00  0.00     0.000 C 
ATOM      5  C   UNL     1     -18.221  21.845  -8.445  1.00  0.00     0.004 C 
ENDBRANCH   3   4
BRANCH   3   6
ATOM      6  C   UNL     1     -14.623  23.496  -8.505  1.00  0.00    -0.014 C 
ATOM      7  C   UNL     1     -14.112  24.798  -7.863  1.00  0.00     0.007 C 
ATOM      8  C   UNL     1     -14.025  22.284  -7.773  1.00  0.00     0.007 C 
ENDBRANCH   3   6
ENDBRANCH   2   3
ENDBRANCH   1   2
BRANCH   1   9
ATOM      9  C   UNL     1     -19.239  25.612  -8.005  1.00  0.00    -0.011 C 
ATOM     10  C   UNL     1     -20.294  24.751  -8.735  1.00  0.00     0.008 C 
BRANCH   9  11
ATOM     11  C   UNL     1     -19.593  27.145  -7.907  1.00  0.00    -0.002 C 
ATOM     12  C   UNL     1     -21.051  27.454  -8.313  1.00  0.00     0.005 C 
ATOM     13  C   UNL     1     -19.381  27.875  -6.533  1.00  0.00    -0.026 C 
ATOM     14  C   UNL     1     -21.747  28.076  -7.103  1.00  0.00     0.005 C 
ATOM     15  C   UNL     1     -20.797  27.890  -5.914  1.00  0.00    -0.001 C 
ATOM     16  C   UNL     1     -18.919  29.342  -6.820  1.00  0.00     0.007 C 
ATOM     17  C   UNL     1     -18.338  27.196  -5.603  1.00  0.00     0.012 C 
ATOM     18  C   UNL     1     -20.984  28.906  -4.747  1.00  0.00     0.000 C 
ATOM     19  C   UNL     1     -19.023  30.266  -5.605  1.00  0.00     0.005 C 
ATOM     20  C   UNL     1     -20.464  30.328  -5.056  1.00  0.00     0.003 C 
ATOM     21  C   UNL     1     -22.456  29.016  -4.332  1.00  0.00     0.031 C 
ATOM     22  C   UNL     1     -20.684  31.348  -3.840  1.00  0.00    -0.008 C 
ATOM     23  C   UNL     1     -22.542  29.801  -3.065  1.00  0.00    -0.027 C 
ATOM     24  C   UNL     1     -21.710  30.828  -2.803  1.00  0.00    -0.065 C 
ATOM     25  C   UNL     1     -19.364  31.631  -3.060  1.00  0.00     0.014 C 
ATOM     26  C   UNL     1     -21.207  32.668  -4.466  1.00  0.00     0.016 C 
ATOM     27  C   UNL     1     -21.672  31.310  -1.366  1.00  0.00     0.063 C 
ATOM     28  C   UNL     1     -19.497  32.575  -1.840  1.00  0.00     0.033 C 
ATOM     29  C   UNL     1     -20.894  32.620  -1.181  1.00  0.00     0.118 C 
BRANCH  29  30
ATOM     30  O   UNL     1     -20.746  32.907   0.185  1.00  0.00    -0.393 OA
ATOM     31  H   UNL     1     -21.409  32.355   0.671  1.00  0.00     0.210 HD
ENDBRANCH  29  30
ENDBRANCH   9  11
ENDBRANCH   1   9
TORSDOF 7
ENDMDL
MODEL 2
REMARK VINA RESULT:    -5.769     12.591     17.289
REMARK INTER + INTRA:          -9.006
REMARK INTER:                  -7.283
REMARK INTRA:                  -1.724
REMARK UNBOUND:                -1.045
REMARK SMILES CC[C@@H](CC[C@H](C)[C@H]1CC[C@@H]2[C@@H]3CC=C4C[C@@H](O)CC[C@@]4(C)[C@H]3CC[C@@]21C)C(C)C
REMARK SMILES IDX 5 1 4 2 3 3 2 4 1 5 28 6 29 7 30 8 6 9 7 10 8 11 9 12 26 13
REMARK SMILES IDX 10 14 11 15 25 16 27 17 12 18 24 19 23 20 13 21 21 22 14 23
REMARK SMILES IDX 15 24 20 25 22 26 16 27 19 28 17 29 18 30
REMARK H PARENT 18 31
REMARK Flexibility Score: inf
ROOT
ATOM      1  C   UNL     1      -5.233  21.502  -9.132  1.00  0.00     0.004 C 
ENDROOT
BRANCH   1   2
ATOM      2  C   UNL     1      -6.761  21.664  -9.339  1.00  0.00     0.004 C 
BRANCH   2   3
ATOM      3  C   UNL     1      -7.394  22.794  -8.476  1.00  0.00    -0.009 C 
BRANCH   3   4
ATOM      4  C   UNL     1      -8.750  22.343  -7.870  1.00  0.00     0.000 C 
ATOM      5  C   UNL     1      -9.243  21.009  -8.438  1.00  0.00     0.004 C 
ENDBRANCH   3   4
BRANCH   3   6
ATOM      6  C   UNL     1      -7.509  24.133  -9.284  1.00  0.00    -0.014 C 
ATOM      7  C   UNL     1      -8.858  24.850  -9.104  1.00  0.00     0.007 C 
ATOM      8  C   UNL     1      -6.357  25.095  -8.954  1.00  0.00     0.007 C 
ENDBRANCH   3   6
ENDBRANCH   2   3
ENDBRANCH   1   2
BRANCH   1   9
ATOM      9  C   UNL     1      -4.850  20.885  -7.754  1.00  0.00    -0.011 C 
ATOM     10  C   UNL     1      -3.352  21.131  -7.461  1.00  0.00     0.008 C 
BRANCH   9  11
ATOM     11  C   UNL     1      -5.295  19.375  -7.680  1.00  0.00    -0.002 C 
ATOM     12  C   UNL     1      -4.105  18.392  -7.734  1.00  0.00     0.005 C 
ATOM     13  C   UNL     1      -6.163  18.910  -6.457  1.00  0.00    -0.026 C 
ATOM     14  C   UNL     1      -4.113  17.584  -6.436  1.00  0.00     0.005 C 
ATOM     15  C   UNL     1      -5.128  18.263  -5.510  1.00  0.00    -0.001 C 
ATOM     16  C   UNL     1      -7.172  17.821  -6.953  1.00  0.00     0.007 C 
ATOM     17  C   UNL     1      -6.960  20.052  -5.770  1.00  0.00     0.012 C 
ATOM     18  C   UNL     1      -5.741  17.348  -4.408  1.00  0.00     0.000 C 
ATOM     19  C   UNL     1      -7.824  17.029  -5.820  1.00  0.00     0.005 C 
ATOM     20  C   UNL     1      -6.773  16.325  -4.936  1.00  0.00     0.003 C 
ATOM     21  C   UNL     1      -4.652  16.579  -3.650  1.00  0.00     0.031 C 
ATOM     22  C   UNL     1      -7.372  15.392  -3.780  1.00  0.00    -0.008 C 
ATOM     23  C   UNL     1      -5.267  15.919  -2.460  1.00  0.00    -0.027 C 
ATOM     24  C   UNL     1      -6.520  15.423  -2.487  1.00  0.00    -0.065 C 
ATOM     25  C   UNL     1      -8.817  15.811  -3.373  1.00  0.00     0.014 C 
ATOM     26  C   UNL     1      -7.392  13.949  -4.348  1.00  0.00     0.016 C 
ATOM     27  C   UNL     1      -7.141  15.099  -1.141  1.00  0.00     0.063 C 
ATOM     28  C   UNL     1      -9.456  14.986  -2.228  1.00  0.00     0.033 C 
ATOM     29  C   UNL     1      -8.461  14.324  -1.248  1.00  0.00     0.118 C 
BRANCH  29  30
ATOM     30  O   UNL     1      -9.065  14.219   0.014  1.00  0.00    -0.393 OA
ATOM     31  H   UNL     1     -10.022  14.015  -0.139  1.00  0.00     0.210 HD
ENDBRANCH  29  30
ENDBRANCH   9  11
ENDBRANCH   1   9
TORSDOF 7
ENDMDL
MODEL 3
REMARK VINA RESULT:    -5.394     13.662     17.428
REMARK INTER + INTRA:          -8.489
REMARK INTER:                  -6.686
REMARK INTRA:                  -1.802
REMARK UNBOUND:                -1.045
REMARK SMILES CC[C@@H](CC[C@H](C)[C@H]1CC[C@@H]2[C@@H]3CC=C4C[C@@H](O)CC[C@@]4(C)[C@H]3CC[C@@]21C)C(C)C
REMARK SMILES IDX 5 1 4 2 3 3 2 4 1 5 28 6 29 7 30 8 6 9 7 10 8 11 9 12 26 13
REMARK SMILES IDX 10 14 11 15 25 16 27 17 12 18 24 19 23 20 13 21 21 22 14 23
REMARK SMILES IDX 15 24 20 25 22 26 16 27 19 28 17 29 18 30
REMARK H PARENT 18 31
REMARK Flexibility Score: inf
ROOT
ATOM      1  C   UNL     1      -4.649  22.115  -8.852  1.00  0.00     0.004 C 
ENDROOT
BRANCH   1   2
ATOM      2  C   UNL     1      -5.546  22.296 -10.104  1.00  0.00     0.004 C 
BRANCH   2   3
ATOM      3  C   UNL     1      -6.638  23.394  -9.938  1.00  0.00    -0.009 C 
BRANCH   3   4
ATOM      4  C   UNL     1      -6.171  24.505  -8.960  1.00  0.00     0.000 C 
ATOM      5  C   UNL     1      -5.932  25.849  -9.655  1.00  0.00     0.004 C 
ENDBRANCH   3   4
BRANCH   3   6
ATOM      6  C   UNL     1      -8.017  22.769  -9.529  1.00  0.00    -0.014 C 
ATOM      7  C   UNL     1      -8.262  21.371 -10.122  1.00  0.00     0.007 C 
ATOM      8  C   UNL     1      -8.190  22.727  -8.003  1.00  0.00     0.007 C 
ENDBRANCH   3   6
ENDBRANCH   2   3
ENDBRANCH   1   2
BRANCH   1   9
ATOM      9  C   UNL     1      -4.332  20.627  -8.518  1.00  0.00    -0.011 C 
ATOM     10  C   UNL     1      -3.303  20.066  -9.526  1.00  0.00     0.008 C 
BRANCH   9  11
ATOM     11  C   UNL     1      -5.662  19.790  -8.402  1.00  0.00    -0.002 C 
ATOM     12  C   UNL     1      -5.792  18.708  -9.497  1.00  0.00     0.005 C 
ATOM     13  C   UNL     1      -5.965  19.051  -7.050  1.00  0.00    -0.026 C 
ATOM     14  C   UNL     1      -5.868  17.350  -8.799  1.00  0.00     0.005 C 
ATOM     15  C   UNL     1      -5.516  17.599  -7.328  1.00  0.00    -0.001 C 
ATOM     16  C   UNL     1      -7.510  19.084  -6.805  1.00  0.00     0.007 C 
ATOM     17  C   UNL     1      -5.251  19.664  -5.814  1.00  0.00     0.012 C 
ATOM     18  C   UNL     1      -6.071  16.546  -6.323  1.00  0.00     0.000 C 
ATOM     19  C   UNL     1      -7.981  18.104  -5.728  1.00  0.00     0.005 C 
ATOM     20  C   UNL     1      -7.592  16.650  -6.070  1.00  0.00     0.003 C 
ATOM     21  C   UNL     1      -5.762  15.116  -6.784  1.00  0.00     0.031 C 
ATOM     22  C   UNL     1      -8.130  15.544  -5.043  1.00  0.00    -0.008 C 
ATOM     23  C   UNL     1      -6.090  14.170  -5.676  1.00  0.00    -0.027 C 
ATOM     24  C   UNL     1      -7.130  14.378  -4.844  1.00  0.00    -0.065 C 
ATOM     25  C   UNL     1      -8.411  16.138  -3.629  1.00  0.00     0.014 C 
ATOM     26  C   UNL     1      -9.449  14.994  -5.645  1.00  0.00     0.016 C 
ATOM     27  C   UNL     1      -7.148  13.550  -3.574  1.00  0.00     0.063 C 
ATOM     28  C   UNL     1      -8.893  15.125  -2.562  1.00  0.00     0.033 C 
ATOM     29  C   UNL     1      -8.463  13.659  -2.792  1.00  0.00     0.118 C 
BRANCH  29  30
ATOM     30  O   UNL     1      -8.343  13.018  -1.549  1.00  0.00    -0.393 OA
ATOM     31  H   UNL     1      -9.203  12.557  -1.376  1.00  0.00     0.210 HD
ENDBRANCH  29  30
ENDBRANCH   9  11
ENDBRANCH   1   9
TORSDOF 7
ENDMDL
MODEL 4
REMARK VINA RESULT:    -5.378     14.767     17.113
REMARK INTER + INTRA:          -8.467
REMARK INTER:                  -6.928
REMARK INTRA:                  -1.539
REMARK UNBOUND:                -1.045
REMARK SMILES CC[C@@H](CC[C@H](C)[C@H]1CC[C@@H]2[C@@H]3CC=C4C[C@@H](O)CC[C@@]4(C)[C@H]3CC[C@@]21C)C(C)C
REMARK SMILES IDX 5 1 4 2 3 3 2 4 1 5 28 6 29 7 30 8 6 9 7 10 8 11 9 12 26 13
REMARK SMILES IDX 10 14 11 15 25 16 27 17 12 18 24 19 23 20 13 21 21 22 14 23
REMARK SMILES IDX 15 24 20 25 22 26 16 27 19 28 17 29 18 30
REMARK H PARENT 18 31
REMARK Flexibility Score: inf
ROOT
ATOM      1  C   UNL     1      -6.837  15.861  -3.161  1.00  0.00     0.004 C 
ENDROOT
BRANCH   1   2
ATOM      2  C   UNL     1      -7.945  14.826  -2.833  1.00  0.00     0.004 C 
BRANCH   2   3
ATOM      3  C   UNL     1      -7.528  13.353  -3.115  1.00  0.00    -0.009 C 
BRANCH   3   4
ATOM      4  C   UNL     1      -5.999  13.159  -2.934  1.00  0.00     0.000 C 
ATOM      5  C   UNL     1      -5.599  12.900  -1.479  1.00  0.00     0.004 C 
ENDBRANCH   3   4
BRANCH   3   6
ATOM      6  C   UNL     1      -8.037  12.876  -4.520  1.00  0.00    -0.014 C 
ATOM      7  C   UNL     1      -9.449  13.377  -4.869  1.00  0.00     0.007 C 
ATOM      8  C   UNL     1      -7.055  13.260  -5.638  1.00  0.00     0.007 C 
ENDBRANCH   3   6
ENDBRANCH   2   3
ENDBRANCH   1   2
BRANCH   1   9
ATOM      9  C   UNL     1      -7.350  17.094  -3.962  1.00  0.00    -0.011 C 
ATOM     10  C   UNL     1      -8.861  16.946  -4.253  1.00  0.00     0.008 C 
BRANCH   9  11
ATOM     11  C   UNL     1      -6.456  17.337  -5.237  1.00  0.00    -0.002 C 
ATOM     12  C   UNL     1      -7.126  16.859  -6.544  1.00  0.00     0.005 C 
ATOM     13  C   UNL     1      -5.959  18.797  -5.535  1.00  0.00    -0.026 C 
ATOM     14  C   UNL     1      -7.283  18.076  -7.456  1.00  0.00     0.005 C 
ATOM     15  C   UNL     1      -6.959  19.304  -6.599  1.00  0.00    -0.001 C 
ATOM     16  C   UNL     1      -4.527  18.713  -6.160  1.00  0.00     0.007 C 
ATOM     17  C   UNL     1      -5.906  19.720  -4.287  1.00  0.00     0.012 C 
ATOM     18  C   UNL     1      -6.482  20.561  -7.387  1.00  0.00     0.000 C 
ATOM     19  C   UNL     1      -4.071  20.012  -6.824  1.00  0.00     0.005 C 
ATOM     20  C   UNL     1      -5.043  20.455  -7.939  1.00  0.00     0.003 C 
ATOM     21  C   UNL     1      -7.421  20.874  -8.560  1.00  0.00     0.031 C 
ATOM     22  C   UNL     1      -4.592  21.757  -8.756  1.00  0.00    -0.008 C 
ATOM     23  C   UNL     1      -7.064  22.211  -9.119  1.00  0.00    -0.027 C 
ATOM     24  C   UNL     1      -5.790  22.649  -9.166  1.00  0.00    -0.065 C 
ATOM     25  C   UNL     1      -3.622  22.662  -7.935  1.00  0.00     0.014 C 
ATOM     26  C   UNL     1      -3.869  21.247 -10.030  1.00  0.00     0.016 C 
ATOM     27  C   UNL     1      -5.600  24.130  -9.429  1.00  0.00     0.063 C 
ATOM     28  C   UNL     1      -3.171  23.967  -8.636  1.00  0.00     0.033 C 
ATOM     29  C   UNL     1      -4.142  24.520  -9.705  1.00  0.00     0.118 C 
BRANCH  29  30
ATOM     30  O   UNL     1      -4.015  25.916  -9.758  1.00  0.00    -0.393 OA
ATOM     31  H   UNL     1      -4.111  26.252  -8.831  1.00  0.00     0.210 HD
ENDBRANCH  29  30
ENDBRANCH   9  11
ENDBRANCH   1   9
TORSDOF 7
ENDMDL
MODEL 5
REMARK VINA RESULT:    -5.161      4.197      8.358
REMARK INTER + INTRA:          -8.167
REMARK INTER:                  -7.328
REMARK INTRA:                  -0.839
REMARK UNBOUND:                -1.045
REMARK SMILES CC[C@@H](CC[C@H](C)[C@H]1CC[C@@H]2[C@@H]3CC=C4C[C@@H](O)CC[C@@]4(C)[C@H]3CC[C@@]21C)C(C)C
REMARK SMILES IDX 5 1 4 2 3 3 2 4 1 5 28 6 29 7 30 8 6 9 7 10 8 11 9 12 26 13
REMARK SMILES IDX 10 14 11 15 25 16 27 17 12 18 24 19 23 20 13 21 21 22 14 23
REMARK SMILES IDX 15 24 20 25 22 26 16 27 19 28 17 29 18 30
REMARK H PARENT 18 31
REMARK Flexibility Score: inf
ROOT
ATOM      1  C   UNL     1     -10.280  22.480  -9.022  1.00  0.00     0.004 C 
ENDROOT
BRANCH   1   2
ATOM      2  C   UNL     1      -8.925  22.839  -8.358  1.00  0.00     0.004 C 
BRANCH   2   3
ATOM      3  C   UNL     1      -7.718  22.806  -9.340  1.00  0.00    -0.009 C 
BRANCH   3   4
ATOM      4  C   UNL     1      -6.938  21.469  -9.223  1.00  0.00     0.000 C 
ATOM      5  C   UNL     1      -6.892  20.929  -7.791  1.00  0.00     0.004 C 
ENDBRANCH   3   4
BRANCH   3   6
ATOM      6  C   UNL     1      -6.797  24.061  -9.154  1.00  0.00    -0.014 C 
ATOM      7  C   UNL     1      -5.426  23.929  -9.839  1.00  0.00     0.007 C 
ATOM      8  C   UNL     1      -7.493  25.349  -9.623  1.00  0.00     0.007 C 
ENDBRANCH   3   6
ENDBRANCH   2   3
ENDBRANCH   1   2
BRANCH   1   9
ATOM      9  C   UNL     1     -11.240  23.696  -9.185  1.00  0.00    -0.011 C 
ATOM     10  C   UNL     1     -10.878  24.797  -8.162  1.00  0.00     0.008 C 
BRANCH   9  11
ATOM     11  C   UNL     1     -12.743  23.225  -9.140  1.00  0.00    -0.002 C 
ATOM     12  C   UNL     1     -13.109  22.497  -7.828  1.00  0.00     0.005 C 
ATOM     13  C   UNL     1     -13.869  24.300  -9.347  1.00  0.00    -0.026 C 
ATOM     14  C   UNL     1     -14.217  23.300  -7.146  1.00  0.00     0.005 C 
ATOM     15  C   UNL     1     -14.319  24.628  -7.905  1.00  0.00    -0.001 C 
ATOM     16  C   UNL     1     -15.052  23.632 -10.125  1.00  0.00     0.007 C 
ATOM     17  C   UNL     1     -13.411  25.564 -10.125  1.00  0.00     0.012 C 
ATOM     18  C   UNL     1     -15.697  25.348  -7.804  1.00  0.00     0.000 C 
ATOM     19  C   UNL     1     -16.349  24.442 -10.081  1.00  0.00     0.005 C 
ATOM     20  C   UNL     1     -16.821  24.686  -8.632  1.00  0.00     0.003 C 
ATOM     21  C   UNL     1     -16.171  25.447  -6.349  1.00  0.00     0.031 C 
ATOM     22  C   UNL     1     -18.225  25.444  -8.494  1.00  0.00    -0.008 C 
ATOM     23  C   UNL     1     -17.355  26.354  -6.288  1.00  0.00    -0.027 C 
ATOM     24  C   UNL     1     -18.269  26.403  -7.278  1.00  0.00    -0.065 C 
ATOM     25  C   UNL     1     -18.558  26.303  -9.752  1.00  0.00     0.014 C 
ATOM     26  C   UNL     1     -19.303  24.342  -8.320  1.00  0.00     0.016 C 
ATOM     27  C   UNL     1     -19.214  27.588  -7.258  1.00  0.00     0.063 C 
ATOM     28  C   UNL     1     -19.881  27.106  -9.683  1.00  0.00     0.033 C 
ATOM     29  C   UNL     1     -20.369  27.465  -8.261  1.00  0.00     0.118 C 
BRANCH  29  30
ATOM     30  O   UNL     1     -21.093  28.666  -8.317  1.00  0.00    -0.393 OA
ATOM     31  H   UNL     1     -21.092  29.048  -7.403  1.00  0.00     0.210 HD
ENDBRANCH  29  30
ENDBRANCH   9  11
ENDBRANCH   1   9
TORSDOF 7
ENDMDL
MODEL 6
REMARK VINA RESULT:    -5.131      9.763     16.507
REMARK INTER + INTRA:          -8.126
REMARK INTER:                  -7.160
REMARK INTRA:                  -0.967
REMARK UNBOUND:                -1.045
REMARK SMILES CC[C@@H](CC[C@H](C)[C@H]1CC[C@@H]2[C@@H]3CC=C4C[C@@H](O)CC[C@@]4(C)[C@H]3CC[C@@]21C)C(C)C
REMARK SMILES IDX 5 1 4 2 3 3 2 4 1 5 28 6 29 7 30 8 6 9 7 10 8 11 9 12 26 13
REMARK SMILES IDX 10 14 11 15 25 16 27 17 12 18 24 19 23 20 13 21 21 22 14 23
REMARK SMILES IDX 15 24 20 25 22 26 16 27 19 28 17 29 18 30
REMARK H PARENT 18 31
REMARK Flexibility Score: inf
ROOT
ATOM      1  C   UNL     1     -10.024  21.495  -7.955  1.00  0.00     0.004 C 
ENDROOT
BRANCH   1   2
ATOM      2  C   UNL     1     -10.205  22.436  -9.175  1.00  0.00     0.004 C 
BRANCH   2   3
ATOM      3  C   UNL     1     -11.533  23.249  -9.147  1.00  0.00    -0.009 C 
BRANCH   3   4
ATOM      4  C   UNL     1     -11.333  24.624  -8.455  1.00  0.00     0.000 C 
ATOM      5  C   UNL     1     -10.056  25.338  -8.907  1.00  0.00     0.004 C 
ENDBRANCH   3   4
BRANCH   3   6
ATOM      6  C   UNL     1     -12.698  22.415  -8.510  1.00  0.00    -0.014 C 
ATOM      7  C   UNL     1     -13.495  23.183  -7.441  1.00  0.00     0.007 C 
ATOM      8  C   UNL     1     -13.654  21.866  -9.580  1.00  0.00     0.007 C 
ENDBRANCH   3   6
ENDBRANCH   2   3
ENDBRANCH   1   2
BRANCH   1   9
ATOM      9  C   UNL     1      -8.609  21.573  -7.309  1.00  0.00    -0.011 C 
ATOM     10  C   UNL     1      -7.821  22.762  -7.902  1.00  0.00     0.008 C 
BRANCH   9  11
ATOM     11  C   UNL     1      -7.876  20.181  -7.411  1.00  0.00    -0.002 C 
ATOM     12  C   UNL     1      -6.340  20.313  -7.493  1.00  0.00     0.005 C 
ATOM     13  C   UNL     1      -8.142  19.113  -6.291  1.00  0.00    -0.026 C 
ATOM     14  C   UNL     1      -5.747  19.590  -6.284  1.00  0.00     0.005 C 
ATOM     15  C   UNL     1      -6.922  19.266  -5.355  1.00  0.00    -0.001 C 
ATOM     16  C   UNL     1      -8.122  17.693  -6.949  1.00  0.00     0.007 C 
ATOM     17  C   UNL     1      -9.489  19.296  -5.540  1.00  0.00     0.012 C 
ATOM     18  C   UNL     1      -6.695  18.067  -4.386  1.00  0.00     0.000 C 
ATOM     19  C   UNL     1      -8.007  16.551  -5.939  1.00  0.00     0.005 C 
ATOM     20  C   UNL     1      -6.738  16.682  -5.071  1.00  0.00     0.003 C 
ATOM     21  C   UNL     1      -5.357  18.191  -3.647  1.00  0.00     0.031 C 
ATOM     22  C   UNL     1      -6.487  15.474  -4.049  1.00  0.00    -0.008 C 
ATOM     23  C   UNL     1      -5.306  17.164  -2.565  1.00  0.00    -0.027 C 
ATOM     24  C   UNL     1      -5.861  15.944  -2.712  1.00  0.00    -0.065 C 
ATOM     25  C   UNL     1      -7.804  14.724  -3.685  1.00  0.00     0.014 C 
ATOM     26  C   UNL     1      -5.513  14.496  -4.757  1.00  0.00     0.016 C 
ATOM     27  C   UNL     1      -6.043  15.134  -1.443  1.00  0.00     0.063 C 
ATOM     28  C   UNL     1      -7.657  13.567  -2.666  1.00  0.00     0.033 C 
ATOM     29  C   UNL     1      -6.454  13.678  -1.701  1.00  0.00     0.118 C 
BRANCH  29  30
ATOM     30  O   UNL     1      -6.779  13.044  -0.492  1.00  0.00    -0.393 OA
ATOM     31  H   UNL     1      -5.945  12.987   0.039  1.00  0.00     0.210 HD
ENDBRANCH  29  30
ENDBRANCH   9  11
ENDBRANCH   1   9
TORSDOF 7
ENDMDL
MODEL 7
REMARK VINA RESULT:    -4.983     12.648     17.258
REMARK INTER + INTRA:          -7.922
REMARK INTER:                  -6.267
REMARK INTRA:                  -1.655
REMARK UNBOUND:                -1.045
REMARK SMILES CC[C@@H](CC[C@H](C)[C@H]1CC[C@@H]2[C@@H]3CC=C4C[C@@H](O)CC[C@@]4(C)[C@H]3CC[C@@]21C)C(C)C
REMARK SMILES IDX 5 1 4 2 3 3 2 4 1 5 28 6 29 7 30 8 6 9 7 10 8 11 9 12 26 13
REMARK SMILES IDX 10 14 11 15 25 16 27 17 12 18 24 19 23 20 13 21 21 22 14 23
REMARK SMILES IDX 15 24 20 25 22 26 16 27 19 28 17 29 18 30
REMARK H PARENT 18 31
REMARK Flexibility Score: inf
ROOT
ATOM      1  C   UNL     1      -5.479  13.064  -3.891  1.00  0.00     0.004 C 
ENDROOT
BRANCH   1   2
ATOM      2  C   UNL     1      -6.036  13.050  -2.444  1.00  0.00     0.004 C 
BRANCH   2   3
ATOM      3  C   UNL     1      -6.836  14.332  -2.068  1.00  0.00    -0.009 C 
BRANCH   3   4
ATOM      4  C   UNL     1      -6.112  15.137  -0.955  1.00  0.00     0.000 C 
ATOM      5  C   UNL     1      -5.149  14.279  -0.130  1.00  0.00     0.004 C 
ENDBRANCH   3   4
BRANCH   3   6
ATOM      6  C   UNL     1      -8.320  13.989  -1.697  1.00  0.00    -0.014 C 
ATOM      7  C   UNL     1      -9.260  15.207  -1.721  1.00  0.00     0.007 C 
ATOM      8  C   UNL     1      -8.886  12.875  -2.593  1.00  0.00     0.007 C 
ENDBRANCH   3   6
ENDBRANCH   2   3
ENDBRANCH   1   2
BRANCH   1   9
ATOM      9  C   UNL     1      -6.414  13.775  -4.915  1.00  0.00    -0.011 C 
ATOM     10  C   UNL     1      -6.620  12.878  -6.156  1.00  0.00     0.008 C 
BRANCH   9  11
ATOM     11  C   UNL     1      -5.886  15.226  -5.232  1.00  0.00    -0.002 C 
ATOM     12  C   UNL     1      -4.782  15.244  -6.313  1.00  0.00     0.005 C 
ATOM     13  C   UNL     1      -6.922  16.318  -5.679  1.00  0.00    -0.026 C 
ATOM     14  C   UNL     1      -5.294  16.083  -7.483  1.00  0.00     0.005 C 
ATOM     15  C   UNL     1      -6.782  16.334  -7.218  1.00  0.00    -0.001 C 
ATOM     16  C   UNL     1      -6.468  17.697  -5.097  1.00  0.00     0.007 C 
ATOM     17  C   UNL     1      -8.380  16.039  -5.221  1.00  0.00     0.012 C 
ATOM     18  C   UNL     1      -7.378  17.597  -7.909  1.00  0.00     0.000 C 
ATOM     19  C   UNL     1      -7.169  18.895  -5.740  1.00  0.00     0.005 C 
ATOM     20  C   UNL     1      -6.946  18.935  -7.267  1.00  0.00     0.003 C 
ATOM     21  C   UNL     1      -7.015  17.643  -9.398  1.00  0.00     0.031 C 
ATOM     22  C   UNL     1      -7.566  20.211  -8.011  1.00  0.00    -0.008 C 
ATOM     23  C   UNL     1      -7.808  18.724 -10.055  1.00  0.00    -0.027 C 
ATOM     24  C   UNL     1      -8.112  19.873  -9.420  1.00  0.00    -0.065 C 
ATOM     25  C   UNL     1      -8.747  20.843  -7.213  1.00  0.00     0.014 C 
ATOM     26  C   UNL     1      -6.416  21.244  -8.138  1.00  0.00     0.016 C 
ATOM     27  C   UNL     1      -9.194  20.724 -10.057  1.00  0.00     0.063 C 
ATOM     28  C   UNL     1      -9.433  22.059  -7.885  1.00  0.00     0.033 C 
ATOM     29  C   UNL     1      -9.327  22.116  -9.426  1.00  0.00     0.118 C 
BRANCH  29  30
ATOM     30  O   UNL     1     -10.456  22.775  -9.936  1.00  0.00    -0.393 OA
ATOM     31  H   UNL     1     -11.205  22.592  -9.314  1.00  0.00     0.210 HD
ENDBRANCH  29  30
ENDBRANCH   9  11
ENDBRANCH   1   9
TORSDOF 7
ENDMDL
MODEL 8
REMARK VINA RESULT:    -4.885     11.686     16.857
REMARK INTER + INTRA:          -7.786
REMARK INTER:                  -6.382
REMARK INTRA:                  -1.404
REMARK UNBOUND:                -1.045
REMARK SMILES CC[C@@H](CC[C@H](C)[C@H]1CC[C@@H]2[C@@H]3CC=C4C[C@@H](O)CC[C@@]4(C)[C@H]3CC[C@@]21C)C(C)C
REMARK SMILES IDX 5 1 4 2 3 3 2 4 1 5 28 6 29 7 30 8 6 9 7 10 8 11 9 12 26 13
REMARK SMILES IDX 10 14 11 15 25 16 27 17 12 18 24 19 23 20 13 21 21 22 14 23
REMARK SMILES IDX 15 24 20 25 22 26 16 27 19 28 17 29 18 30
REMARK H PARENT 18 31
REMARK Flexibility Score: inf
ROOT
ATOM      1  C   UNL     1      -6.847  22.037  -8.587  1.00  0.00     0.004 C 
ENDROOT
BRANCH   1   2
ATOM      2  C   UNL     1      -8.081  21.683  -9.457  1.00  0.00     0.004 C 
BRANCH   2   3
ATOM      3  C   UNL     1      -9.071  22.868  -9.652  1.00  0.00    -0.009 C 
BRANCH   3   4
ATOM      4  C   UNL     1      -8.439  24.208  -9.187  1.00  0.00     0.000 C 
ATOM      5  C   UNL     1      -9.483  25.242  -8.756  1.00  0.00     0.004 C 
ENDBRANCH   3   4
BRANCH   3   6
ATOM      6  C   UNL     1     -10.450  22.579  -8.964  1.00  0.00    -0.014 C 
ATOM      7  C   UNL     1     -11.568  22.205  -9.952  1.00  0.00     0.007 C 
ATOM      8  C   UNL     1     -10.326  21.496  -7.880  1.00  0.00     0.007 C 
ENDBRANCH   3   6
ENDBRANCH   2   3
ENDBRANCH   1   2
BRANCH   1   9
ATOM      9  C   UNL     1      -6.147  20.796  -7.958  1.00  0.00    -0.011 C 
ATOM     10  C   UNL     1      -4.908  20.406  -8.796  1.00  0.00     0.008 C 
BRANCH   9  11
ATOM     11  C   UNL     1      -7.183  19.629  -7.734  1.00  0.00    -0.002 C 
ATOM     12  C   UNL     1      -7.029  18.481  -8.754  1.00  0.00     0.005 C 
ATOM     13  C   UNL     1      -7.231  18.932  -6.327  1.00  0.00    -0.026 C 
ATOM     14  C   UNL     1      -6.700  17.208  -7.974  1.00  0.00     0.005 C 
ATOM     15  C   UNL     1      -6.397  17.648  -6.537  1.00  0.00    -0.001 C 
ATOM     16  C   UNL     1      -8.716  18.547  -6.018  1.00  0.00     0.007 C 
ATOM     17  C   UNL     1      -6.689  19.805  -5.163  1.00  0.00     0.012 C 
ATOM     18  C   UNL     1      -6.606  16.555  -5.447  1.00  0.00     0.000 C 
ATOM     19  C   UNL     1      -8.863  17.553  -4.865  1.00  0.00     0.005 C 
ATOM     20  C   UNL     1      -8.088  16.246  -5.135  1.00  0.00     0.003 C 
ATOM     21  C   UNL     1      -5.917  15.240  -5.835  1.00  0.00     0.031 C 
ATOM     22  C   UNL     1      -8.266  15.109  -4.021  1.00  0.00    -0.008 C 
ATOM     23  C   UNL     1      -5.937  14.321  -4.659  1.00  0.00    -0.027 C 
ATOM     24  C   UNL     1      -6.972  14.287  -3.796  1.00  0.00    -0.065 C 
ATOM     25  C   UNL     1      -8.667  15.698  -2.635  1.00  0.00     0.014 C 
ATOM     26  C   UNL     1      -9.390  14.169  -4.530  1.00  0.00     0.016 C 
ATOM     27  C   UNL     1      -6.723  13.577  -2.479  1.00  0.00     0.063 C 
ATOM     28  C   UNL     1      -8.817  14.667  -1.488  1.00  0.00     0.033 C 
ATOM     29  C   UNL     1      -7.996  13.368  -1.648  1.00  0.00     0.118 C 
BRANCH  29  30
ATOM     30  O   UNL     1      -7.669  12.875  -0.375  1.00  0.00    -0.393 OA
ATOM     31  H   UNL     1      -8.459  12.377  -0.045  1.00  0.00     0.210 HD
ENDBRANCH  29  30
ENDBRANCH   9  11
ENDBRANCH   1   9
TORSDOF 7
ENDMDL
