MODEL 1
REMARK VINA RESULT:    -6.707      0.000      0.000
REMARK INTER + INTRA:          -8.164
REMARK INTER:                  -7.883
REMARK INTRA:                  -0.281
REMARK UNBOUND:                -0.281
REMARK SMILES Oc1ccc(-c2[o+]c3cc(O)cc(O)c3cc2O)cc1
REMARK SMILES IDX 6 1 7 2 8 3 9 4 10 5 12 6 13 7 15 8 16 9 17 10 5 11 4 12
REMARK SMILES IDX 3 13 2 14 19 15 20 16 1 17 18 19 11 21 14 23
REMARK H PARENT 1 18 18 20 11 22 14 24
REMARK Flexibility Score: inf
ROOT
ATOM      1  C   UNL     1      17.681  -1.322  10.410  1.00  0.00     0.401 A 
ATOM      2  O   UNL     1      17.637  -1.670   9.127  1.00  0.00    -0.202 OA
ATOM      3  C   UNL     1      16.513  -1.995   8.498  1.00  0.00     0.368 A 
ATOM      4  C   UNL     1      16.566  -2.344   7.146  1.00  0.00     0.162 A 
ATOM      5  C   UNL     1      15.401  -2.688   6.459  1.00  0.00     0.128 A 
ATOM      6  C   UNL     1      14.172  -2.683   7.127  1.00  0.00     0.093 A 
ATOM      7  C   UNL     1      14.091  -2.338   8.482  1.00  0.00     0.136 A 
ATOM      8  C   UNL     1      15.274  -1.989   9.185  1.00  0.00     0.125 A 
ATOM      9  C   UNL     1      15.291  -1.643  10.546  1.00  0.00     0.078 A 
ATOM     10  C   UNL     1      16.498  -1.317  11.171  1.00  0.00     0.223 A 
ENDROOT
BRANCH   1  11
ATOM     11  C   UNL     1      18.996  -0.971  10.995  1.00  0.00     0.084 A 
ATOM     12  C   UNL     1      19.517   0.319  10.799  1.00  0.00     0.022 A 
ATOM     13  C   UNL     1      20.747   0.680  11.360  1.00  0.00     0.047 A 
ATOM     14  C   UNL     1      21.462  -0.238  12.135  1.00  0.00     0.115 A 
ATOM     15  C   UNL     1      19.712  -1.883  11.792  1.00  0.00     0.022 A 
ATOM     16  C   UNL     1      20.940  -1.520  12.352  1.00  0.00     0.047 A 
BRANCH  14  17
ATOM     17  O   UNL     1      22.686   0.135  12.687  1.00  0.00    -0.508 OA
ATOM     18  H   UNL     1      23.277   0.828  12.243  1.00  0.00     0.293 HD
ENDBRANCH  14  17
ENDBRANCH   1  11
BRANCH  10  19
ATOM     19  O   UNL     1      16.522  -1.022  12.534  1.00  0.00    -0.500 OA
ATOM     20  H   UNL     1      15.923  -1.504  13.194  1.00  0.00     0.294 HD
ENDBRANCH  10  19
BRANCH   5  21
ATOM     21  O   UNL     1      15.475  -3.031   5.111  1.00  0.00    -0.507 OA
ATOM     22  H   UNL     1      14.791  -3.644   4.683  1.00  0.00     0.293 HD
ENDBRANCH   5  21
BRANCH   7  23
ATOM     23  O   UNL     1      12.826  -2.354   9.077  1.00  0.00    -0.507 OA
ATOM     24  H   UNL     1      12.389  -1.553   9.509  1.00  0.00     0.293 HD
ENDBRANCH   7  23
TORSDOF 5
ENDMDL
MODEL 2
REMARK VINA RESULT:    -6.390      3.522      5.846
REMARK INTER + INTRA:          -7.791
REMARK INTER:                  -7.569
REMARK INTRA:                  -0.223
REMARK UNBOUND:                -0.281
REMARK SMILES Oc1ccc(-c2[o+]c3cc(O)cc(O)c3cc2O)cc1
REMARK SMILES IDX 6 1 7 2 8 3 9 4 10 5 12 6 13 7 15 8 16 9 17 10 5 11 4 12
REMARK SMILES IDX 3 13 2 14 19 15 20 16 1 17 18 19 11 21 14 23
REMARK H PARENT 1 18 18 20 11 22 14 24
REMARK Flexibility Score: inf
ROOT
ATOM      1  C   UNL     1      13.674  -1.953  11.171  1.00  0.00     0.401 A 
ATOM      2  O   UNL     1      12.920  -2.269  10.122  1.00  0.00    -0.202 OA
ATOM      3  C   UNL     1      13.390  -2.345   8.881  1.00  0.00     0.368 A 
ATOM      4  C   UNL     1      12.520  -2.689   7.843  1.00  0.00     0.162 A 
ATOM      5  C   UNL     1      12.987  -2.778   6.531  1.00  0.00     0.128 A 
ATOM      6  C   UNL     1      14.334  -2.523   6.253  1.00  0.00     0.093 A 
ATOM      7  C   UNL     1      15.226  -2.176   7.275  1.00  0.00     0.136 A 
ATOM      8  C   UNL     1      14.755  -2.082   8.610  1.00  0.00     0.125 A 
ATOM      9  C   UNL     1      15.573  -1.728   9.695  1.00  0.00     0.078 A 
ATOM     10  C   UNL     1      15.035  -1.651  10.983  1.00  0.00     0.223 A 
ENDROOT
BRANCH   1  11
ATOM     11  C   UNL     1      13.034  -1.912  12.506  1.00  0.00     0.084 A 
ATOM     12  C   UNL     1      12.029  -0.963  12.762  1.00  0.00     0.022 A 
ATOM     13  C   UNL     1      11.396  -0.921  14.009  1.00  0.00     0.047 A 
ATOM     14  C   UNL     1      11.748  -1.834  15.007  1.00  0.00     0.115 A 
ATOM     15  C   UNL     1      13.368  -2.841  13.509  1.00  0.00     0.022 A 
ATOM     16  C   UNL     1      12.734  -2.796  14.753  1.00  0.00     0.047 A 
BRANCH  14  17
ATOM     17  O   UNL     1      11.109  -1.779  16.245  1.00  0.00    -0.508 OA
ATOM     18  H   UNL     1      11.435  -1.164  16.981  1.00  0.00     0.293 HD
ENDBRANCH  14  17
ENDBRANCH   1  11
BRANCH  10  19
ATOM     19  O   UNL     1      15.836  -1.251  12.053  1.00  0.00    -0.500 OA
ATOM     20  H   UNL     1      15.553  -0.506  12.679  1.00  0.00     0.294 HD
ENDBRANCH  10  19
BRANCH   5  21
ATOM     21  O   UNL     1      12.104  -3.123   5.511  1.00  0.00    -0.507 OA
ATOM     22  H   UNL     1      12.432  -3.339   4.577  1.00  0.00     0.293 HD
ENDBRANCH   5  21
BRANCH   7  23
ATOM     23  O   UNL     1      16.556  -1.940   6.915  1.00  0.00    -0.507 OA
ATOM     24  H   UNL     1      17.355  -2.303   7.415  1.00  0.00     0.293 HD
ENDBRANCH   7  23
TORSDOF 5
ENDMDL
MODEL 3
REMARK VINA RESULT:    -6.128      3.569      6.717
REMARK INTER + INTRA:          -7.483
REMARK INTER:                  -7.762
REMARK INTRA:                   0.279
REMARK UNBOUND:                -0.281
REMARK SMILES Oc1ccc(-c2[o+]c3cc(O)cc(O)c3cc2O)cc1
REMARK SMILES IDX 6 1 7 2 8 3 9 4 10 5 12 6 13 7 15 8 16 9 17 10 5 11 4 12
REMARK SMILES IDX 3 13 2 14 19 15 20 16 1 17 18 19 11 21 14 23
REMARK H PARENT 1 18 18 20 11 22 14 24
REMARK Flexibility Score: inf
ROOT
ATOM      1  C   UNL     1      14.160  -2.163   9.879  1.00  0.00     0.401 A 
ATOM      2  O   UNL     1      12.967  -2.576  10.298  1.00  0.00    -0.202 OA
ATOM      3  C   UNL     1      12.520  -2.377  11.534  1.00  0.00     0.368 A 
ATOM      4  C   UNL     1      11.250  -2.846  11.881  1.00  0.00     0.162 A 
ATOM      5  C   UNL     1      10.753  -2.649  13.170  1.00  0.00     0.128 A 
ATOM      6  C   UNL     1      11.530  -1.979  14.121  1.00  0.00     0.093 A 
ATOM      7  C   UNL     1      12.806  -1.501  13.799  1.00  0.00     0.136 A 
ATOM      8  C   UNL     1      13.316  -1.700  12.489  1.00  0.00     0.125 A 
ATOM      9  C   UNL     1      14.588  -1.267  12.081  1.00  0.00     0.078 A 
ATOM     10  C   UNL     1      15.024  -1.505  10.774  1.00  0.00     0.223 A 
ENDROOT
BRANCH   1  11
ATOM     11  C   UNL     1      14.540  -2.436   8.473  1.00  0.00     0.084 A 
ATOM     12  C   UNL     1      13.546  -2.466   7.481  1.00  0.00     0.022 A 
ATOM     13  C   UNL     1      13.884  -2.700   6.145  1.00  0.00     0.047 A 
ATOM     14  C   UNL     1      15.221  -2.891   5.782  1.00  0.00     0.115 A 
ATOM     15  C   UNL     1      15.886  -2.609   8.098  1.00  0.00     0.022 A 
ATOM     16  C   UNL     1      16.221  -2.843   6.761  1.00  0.00     0.047 A 
BRANCH  14  17
ATOM     17  O   UNL     1      15.544  -3.125   4.446  1.00  0.00    -0.508 OA
ATOM     18  H   UNL     1      14.825  -3.247   3.742  1.00  0.00     0.293 HD
ENDBRANCH  14  17
ENDBRANCH   1  11
BRANCH  10  19
ATOM     19  O   UNL     1      16.305  -1.119  10.382  1.00  0.00    -0.500 OA
ATOM     20  H   UNL     1      17.036  -0.937  11.060  1.00  0.00     0.294 HD
ENDBRANCH  10  19
BRANCH   5  21
ATOM     21  O   UNL     1       9.485  -3.123  13.496  1.00  0.00    -0.507 OA
ATOM     22  H   UNL     1       9.159  -4.029  13.178  1.00  0.00     0.293 HD
ENDBRANCH   5  21
BRANCH   7  23
ATOM     23  O   UNL     1      13.519  -0.839  14.804  1.00  0.00    -0.507 OA
ATOM     24  H   UNL     1      13.918   0.083  14.706  1.00  0.00     0.293 HD
ENDBRANCH   7  23
TORSDOF 5
ENDMDL
MODEL 4
REMARK VINA RESULT:    -6.043      4.902      7.471
REMARK INTER + INTRA:          -7.383
REMARK INTER:                  -7.066
REMARK INTRA:                  -0.317
REMARK UNBOUND:                -0.281
REMARK SMILES Oc1ccc(-c2[o+]c3cc(O)cc(O)c3cc2O)cc1
REMARK SMILES IDX 6 1 7 2 8 3 9 4 10 5 12 6 13 7 15 8 16 9 17 10 5 11 4 12
REMARK SMILES IDX 3 13 2 14 19 15 20 16 1 17 18 19 11 21 14 23
REMARK H PARENT 1 18 18 20 11 22 14 24
REMARK Flexibility Score: inf
ROOT
ATOM      1  C   UNL     1      17.653  -0.587  14.610  1.00  0.00     0.401 A 
ATOM      2  O   UNL     1      18.385  -1.387  13.839  1.00  0.00    -0.202 OA
ATOM      3  C   UNL     1      19.609  -1.078  13.422  1.00  0.00     0.368 A 
ATOM      4  C   UNL     1      20.302  -1.986  12.616  1.00  0.00     0.162 A 
ATOM      5  C   UNL     1      21.589  -1.689  12.166  1.00  0.00     0.128 A 
ATOM      6  C   UNL     1      22.190  -0.477  12.523  1.00  0.00     0.093 A 
ATOM      7  C   UNL     1      21.516   0.450  13.328  1.00  0.00     0.136 A 
ATOM      8  C   UNL     1      20.206   0.153  13.787  1.00  0.00     0.125 A 
ATOM      9  C   UNL     1      19.451   1.026  14.586  1.00  0.00     0.078 A 
ATOM     10  C   UNL     1      18.163   0.666  14.995  1.00  0.00     0.223 A 
ENDROOT
BRANCH   1  11
ATOM     11  C   UNL     1      16.306  -1.049  15.017  1.00  0.00     0.084 A 
ATOM     12  C   UNL     1      15.198  -0.747  14.209  1.00  0.00     0.022 A 
ATOM     13  C   UNL     1      13.919  -1.191  14.563  1.00  0.00     0.047 A 
ATOM     14  C   UNL     1      13.737  -1.956  15.719  1.00  0.00     0.115 A 
ATOM     15  C   UNL     1      16.118  -1.836  16.169  1.00  0.00     0.022 A 
ATOM     16  C   UNL     1      14.839  -2.280  16.520  1.00  0.00     0.047 A 
BRANCH  14  17
ATOM     17  O   UNL     1      12.457  -2.391  16.060  1.00  0.00    -0.508 OA
ATOM     18  H   UNL     1      11.692  -1.739  16.182  1.00  0.00     0.293 HD
ENDBRANCH  14  17
ENDBRANCH   1  11
BRANCH  10  19
ATOM     19  O   UNL     1      17.394   1.554  15.747  1.00  0.00    -0.500 OA
ATOM     20  H   UNL     1      17.215   1.399  16.733  1.00  0.00     0.294 HD
ENDBRANCH  10  19
BRANCH   5  21
ATOM     21  O   UNL     1      22.264  -2.607  11.365  1.00  0.00    -0.507 OA
ATOM     22  H   UNL     1      22.993  -3.203  11.740  1.00  0.00     0.293 HD
ENDBRANCH   5  21
BRANCH   7  23
ATOM     23  O   UNL     1      22.186   1.636  13.643  1.00  0.00    -0.507 OA
ATOM     24  H   UNL     1      21.729   2.518  13.824  1.00  0.00     0.293 HD
ENDBRANCH   7  23
TORSDOF 5
ENDMDL
MODEL 5
REMARK VINA RESULT:    -5.796      2.939      7.468
REMARK INTER + INTRA:          -7.094
REMARK INTER:                  -6.847
REMARK INTRA:                  -0.247
REMARK UNBOUND:                -0.281
REMARK SMILES Oc1ccc(-c2[o+]c3cc(O)cc(O)c3cc2O)cc1
REMARK SMILES IDX 6 1 7 2 8 3 9 4 10 5 12 6 13 7 15 8 16 9 17 10 5 11 4 12
REMARK SMILES IDX 3 13 2 14 19 15 20 16 1 17 18 19 11 21 14 23
REMARK H PARENT 1 18 18 20 11 22 14 24
REMARK Flexibility Score: inf
ROOT
ATOM      1  C   UNL     1      15.383  -1.497  12.824  1.00  0.00     0.401 A 
ATOM      2  O   UNL     1      16.706  -1.611  12.755  1.00  0.00    -0.202 OA
ATOM      3  C   UNL     1      17.504  -1.496  13.812  1.00  0.00     0.368 A 
ATOM      4  C   UNL     1      18.884  -1.636  13.640  1.00  0.00     0.162 A 
ATOM      5  C   UNL     1      19.746  -1.523  14.732  1.00  0.00     0.128 A 
ATOM      6  C   UNL     1      19.226  -1.269  16.006  1.00  0.00     0.093 A 
ATOM      7  C   UNL     1      17.847  -1.124  16.204  1.00  0.00     0.136 A 
ATOM      8  C   UNL     1      16.968  -1.236  15.096  1.00  0.00     0.125 A 
ATOM      9  C   UNL     1      15.574  -1.093  15.198  1.00  0.00     0.078 A 
ATOM     10  C   UNL     1      14.772  -1.212  14.060  1.00  0.00     0.223 A 
ENDROOT
BRANCH   1  11
ATOM     11  C   UNL     1      14.601  -1.656  11.576  1.00  0.00     0.084 A 
ATOM     12  C   UNL     1      14.379  -2.943  11.059  1.00  0.00     0.022 A 
ATOM     13  C   UNL     1      13.626  -3.119   9.893  1.00  0.00     0.047 A 
ATOM     14  C   UNL     1      13.072  -2.013   9.241  1.00  0.00     0.115 A 
ATOM     15  C   UNL     1      14.025  -0.549  10.925  1.00  0.00     0.022 A 
ATOM     16  C   UNL     1      13.272  -0.727   9.761  1.00  0.00     0.047 A 
BRANCH  14  17
ATOM     17  O   UNL     1      12.324  -2.202   8.080  1.00  0.00    -0.508 OA
ATOM     18  H   UNL     1      11.822  -1.438   7.645  1.00  0.00     0.293 HD
ENDBRANCH  14  17
ENDBRANCH   1  11
BRANCH  10  19
ATOM     19  O   UNL     1      13.394  -1.020  14.151  1.00  0.00    -0.500 OA
ATOM     20  H   UNL     1      12.910  -1.053  15.041  1.00  0.00     0.294 HD
ENDBRANCH  10  19
BRANCH   5  21
ATOM     21  O   UNL     1      21.118  -1.666  14.541  1.00  0.00    -0.507 OA
ATOM     22  H   UNL     1      21.770  -0.944  14.823  1.00  0.00     0.293 HD
ENDBRANCH   5  21
BRANCH   7  23
ATOM     23  O   UNL     1      17.407  -0.875  17.508  1.00  0.00    -0.507 OA
ATOM     24  H   UNL     1      16.513  -1.169  17.874  1.00  0.00     0.293 HD
ENDBRANCH   7  23
TORSDOF 5
ENDMDL
MODEL 6
REMARK VINA RESULT:    -5.564      3.286      3.789
REMARK INTER + INTRA:          -6.821
REMARK INTER:                  -6.509
REMARK INTRA:                  -0.312
REMARK UNBOUND:                -0.281
REMARK SMILES Oc1ccc(-c2[o+]c3cc(O)cc(O)c3cc2O)cc1
REMARK SMILES IDX 6 1 7 2 8 3 9 4 10 5 12 6 13 7 15 8 16 9 17 10 5 11 4 12
REMARK SMILES IDX 3 13 2 14 19 15 20 16 1 17 18 19 11 21 14 23
REMARK H PARENT 1 18 18 20 11 22 14 24
REMARK Flexibility Score: inf
ROOT
ATOM      1  C   UNL     1      15.099  -1.604  12.304  1.00  0.00     0.401 A 
ATOM      2  O   UNL     1      15.851  -1.636  11.208  1.00  0.00    -0.202 OA
ATOM      3  C   UNL     1      15.355  -1.818   9.988  1.00  0.00     0.368 A 
ATOM      4  C   UNL     1      16.226  -1.833   8.895  1.00  0.00     0.162 A 
ATOM      5  C   UNL     1      15.732  -2.020   7.603  1.00  0.00     0.128 A 
ATOM      6  C   UNL     1      14.359  -2.193   7.400  1.00  0.00     0.093 A 
ATOM      7  C   UNL     1      13.466  -2.182   8.479  1.00  0.00     0.136 A 
ATOM      8  C   UNL     1      13.963  -1.994   9.795  1.00  0.00     0.125 A 
ATOM      9  C   UNL     1      13.145  -1.983  10.936  1.00  0.00     0.078 A 
ATOM     10  C   UNL     1      13.709  -1.798  12.201  1.00  0.00     0.223 A 
ENDROOT
BRANCH   1  11
ATOM     11  C   UNL     1      15.770  -1.383  13.606  1.00  0.00     0.084 A 
ATOM     12  C   UNL     1      16.189  -2.489  14.365  1.00  0.00     0.022 A 
ATOM     13  C   UNL     1      16.843  -2.303  15.587  1.00  0.00     0.047 A 
ATOM     14  C   UNL     1      17.102  -1.012  16.057  1.00  0.00     0.115 A 
ATOM     15  C   UNL     1      16.051  -0.086  14.076  1.00  0.00     0.022 A 
ATOM     16  C   UNL     1      16.706   0.096  15.298  1.00  0.00     0.047 A 
BRANCH  14  17
ATOM     17  O   UNL     1      17.754  -0.843  17.277  1.00  0.00    -0.508 OA
ATOM     18  H   UNL     1      18.723  -1.112  17.400  1.00  0.00     0.293 HD
ENDBRANCH  14  17
ENDBRANCH   1  11
BRANCH  10  19
ATOM     19  O   UNL     1      12.904  -1.836  13.339  1.00  0.00    -0.500 OA
ATOM     20  H   UNL     1      12.132  -1.192  13.466  1.00  0.00     0.294 HD
ENDBRANCH  10  19
BRANCH   5  21
ATOM     21  O   UNL     1      16.616  -2.031   6.526  1.00  0.00    -0.507 OA
ATOM     22  H   UNL     1      16.424  -1.510   5.678  1.00  0.00     0.293 HD
ENDBRANCH   5  21
BRANCH   7  23
ATOM     23  O   UNL     1      12.109  -2.358   8.193  1.00  0.00    -0.507 OA
ATOM     24  H   UNL     1      11.496  -1.626   7.864  1.00  0.00     0.293 HD
ENDBRANCH   7  23
TORSDOF 5
ENDMDL
MODEL 7
REMARK VINA RESULT:    -5.523      4.078      7.323
REMARK INTER + INTRA:          -6.772
REMARK INTER:                  -6.498
REMARK INTRA:                  -0.274
REMARK UNBOUND:                -0.281
REMARK SMILES Oc1ccc(-c2[o+]c3cc(O)cc(O)c3cc2O)cc1
REMARK SMILES IDX 6 1 7 2 8 3 9 4 10 5 12 6 13 7 15 8 16 9 17 10 5 11 4 12
REMARK SMILES IDX 3 13 2 14 19 15 20 16 1 17 18 19 11 21 14 23
REMARK H PARENT 1 18 18 20 11 22 14 24
REMARK Flexibility Score: inf
ROOT
ATOM      1  C   UNL     1      16.750  -1.729  14.112  1.00  0.00     0.401 A 
ATOM      2  O   UNL     1      17.361  -1.255  13.029  1.00  0.00    -0.202 OA
ATOM      3  C   UNL     1      18.674  -1.065  12.957  1.00  0.00     0.368 A 
ATOM      4  C   UNL     1      19.225  -0.566  11.774  1.00  0.00     0.162 A 
ATOM      5  C   UNL     1      20.601  -0.359  11.669  1.00  0.00     0.128 A 
ATOM      6  C   UNL     1      21.434  -0.653  12.753  1.00  0.00     0.093 A 
ATOM      7  C   UNL     1      20.907  -1.154  13.950  1.00  0.00     0.136 A 
ATOM      8  C   UNL     1      19.508  -1.364  14.062  1.00  0.00     0.125 A 
ATOM      9  C   UNL     1      18.890  -1.850  15.226  1.00  0.00     0.078 A 
ATOM     10  C   UNL     1      17.504  -2.026  15.262  1.00  0.00     0.223 A 
ENDROOT
BRANCH   1  11
ATOM     11  C   UNL     1      15.280  -1.906  14.064  1.00  0.00     0.084 A 
ATOM     12  C   UNL     1      14.448  -0.941  14.657  1.00  0.00     0.022 A 
ATOM     13  C   UNL     1      13.057  -1.077  14.606  1.00  0.00     0.047 A 
ATOM     14  C   UNL     1      12.481  -2.169  13.949  1.00  0.00     0.115 A 
ATOM     15  C   UNL     1      14.693  -2.992  13.388  1.00  0.00     0.022 A 
ATOM     16  C   UNL     1      13.303  -3.125  13.338  1.00  0.00     0.047 A 
BRANCH  14  17
ATOM     17  O   UNL     1      11.093  -2.292  13.907  1.00  0.00    -0.508 OA
ATOM     18  H   UNL     1      10.491  -1.652  14.411  1.00  0.00     0.293 HD
ENDBRANCH  14  17
ENDBRANCH   1  11
BRANCH  10  19
ATOM     19  O   UNL     1      16.884  -2.460  16.434  1.00  0.00    -0.500 OA
ATOM     20  H   UNL     1      16.966  -3.418  16.755  1.00  0.00     0.294 HD
ENDBRANCH  10  19
BRANCH   5  21
ATOM     21  O   UNL     1      21.131   0.139  10.481  1.00  0.00    -0.507 OA
ATOM     22  H   UNL     1      21.958   0.724  10.474  1.00  0.00     0.293 HD
ENDBRANCH   5  21
BRANCH   7  23
ATOM     23  O   UNL     1      21.806  -1.426  14.986  1.00  0.00    -0.507 OA
ATOM     24  H   UNL     1      22.446  -2.206  14.994  1.00  0.00     0.293 HD
ENDBRANCH   7  23
TORSDOF 5
ENDMDL
MODEL 8
REMARK VINA RESULT:    -5.511      1.963      2.339
REMARK INTER + INTRA:          -6.758
REMARK INTER:                  -6.440
REMARK INTRA:                  -0.318
REMARK UNBOUND:                -0.281
REMARK SMILES Oc1ccc(-c2[o+]c3cc(O)cc(O)c3cc2O)cc1
REMARK SMILES IDX 6 1 7 2 8 3 9 4 10 5 12 6 13 7 15 8 16 9 17 10 5 11 4 12
REMARK SMILES IDX 3 13 2 14 19 15 20 16 1 17 18 19 11 21 14 23
REMARK H PARENT 1 18 18 20 11 22 14 24
REMARK Flexibility Score: inf
ROOT
ATOM      1  C   UNL     1      17.779  -1.003  12.686  1.00  0.00     0.401 A 
ATOM      2  O   UNL     1      17.831  -1.098  11.361  1.00  0.00    -0.202 OA
ATOM      3  C   UNL     1      16.783  -1.425  10.611  1.00  0.00     0.368 A 
ATOM      4  C   UNL     1      16.935  -1.496   9.224  1.00  0.00     0.162 A 
ATOM      5  C   UNL     1      15.851  -1.834   8.412  1.00  0.00     0.128 A 
ATOM      6  C   UNL     1      14.605  -2.102   8.990  1.00  0.00     0.093 A 
ATOM      7  C   UNL     1      14.427  -2.037  10.377  1.00  0.00     0.136 A 
ATOM      8  C   UNL     1      15.527  -1.696  11.207  1.00  0.00     0.125 A 
ATOM      9  C   UNL     1      15.445  -1.620  12.606  1.00  0.00     0.078 A 
ATOM     10  C   UNL     1      16.575  -1.283  13.358  1.00  0.00     0.223 A 
ENDROOT
BRANCH   1  11
ATOM     11  C   UNL     1      19.014  -0.621  13.409  1.00  0.00     0.084 A 
ATOM     12  C   UNL     1      19.249   0.731  13.710  1.00  0.00     0.022 A 
ATOM     13  C   UNL     1      20.398   1.113  14.410  1.00  0.00     0.047 A 
ATOM     14  C   UNL     1      21.317   0.147  14.831  1.00  0.00     0.115 A 
ATOM     15  C   UNL     1      19.935  -1.589  13.852  1.00  0.00     0.022 A 
ATOM     16  C   UNL     1      21.082  -1.205  14.553  1.00  0.00     0.047 A 
BRANCH  14  17
ATOM     17  O   UNL     1      22.459   0.542  15.527  1.00  0.00    -0.508 OA
ATOM     18  H   UNL     1      22.994  -0.117  16.081  1.00  0.00     0.293 HD
ENDBRANCH  14  17
ENDBRANCH   1  11
BRANCH  10  19
ATOM     19  O   UNL     1      16.507  -1.256  14.751  1.00  0.00    -0.500 OA
ATOM     20  H   UNL     1      16.969  -1.956  15.319  1.00  0.00     0.294 HD
ENDBRANCH  10  19
BRANCH   5  21
ATOM     21  O   UNL     1      16.022  -1.899   7.032  1.00  0.00    -0.507 OA
ATOM     22  H   UNL     1      16.312  -1.090   6.495  1.00  0.00     0.293 HD
ENDBRANCH   5  21
BRANCH   7  23
ATOM     23  O   UNL     1      13.151  -2.315  10.876  1.00  0.00    -0.507 OA
ATOM     24  H   UNL     1      12.297  -1.918  10.512  1.00  0.00     0.293 HD
ENDBRANCH   7  23
TORSDOF 5
ENDMDL
MODEL 9
REMARK VINA RESULT:    -5.274      4.285      5.755
REMARK INTER + INTRA:          -6.481
REMARK INTER:                  -6.181
REMARK INTRA:                  -0.300
REMARK UNBOUND:                -0.281
REMARK SMILES Oc1ccc(-c2[o+]c3cc(O)cc(O)c3cc2O)cc1
REMARK SMILES IDX 6 1 7 2 8 3 9 4 10 5 12 6 13 7 15 8 16 9 17 10 5 11 4 12
REMARK SMILES IDX 3 13 2 14 19 15 20 16 1 17 18 19 11 21 14 23
REMARK H PARENT 1 18 18 20 11 22 14 24
REMARK Flexibility Score: inf
ROOT
ATOM      1  C   UNL     1      15.249  -1.280  14.017  1.00  0.00     0.401 A 
ATOM      2  O   UNL     1      14.092  -1.481  14.643  1.00  0.00    -0.202 OA
ATOM      3  C   UNL     1      12.995  -1.911  14.028  1.00  0.00     0.368 A 
ATOM      4  C   UNL     1      11.826  -2.095  14.772  1.00  0.00     0.162 A 
ATOM      5  C   UNL     1      10.660  -2.548  14.153  1.00  0.00     0.128 A 
ATOM      6  C   UNL     1      10.661  -2.820  12.781  1.00  0.00     0.093 A 
ATOM      7  C   UNL     1      11.819  -2.643  12.013  1.00  0.00     0.136 A 
ATOM      8  C   UNL     1      13.006  -2.181  12.638  1.00  0.00     0.125 A 
ATOM      9  C   UNL     1      14.209  -1.962  11.946  1.00  0.00     0.078 A 
ATOM     10  C   UNL     1      15.337  -1.500  12.630  1.00  0.00     0.223 A 
ENDROOT
BRANCH   1  11
ATOM     11  C   UNL     1      16.404  -0.809  14.816  1.00  0.00     0.084 A 
ATOM     12  C   UNL     1      16.687   0.566  14.877  1.00  0.00     0.022 A 
ATOM     13  C   UNL     1      17.760   1.035  15.642  1.00  0.00     0.047 A 
ATOM     14  C   UNL     1      18.551   0.140  16.367  1.00  0.00     0.115 A 
ATOM     15  C   UNL     1      17.192  -1.703  15.565  1.00  0.00     0.022 A 
ATOM     16  C   UNL     1      18.263  -1.231  16.329  1.00  0.00     0.047 A 
BRANCH  14  17
ATOM     17  O   UNL     1      19.617   0.622  17.125  1.00  0.00    -0.508 OA
ATOM     18  H   UNL     1      20.012   1.539  16.957  1.00  0.00     0.293 HD
ENDBRANCH  14  17
ENDBRANCH   1  11
BRANCH  10  19
ATOM     19  O   UNL     1      16.517  -1.235  11.935  1.00  0.00    -0.500 OA
ATOM     20  H   UNL     1      17.406  -1.144  12.413  1.00  0.00     0.294 HD
ENDBRANCH  10  19
BRANCH   5  21
ATOM     21  O   UNL     1       9.506  -2.726  14.912  1.00  0.00    -0.507 OA
ATOM     22  H   UNL     1       9.214  -2.042  15.600  1.00  0.00     0.293 HD
ENDBRANCH   5  21
BRANCH   7  23
ATOM     23  O   UNL     1      11.739  -2.940  10.649  1.00  0.00    -0.507 OA
ATOM     24  H   UNL     1      10.875  -3.049  10.139  1.00  0.00     0.293 HD
ENDBRANCH   7  23
TORSDOF 5
ENDMDL
