MODEL 1
REMARK VINA RESULT:    -5.565      0.000      0.000
REMARK INTER + INTRA:         -13.160
REMARK INTER:                 -11.747
REMARK INTRA:                  -1.413
REMARK UNBOUND:                -1.413
REMARK SMILES CCC(=O)CCCCC[C@H]1NC(=O)[C@H]2CCCCN2C(=O)[C@@H]([C@@H](C)CC)NC(=O)[C@H](Cc2cn(OC)c3ccccc23)NC1=O
REMARK SMILES IDX 9 1 10 2 44 3 43 4 45 6 30 7 28 8 27 9 29 11 22 12 23 14
REMARK SMILES IDX 24 15 25 16 26 17 31 18 32 19 33 20 42 21 34 22 37 23 41 24
REMARK SMILES IDX 38 25 40 26 39 27 35 28 36 29 11 30 12 31 13 33 14 34 19 35
REMARK SMILES IDX 15 36 18 37 16 38 17 39 20 40 21 41 8 43 7 44 6 45 5 46 3 47
REMARK SMILES IDX 4 48 2 49 1 50
REMARK H PARENT 43 5 27 10 11 32
REMARK Flexibility Score: 80.00
ROOT
ATOM      1  C   UNL     1     -26.546 -21.737  39.995  1.00  0.00     0.035 C 
ENDROOT
BRANCH   1   2
ATOM      2  C   UNL     1     -26.745 -21.907  41.518  1.00  0.00     0.171 C 
BRANCH   2   3
ATOM      3  C   UNL     1     -27.072 -23.310  41.963  1.00  0.00     0.243 C 
ATOM      4  N   UNL     1     -26.869 -24.465  41.121  1.00  0.00    -0.342 N 
ATOM      5  H   UNL     1     -26.368 -24.367  40.219  1.00  0.00     0.164 HD
ATOM      6  O   UNL     1     -27.606 -23.445  43.100  1.00  0.00    -0.273 OA
BRANCH   4   7
ATOM      7  C   UNL     1     -27.422 -25.785  41.420  1.00  0.00     0.175 C 
BRANCH   7   8
ATOM      8  C   UNL     1     -28.748 -25.616  42.125  1.00  0.00     0.243 C 
ATOM      9  N   UNL     1     -29.768 -24.817  41.514  1.00  0.00    -0.342 N 
ATOM     10  H   UNL     1     -29.673 -24.581  40.502  1.00  0.00     0.164 HD
ATOM     11  O   UNL     1     -28.926 -26.097  43.276  1.00  0.00    -0.273 OA
BRANCH   9  12
ATOM     12  C   UNL     1     -30.817 -24.141  42.288  1.00  0.00     0.174 CG0
ATOM     13  G   UNL     1     -31.138 -22.805  41.647  1.00  0.00     0.000 G0
BRANCH  12  14
ATOM     14  C   UNL     1     -32.073 -25.053  42.464  1.00  0.00     0.018 C 
ATOM     15  C   UNL     1     -31.940 -26.429  41.786  1.00  0.00     0.010 C 
BRANCH  14  16
ATOM     16  C   UNL     1     -32.433 -25.218  43.963  1.00  0.00     0.002 C 
ATOM     17  C   UNL     1     -31.609 -24.309  44.885  1.00  0.00     0.004 C 
ENDBRANCH  14  16
ENDBRANCH  12  14
ENDBRANCH   9  12
ENDBRANCH   7   8
BRANCH   7  18
ATOM     18  C   UNL     1     -26.401 -26.639  42.205  1.00  0.00     0.073 C 
BRANCH  18  19
ATOM     19  C   UNL     1     -25.560 -27.496  41.296  1.00  0.00    -0.016 A 
ATOM     20  C   UNL     1     -25.999 -28.596  40.559  1.00  0.00     0.134 A 
ATOM     21  C   UNL     1     -24.240 -27.293  40.925  1.00  0.00     0.006 A 
ATOM     22  N   UNL     1     -24.991 -29.052  39.780  1.00  0.00    -0.191 N 
ATOM     23  C   UNL     1     -23.930 -28.264  40.000  1.00  0.00     0.087 A 
ATOM     24  C   UNL     1     -23.311 -26.327  41.314  1.00  0.00     0.011 A 
ATOM     25  C   UNL     1     -22.670 -28.328  39.401  1.00  0.00     0.030 A 
ATOM     26  C   UNL     1     -22.040 -26.359  40.709  1.00  0.00     0.001 A 
ATOM     27  C   UNL     1     -21.724 -27.350  39.759  1.00  0.00     0.002 A 
BRANCH  22  28
ATOM     28  O   UNL     1     -25.029 -30.113  38.890  1.00  0.00    -0.417 OA
ATOM     29  C   UNL     1     -25.878 -31.243  39.093  1.00  0.00     0.313 C 
ENDBRANCH  22  28
ENDBRANCH  18  19
ENDBRANCH   7  18
ENDBRANCH   4   7
ENDBRANCH   2   3
BRANCH   2  30
ATOM     30  N   UNL     1     -27.746 -20.986  42.071  1.00  0.00    -0.343 N 
ATOM     31  C   UNL     1     -29.053 -20.795  41.504  1.00  0.00     0.243 C 
ATOM     32  H   UNL     1     -27.566 -20.606  43.031  1.00  0.00     0.164 HD
ATOM     33  O   UNL     1     -29.164 -20.633  40.260  1.00  0.00    -0.273 OA
BRANCH  31  34
ATOM     34  C   UNL     1     -30.235 -20.559  42.428  1.00  0.00     0.174 C 
ATOM     35  N   UNL     1     -31.305 -21.593  42.345  1.00  0.00    -0.329 N 
ATOM     36  C   UNL     1     -30.823 -19.156  42.157  1.00  0.00     0.035 C 
ATOM     37  C   UNL     1     -32.555 -21.362  43.082  1.00  0.00     0.120 C 
ATOM     38  C   UNL     1     -32.073 -18.905  43.012  1.00  0.00     0.004 C 
ATOM     39  C   UNL     1     -33.119 -19.986  42.723  1.00  0.00     0.022 C 
BRANCH  35  40
ATOM     40  C   UNL     1     -31.154 -22.823  41.614  1.00  0.00     0.246 CG0
ATOM     41  O   UNL     1     -31.320 -22.821  40.365  1.00  0.00    -0.272 OA
ATOM     42  G   UNL     1     -30.818 -24.118  42.329  1.00  0.00     0.000 G0
ENDBRANCH  35  40
ENDBRANCH  31  34
ENDBRANCH   2  30
ENDBRANCH   1   2
BRANCH   1  43
ATOM     43  C   UNL     1     -25.171 -21.146  39.621  1.00  0.00     0.003 C 
BRANCH  43  44
ATOM     44  C   UNL     1     -24.109 -21.344  40.721  1.00  0.00     0.001 C 
BRANCH  44  45
ATOM     45  C   UNL     1     -23.523 -22.763  40.731  1.00  0.00     0.008 C 
BRANCH  45  46
ATOM     46  C   UNL     1     -22.016 -22.776  40.430  1.00  0.00     0.075 C 
BRANCH  46  47
ATOM     47  C   UNL     1     -21.651 -22.315  39.038  1.00  0.00     0.132 C 
ATOM     48  O   UNL     1     -22.210 -22.844  38.094  1.00  0.00    -0.300 OA
BRANCH  47  49
ATOM     49  C   UNL     1     -20.578 -21.292  38.750  1.00  0.00     0.072 C 
ATOM     50  C   UNL     1     -21.056 -19.882  39.089  1.00  0.00     0.012 C 
ENDBRANCH  47  49
ENDBRANCH  46  47
ENDBRANCH  45  46
ENDBRANCH  44  45
ENDBRANCH  43  44
ENDBRANCH   1  43
TORSDOF 12
ENDMDL
MODEL 2
REMARK VINA RESULT:    -5.357      6.017     12.153
REMARK INTER + INTRA:         -12.720
REMARK INTER:                 -11.328
REMARK INTRA:                  -1.393
REMARK UNBOUND:                -1.413
REMARK SMILES CCC(=O)CCCCC[C@H]1NC(=O)[C@H]2CCCCN2C(=O)[C@@H]([C@@H](C)CC)NC(=O)[C@H](Cc2cn(OC)c3ccccc23)NC1=O
REMARK SMILES IDX 9 1 10 2 44 3 43 4 45 6 30 7 28 8 27 9 29 11 22 12 23 14
REMARK SMILES IDX 24 15 25 16 26 17 31 18 32 19 33 20 42 21 34 22 37 23 41 24
REMARK SMILES IDX 38 25 40 26 39 27 35 28 36 29 11 30 12 31 13 33 14 34 19 35
REMARK SMILES IDX 15 36 18 37 16 38 17 39 20 40 21 41 8 43 7 44 6 45 5 46 3 47
REMARK SMILES IDX 4 48 2 49 1 50
REMARK H PARENT 43 5 27 10 11 32
REMARK Flexibility Score: 80.00
ROOT
ATOM      1  C   UNL     1     -17.038 -23.576  38.499  1.00  0.00     0.035 C 
ENDROOT
BRANCH   1   2
ATOM      2  C   UNL     1     -16.864 -22.133  39.026  1.00  0.00     0.171 C 
BRANCH   2   3
ATOM      3  C   UNL     1     -18.126 -21.309  39.048  1.00  0.00     0.243 C 
ATOM      4  N   UNL     1     -19.373 -21.772  38.488  1.00  0.00    -0.342 N 
ATOM      5  H   UNL     1     -19.462 -22.752  38.161  1.00  0.00     0.164 HD
ATOM      6  O   UNL     1     -18.044 -20.141  39.525  1.00  0.00    -0.273 OA
BRANCH   4   7
ATOM      7  C   UNL     1     -20.524 -20.900  38.256  1.00  0.00     0.175 C 
BRANCH   7   8
ATOM      8  C   UNL     1     -20.155 -19.862  37.222  1.00  0.00     0.243 C 
ATOM      9  N   UNL     1     -19.582 -20.285  35.979  1.00  0.00    -0.342 N 
ATOM     10  H   UNL     1     -19.662 -21.290  35.713  1.00  0.00     0.164 HD
ATOM     11  O   UNL     1     -20.266 -18.633  37.481  1.00  0.00    -0.273 OA
BRANCH   9  12
ATOM     12  C   UNL     1     -18.708 -19.422  35.174  1.00  0.00     0.174 CG0
ATOM     13  G   UNL     1     -17.439 -20.175  34.823  1.00  0.00     0.000 G0
BRANCH  12  14
ATOM     14  C   UNL     1     -19.454 -18.865  33.920  1.00  0.00     0.018 C 
ATOM     15  C   UNL     1     -20.824 -19.524  33.670  1.00  0.00     0.010 C 
BRANCH  14  16
ATOM     16  C   UNL     1     -19.599 -17.324  34.001  1.00  0.00     0.002 C 
ATOM     17  C   UNL     1     -20.889 -16.875  34.702  1.00  0.00     0.004 C 
ENDBRANCH  14  16
ENDBRANCH  12  14
ENDBRANCH   9  12
ENDBRANCH   7   8
BRANCH   7  18
ATOM     18  C   UNL     1     -21.033 -20.303  39.587  1.00  0.00     0.073 C 
BRANCH  18  19
ATOM     19  C   UNL     1     -22.452 -20.710  39.885  1.00  0.00    -0.016 A 
ATOM     20  C   UNL     1     -23.597 -19.952  39.637  1.00  0.00     0.134 A 
ATOM     21  C   UNL     1     -22.902 -21.939  40.342  1.00  0.00     0.006 A 
ATOM     22  N   UNL     1     -24.698 -20.680  39.938  1.00  0.00    -0.191 N 
ATOM     23  C   UNL     1     -24.278 -21.880  40.361  1.00  0.00     0.087 A 
ATOM     24  C   UNL     1     -22.212 -23.093  40.715  1.00  0.00     0.011 A 
ATOM     25  C   UNL     1     -25.051 -22.975  40.754  1.00  0.00     0.030 A 
ATOM     26  C   UNL     1     -22.970 -24.217  41.095  1.00  0.00     0.001 A 
ATOM     27  C   UNL     1     -24.378 -24.158  41.111  1.00  0.00     0.002 A 
BRANCH  22  28
ATOM     28  O   UNL     1     -26.022 -20.295  39.814  1.00  0.00    -0.417 OA
ATOM     29  C   UNL     1     -26.782 -19.821  40.926  1.00  0.00     0.313 C 
ENDBRANCH  22  28
ENDBRANCH  18  19
ENDBRANCH   7  18
ENDBRANCH   4   7
ENDBRANCH   2   3
BRANCH   2  30
ATOM     30  N   UNL     1     -15.819 -21.386  38.315  1.00  0.00    -0.343 N 
ATOM     31  C   UNL     1     -15.713 -21.330  36.883  1.00  0.00     0.243 C 
ATOM     32  H   UNL     1     -15.252 -20.707  38.877  1.00  0.00     0.164 HD
ATOM     33  O   UNL     1     -15.811 -22.396  36.219  1.00  0.00    -0.273 OA
BRANCH  31  34
ATOM     34  C   UNL     1     -15.254 -20.043  36.222  1.00  0.00     0.174 C 
ATOM     35  N   UNL     1     -16.128 -19.568  35.112  1.00  0.00    -0.329 N 
ATOM     36  C   UNL     1     -13.801 -20.211  35.726  1.00  0.00     0.035 C 
ATOM     37  C   UNL     1     -15.676 -18.422  34.311  1.00  0.00     0.120 C 
ATOM     38  C   UNL     1     -13.322 -18.960  34.977  1.00  0.00     0.004 C 
ATOM     39  C   UNL     1     -14.257 -18.678  33.798  1.00  0.00     0.022 C 
BRANCH  35  40
ATOM     40  C   UNL     1     -17.409 -20.153  34.815  1.00  0.00     0.246 CG0
ATOM     41  O   UNL     1     -17.456 -21.262  34.222  1.00  0.00    -0.272 OA
ATOM     42  G   UNL     1     -18.694 -19.442  35.192  1.00  0.00     0.000 G0
ENDBRANCH  35  40
ENDBRANCH  31  34
ENDBRANCH   2  30
ENDBRANCH   1   2
BRANCH   1  43
ATOM     43  C   UNL     1     -17.411 -24.588  39.602  1.00  0.00     0.003 C 
BRANCH  43  44
ATOM     44  C   UNL     1     -18.288 -25.746  39.089  1.00  0.00     0.001 C 
BRANCH  44  45
ATOM     45  C   UNL     1     -19.752 -25.625  39.537  1.00  0.00     0.008 C 
BRANCH  45  46
ATOM     46  C   UNL     1     -20.731 -26.185  38.493  1.00  0.00     0.075 C 
BRANCH  46  47
ATOM     47  C   UNL     1     -21.632 -27.285  39.005  1.00  0.00     0.132 C 
ATOM     48  O   UNL     1     -21.953 -28.170  38.233  1.00  0.00    -0.300 OA
BRANCH  47  49
ATOM     49  C   UNL     1     -22.218 -27.306  40.397  1.00  0.00     0.072 C 
ATOM     50  C   UNL     1     -22.853 -28.659  40.708  1.00  0.00     0.012 C 
ENDBRANCH  47  49
ENDBRANCH  46  47
ENDBRANCH  45  46
ENDBRANCH  44  45
ENDBRANCH  43  44
ENDBRANCH   1  43
TORSDOF 12
ENDMDL
MODEL 3
REMARK VINA RESULT:    -5.213      3.735      9.972
REMARK INTER + INTRA:         -12.416
REMARK INTER:                 -11.991
REMARK INTRA:                  -0.424
REMARK UNBOUND:                -1.413
REMARK SMILES CCC(=O)CCCCC[C@H]1NC(=O)[C@H]2CCCCN2C(=O)[C@@H]([C@@H](C)CC)NC(=O)[C@H](Cc2cn(OC)c3ccccc23)NC1=O
REMARK SMILES IDX 9 1 10 2 44 3 43 4 45 6 30 7 28 8 27 9 29 11 22 12 23 14
REMARK SMILES IDX 24 15 25 16 26 17 31 18 32 19 33 20 42 21 34 22 37 23 41 24
REMARK SMILES IDX 38 25 40 26 39 27 35 28 36 29 11 30 12 31 13 33 14 34 19 35
REMARK SMILES IDX 15 36 18 37 16 38 17 39 20 40 21 41 8 43 7 44 6 45 5 46 3 47
REMARK SMILES IDX 4 48 2 49 1 50
REMARK H PARENT 43 5 27 10 11 32
REMARK Flexibility Score: 80.00
ROOT
ATOM      1  C   UNL     1     -21.097 -26.273  39.268  1.00  0.00     0.035 C 
ENDROOT
BRANCH   1   2
ATOM      2  C   UNL     1     -20.670 -25.080  40.154  1.00  0.00     0.171 C 
BRANCH   2   3
ATOM      3  C   UNL     1     -21.779 -24.123  40.507  1.00  0.00     0.243 C 
ATOM      4  N   UNL     1     -22.738 -23.645  39.540  1.00  0.00    -0.342 N 
ATOM      5  H   UNL     1     -22.761 -24.054  38.588  1.00  0.00     0.164 HD
ATOM      6  O   UNL     1     -21.808 -23.686  41.693  1.00  0.00    -0.273 OA
BRANCH   4   7
ATOM      7  C   UNL     1     -23.643 -22.524  39.790  1.00  0.00     0.175 C 
BRANCH   7   8
ATOM      8  C   UNL     1     -22.826 -21.282  40.061  1.00  0.00     0.243 C 
ATOM      9  N   UNL     1     -22.328 -20.519  38.957  1.00  0.00    -0.342 N 
ATOM     10  H   UNL     1     -22.739 -20.686  38.013  1.00  0.00     0.164 HD
ATOM     11  O   UNL     1     -22.511 -20.968  41.241  1.00  0.00    -0.273 OA
BRANCH   9  12
ATOM     12  C   UNL     1     -21.127 -19.677  39.051  1.00  0.00     0.174 CG0
ATOM     13  G   UNL     1     -20.051 -20.226  38.134  1.00  0.00     0.000 G0
BRANCH  12  14
ATOM     14  C   UNL     1     -21.460 -18.176  38.773  1.00  0.00     0.018 C 
ATOM     15  C   UNL     1     -22.831 -17.958  38.106  1.00  0.00     0.010 C 
BRANCH  14  16
ATOM     16  C   UNL     1     -21.346 -17.334  40.069  1.00  0.00     0.002 C 
ATOM     17  C   UNL     1     -22.648 -17.297  40.881  1.00  0.00     0.004 C 
ENDBRANCH  14  16
ENDBRANCH  12  14
ENDBRANCH   9  12
ENDBRANCH   7   8
BRANCH   7  18
ATOM     18  C   UNL     1     -24.644 -22.872  40.916  1.00  0.00     0.073 C 
BRANCH  18  19
ATOM     19  C   UNL     1     -25.917 -22.075  40.810  1.00  0.00    -0.016 A 
ATOM     20  C   UNL     1     -26.129 -20.964  39.993  1.00  0.00     0.134 A 
ATOM     21  C   UNL     1     -27.141 -22.354  41.399  1.00  0.00     0.006 A 
ATOM     22  N   UNL     1     -27.422 -20.574  40.085  1.00  0.00    -0.191 N 
ATOM     23  C   UNL     1     -28.032 -21.414  40.932  1.00  0.00     0.087 A 
ATOM     24  C   UNL     1     -27.532 -23.361  42.281  1.00  0.00     0.011 A 
ATOM     25  C   UNL     1     -29.375 -21.426  41.317  1.00  0.00     0.030 A 
ATOM     26  C   UNL     1     -28.885 -23.406  42.667  1.00  0.00     0.001 A 
ATOM     27  C   UNL     1     -29.798 -22.448  42.186  1.00  0.00     0.002 A 
BRANCH  22  28
ATOM     28  O   UNL     1     -28.035 -19.526  39.418  1.00  0.00    -0.417 OA
ATOM     29  C   UNL     1     -27.990 -18.185  39.908  1.00  0.00     0.313 C 
ENDBRANCH  22  28
ENDBRANCH  18  19
ENDBRANCH   7  18
ENDBRANCH   4   7
ENDBRANCH   2   3
BRANCH   2  30
ATOM     30  N   UNL     1     -19.547 -24.321  39.589  1.00  0.00    -0.343 N 
ATOM     31  C   UNL     1     -19.670 -22.990  39.060  1.00  0.00     0.243 C 
ATOM     32  H   UNL     1     -18.583 -24.693  39.764  1.00  0.00     0.164 HD
ATOM     33  O   UNL     1     -20.622 -22.727  38.279  1.00  0.00    -0.273 OA
BRANCH  31  34
ATOM     34  C   UNL     1     -18.533 -22.004  39.261  1.00  0.00     0.174 C 
ATOM     35  N   UNL     1     -18.771 -20.654  38.674  1.00  0.00    -0.329 N 
ATOM     36  C   UNL     1     -17.226 -22.609  38.703  1.00  0.00     0.035 C 
ATOM     37  C   UNL     1     -17.663 -19.688  38.679  1.00  0.00     0.120 C 
ATOM     38  C   UNL     1     -16.064 -21.611  38.810  1.00  0.00     0.004 C 
ATOM     39  C   UNL     1     -16.419 -20.326  38.057  1.00  0.00     0.022 C 
BRANCH  35  40
ATOM     40  C   UNL     1     -20.043 -20.241  38.143  1.00  0.00     0.246 CG0
ATOM     41  O   UNL     1     -20.246 -20.319  36.902  1.00  0.00    -0.272 OA
ATOM     42  G   UNL     1     -21.128 -19.699  39.054  1.00  0.00     0.000 G0
ENDBRANCH  35  40
ENDBRANCH  31  34
ENDBRANCH   2  30
ENDBRANCH   1   2
BRANCH   1  43
ATOM     43  C   UNL     1     -22.023 -27.271  39.994  1.00  0.00     0.003 C 
BRANCH  43  44
ATOM     44  C   UNL     1     -22.489 -28.430  39.091  1.00  0.00     0.001 C 
BRANCH  44  45
ATOM     45  C   UNL     1     -23.614 -29.261  39.726  1.00  0.00     0.008 C 
BRANCH  45  46
ATOM     46  C   UNL     1     -24.200 -28.591  40.979  1.00  0.00     0.075 C 
BRANCH  46  47
ATOM     47  C   UNL     1     -25.496 -27.849  40.745  1.00  0.00     0.132 C 
ATOM     48  O   UNL     1     -26.226 -28.238  39.851  1.00  0.00    -0.300 OA
BRANCH  47  49
ATOM     49  C   UNL     1     -25.899 -26.608  41.506  1.00  0.00     0.072 C 
ATOM     50  C   UNL     1     -24.799 -26.172  42.471  1.00  0.00     0.012 C 
ENDBRANCH  47  49
ENDBRANCH  46  47
ENDBRANCH  45  46
ENDBRANCH  44  45
ENDBRANCH  43  44
ENDBRANCH   1  43
TORSDOF 12
ENDMDL
MODEL 4
REMARK VINA RESULT:    -5.195      5.571      9.638
REMARK INTER + INTRA:         -12.379
REMARK INTER:                 -11.196
REMARK INTRA:                  -1.183
REMARK UNBOUND:                -1.413
REMARK SMILES CCC(=O)CCCCC[C@H]1NC(=O)[C@H]2CCCCN2C(=O)[C@@H]([C@@H](C)CC)NC(=O)[C@H](Cc2cn(OC)c3ccccc23)NC1=O
REMARK SMILES IDX 9 1 10 2 44 3 43 4 45 6 30 7 28 8 27 9 29 11 22 12 23 14
REMARK SMILES IDX 24 15 25 16 26 17 31 18 32 19 33 20 42 21 34 22 37 23 41 24
REMARK SMILES IDX 38 25 40 26 39 27 35 28 36 29 11 30 12 31 13 33 14 34 19 35
REMARK SMILES IDX 15 36 18 37 16 38 17 39 20 40 21 41 8 43 7 44 6 45 5 46 3 47
REMARK SMILES IDX 4 48 2 49 1 50
REMARK H PARENT 43 5 27 10 11 32
REMARK Flexibility Score: 80.00
ROOT
ATOM      1  C   UNL     1     -17.282 -25.671  37.102  1.00  0.00     0.035 C 
ENDROOT
BRANCH   1   2
ATOM      2  C   UNL     1     -17.341 -25.398  38.623  1.00  0.00     0.171 C 
BRANCH   2   3
ATOM      3  C   UNL     1     -18.706 -25.551  39.243  1.00  0.00     0.243 C 
ATOM      4  N   UNL     1     -19.811 -26.177  38.557  1.00  0.00    -0.342 N 
ATOM      5  H   UNL     1     -19.655 -26.656  37.652  1.00  0.00     0.164 HD
ATOM      6  O   UNL     1     -18.880 -25.043  40.387  1.00  0.00    -0.273 OA
BRANCH   4   7
ATOM      7  C   UNL     1     -21.195 -26.097  39.022  1.00  0.00     0.175 C 
BRANCH   7   8
ATOM      8  C   UNL     1     -21.438 -24.728  39.614  1.00  0.00     0.243 C 
ATOM      9  N   UNL     1     -21.131 -23.565  38.836  1.00  0.00    -0.342 N 
ATOM     10  H   UNL     1     -20.988 -23.679  37.809  1.00  0.00     0.164 HD
ATOM     11  O   UNL     1     -21.822 -24.607  40.808  1.00  0.00    -0.273 OA
BRANCH   9  12
ATOM     12  C   UNL     1     -20.796 -22.270  39.443  1.00  0.00     0.174 CG0
ATOM     13  G   UNL     1     -19.798 -21.542  38.564  1.00  0.00     0.000 G0
BRANCH  12  14
ATOM     14  C   UNL     1     -22.080 -21.429  39.736  1.00  0.00     0.018 C 
ATOM     15  C   UNL     1     -23.325 -21.911  38.968  1.00  0.00     0.010 C 
BRANCH  14  16
ATOM     16  C   UNL     1     -22.369 -21.371  41.258  1.00  0.00     0.002 C 
ATOM     17  C   UNL     1     -22.693 -19.955  41.756  1.00  0.00     0.004 C 
ENDBRANCH  14  16
ENDBRANCH  12  14
ENDBRANCH   9  12
ENDBRANCH   7   8
BRANCH   7  18
ATOM     18  C   UNL     1     -21.515 -27.261  39.987  1.00  0.00     0.073 C 
BRANCH  18  19
ATOM     19  C   UNL     1     -22.910 -27.794  39.791  1.00  0.00    -0.016 A 
ATOM     20  C   UNL     1     -23.279 -28.859  38.969  1.00  0.00     0.134 A 
ATOM     21  C   UNL     1     -24.060 -27.420  40.468  1.00  0.00     0.006 A 
ATOM     22  N   UNL     1     -24.598 -29.118  39.126  1.00  0.00    -0.191 N 
ATOM     23  C   UNL     1     -25.068 -28.251  40.032  1.00  0.00     0.087 A 
ATOM     24  C   UNL     1     -24.285 -26.438  41.433  1.00  0.00     0.011 A 
ATOM     25  C   UNL     1     -26.366 -28.153  40.539  1.00  0.00     0.030 A 
ATOM     26  C   UNL     1     -25.580 -26.334  41.974  1.00  0.00     0.001 A 
ATOM     27  C   UNL     1     -26.611 -27.187  41.532  1.00  0.00     0.002 A 
BRANCH  22  28
ATOM     28  O   UNL     1     -25.341 -30.107  38.504  1.00  0.00    -0.417 OA
ATOM     29  C   UNL     1     -25.618 -31.358  39.135  1.00  0.00     0.313 C 
ENDBRANCH  22  28
ENDBRANCH  18  19
ENDBRANCH   7  18
ENDBRANCH   4   7
ENDBRANCH   2   3
BRANCH   2  30
ATOM     30  N   UNL     1     -16.795 -24.084  38.989  1.00  0.00    -0.343 N 
ATOM     31  C   UNL     1     -17.207 -22.851  38.377  1.00  0.00     0.243 C 
ATOM     32  H   UNL     1     -16.230 -24.032  39.870  1.00  0.00     0.164 HD
ATOM     33  O   UNL     1     -17.296 -22.789  37.122  1.00  0.00    -0.273 OA
BRANCH  31  34
ATOM     34  C   UNL     1     -17.295 -21.595  39.226  1.00  0.00     0.174 C 
ATOM     35  N   UNL     1     -18.625 -20.921  39.201  1.00  0.00    -0.329 N 
ATOM     36  C   UNL     1     -16.187 -20.609  38.798  1.00  0.00     0.035 C 
ATOM     37  C   UNL     1     -18.756 -19.615  39.862  1.00  0.00     0.120 C 
ATOM     38  C   UNL     1     -16.290 -19.288  39.575  1.00  0.00     0.004 C 
ATOM     39  C   UNL     1     -17.671 -18.666  39.350  1.00  0.00     0.022 C 
BRANCH  35  40
ATOM     40  C   UNL     1     -19.793 -21.508  38.599  1.00  0.00     0.246 CG0
ATOM     41  O   UNL     1     -19.985 -21.364  37.362  1.00  0.00    -0.272 OA
ATOM     42  G   UNL     1     -20.796 -22.278  39.435  1.00  0.00     0.000 G0
ENDBRANCH  35  40
ENDBRANCH  31  34
ENDBRANCH   2  30
ENDBRANCH   1   2
BRANCH   1  43
ATOM     43  C   UNL     1     -16.316 -26.813  36.725  1.00  0.00     0.003 C 
BRANCH  43  44
ATOM     44  C   UNL     1     -15.893 -26.781  35.243  1.00  0.00     0.001 C 
BRANCH  44  45
ATOM     45  C   UNL     1     -14.460 -26.265  35.046  1.00  0.00     0.008 C 
BRANCH  45  46
ATOM     46  C   UNL     1     -14.391 -25.097  34.049  1.00  0.00     0.075 C 
BRANCH  46  47
ATOM     47  C   UNL     1     -14.713 -23.746  34.644  1.00  0.00     0.132 C 
ATOM     48  O   UNL     1     -14.216 -23.459  35.719  1.00  0.00    -0.300 OA
BRANCH  47  49
ATOM     49  C   UNL     1     -15.675 -22.764  34.018  1.00  0.00     0.072 C 
ATOM     50  C   UNL     1     -17.007 -23.432  33.687  1.00  0.00     0.012 C 
ENDBRANCH  47  49
ENDBRANCH  46  47
ENDBRANCH  45  46
ENDBRANCH  44  45
ENDBRANCH  43  44
ENDBRANCH   1  43
TORSDOF 12
ENDMDL
MODEL 5
REMARK VINA RESULT:    -5.174      5.489     10.220
REMARK INTER + INTRA:         -12.334
REMARK INTER:                 -11.517
REMARK INTRA:                  -0.817
REMARK UNBOUND:                -1.413
REMARK SMILES CCC(=O)CCCCC[C@H]1NC(=O)[C@H]2CCCCN2C(=O)[C@@H]([C@@H](C)CC)NC(=O)[C@H](Cc2cn(OC)c3ccccc23)NC1=O
REMARK SMILES IDX 9 1 10 2 44 3 43 4 45 6 30 7 28 8 27 9 29 11 22 12 23 14
REMARK SMILES IDX 24 15 25 16 26 17 31 18 32 19 33 20 42 21 34 22 37 23 41 24
REMARK SMILES IDX 38 25 40 26 39 27 35 28 36 29 11 30 12 31 13 33 14 34 19 35
REMARK SMILES IDX 15 36 18 37 16 38 17 39 20 40 21 41 8 43 7 44 6 45 5 46 3 47
REMARK SMILES IDX 4 48 2 49 1 50
REMARK H PARENT 43 5 27 10 11 32
REMARK Flexibility Score: 80.00
ROOT
ATOM      1  C   UNL     1     -17.496 -25.852  37.143  1.00  0.00     0.035 C 
ENDROOT
BRANCH   1   2
ATOM      2  C   UNL     1     -17.408 -25.597  38.665  1.00  0.00     0.171 C 
BRANCH   2   3
ATOM      3  C   UNL     1     -18.729 -25.630  39.391  1.00  0.00     0.243 C 
ATOM      4  N   UNL     1     -19.957 -26.053  38.762  1.00  0.00    -0.342 N 
ATOM      5  H   UNL     1     -19.936 -26.470  37.813  1.00  0.00     0.164 HD
ATOM      6  O   UNL     1     -18.744 -25.202  40.580  1.00  0.00    -0.273 OA
BRANCH   4   7
ATOM      7  C   UNL     1     -21.278 -25.840  39.351  1.00  0.00     0.175 C 
BRANCH   7   8
ATOM      8  C   UNL     1     -21.410 -24.389  39.752  1.00  0.00     0.243 C 
ATOM      9  N   UNL     1     -20.924 -23.372  38.868  1.00  0.00    -0.342 N 
ATOM     10  H   UNL     1     -20.724 -23.631  37.877  1.00  0.00     0.164 HD
ATOM     11  O   UNL     1     -21.861 -24.077  40.887  1.00  0.00    -0.273 OA
BRANCH   9  12
ATOM     12  C   UNL     1     -20.494 -22.050  39.339  1.00  0.00     0.174 CG0
ATOM     13  G   UNL     1     -19.388 -21.528  38.442  1.00  0.00     0.000 G0
BRANCH  12  14
ATOM     14  C   UNL     1     -21.701 -21.065  39.458  1.00  0.00     0.018 C 
ATOM     15  C   UNL     1     -22.976 -21.561  38.752  1.00  0.00     0.010 C 
BRANCH  14  16
ATOM     16  C   UNL     1     -21.997 -20.726  40.941  1.00  0.00     0.002 C 
ATOM     17  C   UNL     1     -23.498 -20.668  41.258  1.00  0.00     0.004 C 
ENDBRANCH  14  16
ENDBRANCH  12  14
ENDBRANCH   9  12
ENDBRANCH   7   8
BRANCH   7  18
ATOM     18  C   UNL     1     -21.525 -26.833  40.510  1.00  0.00     0.073 C 
BRANCH  18  19
ATOM     19  C   UNL     1     -22.888 -27.469  40.431  1.00  0.00    -0.016 A 
ATOM     20  C   UNL     1     -23.174 -28.754  39.967  1.00  0.00     0.134 A 
ATOM     21  C   UNL     1     -24.087 -26.961  40.907  1.00  0.00     0.006 A 
ATOM     22  N   UNL     1     -24.490 -29.016  40.141  1.00  0.00    -0.191 N 
ATOM     23  C   UNL     1     -25.040 -27.935  40.710  1.00  0.00     0.087 A 
ATOM     24  C   UNL     1     -24.398 -25.741  41.507  1.00  0.00     0.011 A 
ATOM     25  C   UNL     1     -26.367 -27.750  41.106  1.00  0.00     0.030 A 
ATOM     26  C   UNL     1     -25.725 -25.538  41.933  1.00  0.00     0.001 A 
ATOM     27  C   UNL     1     -26.699 -26.536  41.736  1.00  0.00     0.002 A 
BRANCH  22  28
ATOM     28  O   UNL     1     -25.164 -30.185  39.828  1.00  0.00    -0.417 OA
ATOM     29  C   UNL     1     -25.363 -30.607  38.478  1.00  0.00     0.313 C 
ENDBRANCH  22  28
ENDBRANCH  18  19
ENDBRANCH   7  18
ENDBRANCH   4   7
ENDBRANCH   2   3
BRANCH   2  30
ATOM     30  N   UNL     1     -16.712 -24.347  38.997  1.00  0.00    -0.343 N 
ATOM     31  C   UNL     1     -16.918 -23.109  38.296  1.00  0.00     0.243 C 
ATOM     32  H   UNL     1     -16.197 -24.316  39.909  1.00  0.00     0.164 HD
ATOM     33  O   UNL     1     -16.925 -23.113  37.036  1.00  0.00    -0.273 OA
BRANCH  31  34
ATOM     34  C   UNL     1     -16.885 -21.804  39.070  1.00  0.00     0.174 C 
ATOM     35  N   UNL     1     -18.152 -21.020  39.019  1.00  0.00    -0.329 N 
ATOM     36  C   UNL     1     -15.702 -20.944  38.574  1.00  0.00     0.035 C 
ATOM     37  C   UNL     1     -18.160 -19.671  39.603  1.00  0.00     0.120 C 
ATOM     38  C   UNL     1     -15.679 -19.577  39.273  1.00  0.00     0.004 C 
ATOM     39  C   UNL     1     -17.004 -18.851  39.026  1.00  0.00     0.022 C 
BRANCH  35  40
ATOM     40  C   UNL     1     -19.375 -21.536  38.463  1.00  0.00     0.246 CG0
ATOM     41  O   UNL     1     -19.519 -21.561  37.213  1.00  0.00    -0.272 OA
ATOM     42  G   UNL     1     -20.490 -22.031  39.363  1.00  0.00     0.000 G0
ENDBRANCH  35  40
ENDBRANCH  31  34
ENDBRANCH   2  30
ENDBRANCH   1   2
BRANCH   1  43
ATOM     43  C   UNL     1     -16.735 -27.116  36.691  1.00  0.00     0.003 C 
BRANCH  43  44
ATOM     44  C   UNL     1     -16.108 -26.975  35.290  1.00  0.00     0.001 C 
BRANCH  44  45
ATOM     45  C   UNL     1     -14.668 -27.506  35.228  1.00  0.00     0.008 C 
BRANCH  45  46
ATOM     46  C   UNL     1     -14.468 -28.523  34.093  1.00  0.00     0.075 C 
BRANCH  46  47
ATOM     47  C   UNL     1     -14.429 -29.965  34.543  1.00  0.00     0.132 C 
ATOM     48  O   UNL     1     -13.509 -30.663  34.153  1.00  0.00    -0.300 OA
BRANCH  47  49
ATOM     49  C   UNL     1     -15.505 -30.609  35.384  1.00  0.00     0.072 C 
ATOM     50  C   UNL     1     -15.062 -30.743  36.839  1.00  0.00     0.012 C 
ENDBRANCH  47  49
ENDBRANCH  46  47
ENDBRANCH  45  46
ENDBRANCH  44  45
ENDBRANCH  43  44
ENDBRANCH   1  43
TORSDOF 12
ENDMDL
MODEL 6
REMARK VINA RESULT:    -5.050      6.511     12.237
REMARK INTER + INTRA:         -12.072
REMARK INTER:                 -11.352
REMARK INTRA:                  -0.720
REMARK UNBOUND:                -1.413
REMARK SMILES CCC(=O)CCCCC[C@H]1NC(=O)[C@H]2CCCCN2C(=O)[C@@H]([C@@H](C)CC)NC(=O)[C@H](Cc2cn(OC)c3ccccc23)NC1=O
REMARK SMILES IDX 9 1 10 2 44 3 43 4 45 6 30 7 28 8 27 9 29 11 22 12 23 14
REMARK SMILES IDX 24 15 25 16 26 17 31 18 32 19 33 20 42 21 34 22 37 23 41 24
REMARK SMILES IDX 38 25 40 26 39 27 35 28 36 29 11 30 12 31 13 33 14 34 19 35
REMARK SMILES IDX 15 36 18 37 16 38 17 39 20 40 21 41 8 43 7 44 6 45 5 46 3 47
REMARK SMILES IDX 4 48 2 49 1 50
REMARK H PARENT 43 5 27 10 11 32
REMARK Flexibility Score: 80.00
ROOT
ATOM      1  C   UNL     1     -17.054 -23.752  38.033  1.00  0.00     0.035 C 
ENDROOT
BRANCH   1   2
ATOM      2  C   UNL     1     -16.948 -22.377  38.731  1.00  0.00     0.171 C 
BRANCH   2   3
ATOM      3  C   UNL     1     -18.243 -21.610  38.823  1.00  0.00     0.243 C 
ATOM      4  N   UNL     1     -19.470 -22.074  38.222  1.00  0.00    -0.342 N 
ATOM      5  H   UNL     1     -19.520 -23.024  37.812  1.00  0.00     0.164 HD
ATOM      6  O   UNL     1     -18.208 -20.486  39.400  1.00  0.00    -0.273 OA
BRANCH   4   7
ATOM      7  C   UNL     1     -20.657 -21.233  38.066  1.00  0.00     0.175 C 
BRANCH   7   8
ATOM      8  C   UNL     1     -20.316 -20.061  37.175  1.00  0.00     0.243 C 
ATOM      9  N   UNL     1     -19.701 -20.305  35.904  1.00  0.00    -0.342 N 
ATOM     10  H   UNL     1     -19.731 -21.273  35.516  1.00  0.00     0.164 HD
ATOM     11  O   UNL     1     -20.488 -18.880  37.578  1.00  0.00    -0.273 OA
BRANCH   9  12
ATOM     12  C   UNL     1     -18.852 -19.313  35.230  1.00  0.00     0.174 CG0
ATOM     13  G   UNL     1     -17.547 -19.964  34.815  1.00  0.00     0.000 G0
BRANCH  12  14
ATOM     14  C   UNL     1     -19.602 -18.634  34.041  1.00  0.00     0.018 C 
ATOM     15  C   UNL     1     -20.800 -19.448  33.517  1.00  0.00     0.010 C 
BRANCH  14  16
ATOM     16  C   UNL     1     -20.044 -17.195  34.412  1.00  0.00     0.002 C 
ATOM     17  C   UNL     1     -21.566 -17.002  34.371  1.00  0.00     0.004 C 
ENDBRANCH  14  16
ENDBRANCH  12  14
ENDBRANCH   9  12
ENDBRANCH   7   8
BRANCH   7  18
ATOM     18  C   UNL     1     -21.223 -20.826  39.445  1.00  0.00     0.073 C 
BRANCH  18  19
ATOM     19  C   UNL     1     -22.198 -21.840  39.980  1.00  0.00    -0.016 A 
ATOM     20  C   UNL     1     -21.876 -23.032  40.630  1.00  0.00     0.134 A 
ATOM     21  C   UNL     1     -23.580 -21.735  40.041  1.00  0.00     0.006 A 
ATOM     22  N   UNL     1     -23.009 -23.636  41.060  1.00  0.00    -0.191 N 
ATOM     23  C   UNL     1     -24.036 -22.852  40.706  1.00  0.00     0.087 A 
ATOM     24  C   UNL     1     -24.450 -20.746  39.584  1.00  0.00     0.011 A 
ATOM     25  C   UNL     1     -25.396 -23.045  40.959  1.00  0.00     0.030 A 
ATOM     26  C   UNL     1     -25.824 -20.909  39.846  1.00  0.00     0.001 A 
ATOM     27  C   UNL     1     -26.292 -22.048  40.530  1.00  0.00     0.002 A 
BRANCH  22  28
ATOM     28  O   UNL     1     -23.116 -24.824  41.762  1.00  0.00    -0.417 OA
ATOM     29  C   UNL     1     -23.470 -26.052  41.126  1.00  0.00     0.313 C 
ENDBRANCH  22  28
ENDBRANCH  18  19
ENDBRANCH   7  18
ENDBRANCH   4   7
ENDBRANCH   2   3
BRANCH   2  30
ATOM     30  N   UNL     1     -15.922 -21.510  38.137  1.00  0.00    -0.343 N 
ATOM     31  C   UNL     1     -15.785 -21.292  36.722  1.00  0.00     0.243 C 
ATOM     32  H   UNL     1     -15.401 -20.874  38.785  1.00  0.00     0.164 HD
ATOM     33  O   UNL     1     -15.818 -22.281  35.943  1.00  0.00    -0.273 OA
BRANCH  31  34
ATOM     34  C   UNL     1     -15.371 -19.920  36.221  1.00  0.00     0.174 C 
ATOM     35  N   UNL     1     -16.258 -19.351  35.166  1.00  0.00    -0.329 N 
ATOM     36  C   UNL     1     -13.911 -19.977  35.720  1.00  0.00     0.035 C 
ATOM     37  C   UNL     1     -15.844 -18.103  34.508  1.00  0.00     0.120 C 
ATOM     38  C   UNL     1     -13.475 -18.630  35.126  1.00  0.00     0.004 C 
ATOM     39  C   UNL     1     -14.416 -18.246  33.980  1.00  0.00     0.022 C 
BRANCH  35  40
ATOM     40  C   UNL     1     -17.515 -19.942  34.793  1.00  0.00     0.246 CG0
ATOM     41  O   UNL     1     -17.520 -20.968  34.062  1.00  0.00    -0.272 OA
ATOM     42  G   UNL     1     -18.827 -19.336  35.252  1.00  0.00     0.000 G0
ENDBRANCH  35  40
ENDBRANCH  31  34
ENDBRANCH   2  30
ENDBRANCH   1   2
BRANCH   1  43
ATOM     43  C   UNL     1     -17.735 -24.827  38.905  1.00  0.00     0.003 C 
BRANCH  43  44
ATOM     44  C   UNL     1     -17.072 -26.213  38.783  1.00  0.00     0.001 C 
BRANCH  44  45
ATOM     45  C   UNL     1     -17.563 -27.000  37.559  1.00  0.00     0.008 C 
BRANCH  45  46
ATOM     46  C   UNL     1     -16.508 -27.062  36.443  1.00  0.00     0.075 C 
BRANCH  46  47
ATOM     47  C   UNL     1     -15.919 -28.435  36.213  1.00  0.00     0.132 C 
ATOM     48  O   UNL     1     -16.224 -29.326  36.985  1.00  0.00    -0.300 OA
BRANCH  47  49
ATOM     49  C   UNL     1     -14.914 -28.743  35.128  1.00  0.00     0.072 C 
ATOM     50  C   UNL     1     -15.010 -30.201  34.686  1.00  0.00     0.012 C 
ENDBRANCH  47  49
ENDBRANCH  46  47
ENDBRANCH  45  46
ENDBRANCH  44  45
ENDBRANCH  43  44
ENDBRANCH   1  43
TORSDOF 12
ENDMDL
MODEL 7
REMARK VINA RESULT:    -4.909      4.903      9.854
REMARK INTER + INTRA:         -11.775
REMARK INTER:                 -11.028
REMARK INTRA:                  -0.748
REMARK UNBOUND:                -1.413
REMARK SMILES CCC(=O)CCCCC[C@H]1NC(=O)[C@H]2CCCCN2C(=O)[C@@H]([C@@H](C)CC)NC(=O)[C@H](Cc2cn(OC)c3ccccc23)NC1=O
REMARK SMILES IDX 9 1 10 2 44 3 43 4 45 6 30 7 28 8 27 9 29 11 22 12 23 14
REMARK SMILES IDX 24 15 25 16 26 17 31 18 32 19 33 20 42 21 34 22 37 23 41 24
REMARK SMILES IDX 38 25 40 26 39 27 35 28 36 29 11 30 12 31 13 33 14 34 19 35
REMARK SMILES IDX 15 36 18 37 16 38 17 39 20 40 21 41 8 43 7 44 6 45 5 46 3 47
REMARK SMILES IDX 4 48 2 49 1 50
REMARK H PARENT 43 5 27 10 11 32
REMARK Flexibility Score: 80.00
ROOT
ATOM      1  C   UNL     1     -22.297 -23.863  40.981  1.00  0.00     0.035 C 
ENDROOT
BRANCH   1   2
ATOM      2  C   UNL     1     -22.650 -23.333  39.572  1.00  0.00     0.171 C 
BRANCH   2   3
ATOM      3  C   UNL     1     -21.532 -22.604  38.871  1.00  0.00     0.243 C 
ATOM      4  N   UNL     1     -20.182 -22.568  39.378  1.00  0.00    -0.342 N 
ATOM      5  H   UNL     1     -19.917 -23.158  40.188  1.00  0.00     0.164 HD
ATOM      6  O   UNL     1     -21.833 -21.950  37.831  1.00  0.00    -0.273 OA
BRANCH   4   7
ATOM      7  C   UNL     1     -19.155 -21.658  38.871  1.00  0.00     0.175 C 
BRANCH   7   8
ATOM      8  C   UNL     1     -19.825 -20.429  38.300  1.00  0.00     0.243 C 
ATOM      9  N   UNL     1     -20.464 -19.505  39.189  1.00  0.00    -0.342 N 
ATOM     10  H   UNL     1     -20.242 -19.562  40.207  1.00  0.00     0.164 HD
ATOM     11  O   UNL     1     -19.899 -20.262  37.053  1.00  0.00    -0.273 OA
BRANCH   9  12
ATOM     12  C   UNL     1     -21.568 -18.633  38.767  1.00  0.00     0.174 CG0
ATOM     13  G   UNL     1     -22.641 -18.620  39.839  1.00  0.00     0.000 G0
BRANCH  12  14
ATOM     14  C   UNL     1     -21.057 -17.204  38.396  1.00  0.00     0.018 C 
ATOM     15  C   UNL     1     -19.664 -16.877  38.964  1.00  0.00     0.010 C 
BRANCH  14  16
ATOM     16  C   UNL     1     -21.084 -16.986  36.862  1.00  0.00     0.002 C 
ATOM     17  C   UNL     1     -22.314 -17.607  36.186  1.00  0.00     0.004 C 
ENDBRANCH  14  16
ENDBRANCH  12  14
ENDBRANCH   9  12
ENDBRANCH   7   8
BRANCH   7  18
ATOM     18  C   UNL     1     -18.227 -22.385  37.872  1.00  0.00     0.073 C 
BRANCH  18  19
ATOM     19  C   UNL     1     -16.772 -22.121  38.155  1.00  0.00    -0.016 A 
ATOM     20  C   UNL     1     -16.252 -21.483  39.282  1.00  0.00     0.134 A 
ATOM     21  C   UNL     1     -15.676 -22.559  37.428  1.00  0.00     0.006 A 
ATOM     22  N   UNL     1     -14.900 -21.518  39.241  1.00  0.00    -0.191 N 
ATOM     23  C   UNL     1     -14.553 -22.170  38.123  1.00  0.00     0.087 A 
ATOM     24  C   UNL     1     -15.588 -23.277  36.235  1.00  0.00     0.011 A 
ATOM     25  C   UNL     1     -13.268 -22.479  37.669  1.00  0.00     0.030 A 
ATOM     26  C   UNL     1     -14.304 -23.618  35.767  1.00  0.00     0.001 A 
ATOM     27  C   UNL     1     -13.155 -23.224  36.481  1.00  0.00     0.002 A 
BRANCH  22  28
ATOM     28  O   UNL     1     -14.016 -21.012  40.179  1.00  0.00    -0.417 OA
ATOM     29  C   UNL     1     -14.127 -19.682  40.687  1.00  0.00     0.313 C 
ENDBRANCH  22  28
ENDBRANCH  18  19
ENDBRANCH   7  18
ENDBRANCH   4   7
ENDBRANCH   2   3
BRANCH   2  30
ATOM     30  N   UNL     1     -23.851 -22.487  39.562  1.00  0.00    -0.343 N 
ATOM     31  C   UNL     1     -23.931 -21.209  40.216  1.00  0.00     0.243 C 
ATOM     32  H   UNL     1     -24.607 -22.741  38.883  1.00  0.00     0.164 HD
ATOM     33  O   UNL     1     -23.505 -21.096  41.395  1.00  0.00    -0.273 OA
BRANCH  31  34
ATOM     34  C   UNL     1     -24.733 -20.095  39.568  1.00  0.00     0.174 C 
ATOM     35  N   UNL     1     -24.035 -18.779  39.512  1.00  0.00    -0.329 N 
ATOM     36  C   UNL     1     -26.089 -19.951  40.294  1.00  0.00     0.035 C 
ATOM     37  C   UNL     1     -24.793 -17.608  39.050  1.00  0.00     0.120 C 
ATOM     38  C   UNL     1     -26.901 -18.779  39.726  1.00  0.00     0.004 C 
ATOM     39  C   UNL     1     -26.092 -17.485  39.850  1.00  0.00     0.022 C 
BRANCH  35  40
ATOM     40  C   UNL     1     -22.645 -18.612  39.847  1.00  0.00     0.246 CG0
ATOM     41  O   UNL     1     -22.323 -18.405  41.047  1.00  0.00    -0.272 OA
ATOM     42  G   UNL     1     -21.574 -18.663  38.775  1.00  0.00     0.000 G0
ENDBRANCH  35  40
ENDBRANCH  31  34
ENDBRANCH   2  30
ENDBRANCH   1   2
BRANCH   1  43
ATOM     43  C   UNL     1     -22.868 -25.269  41.263  1.00  0.00     0.003 C 
BRANCH  43  44
ATOM     44  C   UNL     1     -24.284 -25.236  41.868  1.00  0.00     0.001 C 
BRANCH  44  45
ATOM     45  C   UNL     1     -24.826 -26.637  42.187  1.00  0.00     0.008 C 
BRANCH  45  46
ATOM     46  C   UNL     1     -25.472 -27.307  40.964  1.00  0.00     0.075 C 
BRANCH  46  47
ATOM     47  C   UNL     1     -24.914 -28.670  40.628  1.00  0.00     0.132 C 
ATOM     48  O   UNL     1     -25.685 -29.522  40.224  1.00  0.00    -0.300 OA
BRANCH  47  49
ATOM     49  C   UNL     1     -23.469 -29.057  40.838  1.00  0.00     0.072 C 
ATOM     50  C   UNL     1     -22.618 -28.693  39.624  1.00  0.00     0.012 C 
ENDBRANCH  47  49
ENDBRANCH  46  47
ENDBRANCH  45  46
ENDBRANCH  44  45
ENDBRANCH  43  44
ENDBRANCH   1  43
TORSDOF 12
ENDMDL
MODEL 8
REMARK VINA RESULT:    -4.893      4.807      9.938
REMARK INTER + INTRA:         -11.741
REMARK INTER:                 -10.734
REMARK INTRA:                  -1.007
REMARK UNBOUND:                -1.413
REMARK SMILES CCC(=O)CCCCC[C@H]1NC(=O)[C@H]2CCCCN2C(=O)[C@@H]([C@@H](C)CC)NC(=O)[C@H](Cc2cn(OC)c3ccccc23)NC1=O
REMARK SMILES IDX 9 1 10 2 44 3 43 4 45 6 30 7 28 8 27 9 29 11 22 12 23 14
REMARK SMILES IDX 24 15 25 16 26 17 31 18 32 19 33 20 42 21 34 22 37 23 41 24
REMARK SMILES IDX 38 25 40 26 39 27 35 28 36 29 11 30 12 31 13 33 14 34 19 35
REMARK SMILES IDX 15 36 18 37 16 38 17 39 20 40 21 41 8 43 7 44 6 45 5 46 3 47
REMARK SMILES IDX 4 48 2 49 1 50
REMARK H PARENT 43 5 27 10 11 32
REMARK Flexibility Score: 80.00
ROOT
ATOM      1  C   UNL     1     -20.932 -24.520  40.164  1.00  0.00     0.035 C 
ENDROOT
BRANCH   1   2
ATOM      2  C   UNL     1     -21.570 -23.803  38.953  1.00  0.00     0.171 C 
BRANCH   2   3
ATOM      3  C   UNL     1     -20.862 -22.547  38.513  1.00  0.00     0.243 C 
ATOM      4  N   UNL     1     -19.553 -22.177  38.997  1.00  0.00    -0.342 N 
ATOM      5  H   UNL     1     -19.006 -22.843  39.573  1.00  0.00     0.164 HD
ATOM      6  O   UNL     1     -21.491 -21.771  37.739  1.00  0.00    -0.273 OA
BRANCH   4   7
ATOM      7  C   UNL     1     -18.967 -20.852  38.800  1.00  0.00     0.175 C 
BRANCH   7   8
ATOM      8  C   UNL     1     -20.056 -19.810  38.917  1.00  0.00     0.243 C 
ATOM      9  N   UNL     1     -20.864 -19.774  40.100  1.00  0.00    -0.342 N 
ATOM     10  H   UNL     1     -20.531 -20.288  40.944  1.00  0.00     0.164 HD
ATOM     11  O   UNL     1     -20.310 -19.039  37.953  1.00  0.00    -0.273 OA
BRANCH   9  12
ATOM     12  C   UNL     1     -22.229 -19.232  40.111  1.00  0.00     0.174 CG0
ATOM     13  G   UNL     1     -23.085 -20.038  41.069  1.00  0.00     0.000 G0
BRANCH  12  14
ATOM     14  C   UNL     1     -22.234 -17.702  40.426  1.00  0.00     0.018 C 
ATOM     15  C   UNL     1     -20.868 -17.160  40.884  1.00  0.00     0.010 C 
BRANCH  14  16
ATOM     16  C   UNL     1     -22.764 -16.889  39.218  1.00  0.00     0.002 C 
ATOM     17  C   UNL     1     -23.384 -17.769  38.124  1.00  0.00     0.004 C 
ENDBRANCH  14  16
ENDBRANCH  12  14
ENDBRANCH   9  12
ENDBRANCH   7   8
BRANCH   7  18
ATOM     18  C   UNL     1     -18.186 -20.793  37.467  1.00  0.00     0.073 C 
BRANCH  18  19
ATOM     19  C   UNL     1     -16.747 -20.398  37.670  1.00  0.00    -0.016 A 
ATOM     20  C   UNL     1     -16.290 -19.207  38.235  1.00  0.00     0.134 A 
ATOM     21  C   UNL     1     -15.619 -21.175  37.454  1.00  0.00     0.006 A 
ATOM     22  N   UNL     1     -14.942 -19.247  38.348  1.00  0.00    -0.191 N 
ATOM     23  C   UNL     1     -14.538 -20.435  37.879  1.00  0.00     0.087 A 
ATOM     24  C   UNL     1     -15.471 -22.463  36.941  1.00  0.00     0.011 A 
ATOM     25  C   UNL     1     -13.238 -20.943  37.821  1.00  0.00     0.030 A 
ATOM     26  C   UNL     1     -14.172 -23.004  36.891  1.00  0.00     0.001 A 
ATOM     27  C   UNL     1     -13.066 -22.250  37.330  1.00  0.00     0.002 A 
BRANCH  22  28
ATOM     28  O   UNL     1     -14.112 -18.272  38.875  1.00  0.00    -0.417 OA
ATOM     29  C   UNL     1     -14.235 -17.818  40.224  1.00  0.00     0.313 C 
ENDBRANCH  22  28
ENDBRANCH  18  19
ENDBRANCH   7  18
ENDBRANCH   4   7
ENDBRANCH   2   3
BRANCH   2  30
ATOM     30  N   UNL     1     -22.994 -23.502  39.151  1.00  0.00    -0.343 N 
ATOM     31  C   UNL     1     -23.513 -22.827  40.309  1.00  0.00     0.243 C 
ATOM     32  H   UNL     1     -23.624 -23.608  38.320  1.00  0.00     0.164 HD
ATOM     33  O   UNL     1     -23.130 -23.191  41.453  1.00  0.00    -0.273 OA
BRANCH  31  34
ATOM     34  C   UNL     1     -24.675 -21.864  40.148  1.00  0.00     0.174 C 
ATOM     35  N   UNL     1     -24.413 -20.485  40.652  1.00  0.00    -0.329 N 
ATOM     36  C   UNL     1     -25.929 -22.454  40.829  1.00  0.00     0.035 C 
ATOM     37  C   UNL     1     -25.531 -19.532  40.685  1.00  0.00     0.120 C 
ATOM     38  C   UNL     1     -27.109 -21.475  40.762  1.00  0.00     0.004 C 
ATOM     39  C   UNL     1     -26.717 -20.152  41.426  1.00  0.00     0.022 C 
BRANCH  35  40
ATOM     40  C   UNL     1     -23.111 -20.035  41.068  1.00  0.00     0.246 CG0
ATOM     41  O   UNL     1     -22.724 -20.273  42.242  1.00  0.00    -0.272 OA
ATOM     42  G   UNL     1     -22.215 -19.264  40.118  1.00  0.00     0.000 G0
ENDBRANCH  35  40
ENDBRANCH  31  34
ENDBRANCH   2  30
ENDBRANCH   1   2
BRANCH   1  43
ATOM     43  C   UNL     1     -20.424 -25.940  39.833  1.00  0.00     0.003 C 
BRANCH  43  44
ATOM     44  C   UNL     1     -21.104 -26.551  38.593  1.00  0.00     0.001 C 
BRANCH  44  45
ATOM     45  C   UNL     1     -21.892 -27.829  38.918  1.00  0.00     0.008 C 
BRANCH  45  46
ATOM     46  C   UNL     1     -22.320 -27.892  40.393  1.00  0.00     0.075 C 
BRANCH  46  47
ATOM     47  C   UNL     1     -23.252 -29.035  40.727  1.00  0.00     0.132 C 
ATOM     48  O   UNL     1     -23.083 -29.624  41.780  1.00  0.00    -0.300 OA
BRANCH  47  49
ATOM     49  C   UNL     1     -24.329 -29.535  39.794  1.00  0.00     0.072 C 
ATOM     50  C   UNL     1     -25.584 -28.671  39.888  1.00  0.00     0.012 C 
ENDBRANCH  47  49
ENDBRANCH  46  47
ENDBRANCH  45  46
ENDBRANCH  44  45
ENDBRANCH  43  44
ENDBRANCH   1  43
TORSDOF 12
ENDMDL
MODEL 9
REMARK VINA RESULT:    -4.865      3.654     10.076
REMARK INTER + INTRA:         -11.681
REMARK INTER:                 -11.357
REMARK INTRA:                  -0.324
REMARK UNBOUND:                -1.413
REMARK SMILES CCC(=O)CCCCC[C@H]1NC(=O)[C@H]2CCCCN2C(=O)[C@@H]([C@@H](C)CC)NC(=O)[C@H](Cc2cn(OC)c3ccccc23)NC1=O
REMARK SMILES IDX 9 1 10 2 44 3 43 4 45 6 30 7 28 8 27 9 29 11 22 12 23 14
REMARK SMILES IDX 24 15 25 16 26 17 31 18 32 19 33 20 42 21 34 22 37 23 41 24
REMARK SMILES IDX 38 25 40 26 39 27 35 28 36 29 11 30 12 31 13 33 14 34 19 35
REMARK SMILES IDX 15 36 18 37 16 38 17 39 20 40 21 41 8 43 7 44 6 45 5 46 3 47
REMARK SMILES IDX 4 48 2 49 1 50
REMARK H PARENT 43 5 27 10 11 32
REMARK Flexibility Score: 80.00
ROOT
ATOM      1  C   UNL     1     -23.760 -24.558  40.762  1.00  0.00     0.035 C 
ENDROOT
BRANCH   1   2
ATOM      2  C   UNL     1     -22.818 -23.443  41.273  1.00  0.00     0.171 C 
BRANCH   2   3
ATOM      3  C   UNL     1     -23.337 -22.040  41.088  1.00  0.00     0.243 C 
ATOM      4  N   UNL     1     -24.577 -21.747  40.411  1.00  0.00    -0.342 N 
ATOM      5  H   UNL     1     -25.214 -22.519  40.139  1.00  0.00     0.164 HD
ATOM      6  O   UNL     1     -22.603 -21.096  41.496  1.00  0.00    -0.273 OA
BRANCH   4   7
ATOM      7  C   UNL     1     -24.964 -20.402  39.986  1.00  0.00     0.175 C 
BRANCH   7   8
ATOM      8  C   UNL     1     -23.717 -19.579  39.764  1.00  0.00     0.243 C 
ATOM      9  N   UNL     1     -22.970 -19.752  38.553  1.00  0.00    -0.342 N 
ATOM     10  H   UNL     1     -23.427 -20.246  37.756  1.00  0.00     0.164 HD
ATOM     11  O   UNL     1     -23.287 -18.812  40.667  1.00  0.00    -0.273 OA
BRANCH   9  12
ATOM     12  C   UNL     1     -21.533 -19.463  38.459  1.00  0.00     0.174 CG0
ATOM     13  G   UNL     1     -20.834 -20.604  37.746  1.00  0.00     0.000 G0
BRANCH  12  14
ATOM     14  C   UNL     1     -21.274 -18.074  37.792  1.00  0.00     0.018 C 
ATOM     15  C   UNL     1     -22.535 -17.432  37.186  1.00  0.00     0.010 C 
BRANCH  14  16
ATOM     16  C   UNL     1     -20.592 -17.100  38.787  1.00  0.00     0.002 C 
ATOM     17  C   UNL     1     -20.062 -17.799  40.047  1.00  0.00     0.004 C 
ENDBRANCH  14  16
ENDBRANCH  12  14
ENDBRANCH   9  12
ENDBRANCH   7   8
BRANCH   7  18
ATOM     18  C   UNL     1     -25.956 -19.776  40.992  1.00  0.00     0.073 C 
BRANCH  18  19
ATOM     19  C   UNL     1     -27.389 -20.022  40.603  1.00  0.00    -0.016 A 
ATOM     20  C   UNL     1     -28.178 -21.103  40.998  1.00  0.00     0.134 A 
ATOM     21  C   UNL     1     -28.229 -19.178  39.892  1.00  0.00     0.006 A 
ATOM     22  N   UNL     1     -29.440 -20.935  40.539  1.00  0.00    -0.191 N 
ATOM     23  C   UNL     1     -29.471 -19.773  39.874  1.00  0.00     0.087 A 
ATOM     24  C   UNL     1     -27.998 -17.943  39.287  1.00  0.00     0.011 A 
ATOM     25  C   UNL     1     -30.563 -19.164  39.251  1.00  0.00     0.030 A 
ATOM     26  C   UNL     1     -29.089 -17.300  38.670  1.00  0.00     0.001 A 
ATOM     27  C   UNL     1     -30.361 -17.906  38.656  1.00  0.00     0.002 A 
BRANCH  22  28
ATOM     28  O   UNL     1     -30.525 -21.775  40.732  1.00  0.00    -0.417 OA
ATOM     29  C   UNL     1     -31.187 -21.881  41.993  1.00  0.00     0.313 C 
ENDBRANCH  22  28
ENDBRANCH  18  19
ENDBRANCH   7  18
ENDBRANCH   4   7
ENDBRANCH   2   3
BRANCH   2  30
ATOM     30  N   UNL     1     -21.467 -23.531  40.704  1.00  0.00    -0.343 N 
ATOM     31  C   UNL     1     -21.098 -22.968  39.433  1.00  0.00     0.243 C 
ATOM     32  H   UNL     1     -20.699 -23.842  41.345  1.00  0.00     0.164 HD
ATOM     33  O   UNL     1     -21.846 -23.160  38.438  1.00  0.00    -0.273 OA
BRANCH  31  34
ATOM     34  C   UNL     1     -19.717 -22.363  39.262  1.00  0.00     0.174 C 
ATOM     35  N   UNL     1     -19.652 -21.224  38.303  1.00  0.00    -0.329 N 
ATOM     36  C   UNL     1     -18.721 -23.470  38.849  1.00  0.00     0.035 C 
ATOM     37  C   UNL     1     -18.330 -20.683  37.954  1.00  0.00     0.120 C 
ATOM     38  C   UNL     1     -17.325 -22.888  38.584  1.00  0.00     0.004 C 
ATOM     39  C   UNL     1     -17.413 -21.817  37.494  1.00  0.00     0.022 C 
BRANCH  35  40
ATOM     40  C   UNL     1     -20.821 -20.605  37.738  1.00  0.00     0.246 CG0
ATOM     41  O   UNL     1     -21.237 -20.988  36.613  1.00  0.00    -0.272 OA
ATOM     42  G   UNL     1     -21.542 -19.489  38.470  1.00  0.00     0.000 G0
ENDBRANCH  35  40
ENDBRANCH  31  34
ENDBRANCH   2  30
ENDBRANCH   1   2
BRANCH   1  43
ATOM     43  C   UNL     1     -24.226 -25.519  41.875  1.00  0.00     0.003 C 
BRANCH  43  44
ATOM     44  C   UNL     1     -25.684 -25.987  41.697  1.00  0.00     0.001 C 
BRANCH  44  45
ATOM     45  C   UNL     1     -25.785 -27.395  41.091  1.00  0.00     0.008 C 
BRANCH  45  46
ATOM     46  C   UNL     1     -24.490 -28.204  41.272  1.00  0.00     0.075 C 
BRANCH  46  47
ATOM     47  C   UNL     1     -23.819 -28.609  39.980  1.00  0.00     0.132 C 
ATOM     48  O   UNL     1     -22.680 -28.227  39.781  1.00  0.00    -0.300 OA
BRANCH  47  49
ATOM     49  C   UNL     1     -24.509 -29.394  38.889  1.00  0.00     0.072 C 
ATOM     50  C   UNL     1     -24.125 -28.872  37.507  1.00  0.00     0.012 C 
ENDBRANCH  47  49
ENDBRANCH  46  47
ENDBRANCH  45  46
ENDBRANCH  44  45
ENDBRANCH  43  44
ENDBRANCH   1  43
TORSDOF 12
ENDMDL
