MODEL 1
REMARK VINA RESULT:    48.408      0.000      0.000
REMARK INTER + INTRA:          51.238
REMARK INTER:                  51.238
REMARK INTRA:                   0.000
REMARK UNBOUND:                 0.000
REMARK SMILES C[C@@H]1CC[C@@H]2[N@@H+](C1)C[C@@H]1[C@H]3C[C@H]4[C@H](CC(=O)[C@@H]5C[C@H](O)CC[C@@]54C)[C@H]3CC[C@@H]1[C@]2(C)O
REMARK SMILES IDX 5 1 6 2 8 3 7 4 4 5 29 6 3 7 28 8 30 9 2 10 27 11 9 12 1 13
REMARK SMILES IDX 26 14 10 15 25 16 11 17 13 18 12 19 14 20 23 21 15 22 17 23
REMARK SMILES IDX 22 24 24 25 16 26 18 27 21 28 19 29 31 31 20 33
REMARK H PARENT 6 30 31 32 20 34
REMARK Flexibility Score: inf
ROOT
ATOM      1  C   UNL     1      14.794  21.097   6.554  1.00  0.00     0.216 C 
ATOM      2  N   UNL     1      14.911  22.580   6.501  1.00  0.00    -0.330 N 
ATOM      3  C   UNL     1      14.444  23.181   5.218  1.00  0.00     0.266 C 
ATOM      4  C   UNL     1      16.306  22.988   6.801  1.00  0.00     0.265 C 
ATOM      5  C   UNL     1      14.950  20.600   8.019  1.00  0.00     0.069 C 
ATOM      6  C   UNL     1      13.500  20.596   5.830  1.00  0.00     0.117 C 
ATOM      7  C   UNL     1      15.820  21.539   8.875  1.00  0.00     0.015 C 
ATOM      8  C   UNL     1      13.639  20.922   4.297  1.00  0.00     0.036 C 
ATOM      9  C   UNL     1      13.323  19.064   6.005  1.00  0.00     0.049 C 
ATOM     10  C   UNL     1      16.899  22.279   8.058  1.00  0.00     0.041 C 
ATOM     11  C   UNL     1      12.268  20.922   3.562  1.00  0.00     0.007 C 
ATOM     12  C   UNL     1      14.505  22.196   4.028  1.00  0.00     0.054 C 
ATOM     13  C   UNL     1      18.059  21.339   7.694  1.00  0.00     0.013 C 
ATOM     14  C   UNL     1      11.720  22.324   3.275  1.00  0.00     0.004 C 
ATOM     15  C   UNL     1      14.179  22.914   2.690  1.00  0.00     0.002 C 
ATOM     16  C   UNL     1      12.687  23.239   2.479  1.00  0.00    -0.004 C 
ATOM     17  C   UNL     1      14.653  22.148   1.438  1.00  0.00     0.009 C 
ATOM     18  C   UNL     1      12.487  23.166   0.949  1.00  0.00     0.003 C 
ATOM     19  C   UNL     1      13.448  22.051   0.487  1.00  0.00    -0.000 C 
ATOM     20  C   UNL     1      12.817  24.542   0.319  1.00  0.00     0.080 C 
ATOM     21  C   UNL     1      13.756  22.003  -1.060  1.00  0.00    -0.020 C 
ATOM     22  C   UNL     1      13.101  24.429  -1.143  1.00  0.00     0.136 C 
ATOM     23  C   UNL     1      14.134  23.419  -1.595  1.00  0.00     0.065 C 
ATOM     24  C   UNL     1      12.493  21.441  -1.815  1.00  0.00     0.010 C 
ATOM     25  C   UNL     1      14.940  21.024  -1.298  1.00  0.00     0.012 C 
ATOM     26  O   UNL     1      12.557  25.193  -1.928  1.00  0.00    -0.299 OA
ATOM     27  C   UNL     1      14.365  23.432  -3.133  1.00  0.00     0.043 C 
ATOM     28  C   UNL     1      12.153  22.141  -3.144  1.00  0.00     0.032 C 
ATOM     29  C   UNL     1      13.406  22.524  -3.941  1.00  0.00     0.115 C 
ATOM     30  H   UNL     1      14.300  22.988   7.250  1.00  0.00     0.348 HD
ENDROOT
BRANCH   6  31
ATOM     31  O   UNL     1      12.376  21.280   6.343  1.00  0.00    -0.384 OA
ATOM     32  H   UNL     1      12.647  22.197   6.603  1.00  0.00     0.211 HD
ENDBRANCH   6  31
BRANCH  29  33
ATOM     33  O   UNL     1      13.033  23.182  -5.124  1.00  0.00    -0.393 OA
ATOM     34  H   UNL     1      12.354  22.611  -5.570  1.00  0.00     0.210 HD
ENDBRANCH  29  33
TORSDOF 2
ENDMDL
MODEL 2
REMARK VINA RESULT:    48.641      2.817      8.573
REMARK INTER + INTRA:          51.484
REMARK INTER:                  51.484
REMARK INTRA:                   0.000
REMARK UNBOUND:                 0.000
REMARK SMILES C[C@@H]1CC[C@@H]2[N@@H+](C1)C[C@@H]1[C@H]3C[C@H]4[C@H](CC(=O)[C@@H]5C[C@H](O)CC[C@@]54C)[C@H]3CC[C@@H]1[C@]2(C)O
REMARK SMILES IDX 5 1 6 2 8 3 7 4 4 5 29 6 3 7 28 8 30 9 2 10 27 11 9 12 1 13
REMARK SMILES IDX 26 14 10 15 25 16 11 17 13 18 12 19 14 20 23 21 15 22 17 23
REMARK SMILES IDX 22 24 24 25 16 26 18 27 21 28 19 29 31 31 20 33
REMARK H PARENT 6 30 31 32 20 34
REMARK Flexibility Score: inf
ROOT
ATOM      1  C   UNL     1      12.926  21.669  -3.359  1.00  0.00     0.216 C 
ATOM      2  N   UNL     1      12.326  20.641  -2.465  1.00  0.00    -0.330 N 
ATOM      3  C   UNL     1      12.480  20.935  -1.011  1.00  0.00     0.266 C 
ATOM      4  C   UNL     1      12.871  19.301  -2.797  1.00  0.00     0.265 C 
ATOM      5  C   UNL     1      12.411  21.481  -4.813  1.00  0.00     0.069 C 
ATOM      6  C   UNL     1      12.738  23.112  -2.783  1.00  0.00     0.117 C 
ATOM      7  C   UNL     1      12.033  20.020  -5.125  1.00  0.00     0.015 C 
ATOM      8  C   UNL     1      13.569  23.220  -1.451  1.00  0.00     0.036 C 
ATOM      9  C   UNL     1      13.251  24.181  -3.784  1.00  0.00     0.049 C 
ATOM     10  C   UNL     1      12.865  18.995  -4.327  1.00  0.00     0.041 C 
ATOM     11  C   UNL     1      13.098  24.398  -0.549  1.00  0.00     0.007 C 
ATOM     12  C   UNL     1      13.686  21.852  -0.702  1.00  0.00     0.054 C 
ATOM     13  C   UNL     1      14.288  18.875  -4.894  1.00  0.00     0.013 C 
ATOM     14  C   UNL     1      12.236  23.959   0.639  1.00  0.00     0.004 C 
ATOM     15  C   UNL     1      13.910  21.985   0.829  1.00  0.00     0.002 C 
ATOM     16  C   UNL     1      12.899  22.896   1.553  1.00  0.00    -0.004 C 
ATOM     17  C   UNL     1      15.318  22.483   1.214  1.00  0.00     0.009 C 
ATOM     18  C   UNL     1      13.696  23.502   2.730  1.00  0.00     0.003 C 
ATOM     19  C   UNL     1      15.130  23.664   2.182  1.00  0.00    -0.000 C 
ATOM     20  C   UNL     1      13.623  22.549   3.949  1.00  0.00     0.080 C 
ATOM     21  C   UNL     1      16.257  23.897   3.260  1.00  0.00    -0.020 C 
ATOM     22  C   UNL     1      14.717  22.817   4.929  1.00  0.00     0.136 C 
ATOM     23  C   UNL     1      16.142  22.858   4.418  1.00  0.00     0.065 C 
ATOM     24  C   UNL     1      16.138  25.366   3.816  1.00  0.00     0.010 C 
ATOM     25  C   UNL     1      17.642  23.751   2.567  1.00  0.00     0.012 C 
ATOM     26  O   UNL     1      14.453  22.925   6.118  1.00  0.00    -0.299 OA
ATOM     27  C   UNL     1      17.185  23.104   5.545  1.00  0.00     0.043 C 
ATOM     28  C   UNL     1      16.356  25.518   5.333  1.00  0.00     0.032 C 
ATOM     29  C   UNL     1      17.461  24.594   5.860  1.00  0.00     0.115 C 
ATOM     30  H   UNL     1      11.292  20.609  -2.643  1.00  0.00     0.348 HD
ENDROOT
BRANCH   6  31
ATOM     31  O   UNL     1      11.375  23.331  -2.490  1.00  0.00    -0.384 OA
ATOM     32  H   UNL     1      11.120  22.781  -1.706  1.00  0.00     0.211 HD
ENDBRANCH   6  31
BRANCH  29  33
ATOM     33  O   UNL     1      17.592  24.757   7.248  1.00  0.00    -0.393 OA
ATOM     34  H   UNL     1      18.561  24.697   7.456  1.00  0.00     0.210 HD
ENDBRANCH  29  33
TORSDOF 2
ENDMDL
MODEL 3
REMARK VINA RESULT:    50.798      2.593      8.732
REMARK INTER + INTRA:          53.768
REMARK INTER:                  53.768
REMARK INTRA:                   0.000
REMARK UNBOUND:                 0.000
REMARK SMILES C[C@@H]1CC[C@@H]2[N@@H+](C1)C[C@@H]1[C@H]3C[C@H]4[C@H](CC(=O)[C@@H]5C[C@H](O)CC[C@@]54C)[C@H]3CC[C@@H]1[C@]2(C)O
REMARK SMILES IDX 5 1 6 2 8 3 7 4 4 5 29 6 3 7 28 8 30 9 2 10 27 11 9 12 1 13
REMARK SMILES IDX 26 14 10 15 25 16 11 17 13 18 12 19 14 20 23 21 15 22 17 23
REMARK SMILES IDX 22 24 24 25 16 26 18 27 21 28 19 29 31 31 20 33
REMARK H PARENT 6 30 31 32 20 34
REMARK Flexibility Score: inf
ROOT
ATOM      1  C   UNL     1      13.091  23.501  -2.971  1.00  0.00     0.216 C 
ATOM      2  N   UNL     1      13.992  24.633  -2.620  1.00  0.00    -0.330 N 
ATOM      3  C   UNL     1      14.594  24.533  -1.260  1.00  0.00     0.266 C 
ATOM      4  C   UNL     1      13.274  25.922  -2.790  1.00  0.00     0.265 C 
ATOM      5  C   UNL     1      12.808  23.495  -4.499  1.00  0.00     0.069 C 
ATOM      6  C   UNL     1      13.625  22.145  -2.402  1.00  0.00     0.117 C 
ATOM      7  C   UNL     1      12.894  24.900  -5.125  1.00  0.00     0.015 C 
ATOM      8  C   UNL     1      13.570  22.216  -0.830  1.00  0.00     0.036 C 
ATOM      9  C   UNL     1      12.750  20.957  -2.882  1.00  0.00     0.049 C 
ATOM     10  C   UNL     1      12.505  26.026  -4.143  1.00  0.00     0.041 C 
ATOM     11  C   UNL     1      14.494  21.164  -0.153  1.00  0.00     0.007 C 
ATOM     12  C   UNL     1      13.756  23.671  -0.287  1.00  0.00     0.054 C 
ATOM     13  C   UNL     1      10.983  26.078  -3.937  1.00  0.00     0.013 C 
ATOM     14  C   UNL     1      15.803  21.749   0.388  1.00  0.00     0.004 C 
ATOM     15  C   UNL     1      14.327  23.740   1.155  1.00  0.00     0.002 C 
ATOM     16  C   UNL     1      15.616  22.926   1.380  1.00  0.00    -0.004 C 
ATOM     17  C   UNL     1      13.325  23.305   2.245  1.00  0.00     0.009 C 
ATOM     18  C   UNL     1      15.543  22.484   2.859  1.00  0.00     0.003 C 
ATOM     19  C   UNL     1      14.038  22.260   3.120  1.00  0.00    -0.000 C 
ATOM     20  C   UNL     1      16.151  23.587   3.759  1.00  0.00     0.080 C 
ATOM     21  C   UNL     1      13.607  22.177   4.635  1.00  0.00    -0.020 C 
ATOM     22  C   UNL     1      15.703  23.456   5.177  1.00  0.00     0.136 C 
ATOM     23  C   UNL     1      14.217  23.357   5.453  1.00  0.00     0.065 C 
ATOM     24  C   UNL     1      14.074  20.792   5.224  1.00  0.00     0.010 C 
ATOM     25  C   UNL     1      12.056  22.239   4.712  1.00  0.00     0.012 C 
ATOM     26  O   UNL     1      16.526  23.503   6.081  1.00  0.00    -0.299 OA
ATOM     27  C   UNL     1      13.885  23.267   6.968  1.00  0.00     0.043 C 
ATOM     28  C   UNL     1      14.644  20.840   6.654  1.00  0.00     0.032 C 
ATOM     29  C   UNL     1      13.890  21.832   7.550  1.00  0.00     0.115 C 
ATOM     30  H   UNL     1      14.798  24.636  -3.292  1.00  0.00     0.348 HD
ENDROOT
BRANCH   6  31
ATOM     31  O   UNL     1      14.966  21.958  -2.803  1.00  0.00    -0.384 OA
ATOM     32  H   UNL     1      15.055  21.065  -3.225  1.00  0.00     0.211 HD
ENDBRANCH   6  31
BRANCH  29  33
ATOM     33  O   UNL     1      14.472  21.852   8.827  1.00  0.00    -0.393 OA
ATOM     34  H   UNL     1      14.304  22.754   9.207  1.00  0.00     0.210 HD
ENDBRANCH  29  33
TORSDOF 2
ENDMDL
