MODEL 1
REMARK VINA RESULT:    58.513      0.000      0.000
REMARK INTER + INTRA:          86.382
REMARK INTER:                  80.748
REMARK INTRA:                   5.634
REMARK UNBOUND:                 5.634
REMARK SMILES CC[C@@H](CC[C@@H](C)[C@H]1CC[C@@H]2[C@@H]3CC=C4C[C@H](O)CC[C@@]4(C)[C@H]3CC[C@@]21C)C(C)C
REMARK SMILES IDX 5 1 4 2 3 3 2 4 1 5 28 6 29 7 30 8 6 9 7 10 8 11 9 12 26 13
REMARK SMILES IDX 10 14 11 15 25 16 27 17 12 18 24 19 23 20 13 21 21 22 14 23
REMARK SMILES IDX 15 24 20 25 22 26 16 27 19 28 17 29 18 30
REMARK H PARENT 18 31
REMARK Flexibility Score: inf
ROOT
ATOM      1  C   UNL     1      78.721  20.649 103.703  1.00  0.00     0.004 C 
ENDROOT
BRANCH   1   2
ATOM      2  C   UNL     1      78.577  19.530 102.640  1.00  0.00     0.004 C 
BRANCH   2   3
ATOM      3  C   UNL     1      79.752  19.499 101.627  1.00  0.00    -0.009 C 
BRANCH   3   4
ATOM      4  C   UNL     1      80.035  18.089 101.017  1.00  0.00     0.000 C 
ATOM      5  C   UNL     1      81.451  17.535 101.224  1.00  0.00     0.004 C 
ENDBRANCH   3   4
BRANCH   3   6
ATOM      6  C   UNL     1      81.014  20.244 102.181  1.00  0.00    -0.014 C 
ATOM      7  C   UNL     1      80.881  21.776 102.075  1.00  0.00     0.007 C 
ATOM      8  C   UNL     1      82.338  19.785 101.559  1.00  0.00     0.007 C 
ENDBRANCH   3   6
ENDBRANCH   2   3
ENDBRANCH   1   2
BRANCH   1   9
ATOM      9  C   UNL     1      79.237  20.099 105.070  1.00  0.00    -0.011 C 
ATOM     10  C   UNL     1      78.032  20.031 106.047  1.00  0.00     0.008 C 
BRANCH   9  11
ATOM     11  C   UNL     1      79.948  18.702 104.912  1.00  0.00    -0.002 C 
ATOM     12  C   UNL     1      81.217  18.802 104.029  1.00  0.00     0.005 C 
ATOM     13  C   UNL     1      80.422  17.932 106.220  1.00  0.00    -0.026 C 
ATOM     14  C   UNL     1      82.291  17.941 104.662  1.00  0.00     0.005 C 
ATOM     15  C   UNL     1      81.969  17.973 106.151  1.00  0.00    -0.001 C 
ATOM     16  C   UNL     1      79.922  16.457 106.116  1.00  0.00     0.007 C 
ATOM     17  C   UNL     1      79.961  18.544 107.570  1.00  0.00     0.012 C 
ATOM     18  C   UNL     1      82.716  16.910 107.023  1.00  0.00     0.000 C 
ATOM     19  C   UNL     1      80.595  15.515 107.112  1.00  0.00     0.005 C 
ATOM     20  C   UNL     1      82.132  15.482 106.913  1.00  0.00     0.003 C 
ATOM     21  C   UNL     1      84.213  16.862 106.680  1.00  0.00     0.031 C 
ATOM     22  C   UNL     1      82.875  14.453 107.870  1.00  0.00    -0.008 C 
ATOM     23  C   UNL     1      84.939  15.905 107.566  1.00  0.00    -0.027 C 
ATOM     24  C   UNL     1      84.374  14.778 108.044  1.00  0.00    -0.065 C 
ATOM     25  C   UNL     1      82.249  14.445 109.306  1.00  0.00     0.014 C 
ATOM     26  C   UNL     1      82.741  13.045 107.236  1.00  0.00     0.016 C 
ATOM     27  C   UNL     1      85.169  13.945 109.029  1.00  0.00     0.063 C 
ATOM     28  C   UNL     1      83.042  13.617 110.337  1.00  0.00     0.033 C 
ATOM     29  C   UNL     1      84.514  14.048 110.412  1.00  0.00     0.118 C 
BRANCH  29  30
ATOM     30  O   UNL     1      85.189  13.222 111.324  1.00  0.00    -0.393 OA
ATOM     31  H   UNL     1      86.109  13.587 111.419  1.00  0.00     0.210 HD
ENDBRANCH  29  30
ENDBRANCH   9  11
ENDBRANCH   1   9
TORSDOF 7
ENDMDL
MODEL 2
REMARK VINA RESULT:    60.357     12.431     16.633
REMARK INTER + INTRA:          88.927
REMARK INTER:                  86.867
REMARK INTRA:                   2.059
REMARK UNBOUND:                 5.634
REMARK SMILES CC[C@@H](CC[C@@H](C)[C@H]1CC[C@@H]2[C@@H]3CC=C4C[C@H](O)CC[C@@]4(C)[C@H]3CC[C@@]21C)C(C)C
REMARK SMILES IDX 5 1 4 2 3 3 2 4 1 5 28 6 29 7 30 8 6 9 7 10 8 11 9 12 26 13
REMARK SMILES IDX 10 14 11 15 25 16 27 17 12 18 24 19 23 20 13 21 21 22 14 23
REMARK SMILES IDX 15 24 20 25 22 26 16 27 19 28 17 29 18 30
REMARK H PARENT 18 31
REMARK Flexibility Score: inf
ROOT
ATOM      1  C   UNL     1      90.603  17.307 119.040  1.00  0.00     0.004 C 
ENDROOT
BRANCH   1   2
ATOM      2  C   UNL     1      91.804  16.328 119.093  1.00  0.00     0.004 C 
BRANCH   2   3
ATOM      3  C   UNL     1      93.127  17.013 119.530  1.00  0.00    -0.009 C 
BRANCH   3   4
ATOM      4  C   UNL     1      93.717  18.000 118.473  1.00  0.00     0.000 C 
ATOM      5  C   UNL     1      94.896  17.476 117.643  1.00  0.00     0.004 C 
ENDBRANCH   3   4
BRANCH   3   6
ATOM      6  C   UNL     1      94.150  15.976 120.110  1.00  0.00    -0.014 C 
ATOM      7  C   UNL     1      94.962  15.277 119.003  1.00  0.00     0.007 C 
ATOM      8  C   UNL     1      93.525  14.933 121.044  1.00  0.00     0.007 C 
ENDBRANCH   3   6
ENDBRANCH   2   3
ENDBRANCH   1   2
BRANCH   1   9
ATOM      9  C   UNL     1      90.586  18.284 120.258  1.00  0.00    -0.011 C 
ATOM     10  C   UNL     1      91.141  19.654 119.783  1.00  0.00     0.008 C 
BRANCH   9  11
ATOM     11  C   UNL     1      89.148  18.416 120.887  1.00  0.00    -0.002 C 
ATOM     12  C   UNL     1      88.761  19.897 121.125  1.00  0.00     0.005 C 
ATOM     13  C   UNL     1      87.911  17.793 120.107  1.00  0.00    -0.026 C 
ATOM     14  C   UNL     1      87.307  20.065 120.732  1.00  0.00     0.005 C 
ATOM     15  C   UNL     1      87.090  19.022 119.644  1.00  0.00    -0.001 C 
ATOM     16  C   UNL     1      87.080  16.947 121.121  1.00  0.00     0.007 C 
ATOM     17  C   UNL     1      88.260  16.925 118.868  1.00  0.00     0.012 C 
ATOM     18  C   UNL     1      85.595  18.740 119.273  1.00  0.00     0.000 C 
ATOM     19  C   UNL     1      85.686  16.584 120.613  1.00  0.00     0.005 C 
ATOM     20  C   UNL     1      84.850  17.850 120.295  1.00  0.00     0.003 C 
ATOM     21  C   UNL     1      84.811  20.049 119.089  1.00  0.00     0.031 C 
ATOM     22  C   UNL     1      83.360  17.531 119.841  1.00  0.00    -0.008 C 
ATOM     23  C   UNL     1      83.408  19.780 118.659  1.00  0.00    -0.027 C 
ATOM     24  C   UNL     1      82.717  18.691 119.053  1.00  0.00    -0.065 C 
ATOM     25  C   UNL     1      83.298  16.270 118.912  1.00  0.00     0.014 C 
ATOM     26  C   UNL     1      82.526  17.275 121.122  1.00  0.00     0.016 C 
ATOM     27  C   UNL     1      81.342  18.465 118.458  1.00  0.00     0.063 C 
ATOM     28  C   UNL     1      81.915  16.020 118.279  1.00  0.00     0.033 C 
ATOM     29  C   UNL     1      81.397  17.252 117.522  1.00  0.00     0.118 C 
BRANCH  29  30
ATOM     30  O   UNL     1      80.115  16.976 117.019  1.00  0.00    -0.393 OA
ATOM     31  H   UNL     1      79.647  17.849 116.928  1.00  0.00     0.210 HD
ENDBRANCH  29  30
ENDBRANCH   9  11
ENDBRANCH   1   9
TORSDOF 7
ENDMDL
MODEL 3
REMARK VINA RESULT:    60.573      5.361      8.455
REMARK INTER + INTRA:          89.224
REMARK INTER:                  90.083
REMARK INTRA:                  -0.859
REMARK UNBOUND:                 5.634
REMARK SMILES CC[C@@H](CC[C@@H](C)[C@H]1CC[C@@H]2[C@@H]3CC=C4C[C@H](O)CC[C@@]4(C)[C@H]3CC[C@@]21C)C(C)C
REMARK SMILES IDX 5 1 4 2 3 3 2 4 1 5 28 6 29 7 30 8 6 9 7 10 8 11 9 12 26 13
REMARK SMILES IDX 10 14 11 15 25 16 27 17 12 18 24 19 23 20 13 21 21 22 14 23
REMARK SMILES IDX 15 24 20 25 22 26 16 27 19 28 17 29 18 30
REMARK H PARENT 18 31
REMARK Flexibility Score: inf
ROOT
ATOM      1  C   UNL     1      88.051  20.602 110.265  1.00  0.00     0.004 C 
ENDROOT
BRANCH   1   2
ATOM      2  C   UNL     1      88.426  21.470 111.493  1.00  0.00     0.004 C 
BRANCH   2   3
ATOM      3  C   UNL     1      89.940  21.425 111.829  1.00  0.00    -0.009 C 
BRANCH   3   4
ATOM      4  C   UNL     1      90.386  20.145 112.606  1.00  0.00     0.000 C 
ATOM      5  C   UNL     1      91.881  19.802 112.542  1.00  0.00     0.004 C 
ENDBRANCH   3   4
BRANCH   3   6
ATOM      6  C   UNL     1      90.436  22.778 112.446  1.00  0.00    -0.014 C 
ATOM      7  C   UNL     1      90.694  22.669 113.961  1.00  0.00     0.007 C 
ATOM      8  C   UNL     1      89.523  23.974 112.151  1.00  0.00     0.007 C 
ENDBRANCH   3   6
ENDBRANCH   2   3
ENDBRANCH   1   2
BRANCH   1   9
ATOM      9  C   UNL     1      86.769  21.127 109.543  1.00  0.00    -0.011 C 
ATOM     10  C   UNL     1      87.087  22.531 108.960  1.00  0.00     0.008 C 
BRANCH   9  11
ATOM     11  C   UNL     1      86.267  20.127 108.433  1.00  0.00    -0.002 C 
ATOM     12  C   UNL     1      87.444  19.555 107.604  1.00  0.00     0.005 C 
ATOM     13  C   UNL     1      85.423  18.854 108.875  1.00  0.00    -0.026 C 
ATOM     14  C   UNL     1      87.173  18.082 107.372  1.00  0.00     0.005 C 
ATOM     15  C   UNL     1      86.359  17.654 108.585  1.00  0.00    -0.001 C 
ATOM     16  C   UNL     1      84.158  18.778 107.965  1.00  0.00     0.007 C 
ATOM     17  C   UNL     1      84.995  18.811 110.367  1.00  0.00     0.012 C 
ATOM     18  C   UNL     1      85.656  16.260 108.465  1.00  0.00     0.000 C 
ATOM     19  C   UNL     1      83.444  17.429 108.027  1.00  0.00     0.005 C 
ATOM     20  C   UNL     1      84.379  16.271 107.593  1.00  0.00     0.003 C 
ATOM     21  C   UNL     1      86.621  15.196 107.919  1.00  0.00     0.031 C 
ATOM     22  C   UNL     1      83.661  14.853 107.560  1.00  0.00    -0.008 C 
ATOM     23  C   UNL     1      85.975  13.851 107.879  1.00  0.00    -0.027 C 
ATOM     24  C   UNL     1      84.659  13.679 107.640  1.00  0.00    -0.065 C 
ATOM     25  C   UNL     1      82.669  14.680 108.760  1.00  0.00     0.014 C 
ATOM     26  C   UNL     1      82.883  14.755 106.223  1.00  0.00     0.016 C 
ATOM     27  C   UNL     1      84.094  12.276 107.741  1.00  0.00     0.063 C 
ATOM     28  C   UNL     1      82.086  13.260 108.899  1.00  0.00     0.033 C 
ATOM     29  C   UNL     1      83.187  12.191 108.974  1.00  0.00     0.118 C 
BRANCH  29  30
ATOM     30  O   UNL     1      82.591  10.922 109.044  1.00  0.00    -0.393 OA
ATOM     31  H   UNL     1      83.235  10.326 109.513  1.00  0.00     0.210 HD
ENDBRANCH  29  30
ENDBRANCH   9  11
ENDBRANCH   1   9
TORSDOF 7
ENDMDL
MODEL 4
REMARK VINA RESULT:    60.958      5.342      8.473
REMARK INTER + INTRA:          89.755
REMARK INTER:                  89.169
REMARK INTRA:                   0.585
REMARK UNBOUND:                 5.634
REMARK SMILES CC[C@@H](CC[C@@H](C)[C@H]1CC[C@@H]2[C@@H]3CC=C4C[C@H](O)CC[C@@]4(C)[C@H]3CC[C@@]21C)C(C)C
REMARK SMILES IDX 5 1 4 2 3 3 2 4 1 5 28 6 29 7 30 8 6 9 7 10 8 11 9 12 26 13
REMARK SMILES IDX 10 14 11 15 25 16 27 17 12 18 24 19 23 20 13 21 21 22 14 23
REMARK SMILES IDX 15 24 20 25 22 26 16 27 19 28 17 29 18 30
REMARK H PARENT 18 31
REMARK Flexibility Score: inf
ROOT
ATOM      1  C   UNL     1      87.671  22.081 110.316  1.00  0.00     0.004 C 
ENDROOT
BRANCH   1   2
ATOM      2  C   UNL     1      88.159  21.059 111.374  1.00  0.00     0.004 C 
BRANCH   2   3
ATOM      3  C   UNL     1      89.649  21.250 111.762  1.00  0.00    -0.009 C 
BRANCH   3   4
ATOM      4  C   UNL     1      90.266  20.048 112.548  1.00  0.00     0.000 C 
ATOM      5  C   UNL     1      91.782  19.855 112.407  1.00  0.00     0.004 C 
ENDBRANCH   3   4
BRANCH   3   6
ATOM      6  C   UNL     1      89.904  22.657 112.402  1.00  0.00    -0.014 C 
ATOM      7  C   UNL     1      90.621  23.617 111.433  1.00  0.00     0.007 C 
ATOM      8  C   UNL     1      90.645  22.613 113.744  1.00  0.00     0.007 C 
ENDBRANCH   3   6
ENDBRANCH   2   3
ENDBRANCH   1   2
BRANCH   1   9
ATOM      9  C   UNL     1      87.392  21.410 108.934  1.00  0.00    -0.011 C 
ATOM     10  C   UNL     1      88.597  20.491 108.594  1.00  0.00     0.008 C 
BRANCH   9  11
ATOM     11  C   UNL     1      86.028  20.621 108.927  1.00  0.00    -0.002 C 
ATOM     12  C   UNL     1      85.209  20.907 107.644  1.00  0.00     0.005 C 
ATOM     13  C   UNL     1      86.060  19.036 109.045  1.00  0.00    -0.026 C 
ATOM     14  C   UNL     1      84.599  19.599 107.183  1.00  0.00     0.005 C 
ATOM     15  C   UNL     1      85.583  18.538 107.658  1.00  0.00    -0.001 C 
ATOM     16  C   UNL     1      85.035  18.616 110.145  1.00  0.00     0.007 C 
ATOM     17  C   UNL     1      87.445  18.408 109.357  1.00  0.00     0.012 C 
ATOM     18  C   UNL     1      85.058  17.064 107.610  1.00  0.00     0.000 C 
ATOM     19  C   UNL     1      84.695  17.127 110.123  1.00  0.00     0.005 C 
ATOM     20  C   UNL     1      84.090  16.703 108.760  1.00  0.00     0.003 C 
ATOM     21  C   UNL     1      84.370  16.763 106.269  1.00  0.00     0.031 C 
ATOM     22  C   UNL     1      83.641  15.178 108.712  1.00  0.00    -0.008 C 
ATOM     23  C   UNL     1      83.939  15.336 106.192  1.00  0.00    -0.027 C 
ATOM     24  C   UNL     1      83.534  14.635 107.271  1.00  0.00    -0.065 C 
ATOM     25  C   UNL     1      84.656  14.253 109.465  1.00  0.00     0.014 C 
ATOM     26  C   UNL     1      82.249  15.080 109.386  1.00  0.00     0.016 C 
ATOM     27  C   UNL     1      83.234  13.161 107.092  1.00  0.00     0.063 C 
ATOM     28  C   UNL     1      84.387  12.745 109.291  1.00  0.00     0.033 C 
ATOM     29  C   UNL     1      84.311  12.341 107.811  1.00  0.00     0.118 C 
BRANCH  29  30
ATOM     30  O   UNL     1      84.010  10.972 107.724  1.00  0.00    -0.393 OA
ATOM     31  H   UNL     1      84.568  10.600 106.989  1.00  0.00     0.210 HD
ENDBRANCH  29  30
ENDBRANCH   9  11
ENDBRANCH   1   9
TORSDOF 7
ENDMDL
