MODEL 1
REMARK VINA RESULT:    23.336      0.000      0.000
REMARK INTER + INTRA:          27.192
REMARK INTER:                  27.429
REMARK INTRA:                  -0.238
REMARK UNBOUND:                -0.238
REMARK SMILES Oc1ccc(-c2[o+]c3cc(O)cc(O)c3cc2O)cc1
REMARK SMILES IDX 6 1 7 2 8 3 9 4 10 5 12 6 13 7 15 8 16 9 17 10 5 11 4 12
REMARK SMILES IDX 3 13 2 14 19 15 20 16 1 17 18 19 11 21 14 23
REMARK H PARENT 1 18 18 20 11 22 14 24
REMARK Flexibility Score: inf
ROOT
ATOM      1  C   UNL     1       9.172   2.163   9.220  1.00  0.00     0.401 A 
ATOM      2  O   UNL     1      10.093   1.337   8.725  1.00  0.00    -0.202 OA
ATOM      3  C   UNL     1      11.026   1.721   7.859  1.00  0.00     0.368 A 
ATOM      4  C   UNL     1      11.955   0.791   7.383  1.00  0.00     0.162 A 
ATOM      5  C   UNL     1      12.939   1.184   6.468  1.00  0.00     0.128 A 
ATOM      6  C   UNL     1      12.995   2.511   6.029  1.00  0.00     0.093 A 
ATOM      7  C   UNL     1      12.071   3.455   6.499  1.00  0.00     0.136 A 
ATOM      8  C   UNL     1      11.081   3.061   7.418  1.00  0.00     0.125 A 
ATOM      9  C   UNL     1      10.139   3.962   7.926  1.00  0.00     0.078 A 
ATOM     10  C   UNL     1       9.180   3.522   8.843  1.00  0.00     0.223 A 
ENDROOT
BRANCH   1  11
ATOM     11  C   UNL     1       8.179   1.614  10.171  1.00  0.00     0.084 A 
ATOM     12  C   UNL     1       8.534   1.279  11.491  1.00  0.00     0.022 A 
ATOM     13  C   UNL     1       7.573   0.784  12.377  1.00  0.00     0.047 A 
ATOM     14  C   UNL     1       6.244   0.630  11.962  1.00  0.00     0.115 A 
ATOM     15  C   UNL     1       6.840   1.476   9.770  1.00  0.00     0.022 A 
ATOM     16  C   UNL     1       5.881   0.980  10.658  1.00  0.00     0.047 A 
BRANCH  14  17
ATOM     17  O   UNL     1       5.279   0.137  12.837  1.00  0.00    -0.508 OA
ATOM     18  H   UNL     1       4.581   0.743  13.251  1.00  0.00     0.293 HD
ENDBRANCH  14  17
ENDBRANCH   1  11
BRANCH  10  19
ATOM     19  O   UNL     1       8.269   4.424   9.393  1.00  0.00    -0.500 OA
ATOM     20  H   UNL     1       7.302   4.170   9.555  1.00  0.00     0.294 HD
ENDBRANCH  10  19
BRANCH   5  21
ATOM     21  O   UNL     1      13.869   0.263   5.988  1.00  0.00    -0.507 OA
ATOM     22  H   UNL     1      14.134  -0.552   6.529  1.00  0.00     0.293 HD
ENDBRANCH   5  21
BRANCH   7  23
ATOM     23  O   UNL     1      12.139   4.776   6.055  1.00  0.00    -0.507 OA
ATOM     24  H   UNL     1      11.353   5.410   6.150  1.00  0.00     0.293 HD
ENDBRANCH   7  23
TORSDOF 5
ENDMDL
MODEL 2
REMARK VINA RESULT:    23.803      1.040      2.851
REMARK INTER + INTRA:          27.740
REMARK INTER:                  27.999
REMARK INTRA:                  -0.259
REMARK UNBOUND:                -0.238
REMARK SMILES Oc1ccc(-c2[o+]c3cc(O)cc(O)c3cc2O)cc1
REMARK SMILES IDX 6 1 7 2 8 3 9 4 10 5 12 6 13 7 15 8 16 9 17 10 5 11 4 12
REMARK SMILES IDX 3 13 2 14 19 15 20 16 1 17 18 19 11 21 14 23
REMARK H PARENT 1 18 18 20 11 22 14 24
REMARK Flexibility Score: inf
ROOT
ATOM      1  C   UNL     1       9.183   1.354   9.304  1.00  0.00     0.401 A 
ATOM      2  O   UNL     1       9.454   2.568   8.825  1.00  0.00    -0.202 OA
ATOM      3  C   UNL     1      10.426   2.805   7.950  1.00  0.00     0.368 A 
ATOM      4  C   UNL     1      10.650   4.109   7.499  1.00  0.00     0.162 A 
ATOM      5  C   UNL     1      11.674   4.371   6.580  1.00  0.00     0.128 A 
ATOM      6  C   UNL     1      12.476   3.325   6.112  1.00  0.00     0.093 A 
ATOM      7  C   UNL     1      12.263   2.011   6.555  1.00  0.00     0.136 A 
ATOM      8  C   UNL     1      11.235   1.748   7.478  1.00  0.00     0.125 A 
ATOM      9  C   UNL     1      10.972   0.456   7.948  1.00  0.00     0.078 A 
ATOM     10  C   UNL     1       9.933   0.246   8.860  1.00  0.00     0.223 A 
ENDROOT
BRANCH   1  11
ATOM     11  C   UNL     1       8.079   1.219  10.281  1.00  0.00     0.084 A 
ATOM     12  C   UNL     1       6.732   1.254   9.876  1.00  0.00     0.022 A 
ATOM     13  C   UNL     1       5.707   1.102  10.815  1.00  0.00     0.047 A 
ATOM     14  C   UNL     1       6.014   0.898  12.167  1.00  0.00     0.115 A 
ATOM     15  C   UNL     1       8.378   0.993  11.635  1.00  0.00     0.022 A 
ATOM     16  C   UNL     1       7.351   0.841  12.572  1.00  0.00     0.047 A 
BRANCH  14  17
ATOM     17  O   UNL     1       5.001   0.744  13.110  1.00  0.00    -0.508 OA
ATOM     18  H   UNL     1       4.405   1.519  13.378  1.00  0.00     0.293 HD
ENDBRANCH  14  17
ENDBRANCH   1  11
BRANCH  10  19
ATOM     19  O   UNL     1       9.632  -1.045   9.294  1.00  0.00    -0.500 OA
ATOM     20  H   UNL     1      10.147  -1.851   8.959  1.00  0.00     0.294 HD
ENDBRANCH  10  19
BRANCH   5  21
ATOM     21  O   UNL     1      11.904   5.668   6.125  1.00  0.00    -0.507 OA
ATOM     22  H   UNL     1      11.192   6.386   6.193  1.00  0.00     0.293 HD
ENDBRANCH   5  21
BRANCH   7  23
ATOM     23  O   UNL     1      13.069   0.977   6.079  1.00  0.00    -0.507 OA
ATOM     24  H   UNL     1      12.800   0.420   5.276  1.00  0.00     0.293 HD
ENDBRANCH   7  23
TORSDOF 5
ENDMDL
MODEL 3
REMARK VINA RESULT:    23.966      1.040      2.653
REMARK INTER + INTRA:          27.931
REMARK INTER:                  28.219
REMARK INTRA:                  -0.288
REMARK UNBOUND:                -0.238
REMARK SMILES Oc1ccc(-c2[o+]c3cc(O)cc(O)c3cc2O)cc1
REMARK SMILES IDX 6 1 7 2 8 3 9 4 10 5 12 6 13 7 15 8 16 9 17 10 5 11 4 12
REMARK SMILES IDX 3 13 2 14 19 15 20 16 1 17 18 19 11 21 14 23
REMARK H PARENT 1 18 18 20 11 22 14 24
REMARK Flexibility Score: inf
ROOT
ATOM      1  C   UNL     1       9.233   1.345   9.312  1.00  0.00     0.401 A 
ATOM      2  O   UNL     1       9.466   2.570   8.842  1.00  0.00    -0.202 OA
ATOM      3  C   UNL     1      10.417   2.839   7.952  1.00  0.00     0.368 A 
ATOM      4  C   UNL     1      10.602   4.153   7.512  1.00  0.00     0.162 A 
ATOM      5  C   UNL     1      11.602   4.450   6.578  1.00  0.00     0.128 A 
ATOM      6  C   UNL     1      12.420   3.428   6.083  1.00  0.00     0.093 A 
ATOM      7  C   UNL     1      12.246   2.105   6.515  1.00  0.00     0.136 A 
ATOM      8  C   UNL     1      11.241   1.807   7.453  1.00  0.00     0.125 A 
ATOM      9  C   UNL     1      11.016   0.504   7.913  1.00  0.00     0.078 A 
ATOM     10  C   UNL     1      10.000   0.260   8.841  1.00  0.00     0.223 A 
ENDROOT
BRANCH   1  11
ATOM     11  C   UNL     1       8.151   1.172  10.307  1.00  0.00     0.084 A 
ATOM     12  C   UNL     1       8.433   0.989  11.674  1.00  0.00     0.022 A 
ATOM     13  C   UNL     1       7.393   0.851  12.598  1.00  0.00     0.047 A 
ATOM     14  C   UNL     1       6.060   0.908  12.173  1.00  0.00     0.115 A 
ATOM     15  C   UNL     1       6.811   1.250   9.893  1.00  0.00     0.022 A 
ATOM     16  C   UNL     1       5.773   1.111  10.820  1.00  0.00     0.047 A 
BRANCH  14  17
ATOM     17  O   UNL     1       5.017   0.772  13.085  1.00  0.00    -0.508 OA
ATOM     18  H   UNL     1       4.517   1.578  13.443  1.00  0.00     0.293 HD
ENDBRANCH  14  17
ENDBRANCH   1  11
BRANCH  10  19
ATOM     19  O   UNL     1       9.737  -1.043   9.265  1.00  0.00    -0.500 OA
ATOM     20  H   UNL     1       9.763  -1.826   8.622  1.00  0.00     0.294 HD
ENDBRANCH  10  19
BRANCH   5  21
ATOM     21  O   UNL     1      11.794   5.757   6.135  1.00  0.00    -0.507 OA
ATOM     22  H   UNL     1      11.027   6.307   5.764  1.00  0.00     0.293 HD
ENDBRANCH   5  21
BRANCH   7  23
ATOM     23  O   UNL     1      13.066   1.095   6.012  1.00  0.00    -0.507 OA
ATOM     24  H   UNL     1      13.665   1.247   5.207  1.00  0.00     0.293 HD
ENDBRANCH   7  23
TORSDOF 5
ENDMDL
MODEL 4
REMARK VINA RESULT:    25.227      4.652      7.510
REMARK INTER + INTRA:          29.413
REMARK INTER:                  29.657
REMARK INTRA:                  -0.244
REMARK UNBOUND:                -0.238
REMARK SMILES Oc1ccc(-c2[o+]c3cc(O)cc(O)c3cc2O)cc1
REMARK SMILES IDX 6 1 7 2 8 3 9 4 10 5 12 6 13 7 15 8 16 9 17 10 5 11 4 12
REMARK SMILES IDX 3 13 2 14 19 15 20 16 1 17 18 19 11 21 14 23
REMARK H PARENT 1 18 18 20 11 22 14 24
REMARK Flexibility Score: inf
ROOT
ATOM      1  C   UNL     1      14.921   3.000   9.183  1.00  0.00     0.401 A 
ATOM      2  O   UNL     1      14.018   3.858   8.711  1.00  0.00    -0.202 OA
ATOM      3  C   UNL     1      13.069   3.515   7.845  1.00  0.00     0.368 A 
ATOM      4  C   UNL     1      12.161   4.477   7.394  1.00  0.00     0.162 A 
ATOM      5  C   UNL     1      11.161   4.127   6.478  1.00  0.00     0.128 A 
ATOM      6  C   UNL     1      11.069   2.811   6.014  1.00  0.00     0.093 A 
ATOM      7  C   UNL     1      11.973   1.835   6.458  1.00  0.00     0.136 A 
ATOM      8  C   UNL     1      12.978   2.185   7.377  1.00  0.00     0.125 A 
ATOM      9  C   UNL     1      13.901   1.251   7.861  1.00  0.00     0.078 A 
ATOM     10  C   UNL     1      14.877   1.650   8.780  1.00  0.00     0.223 A 
ENDROOT
BRANCH   1  11
ATOM     11  C   UNL     1      15.934   3.505  10.137  1.00  0.00     0.084 A 
ATOM     12  C   UNL     1      15.601   3.801  11.472  1.00  0.00     0.022 A 
ATOM     13  C   UNL     1      16.580   4.255  12.361  1.00  0.00     0.047 A 
ATOM     14  C   UNL     1      17.905   4.406  11.933  1.00  0.00     0.115 A 
ATOM     15  C   UNL     1      17.269   3.638   9.723  1.00  0.00     0.022 A 
ATOM     16  C   UNL     1      18.246   4.093  10.614  1.00  0.00     0.047 A 
BRANCH  14  17
ATOM     17  O   UNL     1      18.888   4.858  12.810  1.00  0.00    -0.508 OA
ATOM     18  H   UNL     1      19.842   5.011  12.503  1.00  0.00     0.293 HD
ENDBRANCH  14  17
ENDBRANCH   1  11
BRANCH  10  19
ATOM     19  O   UNL     1      15.768   0.714   9.304  1.00  0.00    -0.500 OA
ATOM     20  H   UNL     1      16.668   0.537   8.872  1.00  0.00     0.294 HD
ENDBRANCH  10  19
BRANCH   5  21
ATOM     21  O   UNL     1      10.252   5.080   6.023  1.00  0.00    -0.507 OA
ATOM     22  H   UNL     1      10.042   5.912   6.564  1.00  0.00     0.293 HD
ENDBRANCH   5  21
BRANCH   7  23
ATOM     23  O   UNL     1      11.869   0.525   5.988  1.00  0.00    -0.507 OA
ATOM     24  H   UNL     1      10.969   0.087   5.827  1.00  0.00     0.293 HD
ENDBRANCH   7  23
TORSDOF 5
ENDMDL
MODEL 5
REMARK VINA RESULT:    25.884      4.869      7.173
REMARK INTER + INTRA:          30.186
REMARK INTER:                  30.457
REMARK INTRA:                  -0.271
REMARK UNBOUND:                -0.238
REMARK SMILES Oc1ccc(-c2[o+]c3cc(O)cc(O)c3cc2O)cc1
REMARK SMILES IDX 6 1 7 2 8 3 9 4 10 5 12 6 13 7 15 8 16 9 17 10 5 11 4 12
REMARK SMILES IDX 3 13 2 14 19 15 20 16 1 17 18 19 11 21 14 23
REMARK H PARENT 1 18 18 20 11 22 14 24
REMARK Flexibility Score: inf
ROOT
ATOM      1  C   UNL     1      14.967   3.766   9.410  1.00  0.00     0.401 A 
ATOM      2  O   UNL     1      14.696   2.573   8.881  1.00  0.00    -0.202 OA
ATOM      3  C   UNL     1      13.727   2.374   7.993  1.00  0.00     0.368 A 
ATOM      4  C   UNL     1      13.502   1.090   7.488  1.00  0.00     0.162 A 
ATOM      5  C   UNL     1      12.482   0.868   6.556  1.00  0.00     0.128 A 
ATOM      6  C   UNL     1      11.684   1.933   6.127  1.00  0.00     0.093 A 
ATOM      7  C   UNL     1      11.897   3.227   6.624  1.00  0.00     0.136 A 
ATOM      8  C   UNL     1      12.922   3.451   7.561  1.00  0.00     0.125 A 
ATOM      9  C   UNL     1      13.186   4.722   8.085  1.00  0.00     0.078 A 
ATOM     10  C   UNL     1      14.221   4.893   9.009  1.00  0.00     0.223 A 
ENDROOT
BRANCH   1  11
ATOM     11  C   UNL     1      16.067   3.859  10.397  1.00  0.00     0.084 A 
ATOM     12  C   UNL     1      17.415   3.873   9.994  1.00  0.00     0.022 A 
ATOM     13  C   UNL     1      18.435   3.985  10.944  1.00  0.00     0.047 A 
ATOM     14  C   UNL     1      18.123   4.098  12.304  1.00  0.00     0.115 A 
ATOM     15  C   UNL     1      15.762   3.995  11.762  1.00  0.00     0.022 A 
ATOM     16  C   UNL     1      16.785   4.106  12.709  1.00  0.00     0.047 A 
BRANCH  14  17
ATOM     17  O   UNL     1      19.131   4.210  13.258  1.00  0.00    -0.508 OA
ATOM     18  H   UNL     1      19.302   3.477  13.936  1.00  0.00     0.293 HD
ENDBRANCH  14  17
ENDBRANCH   1  11
BRANCH  10  19
ATOM     19  O   UNL     1      14.522   6.164   9.496  1.00  0.00    -0.500 OA
ATOM     20  H   UNL     1      15.378   6.643   9.239  1.00  0.00     0.294 HD
ENDBRANCH  10  19
BRANCH   5  21
ATOM     21  O   UNL     1      12.251  -0.409   6.047  1.00  0.00    -0.507 OA
ATOM     22  H   UNL     1      11.352  -0.670   5.659  1.00  0.00     0.293 HD
ENDBRANCH   5  21
BRANCH   7  23
ATOM     23  O   UNL     1      11.095   4.282   6.187  1.00  0.00    -0.507 OA
ATOM     24  H   UNL     1      10.800   4.360   5.220  1.00  0.00     0.293 HD
ENDBRANCH   7  23
TORSDOF 5
ENDMDL
