MODEL 1
REMARK VINA RESULT:    -5.547      0.000      0.000
REMARK INTER + INTRA:          -9.435
REMARK INTER:                  -7.655
REMARK INTRA:                  -1.780
REMARK UNBOUND:                -1.780
REMARK SMILES CC[C@H](CC[C@H](C)[C@H]1CC[C@H]2[C@@H]3CC=C4C[C@H](O)CC[C@@]4(C)[C@@H]3CC[C@@]12C)C(C)C
REMARK SMILES IDX 5 1 4 2 3 3 2 4 1 5 28 6 29 7 30 8 6 9 7 10 8 11 9 12 26 13
REMARK SMILES IDX 10 14 11 15 25 16 27 17 12 18 24 19 23 20 13 21 21 22 14 23
REMARK SMILES IDX 15 24 20 25 22 26 16 27 19 28 17 29 18 30
REMARK H PARENT 18 31
REMARK Flexibility Score: inf
ROOT
ATOM      1  C   UNL     1      -7.755  -5.670  -9.282  1.00  0.00     0.004 C 
ENDROOT
BRANCH   1   2
ATOM      2  C   UNL     1      -6.366  -5.331  -9.861  1.00  0.00     0.004 C 
BRANCH   2   3
ATOM      3  C   UNL     1      -5.281  -5.075  -8.775  1.00  0.00    -0.009 C 
BRANCH   3   4
ATOM      4  C   UNL     1      -4.413  -6.349  -8.570  1.00  0.00     0.000 C 
ATOM      5  C   UNL     1      -4.698  -7.443  -9.603  1.00  0.00     0.004 C 
ENDBRANCH   3   4
BRANCH   3   6
ATOM      6  C   UNL     1      -4.414  -3.804  -9.072  1.00  0.00    -0.014 C 
ATOM      7  C   UNL     1      -5.231  -2.678  -9.729  1.00  0.00     0.007 C 
ATOM      8  C   UNL     1      -3.667  -3.267  -7.840  1.00  0.00     0.007 C 
ENDBRANCH   3   6
ENDBRANCH   2   3
ENDBRANCH   1   2
BRANCH   1   9
ATOM      9  C   UNL     1      -7.801  -5.657  -7.731  1.00  0.00    -0.011 C 
ATOM     10  C   UNL     1      -7.898  -7.100  -7.188  1.00  0.00     0.008 C 
BRANCH   9  11
ATOM     11  C   UNL     1      -8.939  -4.682  -7.231  1.00  0.00    -0.002 C 
ATOM     12  C   UNL     1      -9.462  -4.910  -5.807  1.00  0.00     0.005 C 
ATOM     13  C   UNL     1      -8.674  -3.152  -7.341  1.00  0.00    -0.026 C 
ATOM     14  C   UNL     1     -10.125  -3.599  -5.388  1.00  0.00     0.005 C 
ATOM     15  C   UNL     1      -9.849  -2.570  -6.502  1.00  0.00    -0.001 C 
ATOM     16  C   UNL     1      -7.300  -2.757  -6.729  1.00  0.00     0.007 C 
ATOM     17  C   UNL     1      -8.747  -2.720  -8.831  1.00  0.00     0.012 C 
ATOM     18  C   UNL     1      -9.674  -1.125  -5.941  1.00  0.00     0.000 C 
ATOM     19  C   UNL     1      -7.184  -1.266  -6.384  1.00  0.00     0.005 C 
ATOM     20  C   UNL     1      -8.266  -0.859  -5.351  1.00  0.00     0.003 C 
ATOM     21  C   UNL     1     -10.028  -0.061  -6.992  1.00  0.00     0.031 C 
ATOM     22  C   UNL     1      -8.146   0.610  -4.744  1.00  0.00    -0.008 C 
ATOM     23  C   UNL     1      -9.901   1.320  -6.434  1.00  0.00    -0.027 C 
ATOM     24  C   UNL     1      -9.014   1.649  -5.474  1.00  0.00    -0.065 C 
ATOM     25  C   UNL     1      -8.649   0.570  -3.264  1.00  0.00     0.014 C 
ATOM     26  C   UNL     1      -6.668   1.087  -4.749  1.00  0.00     0.016 C 
ATOM     27  C   UNL     1      -9.103   3.034  -4.866  1.00  0.00     0.063 C 
ATOM     28  C   UNL     1      -8.779   1.957  -2.598  1.00  0.00     0.033 C 
ATOM     29  C   UNL     1      -9.640   2.922  -3.434  1.00  0.00     0.118 C 
BRANCH  29  30
ATOM     30  O   UNL     1      -9.643   4.195  -2.843  1.00  0.00    -0.393 OA
ATOM     31  H   UNL     1      -8.701   4.508  -2.836  1.00  0.00     0.210 HD
ENDBRANCH  29  30
ENDBRANCH   9  11
ENDBRANCH   1   9
TORSDOF 7
ENDMDL
MODEL 2
REMARK VINA RESULT:    -3.839     15.320     18.546
REMARK INTER + INTRA:          -7.078
REMARK INTER:                  -6.815
REMARK INTRA:                  -0.263
REMARK UNBOUND:                -1.780
REMARK SMILES CC[C@H](CC[C@H](C)[C@H]1CC[C@H]2[C@@H]3CC=C4C[C@H](O)CC[C@@]4(C)[C@@H]3CC[C@@]12C)C(C)C
REMARK SMILES IDX 5 1 4 2 3 3 2 4 1 5 28 6 29 7 30 8 6 9 7 10 8 11 9 12 26 13
REMARK SMILES IDX 10 14 11 15 25 16 27 17 12 18 24 19 23 20 13 21 21 22 14 23
REMARK SMILES IDX 15 24 20 25 22 26 16 27 19 28 17 29 18 30
REMARK H PARENT 18 31
REMARK Flexibility Score: inf
ROOT
ATOM      1  C   UNL     1      -5.779   8.465   5.377  1.00  0.00     0.004 C 
ENDROOT
BRANCH   1   2
ATOM      2  C   UNL     1      -6.957   9.029   6.198  1.00  0.00     0.004 C 
BRANCH   2   3
ATOM      3  C   UNL     1      -7.266   8.218   7.489  1.00  0.00    -0.009 C 
BRANCH   3   4
ATOM      4  C   UNL     1      -6.980   6.707   7.257  1.00  0.00     0.000 C 
ATOM      5  C   UNL     1      -7.028   5.880   8.545  1.00  0.00     0.004 C 
ENDBRANCH   3   4
BRANCH   3   6
ATOM      6  C   UNL     1      -6.523   8.778   8.750  1.00  0.00    -0.014 C 
ATOM      7  C   UNL     1      -5.435   9.802   8.381  1.00  0.00     0.007 C 
ATOM      8  C   UNL     1      -7.468   9.365   9.811  1.00  0.00     0.007 C 
ENDBRANCH   3   6
ENDBRANCH   2   3
ENDBRANCH   1   2
BRANCH   1   9
ATOM      9  C   UNL     1      -4.957   9.557   4.641  1.00  0.00    -0.011 C 
ATOM     10  C   UNL     1      -5.520   9.783   3.221  1.00  0.00     0.008 C 
BRANCH   9  11
ATOM     11  C   UNL     1      -3.419   9.204   4.696  1.00  0.00    -0.002 C 
ATOM     12  C   UNL     1      -2.540  10.102   5.577  1.00  0.00     0.005 C 
ATOM     13  C   UNL     1      -3.028   7.743   5.065  1.00  0.00    -0.026 C 
ATOM     14  C   UNL     1      -1.279   9.293   5.876  1.00  0.00     0.005 C 
ATOM     15  C   UNL     1      -1.495   7.879   5.301  1.00  0.00    -0.001 C 
ATOM     16  C   UNL     1      -3.752   7.257   6.352  1.00  0.00     0.007 C 
ATOM     17  C   UNL     1      -3.356   6.804   3.872  1.00  0.00     0.012 C 
ATOM     18  C   UNL     1      -0.810   6.778   6.168  1.00  0.00     0.000 C 
ATOM     19  C   UNL     1      -3.083   6.048   7.018  1.00  0.00     0.005 C 
ATOM     20  C   UNL     1      -1.626   6.387   7.427  1.00  0.00     0.003 C 
ATOM     21  C   UNL     1      -0.471   5.530   5.337  1.00  0.00     0.031 C 
ATOM     22  C   UNL     1      -0.868   5.298   8.310  1.00  0.00    -0.008 C 
ATOM     23  C   UNL     1       0.225   4.497   6.163  1.00  0.00    -0.027 C 
ATOM     24  C   UNL     1       0.006   4.337   7.483  1.00  0.00    -0.065 C 
ATOM     25  C   UNL     1       0.096   6.046   9.287  1.00  0.00     0.014 C 
ATOM     26  C   UNL     1      -1.879   4.472   9.150  1.00  0.00     0.016 C 
ATOM     27  C   UNL     1       0.900   3.380   8.245  1.00  0.00     0.063 C 
ATOM     28  C   UNL     1       1.047   5.121  10.077  1.00  0.00     0.033 C 
ATOM     29  C   UNL     1       1.842   4.182   9.150  1.00  0.00     0.118 C 
BRANCH  29  30
ATOM     30  O   UNL     1       2.612   3.293   9.915  1.00  0.00    -0.393 OA
ATOM     31  H   UNL     1       2.289   2.379   9.701  1.00  0.00     0.210 HD
ENDBRANCH  29  30
ENDBRANCH   9  11
ENDBRANCH   1   9
TORSDOF 7
ENDMDL
MODEL 3
REMARK VINA RESULT:    -3.752      1.492      2.647
REMARK INTER + INTRA:          -6.958
REMARK INTER:                  -5.920
REMARK INTRA:                  -1.039
REMARK UNBOUND:                -1.780
REMARK SMILES CC[C@H](CC[C@H](C)[C@H]1CC[C@H]2[C@@H]3CC=C4C[C@H](O)CC[C@@]4(C)[C@@H]3CC[C@@]12C)C(C)C
REMARK SMILES IDX 5 1 4 2 3 3 2 4 1 5 28 6 29 7 30 8 6 9 7 10 8 11 9 12 26 13
REMARK SMILES IDX 10 14 11 15 25 16 27 17 12 18 24 19 23 20 13 21 21 22 14 23
REMARK SMILES IDX 15 24 20 25 22 26 16 27 19 28 17 29 18 30
REMARK H PARENT 18 31
REMARK Flexibility Score: inf
ROOT
ATOM      1  C   UNL     1      -8.018  -5.666  -9.702  1.00  0.00     0.004 C 
ENDROOT
BRANCH   1   2
ATOM      2  C   UNL     1      -6.954  -6.700 -10.125  1.00  0.00     0.004 C 
BRANCH   2   3
ATOM      3  C   UNL     1      -7.434  -8.175 -10.010  1.00  0.00    -0.009 C 
BRANCH   3   4
ATOM      4  C   UNL     1      -6.282  -9.077  -9.481  1.00  0.00     0.000 C 
ATOM      5  C   UNL     1      -4.893  -8.586  -9.901  1.00  0.00     0.004 C 
ENDBRANCH   3   4
BRANCH   3   6
ATOM      6  C   UNL     1      -8.744  -8.324  -9.163  1.00  0.00    -0.014 C 
ATOM      7  C   UNL     1     -10.011  -8.301 -10.035  1.00  0.00     0.007 C 
ATOM      8  C   UNL     1      -8.749  -9.562  -8.251  1.00  0.00     0.007 C 
ENDBRANCH   3   6
ENDBRANCH   2   3
ENDBRANCH   1   2
BRANCH   1   9
ATOM      9  C   UNL     1      -7.526  -4.681  -8.608  1.00  0.00    -0.011 C 
ATOM     10  C   UNL     1      -6.742  -5.443  -7.517  1.00  0.00     0.008 C 
BRANCH   9  11
ATOM     11  C   UNL     1      -8.735  -3.816  -8.075  1.00  0.00    -0.002 C 
ATOM     12  C   UNL     1      -9.356  -4.253  -6.743  1.00  0.00     0.005 C 
ATOM     13  C   UNL     1      -8.523  -2.279  -7.956  1.00  0.00    -0.026 C 
ATOM     14  C   UNL     1     -10.100  -3.031  -6.205  1.00  0.00     0.005 C 
ATOM     15  C   UNL     1      -9.781  -1.851  -7.144  1.00  0.00    -0.001 C 
ATOM     16  C   UNL     1      -7.216  -1.933  -7.187  1.00  0.00     0.007 C 
ATOM     17  C   UNL     1      -8.499  -1.649  -9.375  1.00  0.00     0.012 C 
ATOM     18  C   UNL     1      -9.705  -0.493  -6.381  1.00  0.00     0.000 C 
ATOM     19  C   UNL     1      -7.185  -0.502  -6.636  1.00  0.00     0.005 C 
ATOM     20  C   UNL     1      -8.358  -0.271  -5.649  1.00  0.00     0.003 C 
ATOM     21  C   UNL     1     -10.019   0.695  -7.304  1.00  0.00     0.031 C 
ATOM     22  C   UNL     1      -8.342   1.103  -4.841  1.00  0.00    -0.008 C 
ATOM     23  C   UNL     1      -9.990   1.989  -6.557  1.00  0.00    -0.027 C 
ATOM     24  C   UNL     1      -9.192   2.208  -5.493  1.00  0.00    -0.065 C 
ATOM     25  C   UNL     1      -8.955   0.846  -3.426  1.00  0.00     0.014 C 
ATOM     26  C   UNL     1      -6.887   1.618  -4.662  1.00  0.00     0.016 C 
ATOM     27  C   UNL     1      -9.381   3.493  -4.712  1.00  0.00     0.063 C 
ATOM     28  C   UNL     1      -9.189   2.123  -2.591  1.00  0.00     0.033 C 
ATOM     29  C   UNL     1     -10.020   3.170  -3.357  1.00  0.00     0.118 C 
BRANCH  29  30
ATOM     30  O   UNL     1     -10.119   4.349  -2.602  1.00  0.00    -0.393 OA
ATOM     31  H   UNL     1      -9.528   5.017  -3.038  1.00  0.00     0.210 HD
ENDBRANCH  29  30
ENDBRANCH   9  11
ENDBRANCH   1   9
TORSDOF 7
ENDMDL
MODEL 4
REMARK VINA RESULT:    -3.625     15.367     17.837
REMARK INTER + INTRA:          -6.783
REMARK INTER:                  -5.357
REMARK INTRA:                  -1.425
REMARK UNBOUND:                -1.780
REMARK SMILES CC[C@H](CC[C@H](C)[C@H]1CC[C@H]2[C@@H]3CC=C4C[C@H](O)CC[C@@]4(C)[C@@H]3CC[C@@]12C)C(C)C
REMARK SMILES IDX 5 1 4 2 3 3 2 4 1 5 28 6 29 7 30 8 6 9 7 10 8 11 9 12 26 13
REMARK SMILES IDX 10 14 11 15 25 16 27 17 12 18 24 19 23 20 13 21 21 22 14 23
REMARK SMILES IDX 15 24 20 25 22 26 16 27 19 28 17 29 18 30
REMARK H PARENT 18 31
REMARK Flexibility Score: inf
ROOT
ATOM      1  C   UNL     1       0.382   7.046   5.563  1.00  0.00     0.004 C 
ENDROOT
BRANCH   1   2
ATOM      2  C   UNL     1       0.879   7.463   6.963  1.00  0.00     0.004 C 
BRANCH   2   3
ATOM      3  C   UNL     1       0.662   6.376   8.054  1.00  0.00    -0.009 C 
BRANCH   3   4
ATOM      4  C   UNL     1       0.219   7.037   9.391  1.00  0.00     0.000 C 
ATOM      5  C   UNL     1       0.443   8.551   9.416  1.00  0.00     0.004 C 
ENDBRANCH   3   4
BRANCH   3   6
ATOM      6  C   UNL     1      -0.320   5.243   7.596  1.00  0.00    -0.014 C 
ATOM      7  C   UNL     1       0.408   3.917   7.311  1.00  0.00     0.007 C 
ATOM      8  C   UNL     1      -1.487   5.009   8.571  1.00  0.00     0.007 C 
ENDBRANCH   3   6
ENDBRANCH   2   3
ENDBRANCH   1   2
BRANCH   1   9
ATOM      9  C   UNL     1      -0.581   8.076   4.915  1.00  0.00    -0.011 C 
ATOM     10  C   UNL     1      -0.578   9.392   5.724  1.00  0.00     0.008 C 
BRANCH   9  11
ATOM     11  C   UNL     1      -2.006   7.429   4.706  1.00  0.00    -0.002 C 
ATOM     12  C   UNL     1      -2.102   5.908   4.887  1.00  0.00     0.005 C 
ATOM     13  C   UNL     1      -3.193   8.024   5.519  1.00  0.00    -0.026 C 
ATOM     14  C   UNL     1      -3.577   5.608   5.149  1.00  0.00     0.005 C 
ATOM     15  C   UNL     1      -4.305   6.962   5.272  1.00  0.00    -0.001 C 
ATOM     16  C   UNL     1      -2.857   8.142   7.032  1.00  0.00     0.007 C 
ATOM     17  C   UNL     1      -3.572   9.413   4.938  1.00  0.00     0.012 C 
ATOM     18  C   UNL     1      -5.478   6.910   6.300  1.00  0.00     0.000 C 
ATOM     19  C   UNL     1      -4.094   8.268   7.931  1.00  0.00     0.005 C 
ATOM     20  C   UNL     1      -5.012   7.028   7.773  1.00  0.00     0.003 C 
ATOM     21  C   UNL     1      -6.552   7.963   5.987  1.00  0.00     0.031 C 
ATOM     22  C   UNL     1      -6.234   6.920   8.791  1.00  0.00    -0.008 C 
ATOM     23  C   UNL     1      -7.694   7.878   6.948  1.00  0.00    -0.027 C 
ATOM     24  C   UNL     1      -7.553   7.477   8.228  1.00  0.00    -0.065 C 
ATOM     25  C   UNL     1      -6.484   5.407   9.096  1.00  0.00     0.014 C 
ATOM     26  C   UNL     1      -5.903   7.643  10.125  1.00  0.00     0.016 C 
ATOM     27  C   UNL     1      -8.808   7.262   9.050  1.00  0.00     0.063 C 
ATOM     28  C   UNL     1      -7.762   5.124   9.915  1.00  0.00     0.033 C 
ATOM     29  C   UNL     1      -9.011   5.759   9.275  1.00  0.00     0.118 C 
BRANCH  29  30
ATOM     30  O   UNL     1     -10.125   5.565  10.106  1.00  0.00    -0.393 OA
ATOM     31  H   UNL     1     -10.928   5.641   9.528  1.00  0.00     0.210 HD
ENDBRANCH  29  30
ENDBRANCH   9  11
ENDBRANCH   1   9
TORSDOF 7
ENDMDL
MODEL 5
REMARK VINA RESULT:    -3.457     15.829     18.089
REMARK INTER + INTRA:          -6.551
REMARK INTER:                  -5.485
REMARK INTRA:                  -1.066
REMARK UNBOUND:                -1.780
REMARK SMILES CC[C@H](CC[C@H](C)[C@H]1CC[C@H]2[C@@H]3CC=C4C[C@H](O)CC[C@@]4(C)[C@@H]3CC[C@@]12C)C(C)C
REMARK SMILES IDX 5 1 4 2 3 3 2 4 1 5 28 6 29 7 30 8 6 9 7 10 8 11 9 12 26 13
REMARK SMILES IDX 10 14 11 15 25 16 27 17 12 18 24 19 23 20 13 21 21 22 14 23
REMARK SMILES IDX 15 24 20 25 22 26 16 27 19 28 17 29 18 30
REMARK H PARENT 18 31
REMARK Flexibility Score: inf
ROOT
ATOM      1  C   UNL     1       0.493   5.594   5.805  1.00  0.00     0.004 C 
ENDROOT
BRANCH   1   2
ATOM      2  C   UNL     1       0.898   5.334   7.270  1.00  0.00     0.004 C 
BRANCH   2   3
ATOM      3  C   UNL     1      -0.122   4.461   8.057  1.00  0.00    -0.009 C 
BRANCH   3   4
ATOM      4  C   UNL     1       0.627   3.476   8.999  1.00  0.00     0.000 C 
ATOM      5  C   UNL     1       2.130   3.755   9.088  1.00  0.00     0.004 C 
ENDBRANCH   3   4
BRANCH   3   6
ATOM      6  C   UNL     1      -1.192   5.316   8.818  1.00  0.00    -0.014 C 
ATOM      7  C   UNL     1      -2.387   4.470   9.293  1.00  0.00     0.007 C 
ATOM      8  C   UNL     1      -0.613   6.123   9.992  1.00  0.00     0.007 C 
ENDBRANCH   3   6
ENDBRANCH   2   3
ENDBRANCH   1   2
BRANCH   1   9
ATOM      9  C   UNL     1      -0.009   7.040   5.547  1.00  0.00    -0.011 C 
ATOM     10  C   UNL     1       0.386   7.960   6.723  1.00  0.00     0.008 C 
BRANCH   9  11
ATOM     11  C   UNL     1      -1.550   7.025   5.204  1.00  0.00    -0.002 C 
ATOM     12  C   UNL     1      -2.295   5.707   5.454  1.00  0.00     0.005 C 
ATOM     13  C   UNL     1      -2.439   8.135   5.836  1.00  0.00    -0.026 C 
ATOM     14  C   UNL     1      -3.776   6.074   5.553  1.00  0.00     0.005 C 
ATOM     15  C   UNL     1      -3.870   7.612   5.516  1.00  0.00    -0.001 C 
ATOM     16  C   UNL     1      -2.215   8.253   7.370  1.00  0.00     0.007 C 
ATOM     17  C   UNL     1      -2.143   9.492   5.140  1.00  0.00     0.012 C 
ATOM     18  C   UNL     1      -5.038   8.153   6.398  1.00  0.00     0.000 C 
ATOM     19  C   UNL     1      -3.355   8.969   8.107  1.00  0.00     0.005 C 
ATOM     20  C   UNL     1      -4.694   8.213   7.908  1.00  0.00     0.003 C 
ATOM     21  C   UNL     1      -5.535   9.520   5.903  1.00  0.00     0.031 C 
ATOM     22  C   UNL     1      -5.929   8.723   8.777  1.00  0.00    -0.008 C 
ATOM     23  C   UNL     1      -6.683  10.012   6.724  1.00  0.00    -0.027 C 
ATOM     24  C   UNL     1      -6.835   9.718   8.031  1.00  0.00    -0.065 C 
ATOM     25  C   UNL     1      -6.821   7.488   9.130  1.00  0.00     0.014 C 
ATOM     26  C   UNL     1      -5.439   9.371  10.100  1.00  0.00     0.016 C 
ATOM     27  C   UNL     1      -8.129  10.125   8.708  1.00  0.00     0.063 C 
ATOM     28  C   UNL     1      -8.163   7.843   9.805  1.00  0.00     0.033 C 
ATOM     29  C   UNL     1      -8.967   8.872   8.987  1.00  0.00     0.118 C 
BRANCH  29  30
ATOM     30  O   UNL     1     -10.125   9.241   9.688  1.00  0.00    -0.393 OA
ATOM     31  H   UNL     1     -10.597   9.910   9.127  1.00  0.00     0.210 HD
ENDBRANCH  29  30
ENDBRANCH   9  11
ENDBRANCH   1   9
TORSDOF 7
ENDMDL
MODEL 6
REMARK VINA RESULT:    -3.069     16.341     18.387
REMARK INTER + INTRA:          -6.016
REMARK INTER:                  -5.188
REMARK INTRA:                  -0.828
REMARK UNBOUND:                -1.780
REMARK SMILES CC[C@H](CC[C@H](C)[C@H]1CC[C@H]2[C@@H]3CC=C4C[C@H](O)CC[C@@]4(C)[C@@H]3CC[C@@]12C)C(C)C
REMARK SMILES IDX 5 1 4 2 3 3 2 4 1 5 28 6 29 7 30 8 6 9 7 10 8 11 9 12 26 13
REMARK SMILES IDX 10 14 11 15 25 16 27 17 12 18 24 19 23 20 13 21 21 22 14 23
REMARK SMILES IDX 15 24 20 25 22 26 16 27 19 28 17 29 18 30
REMARK H PARENT 18 31
REMARK Flexibility Score: inf
ROOT
ATOM      1  C   UNL     1       0.125   6.234   6.267  1.00  0.00     0.004 C 
ENDROOT
BRANCH   1   2
ATOM      2  C   UNL     1       0.387   7.608   5.615  1.00  0.00     0.004 C 
BRANCH   2   3
ATOM      3  C   UNL     1      -0.796   8.607   5.765  1.00  0.00    -0.009 C 
BRANCH   3   4
ATOM      4  C   UNL     1      -0.258  10.044   6.020  1.00  0.00     0.000 C 
ATOM      5  C   UNL     1       1.096  10.060   6.735  1.00  0.00     0.004 C 
ENDBRANCH   3   4
BRANCH   3   6
ATOM      6  C   UNL     1      -1.795   8.551   4.558  1.00  0.00    -0.014 C 
ATOM      7  C   UNL     1      -3.262   8.669   5.007  1.00  0.00     0.007 C 
ATOM      8  C   UNL     1      -1.491   9.583   3.459  1.00  0.00     0.007 C 
ENDBRANCH   3   6
ENDBRANCH   2   3
ENDBRANCH   1   2
BRANCH   1   9
ATOM      9  C   UNL     1       0.781   6.075   7.665  1.00  0.00    -0.011 C 
ATOM     10  C   UNL     1       1.505   4.715   7.763  1.00  0.00     0.008 C 
BRANCH   9  11
ATOM     11  C   UNL     1      -0.288   6.342   8.797  1.00  0.00    -0.002 C 
ATOM     12  C   UNL     1      -0.563   7.810   9.148  1.00  0.00     0.005 C 
ATOM     13  C   UNL     1      -1.687   5.679   8.636  1.00  0.00    -0.026 C 
ATOM     14  C   UNL     1      -1.927   7.828   9.838  1.00  0.00     0.005 C 
ATOM     15  C   UNL     1      -2.505   6.402   9.746  1.00  0.00    -0.001 C 
ATOM     16  C   UNL     1      -2.295   5.943   7.230  1.00  0.00     0.007 C 
ATOM     17  C   UNL     1      -1.568   4.152   8.896  1.00  0.00     0.012 C 
ATOM     18  C   UNL     1      -4.058   6.403   9.597  1.00  0.00     0.000 C 
ATOM     19  C   UNL     1      -3.813   5.734   7.165  1.00  0.00     0.005 C 
ATOM     20  C   UNL     1      -4.538   6.687   8.151  1.00  0.00     0.003 C 
ATOM     21  C   UNL     1      -4.680   5.101  10.125  1.00  0.00     0.031 C 
ATOM     22  C   UNL     1      -6.128   6.730   8.052  1.00  0.00    -0.008 C 
ATOM     23  C   UNL     1      -6.170   5.127  10.020  1.00  0.00    -0.027 C 
ATOM     24  C   UNL     1      -6.831   5.797   9.055  1.00  0.00    -0.065 C 
ATOM     25  C   UNL     1      -6.601   8.182   8.389  1.00  0.00     0.014 C 
ATOM     26  C   UNL     1      -6.599   6.380   6.615  1.00  0.00     0.016 C 
ATOM     27  C   UNL     1      -8.340   5.896   9.159  1.00  0.00     0.063 C 
ATOM     28  C   UNL     1      -8.130   8.339   8.527  1.00  0.00     0.033 C 
ATOM     29  C   UNL     1      -8.726   7.332   9.529  1.00  0.00     0.118 C 
BRANCH  29  30
ATOM     30  O   UNL     1     -10.125   7.442   9.544  1.00  0.00    -0.393 OA
ATOM     31  H   UNL     1     -10.407   7.624   8.609  1.00  0.00     0.210 HD
ENDBRANCH  29  30
ENDBRANCH   9  11
ENDBRANCH   1   9
TORSDOF 7
ENDMDL
MODEL 7
REMARK VINA RESULT:    -2.790     16.263     18.846
REMARK INTER + INTRA:          -5.631
REMARK INTER:                  -4.966
REMARK INTRA:                  -0.665
REMARK UNBOUND:                -1.780
REMARK SMILES CC[C@H](CC[C@H](C)[C@H]1CC[C@H]2[C@@H]3CC=C4C[C@H](O)CC[C@@]4(C)[C@@H]3CC[C@@]12C)C(C)C
REMARK SMILES IDX 5 1 4 2 3 3 2 4 1 5 28 6 29 7 30 8 6 9 7 10 8 11 9 12 26 13
REMARK SMILES IDX 10 14 11 15 25 16 27 17 12 18 24 19 23 20 13 21 21 22 14 23
REMARK SMILES IDX 15 24 20 25 22 26 16 27 19 28 17 29 18 30
REMARK H PARENT 18 31
REMARK Flexibility Score: inf
ROOT
ATOM      1  C   UNL     1      -6.217   8.663   5.496  1.00  0.00     0.004 C 
ENDROOT
BRANCH   1   2
ATOM      2  C   UNL     1      -7.179   8.632   6.702  1.00  0.00     0.004 C 
BRANCH   2   3
ATOM      3  C   UNL     1      -7.506   7.196   7.205  1.00  0.00    -0.009 C 
BRANCH   3   4
ATOM      4  C   UNL     1      -6.416   6.196   6.724  1.00  0.00     0.000 C 
ATOM      5  C   UNL     1      -5.471   5.752   7.843  1.00  0.00     0.004 C 
ENDBRANCH   3   4
BRANCH   3   6
ATOM      6  C   UNL     1      -7.729   7.133   8.755  1.00  0.00    -0.014 C 
ATOM      7  C   UNL     1      -7.937   8.526   9.374  1.00  0.00     0.007 C 
ATOM      8  C   UNL     1      -8.870   6.190   9.174  1.00  0.00     0.007 C 
ENDBRANCH   3   6
ENDBRANCH   2   3
ENDBRANCH   1   2
BRANCH   1   9
ATOM      9  C   UNL     1      -5.290   9.908   5.474  1.00  0.00    -0.011 C 
ATOM     10  C   UNL     1      -4.722  10.125   4.055  1.00  0.00     0.008 C 
BRANCH   9  11
ATOM     11  C   UNL     1      -4.204   9.794   6.615  1.00  0.00    -0.002 C 
ATOM     12  C   UNL     1      -4.687   9.267   7.972  1.00  0.00     0.005 C 
ATOM     13  C   UNL     1      -2.905   9.000   6.294  1.00  0.00    -0.026 C 
ATOM     14  C   UNL     1      -3.438   8.770   8.698  1.00  0.00     0.005 C 
ATOM     15  C   UNL     1      -2.262   8.867   7.706  1.00  0.00    -0.001 C 
ATOM     16  C   UNL     1      -3.216   7.603   5.686  1.00  0.00     0.007 C 
ATOM     17  C   UNL     1      -2.019   9.827   5.323  1.00  0.00     0.012 C 
ATOM     18  C   UNL     1      -1.223   7.721   7.908  1.00  0.00     0.000 C 
ATOM     19  C   UNL     1      -2.047   6.613   5.783  1.00  0.00     0.005 C 
ATOM     20  C   UNL     1      -1.653   6.378   7.265  1.00  0.00     0.003 C 
ATOM     21  C   UNL     1       0.175   8.130   7.419  1.00  0.00     0.031 C 
ATOM     22  C   UNL     1      -0.589   5.223   7.538  1.00  0.00    -0.008 C 
ATOM     23  C   UNL     1       1.175   7.045   7.657  1.00  0.00    -0.027 C 
ATOM     24  C   UNL     1       0.859   5.734   7.645  1.00  0.00    -0.065 C 
ATOM     25  C   UNL     1      -0.929   4.559   8.912  1.00  0.00     0.014 C 
ATOM     26  C   UNL     1      -0.664   4.134   6.433  1.00  0.00     0.016 C 
ATOM     27  C   UNL     1       1.919   4.740   8.076  1.00  0.00     0.063 C 
ATOM     28  C   UNL     1       0.127   3.551   9.412  1.00  0.00     0.033 C 
ATOM     29  C   UNL     1       1.540   4.162   9.444  1.00  0.00     0.118 C 
BRANCH  29  30
ATOM     30  O   UNL     1       2.478   3.182   9.804  1.00  0.00    -0.393 OA
ATOM     31  H   UNL     1       2.183   2.335   9.377  1.00  0.00     0.210 HD
ENDBRANCH  29  30
ENDBRANCH   9  11
ENDBRANCH   1   9
TORSDOF 7
ENDMDL
