MODEL 1
REMARK VINA RESULT:    -3.993      0.000      0.000
REMARK INTER + INTRA:         -12.005
REMARK INTER:                  -8.428
REMARK INTRA:                  -3.578
REMARK UNBOUND:                -3.578
REMARK SMILES CCC(=O)CCCCC[C@@H]1NC(=O)[C@H]2CCCCN2C(=O)[C@@H]([C@@H](C)CC)NC(=O)[C@H](Cc2cn(OC)c3ccccc23)NC1=O
REMARK SMILES IDX 9 1 10 2 44 3 43 4 45 6 30 7 28 8 27 9 29 11 22 12 23 14
REMARK SMILES IDX 24 15 25 16 26 17 31 18 32 19 33 20 42 21 34 22 37 23 41 24
REMARK SMILES IDX 38 25 40 26 39 27 35 28 36 29 11 30 12 31 13 33 14 34 19 35
REMARK SMILES IDX 15 36 18 37 16 38 17 39 20 40 21 41 8 43 7 44 6 45 5 46 3 47
REMARK SMILES IDX 4 48 2 49 1 50
REMARK H PARENT 43 5 27 10 11 32
REMARK Flexibility Score: 80.00
ROOT
ATOM      1  C   UNL     1      65.623  27.777  59.699  1.00  0.00     0.035 C 
ENDROOT
BRANCH   1   2
ATOM      2  C   UNL     1      66.922  28.105  58.925  1.00  0.00     0.171 C 
BRANCH   2   3
ATOM      3  C   UNL     1      66.663  28.741  57.583  1.00  0.00     0.243 C 
ATOM      4  N   UNL     1      66.766  30.161  57.428  1.00  0.00    -0.342 N 
ATOM      5  H   UNL     1      66.719  30.765  58.277  1.00  0.00     0.164 HD
ATOM      6  O   UNL     1      66.346  28.020  56.600  1.00  0.00    -0.273 OA
BRANCH   4   7
ATOM      7  C   UNL     1      67.038  30.805  56.145  1.00  0.00     0.175 C 
BRANCH   7   8
ATOM      8  C   UNL     1      68.213  31.731  56.332  1.00  0.00     0.243 C 
ATOM      9  N   UNL     1      69.437  31.226  56.875  1.00  0.00    -0.342 N 
ATOM     10  H   UNL     1      69.541  30.194  57.006  1.00  0.00     0.164 HD
ATOM     11  O   UNL     1      68.081  32.964  56.108  1.00  0.00    -0.273 OA
BRANCH   9  12
ATOM     12  C   UNL     1      70.467  32.097  57.444  1.00  0.00     0.174 CG0
ATOM     13  G   UNL     1      71.037  31.457  58.697  1.00  0.00     0.000 G0
BRANCH  12  14
ATOM     14  C   UNL     1      71.522  32.460  56.356  1.00  0.00     0.018 C 
ATOM     15  C   UNL     1      71.340  31.543  55.128  1.00  0.00     0.010 C 
BRANCH  14  16
ATOM     16  C   UNL     1      71.435  33.956  55.948  1.00  0.00     0.002 C 
ATOM     17  C   UNL     1      72.737  34.506  55.365  1.00  0.00     0.004 C 
ENDBRANCH  14  16
ENDBRANCH  12  14
ENDBRANCH   9  12
ENDBRANCH   7   8
BRANCH   7  18
ATOM     18  C   UNL     1      65.775  31.539  55.658  1.00  0.00     0.073 C 
BRANCH  18  19
ATOM     19  C   UNL     1      64.873  31.910  56.799  1.00  0.00    -0.016 A 
ATOM     20  C   UNL     1      65.075  32.946  57.711  1.00  0.00     0.134 A 
ATOM     21  C   UNL     1      63.636  31.368  57.109  1.00  0.00     0.006 A 
ATOM     22  N   UNL     1      64.022  33.023  58.560  1.00  0.00    -0.191 N 
ATOM     23  C   UNL     1      63.149  32.070  58.185  1.00  0.00     0.087 A 
ATOM     24  C   UNL     1      62.908  30.331  56.521  1.00  0.00     0.011 A 
ATOM     25  C   UNL     1      61.908  31.780  58.754  1.00  0.00     0.030 A 
ATOM     26  C   UNL     1      61.649  30.019  57.070  1.00  0.00     0.001 A 
ATOM     27  C   UNL     1      61.153  30.739  58.182  1.00  0.00     0.002 A 
BRANCH  22  28
ATOM     28  O   UNL     1      63.840  33.914  59.605  1.00  0.00    -0.417 OA
ATOM     29  C   UNL     1      64.855  34.829  60.009  1.00  0.00     0.313 C 
ENDBRANCH  22  28
ENDBRANCH  18  19
ENDBRANCH   7  18
ENDBRANCH   4   7
ENDBRANCH   2   3
BRANCH   2  30
ATOM     30  N   UNL     1      67.831  28.951  59.711  1.00  0.00    -0.343 N 
ATOM     31  C   UNL     1      69.194  28.557  59.965  1.00  0.00     0.243 C 
ATOM     32  H   UNL     1      67.579  29.953  59.863  1.00  0.00     0.164 HD
ATOM     33  O   UNL     1      69.497  27.329  59.972  1.00  0.00    -0.273 OA
BRANCH  31  34
ATOM     34  C   UNL     1      70.258  29.607  60.225  1.00  0.00     0.174 C 
ATOM     35  N   UNL     1      70.909  30.035  58.970  1.00  0.00    -0.329 N 
ATOM     36  C   UNL     1      71.323  29.130  61.240  1.00  0.00     0.035 C 
ATOM     37  C   UNL     1      71.849  29.108  58.329  1.00  0.00     0.120 C 
ATOM     38  C   UNL     1      72.349  28.164  60.621  1.00  0.00     0.004 C 
ATOM     39  C   UNL     1      72.949  28.727  59.326  1.00  0.00     0.022 C 
BRANCH  35  40
ATOM     40  C   UNL     1      71.040  31.450  58.717  1.00  0.00     0.246 CG0
ATOM     41  O   UNL     1      71.603  32.180  59.581  1.00  0.00    -0.272 OA
ATOM     42  G   UNL     1      70.475  32.106  57.470  1.00  0.00     0.000 G0
ENDBRANCH  35  40
ENDBRANCH  31  34
ENDBRANCH   2  30
ENDBRANCH   1   2
BRANCH   1  43
ATOM     43  C   UNL     1      64.439  28.720  59.410  1.00  0.00     0.003 C 
BRANCH  43  44
ATOM     44  C   UNL     1      63.835  29.336  60.684  1.00  0.00     0.001 C 
BRANCH  44  45
ATOM     45  C   UNL     1      62.439  28.783  61.005  1.00  0.00     0.008 C 
BRANCH  45  46
ATOM     46  C   UNL     1      62.071  27.631  60.053  1.00  0.00     0.075 C 
BRANCH  46  47
ATOM     47  C   UNL     1      61.915  26.324  60.789  1.00  0.00     0.132 C 
ATOM     48  O   UNL     1      61.412  26.306  61.904  1.00  0.00    -0.300 OA
BRANCH  47  49
ATOM     49  C   UNL     1      62.455  25.047  60.202  1.00  0.00     0.072 C 
ATOM     50  C   UNL     1      63.235  24.252  61.247  1.00  0.00     0.012 C 
ENDBRANCH  47  49
ENDBRANCH  46  47
ENDBRANCH  45  46
ENDBRANCH  44  45
ENDBRANCH  43  44
ENDBRANCH   1  43
TORSDOF 12
ENDMDL
MODEL 2
REMARK VINA RESULT:    -3.866     10.338     14.035
REMARK INTER + INTRA:         -11.737
REMARK INTER:                  -8.897
REMARK INTRA:                  -2.840
REMARK UNBOUND:                -3.578
REMARK SMILES CCC(=O)CCCCC[C@@H]1NC(=O)[C@H]2CCCCN2C(=O)[C@@H]([C@@H](C)CC)NC(=O)[C@H](Cc2cn(OC)c3ccccc23)NC1=O
REMARK SMILES IDX 9 1 10 2 44 3 43 4 45 6 30 7 28 8 27 9 29 11 22 12 23 14
REMARK SMILES IDX 24 15 25 16 26 17 31 18 32 19 33 20 42 21 34 22 37 23 41 24
REMARK SMILES IDX 38 25 40 26 39 27 35 28 36 29 11 30 12 31 13 33 14 34 19 35
REMARK SMILES IDX 15 36 18 37 16 38 17 39 20 40 21 41 8 43 7 44 6 45 5 46 3 47
REMARK SMILES IDX 4 48 2 49 1 50
REMARK H PARENT 43 5 27 10 11 32
REMARK Flexibility Score: 80.00
ROOT
ATOM      1  C   UNL     1      60.188  19.897  50.881  1.00  0.00     0.035 C 
ENDROOT
BRANCH   1   2
ATOM      2  C   UNL     1      59.808  20.994  51.903  1.00  0.00     0.171 C 
BRANCH   2   3
ATOM      3  C   UNL     1      60.510  22.304  51.648  1.00  0.00     0.243 C 
ATOM      4  N   UNL     1      60.187  23.080  50.487  1.00  0.00    -0.342 N 
ATOM      5  H   UNL     1      59.707  22.612  49.687  1.00  0.00     0.164 HD
ATOM      6  O   UNL     1      61.390  22.710  52.452  1.00  0.00    -0.273 OA
BRANCH   4   7
ATOM      7  C   UNL     1      60.402  24.522  50.408  1.00  0.00     0.175 C 
BRANCH   7   8
ATOM      8  C   UNL     1      59.059  25.181  50.218  1.00  0.00     0.243 C 
ATOM      9  N   UNL     1      58.195  25.372  51.344  1.00  0.00    -0.342 N 
ATOM     10  H   UNL     1      58.566  25.176  52.301  1.00  0.00     0.164 HD
ATOM     11  O   UNL     1      58.659  25.465  49.057  1.00  0.00    -0.273 OA
BRANCH   9  12
ATOM     12  C   UNL     1      56.761  25.631  51.202  1.00  0.00     0.174 CG0
ATOM     13  G   UNL     1      55.987  24.727  52.145  1.00  0.00     0.000 G0
BRANCH  12  14
ATOM     14  C   UNL     1      56.472  27.153  51.371  1.00  0.00     0.018 C 
ATOM     15  C   UNL     1      57.598  27.808  52.200  1.00  0.00     0.010 C 
BRANCH  14  16
ATOM     16  C   UNL     1      56.310  27.863  50.000  1.00  0.00     0.002 C 
ATOM     17  C   UNL     1      56.164  29.381  50.113  1.00  0.00     0.004 C 
ENDBRANCH  14  16
ENDBRANCH  12  14
ENDBRANCH   9  12
ENDBRANCH   7   8
BRANCH   7  18
ATOM     18  C   UNL     1      61.383  24.836  49.265  1.00  0.00     0.073 C 
BRANCH  18  19
ATOM     19  C   UNL     1      62.144  26.105  49.517  1.00  0.00    -0.016 A 
ATOM     20  C   UNL     1      62.069  27.279  48.767  1.00  0.00     0.134 A 
ATOM     21  C   UNL     1      62.985  26.388  50.582  1.00  0.00     0.006 A 
ATOM     22  N   UNL     1      62.847  28.234  49.331  1.00  0.00    -0.191 N 
ATOM     23  C   UNL     1      63.393  27.692  50.434  1.00  0.00     0.087 A 
ATOM     24  C   UNL     1      63.404  25.608  51.661  1.00  0.00     0.011 A 
ATOM     25  C   UNL     1      64.253  28.303  51.347  1.00  0.00     0.030 A 
ATOM     26  C   UNL     1      64.268  26.199  52.603  1.00  0.00     0.001 A 
ATOM     27  C   UNL     1      64.692  27.540  52.445  1.00  0.00     0.002 A 
BRANCH  22  28
ATOM     28  O   UNL     1      63.044  29.534  48.891  1.00  0.00    -0.417 OA
ATOM     29  C   UNL     1      62.272  30.627  49.383  1.00  0.00     0.313 C 
ENDBRANCH  22  28
ENDBRANCH  18  19
ENDBRANCH   7  18
ENDBRANCH   4   7
ENDBRANCH   2   3
BRANCH   2  30
ATOM     30  N   UNL     1      58.356  21.210  51.964  1.00  0.00    -0.343 N 
ATOM     31  C   UNL     1      57.713  21.655  53.175  1.00  0.00     0.243 C 
ATOM     32  H   UNL     1      57.823  21.299  51.070  1.00  0.00     0.164 HD
ATOM     33  O   UNL     1      58.243  21.398  54.294  1.00  0.00    -0.273 OA
BRANCH  31  34
ATOM     34  C   UNL     1      56.406  22.423  53.109  1.00  0.00     0.174 C 
ATOM     35  N   UNL     1      56.637  23.881  53.150  1.00  0.00    -0.329 N 
ATOM     36  C   UNL     1      55.420  22.009  54.226  1.00  0.00     0.035 C 
ATOM     37  C   UNL     1      57.032  24.482  54.429  1.00  0.00     0.120 C 
ATOM     38  C   UNL     1      55.775  22.622  55.593  1.00  0.00     0.004 C 
ATOM     39  C   UNL     1      55.988  24.139  55.497  1.00  0.00     0.022 C 
BRANCH  35  40
ATOM     40  C   UNL     1      55.977  24.705  52.165  1.00  0.00     0.246 CG0
ATOM     41  O   UNL     1      54.721  24.637  52.047  1.00  0.00    -0.272 OA
ATOM     42  G   UNL     1      56.746  25.615  51.224  1.00  0.00     0.000 G0
ENDBRANCH  35  40
ENDBRANCH  31  34
ENDBRANCH   2  30
ENDBRANCH   1   2
BRANCH   1  43
ATOM     43  C   UNL     1      60.323  18.479  51.470  1.00  0.00     0.003 C 
BRANCH  43  44
ATOM     44  C   UNL     1      59.827  17.380  50.515  1.00  0.00     0.001 C 
BRANCH  44  45
ATOM     45  C   UNL     1      58.831  17.906  49.471  1.00  0.00     0.008 C 
BRANCH  45  46
ATOM     46  C   UNL     1      57.494  17.147  49.554  1.00  0.00     0.075 C 
BRANCH  46  47
ATOM     47  C   UNL     1      56.450  17.933  50.307  1.00  0.00     0.132 C 
ATOM     48  O   UNL     1      55.516  18.443  49.706  1.00  0.00    -0.300 OA
BRANCH  47  49
ATOM     49  C   UNL     1      56.595  18.172  51.788  1.00  0.00     0.072 C 
ATOM     50  C   UNL     1      55.320  18.779  52.370  1.00  0.00     0.012 C 
ENDBRANCH  47  49
ENDBRANCH  46  47
ENDBRANCH  45  46
ENDBRANCH  44  45
ENDBRANCH  43  44
ENDBRANCH   1  43
TORSDOF 12
ENDMDL
MODEL 3
REMARK VINA RESULT:    -3.732     10.306     13.477
REMARK INTER + INTRA:         -11.454
REMARK INTER:                  -9.241
REMARK INTRA:                  -2.213
REMARK UNBOUND:                -3.578
REMARK SMILES CCC(=O)CCCCC[C@@H]1NC(=O)[C@H]2CCCCN2C(=O)[C@@H]([C@@H](C)CC)NC(=O)[C@H](Cc2cn(OC)c3ccccc23)NC1=O
REMARK SMILES IDX 9 1 10 2 44 3 43 4 45 6 30 7 28 8 27 9 29 11 22 12 23 14
REMARK SMILES IDX 24 15 25 16 26 17 31 18 32 19 33 20 42 21 34 22 37 23 41 24
REMARK SMILES IDX 38 25 40 26 39 27 35 28 36 29 11 30 12 31 13 33 14 34 19 35
REMARK SMILES IDX 15 36 18 37 16 38 17 39 20 40 21 41 8 43 7 44 6 45 5 46 3 47
REMARK SMILES IDX 4 48 2 49 1 50
REMARK H PARENT 43 5 27 10 11 32
REMARK Flexibility Score: 80.00
ROOT
ATOM      1  C   UNL     1      58.076  25.694  49.223  1.00  0.00     0.035 C 
ENDROOT
BRANCH   1   2
ATOM      2  C   UNL     1      59.486  25.456  49.811  1.00  0.00     0.171 C 
BRANCH   2   3
ATOM      3  C   UNL     1      59.780  23.999  50.066  1.00  0.00     0.243 C 
ATOM      4  N   UNL     1      60.649  23.276  49.186  1.00  0.00    -0.342 N 
ATOM      5  H   UNL     1      60.829  23.656  48.231  1.00  0.00     0.164 HD
ATOM      6  O   UNL     1      59.250  23.417  51.049  1.00  0.00    -0.273 OA
BRANCH   4   7
ATOM      7  C   UNL     1      61.382  22.080  49.596  1.00  0.00     0.175 C 
BRANCH   7   8
ATOM      8  C   UNL     1      62.805  22.225  49.121  1.00  0.00     0.243 C 
ATOM      9  N   UNL     1      63.636  23.254  49.667  1.00  0.00    -0.342 N 
ATOM     10  H   UNL     1      63.286  23.802  50.485  1.00  0.00     0.164 HD
ATOM     11  O   UNL     1      63.225  21.508  48.173  1.00  0.00    -0.273 OA
BRANCH   9  12
ATOM     12  C   UNL     1      64.862  23.710  49.009  1.00  0.00     0.174 CG0
ATOM     13  G   UNL     1      64.782  25.208  48.770  1.00  0.00     0.000 G0
BRANCH  12  14
ATOM     14  C   UNL     1      66.110  23.243  49.816  1.00  0.00     0.018 C 
ATOM     15  C   UNL     1      65.662  22.371  51.009  1.00  0.00     0.010 C 
BRANCH  14  16
ATOM     16  C   UNL     1      67.120  22.476  48.920  1.00  0.00     0.002 C 
ATOM     17  C   UNL     1      68.384  23.276  48.604  1.00  0.00     0.004 C 
ENDBRANCH  14  16
ENDBRANCH  12  14
ENDBRANCH   9  12
ENDBRANCH   7   8
BRANCH   7  18
ATOM     18  C   UNL     1      60.689  20.830  49.026  1.00  0.00     0.073 C 
BRANCH  18  19
ATOM     19  C   UNL     1      60.448  19.795  50.087  1.00  0.00    -0.016 A 
ATOM     20  C   UNL     1      60.964  19.802  51.383  1.00  0.00     0.134 A 
ATOM     21  C   UNL     1      59.603  18.698  50.020  1.00  0.00     0.006 A 
ATOM     22  N   UNL     1      60.479  18.743  52.075  1.00  0.00    -0.191 N 
ATOM     23  C   UNL     1      59.649  18.083  51.248  1.00  0.00     0.087 A 
ATOM     24  C   UNL     1      58.800  18.212  48.987  1.00  0.00     0.011 A 
ATOM     25  C   UNL     1      58.903  16.936  51.525  1.00  0.00     0.030 A 
ATOM     26  C   UNL     1      58.031  17.059  49.239  1.00  0.00     0.001 A 
ATOM     27  C   UNL     1      58.085  16.423  50.502  1.00  0.00     0.002 A 
BRANCH  22  28
ATOM     28  O   UNL     1      60.749  18.396  53.390  1.00  0.00    -0.417 OA
ATOM     29  C   UNL     1      61.958  17.744  53.770  1.00  0.00     0.313 C 
ENDBRANCH  22  28
ENDBRANCH  18  19
ENDBRANCH   7  18
ENDBRANCH   4   7
ENDBRANCH   2   3
BRANCH   2  30
ATOM     30  N   UNL     1      60.539  26.037  48.967  1.00  0.00    -0.343 N 
ATOM     31  C   UNL     1      61.606  26.826  49.531  1.00  0.00     0.243 C 
ATOM     32  H   UNL     1      60.670  25.665  48.000  1.00  0.00     0.164 HD
ATOM     33  O   UNL     1      61.416  27.445  50.617  1.00  0.00    -0.273 OA
BRANCH  31  34
ATOM     34  C   UNL     1      62.946  26.917  48.826  1.00  0.00     0.174 C 
ATOM     35  N   UNL     1      63.978  26.126  49.529  1.00  0.00    -0.329 N 
ATOM     36  C   UNL     1      63.423  28.377  48.650  1.00  0.00     0.035 C 
ATOM     37  C   UNL     1      64.505  26.649  50.795  1.00  0.00     0.120 C 
ATOM     38  C   UNL     1      64.001  28.977  49.944  1.00  0.00     0.004 C 
ATOM     39  C   UNL     1      65.060  28.060  50.572  1.00  0.00     0.022 C 
BRANCH  35  40
ATOM     40  C   UNL     1      64.794  25.224  48.751  1.00  0.00     0.246 CG0
ATOM     41  O   UNL     1      65.450  25.677  47.772  1.00  0.00    -0.272 OA
ATOM     42  G   UNL     1      64.849  23.734  49.035  1.00  0.00     0.000 G0
ENDBRANCH  35  40
ENDBRANCH  31  34
ENDBRANCH   2  30
ENDBRANCH   1   2
BRANCH   1  43
ATOM     43  C   UNL     1      57.019  26.170  50.239  1.00  0.00     0.003 C 
BRANCH  43  44
ATOM     44  C   UNL     1      56.620  27.643  50.047  1.00  0.00     0.001 C 
BRANCH  44  45
ATOM     45  C   UNL     1      57.496  28.606  50.864  1.00  0.00     0.008 C 
BRANCH  45  46
ATOM     46  C   UNL     1      57.296  28.384  52.374  1.00  0.00     0.075 C 
BRANCH  46  47
ATOM     47  C   UNL     1      56.185  29.243  52.924  1.00  0.00     0.132 C 
ATOM     48  O   UNL     1      56.229  30.458  52.794  1.00  0.00    -0.300 OA
BRANCH  47  49
ATOM     49  C   UNL     1      55.061  28.625  53.714  1.00  0.00     0.072 C 
ATOM     50  C   UNL     1      53.963  29.649  53.996  1.00  0.00     0.012 C 
ENDBRANCH  47  49
ENDBRANCH  46  47
ENDBRANCH  45  46
ENDBRANCH  44  45
ENDBRANCH  43  44
ENDBRANCH   1  43
TORSDOF 12
ENDMDL
MODEL 4
REMARK VINA RESULT:    -3.713     11.165     14.771
REMARK INTER + INTRA:         -11.414
REMARK INTER:                  -8.473
REMARK INTRA:                  -2.941
REMARK UNBOUND:                -3.578
REMARK SMILES CCC(=O)CCCCC[C@@H]1NC(=O)[C@H]2CCCCN2C(=O)[C@@H]([C@@H](C)CC)NC(=O)[C@H](Cc2cn(OC)c3ccccc23)NC1=O
REMARK SMILES IDX 9 1 10 2 44 3 43 4 45 6 30 7 28 8 27 9 29 11 22 12 23 14
REMARK SMILES IDX 24 15 25 16 26 17 31 18 32 19 33 20 42 21 34 22 37 23 41 24
REMARK SMILES IDX 38 25 40 26 39 27 35 28 36 29 11 30 12 31 13 33 14 34 19 35
REMARK SMILES IDX 15 36 18 37 16 38 17 39 20 40 21 41 8 43 7 44 6 45 5 46 3 47
REMARK SMILES IDX 4 48 2 49 1 50
REMARK H PARENT 43 5 27 10 11 32
REMARK Flexibility Score: 80.00
ROOT
ATOM      1  C   UNL     1      63.500  23.146  50.304  1.00  0.00     0.035 C 
ENDROOT
BRANCH   1   2
ATOM      2  C   UNL     1      62.118  23.590  49.771  1.00  0.00     0.171 C 
BRANCH   2   3
ATOM      3  C   UNL     1      60.994  22.702  50.240  1.00  0.00     0.243 C 
ATOM      4  N   UNL     1      60.579  22.729  51.612  1.00  0.00    -0.342 N 
ATOM      5  H   UNL     1      61.231  23.119  52.327  1.00  0.00     0.164 HD
ATOM      6  O   UNL     1      60.426  21.928  49.425  1.00  0.00    -0.273 OA
BRANCH   4   7
ATOM      7  C   UNL     1      59.244  22.330  52.049  1.00  0.00     0.175 C 
BRANCH   7   8
ATOM      8  C   UNL     1      58.702  23.421  52.936  1.00  0.00     0.243 C 
ATOM      9  N   UNL     1      57.763  24.365  52.411  1.00  0.00    -0.342 N 
ATOM     10  H   UNL     1      57.363  24.200  51.459  1.00  0.00     0.164 HD
ATOM     11  O   UNL     1      59.156  23.562  54.104  1.00  0.00    -0.273 OA
BRANCH   9  12
ATOM     12  C   UNL     1      57.492  25.651  53.056  1.00  0.00     0.174 CG0
ATOM     13  G   UNL     1      58.083  26.772  52.219  1.00  0.00     0.000 G0
BRANCH  12  14
ATOM     14  C   UNL     1      55.970  25.791  53.355  1.00  0.00     0.018 C 
ATOM     15  C   UNL     1      55.177  24.771  52.509  1.00  0.00     0.010 C 
BRANCH  14  16
ATOM     16  C   UNL     1      55.662  25.614  54.866  1.00  0.00     0.002 C 
ATOM     17  C   UNL     1      56.883  25.816  55.765  1.00  0.00     0.004 C 
ENDBRANCH  14  16
ENDBRANCH  12  14
ENDBRANCH   9  12
ENDBRANCH   7   8
BRANCH   7  18
ATOM     18  C   UNL     1      59.319  20.968  52.761  1.00  0.00     0.073 C 
BRANCH  18  19
ATOM     19  C   UNL     1      58.232  20.039  52.302  1.00  0.00    -0.016 A 
ATOM     20  C   UNL     1      56.926  19.987  52.790  1.00  0.00     0.134 A 
ATOM     21  C   UNL     1      58.283  19.131  51.256  1.00  0.00     0.006 A 
ATOM     22  N   UNL     1      56.212  19.071  52.092  1.00  0.00    -0.191 N 
ATOM     23  C   UNL     1      57.036  18.561  51.159  1.00  0.00     0.087 A 
ATOM     24  C   UNL     1      59.318  18.780  50.387  1.00  0.00     0.011 A 
ATOM     25  C   UNL     1      56.740  17.597  50.195  1.00  0.00     0.030 A 
ATOM     26  C   UNL     1      59.047  17.813  49.399  1.00  0.00     0.001 A 
ATOM     27  C   UNL     1      57.765  17.223  49.306  1.00  0.00     0.002 A 
BRANCH  22  28
ATOM     28  O   UNL     1      54.882  18.722  52.268  1.00  0.00    -0.417 OA
ATOM     29  C   UNL     1      53.821  19.654  52.078  1.00  0.00     0.313 C 
ENDBRANCH  22  28
ENDBRANCH  18  19
ENDBRANCH   7  18
ENDBRANCH   4   7
ENDBRANCH   2   3
BRANCH   2  30
ATOM     30  N   UNL     1      61.822  24.989  50.109  1.00  0.00    -0.343 N 
ATOM     31  C   UNL     1      60.539  25.578  49.818  1.00  0.00     0.243 C 
ATOM     32  H   UNL     1      62.438  25.481  50.795  1.00  0.00     0.164 HD
ATOM     33  O   UNL     1      59.845  25.121  48.865  1.00  0.00    -0.273 OA
BRANCH  31  34
ATOM     34  C   UNL     1      60.026  26.742  50.645  1.00  0.00     0.174 C 
ATOM     35  N   UNL     1      58.571  26.635  50.877  1.00  0.00    -0.329 N 
ATOM     36  C   UNL     1      60.363  28.112  50.012  1.00  0.00     0.035 C 
ATOM     37  C   UNL     1      57.669  26.916  49.754  1.00  0.00     0.120 C 
ATOM     38  C   UNL     1      59.440  28.469  48.833  1.00  0.00     0.004 C 
ATOM     39  C   UNL     1      57.959  28.318  49.207  1.00  0.00     0.022 C 
BRANCH  35  40
ATOM     40  C   UNL     1      58.081  26.802  52.226  1.00  0.00     0.246 CG0
ATOM     41  O   UNL     1      58.168  27.935  52.776  1.00  0.00    -0.272 OA
ATOM     42  G   UNL     1      57.512  25.646  53.029  1.00  0.00     0.000 G0
ENDBRANCH  35  40
ENDBRANCH  31  34
ENDBRANCH   2  30
ENDBRANCH   1   2
BRANCH   1  43
ATOM     43  C   UNL     1      64.667  23.324  49.312  1.00  0.00     0.003 C 
BRANCH  43  44
ATOM     44  C   UNL     1      65.493  22.042  49.116  1.00  0.00     0.001 C 
BRANCH  44  45
ATOM     45  C   UNL     1      66.069  21.500  50.433  1.00  0.00     0.008 C 
BRANCH  45  46
ATOM     46  C   UNL     1      66.157  19.964  50.404  1.00  0.00     0.075 C 
BRANCH  46  47
ATOM     47  C   UNL     1      65.022  19.323  51.163  1.00  0.00     0.132 C 
ATOM     48  O   UNL     1      65.258  18.556  52.085  1.00  0.00    -0.300 OA
BRANCH  47  49
ATOM     49  C   UNL     1      63.594  19.549  50.737  1.00  0.00     0.072 C 
ATOM     50  C   UNL     1      62.703  19.835  51.944  1.00  0.00     0.012 C 
ENDBRANCH  47  49
ENDBRANCH  46  47
ENDBRANCH  45  46
ENDBRANCH  44  45
ENDBRANCH  43  44
ENDBRANCH   1  43
TORSDOF 12
ENDMDL
MODEL 5
REMARK VINA RESULT:    -3.600     10.518     13.819
REMARK INTER + INTRA:         -11.175
REMARK INTER:                  -8.900
REMARK INTRA:                  -2.275
REMARK UNBOUND:                -3.578
REMARK SMILES CCC(=O)CCCCC[C@@H]1NC(=O)[C@H]2CCCCN2C(=O)[C@@H]([C@@H](C)CC)NC(=O)[C@H](Cc2cn(OC)c3ccccc23)NC1=O
REMARK SMILES IDX 9 1 10 2 44 3 43 4 45 6 30 7 28 8 27 9 29 11 22 12 23 14
REMARK SMILES IDX 24 15 25 16 26 17 31 18 32 19 33 20 42 21 34 22 37 23 41 24
REMARK SMILES IDX 38 25 40 26 39 27 35 28 36 29 11 30 12 31 13 33 14 34 19 35
REMARK SMILES IDX 15 36 18 37 16 38 17 39 20 40 21 41 8 43 7 44 6 45 5 46 3 47
REMARK SMILES IDX 4 48 2 49 1 50
REMARK H PARENT 43 5 27 10 11 32
REMARK Flexibility Score: 80.00
ROOT
ATOM      1  C   UNL     1      60.683  20.601  49.857  1.00  0.00     0.035 C 
ENDROOT
BRANCH   1   2
ATOM      2  C   UNL     1      60.892  22.060  50.327  1.00  0.00     0.171 C 
BRANCH   2   3
ATOM      3  C   UNL     1      62.340  22.480  50.318  1.00  0.00     0.243 C 
ATOM      4  N   UNL     1      62.816  23.401  49.329  1.00  0.00    -0.342 N 
ATOM      5  H   UNL     1      62.257  23.539  48.459  1.00  0.00     0.164 HD
ATOM      6  O   UNL     1      63.133  22.011  51.176  1.00  0.00    -0.273 OA
BRANCH   4   7
ATOM      7  C   UNL     1      63.998  24.237  49.522  1.00  0.00     0.175 C 
BRANCH   7   8
ATOM      8  C   UNL     1      63.638  25.646  49.126  1.00  0.00     0.243 C 
ATOM      9  N   UNL     1      62.512  26.290  49.734  1.00  0.00    -0.342 N 
ATOM     10  H   UNL     1      62.041  25.822  50.541  1.00  0.00     0.164 HD
ATOM     11  O   UNL     1      64.263  26.213  48.190  1.00  0.00    -0.273 OA
BRANCH   9  12
ATOM     12  C   UNL     1      61.867  27.467  49.150  1.00  0.00     0.174 CG0
ATOM     13  G   UNL     1      60.364  27.258  49.119  1.00  0.00     0.000 G0
BRANCH  12  14
ATOM     14  C   UNL     1      62.334  28.756  49.891  1.00  0.00     0.018 C 
ATOM     15  C   UNL     1      63.056  28.372  51.200  1.00  0.00     0.010 C 
BRANCH  14  16
ATOM     16  C   UNL     1      63.246  29.636  48.994  1.00  0.00     0.002 C 
ATOM     17  C   UNL     1      64.463  30.200  49.729  1.00  0.00     0.004 C 
ENDBRANCH  14  16
ENDBRANCH  12  14
ENDBRANCH   9  12
ENDBRANCH   7   8
BRANCH   7  18
ATOM     18  C   UNL     1      65.171  23.671  48.702  1.00  0.00     0.073 C 
BRANCH  18  19
ATOM     19  C   UNL     1      65.739  22.430  49.326  1.00  0.00    -0.016 A 
ATOM     20  C   UNL     1      65.652  21.133  48.821  1.00  0.00     0.134 A 
ATOM     21  C   UNL     1      66.531  22.342  50.461  1.00  0.00     0.006 A 
ATOM     22  N   UNL     1      66.338  20.281  49.620  1.00  0.00    -0.191 N 
ATOM     23  C   UNL     1      66.875  21.020  50.607  1.00  0.00     0.087 A 
ATOM     24  C   UNL     1      66.978  23.318  51.354  1.00  0.00     0.011 A 
ATOM     25  C   UNL     1      67.680  20.580  51.659  1.00  0.00     0.030 A 
ATOM     26  C   UNL     1      67.797  22.906  52.422  1.00  0.00     0.001 A 
ATOM     27  C   UNL     1      68.145  21.542  52.575  1.00  0.00     0.002 A 
BRANCH  22  28
ATOM     28  O   UNL     1      66.493  18.912  49.464  1.00  0.00    -0.417 OA
ATOM     29  C   UNL     1      66.804  18.323  48.204  1.00  0.00     0.313 C 
ENDBRANCH  22  28
ENDBRANCH  18  19
ENDBRANCH   7  18
ENDBRANCH   4   7
ENDBRANCH   2   3
BRANCH   2  30
ATOM     30  N   UNL     1      60.092  23.009  49.541  1.00  0.00    -0.343 N 
ATOM     31  C   UNL     1      59.230  23.974  50.177  1.00  0.00     0.243 C 
ATOM     32  H   UNL     1      60.342  23.168  48.539  1.00  0.00     0.164 HD
ATOM     33  O   UNL     1      58.757  23.726  51.323  1.00  0.00    -0.273 OA
BRANCH  31  34
ATOM     34  C   UNL     1      58.890  25.276  49.476  1.00  0.00     0.174 C 
ATOM     35  N   UNL     1      59.657  26.406  50.039  1.00  0.00    -0.329 N 
ATOM     36  C   UNL     1      57.376  25.589  49.515  1.00  0.00     0.035 C 
ATOM     37  C   UNL     1      59.273  26.911  51.362  1.00  0.00     0.120 C 
ATOM     38  C   UNL     1      56.914  26.138  50.877  1.00  0.00     0.004 C 
ATOM     39  C   UNL     1      57.792  27.306  51.346  1.00  0.00     0.022 C 
BRANCH  35  40
ATOM     40  C   UNL     1      60.339  27.290  49.124  1.00  0.00     0.246 CG0
ATOM     41  O   UNL     1      59.668  27.913  48.254  1.00  0.00    -0.272 OA
ATOM     42  G   UNL     1      61.848  27.458  49.135  1.00  0.00     0.000 G0
ENDBRANCH  35  40
ENDBRANCH  31  34
ENDBRANCH   2  30
ENDBRANCH   1   2
BRANCH   1  43
ATOM     43  C   UNL     1      60.424  19.585  50.988  1.00  0.00     0.003 C 
BRANCH  43  44
ATOM     44  C   UNL     1      59.972  18.209  50.469  1.00  0.00     0.001 C 
BRANCH  44  45
ATOM     45  C   UNL     1      58.836  18.307  49.440  1.00  0.00     0.008 C 
BRANCH  45  46
ATOM     46  C   UNL     1      57.686  17.348  49.797  1.00  0.00     0.075 C 
BRANCH  46  47
ATOM     47  C   UNL     1      56.531  18.074  50.440  1.00  0.00     0.132 C 
ATOM     48  O   UNL     1      55.616  18.500  49.750  1.00  0.00    -0.300 OA
BRANCH  47  49
ATOM     49  C   UNL     1      56.536  18.360  51.919  1.00  0.00     0.072 C 
ATOM     50  C   UNL     1      55.126  18.660  52.423  1.00  0.00     0.012 C 
ENDBRANCH  47  49
ENDBRANCH  46  47
ENDBRANCH  45  46
ENDBRANCH  44  45
ENDBRANCH  43  44
ENDBRANCH   1  43
TORSDOF 12
ENDMDL
MODEL 6
REMARK VINA RESULT:    -3.596     10.378     15.000
REMARK INTER + INTRA:         -11.168
REMARK INTER:                  -8.635
REMARK INTRA:                  -2.532
REMARK UNBOUND:                -3.578
REMARK SMILES CCC(=O)CCCCC[C@@H]1NC(=O)[C@H]2CCCCN2C(=O)[C@@H]([C@@H](C)CC)NC(=O)[C@H](Cc2cn(OC)c3ccccc23)NC1=O
REMARK SMILES IDX 9 1 10 2 44 3 43 4 45 6 30 7 28 8 27 9 29 11 22 12 23 14
REMARK SMILES IDX 24 15 25 16 26 17 31 18 32 19 33 20 42 21 34 22 37 23 41 24
REMARK SMILES IDX 38 25 40 26 39 27 35 28 36 29 11 30 12 31 13 33 14 34 19 35
REMARK SMILES IDX 15 36 18 37 16 38 17 39 20 40 21 41 8 43 7 44 6 45 5 46 3 47
REMARK SMILES IDX 4 48 2 49 1 50
REMARK H PARENT 43 5 27 10 11 32
REMARK Flexibility Score: 80.00
ROOT
ATOM      1  C   UNL     1      63.210  24.065  50.335  1.00  0.00     0.035 C 
ENDROOT
BRANCH   1   2
ATOM      2  C   UNL     1      61.749  24.359  49.921  1.00  0.00     0.171 C 
BRANCH   2   3
ATOM      3  C   UNL     1      60.819  23.203  50.186  1.00  0.00     0.243 C 
ATOM      4  N   UNL     1      60.339  22.954  51.513  1.00  0.00    -0.342 N 
ATOM      5  H   UNL     1      60.855  23.367  52.320  1.00  0.00     0.164 HD
ATOM      6  O   UNL     1      60.472  22.449  49.238  1.00  0.00    -0.273 OA
BRANCH   4   7
ATOM      7  C   UNL     1      59.099  22.233  51.790  1.00  0.00     0.175 C 
BRANCH   7   8
ATOM      8  C   UNL     1      58.235  23.114  52.655  1.00  0.00     0.243 C 
ATOM      9  N   UNL     1      57.283  23.993  52.048  1.00  0.00    -0.342 N 
ATOM     10  H   UNL     1      57.105  23.910  51.021  1.00  0.00     0.164 HD
ATOM     11  O   UNL     1      58.426  23.150  53.901  1.00  0.00    -0.273 OA
BRANCH   9  12
ATOM     12  C   UNL     1      56.698  25.133  52.757  1.00  0.00     0.174 CG0
ATOM     13  G   UNL     1      57.320  26.421  52.245  1.00  0.00     0.000 G0
BRANCH  12  14
ATOM     14  C   UNL     1      55.143  25.078  52.670  1.00  0.00     0.018 C 
ATOM     15  C   UNL     1      54.688  23.630  52.389  1.00  0.00     0.010 C 
BRANCH  14  16
ATOM     16  C   UNL     1      54.476  25.628  53.959  1.00  0.00     0.002 C 
ATOM     17  C   UNL     1      54.762  24.783  55.202  1.00  0.00     0.004 C 
ENDBRANCH  14  16
ENDBRANCH  12  14
ENDBRANCH   9  12
ENDBRANCH   7   8
BRANCH   7  18
ATOM     18  C   UNL     1      59.424  20.883  52.454  1.00  0.00     0.073 C 
BRANCH  18  19
ATOM     19  C   UNL     1      58.384  19.846  52.145  1.00  0.00    -0.016 A 
ATOM     20  C   UNL     1      57.214  19.605  52.865  1.00  0.00     0.134 A 
ATOM     21  C   UNL     1      58.334  19.000  51.047  1.00  0.00     0.006 A 
ATOM     22  N   UNL     1      56.488  18.639  52.253  1.00  0.00    -0.191 N 
ATOM     23  C   UNL     1      57.167  18.282  51.148  1.00  0.00     0.087 A 
ATOM     24  C   UNL     1      59.213  18.824  49.976  1.00  0.00     0.011 A 
ATOM     25  C   UNL     1      56.802  17.333  50.192  1.00  0.00     0.030 A 
ATOM     26  C   UNL     1      58.867  17.877  48.992  1.00  0.00     0.001 A 
ATOM     27  C   UNL     1      57.669  17.134  49.102  1.00  0.00     0.002 A 
BRANCH  22  28
ATOM     28  O   UNL     1      55.268  18.116  52.651  1.00  0.00    -0.417 OA
ATOM     29  C   UNL     1      54.620  18.529  53.852  1.00  0.00     0.313 C 
ENDBRANCH  22  28
ENDBRANCH  18  19
ENDBRANCH   7  18
ENDBRANCH   4   7
ENDBRANCH   2   3
BRANCH   2  30
ATOM     30  N   UNL     1      61.230  25.574  50.564  1.00  0.00    -0.343 N 
ATOM     31  C   UNL     1      60.157  26.337  49.974  1.00  0.00     0.243 C 
ATOM     32  H   UNL     1      61.449  25.743  51.571  1.00  0.00     0.164 HD
ATOM     33  O   UNL     1      59.981  26.300  48.723  1.00  0.00    -0.273 OA
BRANCH  31  34
ATOM     34  C   UNL     1      59.249  27.181  50.848  1.00  0.00     0.174 C 
ATOM     35  N   UNL     1      57.899  26.590  50.950  1.00  0.00    -0.329 N 
ATOM     36  C   UNL     1      59.152  28.645  50.359  1.00  0.00     0.035 C 
ATOM     37  C   UNL     1      57.015  26.681  49.783  1.00  0.00     0.120 C 
ATOM     38  C   UNL     1      58.225  28.808  49.142  1.00  0.00     0.004 C 
ATOM     39  C   UNL     1      56.858  28.151  49.377  1.00  0.00     0.022 C 
BRANCH  35  40
ATOM     40  C   UNL     1      57.313  26.449  52.262  1.00  0.00     0.246 CG0
ATOM     41  O   UNL     1      57.335  27.432  53.055  1.00  0.00    -0.272 OA
ATOM     42  G   UNL     1      56.716  25.139  52.745  1.00  0.00     0.000 G0
ENDBRANCH  35  40
ENDBRANCH  31  34
ENDBRANCH   2  30
ENDBRANCH   1   2
BRANCH   1  43
ATOM     43  C   UNL     1      63.840  25.107  51.281  1.00  0.00     0.003 C 
BRANCH  43  44
ATOM     44  C   UNL     1      65.079  25.794  50.683  1.00  0.00     0.001 C 
BRANCH  44  45
ATOM     45  C   UNL     1      64.849  27.285  50.394  1.00  0.00     0.008 C 
BRANCH  45  46
ATOM     46  C   UNL     1      63.545  27.777  51.047  1.00  0.00     0.075 C 
BRANCH  46  47
ATOM     47  C   UNL     1      62.823  28.773  50.175  1.00  0.00     0.132 C 
ATOM     48  O   UNL     1      62.591  28.506  49.004  1.00  0.00    -0.300 OA
BRANCH  47  49
ATOM     49  C   UNL     1      62.463  30.136  50.706  1.00  0.00     0.072 C 
ATOM     50  C   UNL     1      62.981  31.237  49.784  1.00  0.00     0.012 C 
ENDBRANCH  47  49
ENDBRANCH  46  47
ENDBRANCH  45  46
ENDBRANCH  44  45
ENDBRANCH  43  44
ENDBRANCH   1  43
TORSDOF 12
ENDMDL
MODEL 7
REMARK VINA RESULT:    -3.516      6.032     12.289
REMARK INTER + INTRA:         -10.999
REMARK INTER:                  -8.054
REMARK INTRA:                  -2.944
REMARK UNBOUND:                -3.578
REMARK SMILES CCC(=O)CCCCC[C@@H]1NC(=O)[C@H]2CCCCN2C(=O)[C@@H]([C@@H](C)CC)NC(=O)[C@H](Cc2cn(OC)c3ccccc23)NC1=O
REMARK SMILES IDX 9 1 10 2 44 3 43 4 45 6 30 7 28 8 27 9 29 11 22 12 23 14
REMARK SMILES IDX 24 15 25 16 26 17 31 18 32 19 33 20 42 21 34 22 37 23 41 24
REMARK SMILES IDX 38 25 40 26 39 27 35 28 36 29 11 30 12 31 13 33 14 34 19 35
REMARK SMILES IDX 15 36 18 37 16 38 17 39 20 40 21 41 8 43 7 44 6 45 5 46 3 47
REMARK SMILES IDX 4 48 2 49 1 50
REMARK H PARENT 43 5 27 10 11 32
REMARK Flexibility Score: 80.00
ROOT
ATOM      1  C   UNL     1      59.727  30.894  57.185  1.00  0.00     0.035 C 
ENDROOT
BRANCH   1   2
ATOM      2  C   UNL     1      59.049  29.504  57.171  1.00  0.00     0.171 C 
BRANCH   2   3
ATOM      3  C   UNL     1      59.796  28.476  57.983  1.00  0.00     0.243 C 
ATOM      4  N   UNL     1      59.352  28.139  59.303  1.00  0.00    -0.342 N 
ATOM      5  H   UNL     1      58.720  28.800  59.805  1.00  0.00     0.164 HD
ATOM      6  O   UNL     1      60.818  27.921  57.501  1.00  0.00    -0.273 OA
BRANCH   4   7
ATOM      7  C   UNL     1      59.657  26.863  59.945  1.00  0.00     0.175 C 
BRANCH   7   8
ATOM      8  C   UNL     1      58.365  26.284  60.461  1.00  0.00     0.243 C 
ATOM      9  N   UNL     1      57.300  25.995  59.548  1.00  0.00    -0.342 N 
ATOM     10  H   UNL     1      57.486  26.063  58.522  1.00  0.00     0.164 HD
ATOM     11  O   UNL     1      58.188  26.154  61.702  1.00  0.00    -0.273 OA
BRANCH   9  12
ATOM     12  C   UNL     1      55.915  25.810  59.985  1.00  0.00     0.174 CG0
ATOM     13  G   UNL     1      54.994  26.651  59.119  1.00  0.00     0.000 G0
BRANCH  12  14
ATOM     14  C   UNL     1      55.567  24.292  60.029  1.00  0.00     0.018 C 
ATOM     15  C   UNL     1      56.646  23.487  59.275  1.00  0.00     0.010 C 
BRANCH  14  16
ATOM     16  C   UNL     1      55.413  23.780  61.487  1.00  0.00     0.002 C 
ATOM     17  C   UNL     1      54.786  24.807  62.431  1.00  0.00     0.004 C 
ENDBRANCH  14  16
ENDBRANCH  12  14
ENDBRANCH   9  12
ENDBRANCH   7   8
BRANCH   7  18
ATOM     18  C   UNL     1      60.696  27.082  61.059  1.00  0.00     0.073 C 
BRANCH  18  19
ATOM     19  C   UNL     1      62.100  26.960  60.542  1.00  0.00    -0.016 A 
ATOM     20  C   UNL     1      62.687  25.816  59.999  1.00  0.00     0.134 A 
ATOM     21  C   UNL     1      63.045  27.966  60.417  1.00  0.00     0.006 A 
ATOM     22  N   UNL     1      63.943  26.099  59.580  1.00  0.00    -0.191 N 
ATOM     23  C   UNL     1      64.153  27.404  59.828  1.00  0.00     0.087 A 
ATOM     24  C   UNL     1      63.006  29.319  60.761  1.00  0.00     0.011 A 
ATOM     25  C   UNL     1      65.298  28.152  59.551  1.00  0.00     0.030 A 
ATOM     26  C   UNL     1      64.145  30.100  60.488  1.00  0.00     0.001 A 
ATOM     27  C   UNL     1      65.287  29.518  59.888  1.00  0.00     0.002 A 
BRANCH  22  28
ATOM     28  O   UNL     1      64.853  25.237  58.987  1.00  0.00    -0.417 OA
ATOM     29  C   UNL     1      64.866  24.997  57.582  1.00  0.00     0.313 C 
ENDBRANCH  22  28
ENDBRANCH  18  19
ENDBRANCH   7  18
ENDBRANCH   4   7
ENDBRANCH   2   3
BRANCH   2  30
ATOM     30  N   UNL     1      57.650  29.570  57.616  1.00  0.00    -0.343 N 
ATOM     31  C   UNL     1      56.582  29.010  56.826  1.00  0.00     0.243 C 
ATOM     32  H   UNL     1      57.452  29.784  58.620  1.00  0.00     0.164 HD
ATOM     33  O   UNL     1      56.720  28.909  55.574  1.00  0.00    -0.273 OA
BRANCH  31  34
ATOM     34  C   UNL     1      55.300  28.548  57.492  1.00  0.00     0.174 C 
ATOM     35  N   UNL     1      55.340  27.101  57.789  1.00  0.00    -0.329 N 
ATOM     36  C   UNL     1      54.044  28.883  56.654  1.00  0.00     0.035 C 
ATOM     37  C   UNL     1      55.206  26.162  56.670  1.00  0.00     0.120 C 
ATOM     38  C   UNL     1      53.842  27.921  55.470  1.00  0.00     0.004 C 
ATOM     39  C   UNL     1      53.905  26.453  55.914  1.00  0.00     0.022 C 
BRANCH  35  40
ATOM     40  C   UNL     1      54.969  26.666  59.115  1.00  0.00     0.246 CG0
ATOM     41  O   UNL     1      53.865  27.042  59.600  1.00  0.00    -0.272 OA
ATOM     42  G   UNL     1      55.886  25.813  59.974  1.00  0.00     0.000 G0
ENDBRANCH  35  40
ENDBRANCH  31  34
ENDBRANCH   2  30
ENDBRANCH   1   2
BRANCH   1  43
ATOM     43  C   UNL     1      60.828  31.069  58.250  1.00  0.00     0.003 C 
BRANCH  43  44
ATOM     44  C   UNL     1      61.231  32.538  58.465  1.00  0.00     0.001 C 
BRANCH  44  45
ATOM     45  C   UNL     1      62.753  32.733  58.526  1.00  0.00     0.008 C 
BRANCH  45  46
ATOM     46  C   UNL     1      63.119  34.227  58.476  1.00  0.00     0.075 C 
BRANCH  46  47
ATOM     47  C   UNL     1      64.361  34.526  59.278  1.00  0.00     0.132 C 
ATOM     48  O   UNL     1      65.324  35.053  58.740  1.00  0.00    -0.300 OA
BRANCH  47  49
ATOM     49  C   UNL     1      64.463  34.098  60.719  1.00  0.00     0.072 C 
ATOM     50  C   UNL     1      64.132  35.256  61.657  1.00  0.00     0.012 C 
ENDBRANCH  47  49
ENDBRANCH  46  47
ENDBRANCH  45  46
ENDBRANCH  44  45
ENDBRANCH  43  44
ENDBRANCH   1  43
TORSDOF 12
ENDMDL
MODEL 8
REMARK VINA RESULT:    -3.516     10.181     13.383
REMARK INTER + INTRA:         -10.998
REMARK INTER:                  -9.264
REMARK INTRA:                  -1.734
REMARK UNBOUND:                -3.578
REMARK SMILES CCC(=O)CCCCC[C@@H]1NC(=O)[C@H]2CCCCN2C(=O)[C@@H]([C@@H](C)CC)NC(=O)[C@H](Cc2cn(OC)c3ccccc23)NC1=O
REMARK SMILES IDX 9 1 10 2 44 3 43 4 45 6 30 7 28 8 27 9 29 11 22 12 23 14
REMARK SMILES IDX 24 15 25 16 26 17 31 18 32 19 33 20 42 21 34 22 37 23 41 24
REMARK SMILES IDX 38 25 40 26 39 27 35 28 36 29 11 30 12 31 13 33 14 34 19 35
REMARK SMILES IDX 15 36 18 37 16 38 17 39 20 40 21 41 8 43 7 44 6 45 5 46 3 47
REMARK SMILES IDX 4 48 2 49 1 50
REMARK H PARENT 43 5 27 10 11 32
REMARK Flexibility Score: 80.00
ROOT
ATOM      1  C   UNL     1      60.738  20.729  49.834  1.00  0.00     0.035 C 
ENDROOT
BRANCH   1   2
ATOM      2  C   UNL     1      60.903  22.186  50.327  1.00  0.00     0.171 C 
BRANCH   2   3
ATOM      3  C   UNL     1      62.334  22.660  50.295  1.00  0.00     0.243 C 
ATOM      4  N   UNL     1      62.756  23.609  49.307  1.00  0.00    -0.342 N 
ATOM      5  H   UNL     1      62.175  23.736  48.450  1.00  0.00     0.164 HD
ATOM      6  O   UNL     1      63.160  22.212  51.133  1.00  0.00    -0.273 OA
BRANCH   4   7
ATOM      7  C   UNL     1      63.909  24.487  49.488  1.00  0.00     0.175 C 
BRANCH   7   8
ATOM      8  C   UNL     1      63.500  25.879  49.078  1.00  0.00     0.243 C 
ATOM      9  N   UNL     1      62.399  26.519  49.733  1.00  0.00    -0.342 N 
ATOM     10  H   UNL     1      61.985  26.065  50.578  1.00  0.00     0.164 HD
ATOM     11  O   UNL     1      64.059  26.431  48.092  1.00  0.00    -0.273 OA
BRANCH   9  12
ATOM     12  C   UNL     1      61.700  27.669  49.158  1.00  0.00     0.174 CG0
ATOM     13  G   UNL     1      60.203  27.417  49.186  1.00  0.00     0.000 G0
BRANCH  12  14
ATOM     14  C   UNL     1      62.155  28.981  49.863  1.00  0.00     0.018 C 
ATOM     15  C   UNL     1      62.871  28.639  51.188  1.00  0.00     0.010 C 
BRANCH  14  16
ATOM     16  C   UNL     1      63.069  29.839  48.947  1.00  0.00     0.002 C 
ATOM     17  C   UNL     1      64.286  30.419  49.670  1.00  0.00     0.004 C 
ENDBRANCH  14  16
ENDBRANCH  12  14
ENDBRANCH   9  12
ENDBRANCH   7   8
BRANCH   7  18
ATOM     18  C   UNL     1      65.098  23.952  48.670  1.00  0.00     0.073 C 
BRANCH  18  19
ATOM     19  C   UNL     1      66.302  24.840  48.793  1.00  0.00    -0.016 A 
ATOM     20  C   UNL     1      66.962  25.183  49.974  1.00  0.00     0.134 A 
ATOM     21  C   UNL     1      67.041  25.409  47.768  1.00  0.00     0.006 A 
ATOM     22  N   UNL     1      68.043  25.947  49.691  1.00  0.00    -0.191 N 
ATOM     23  C   UNL     1      68.092  26.075  48.353  1.00  0.00     0.087 A 
ATOM     24  C   UNL     1      66.875  25.378  46.382  1.00  0.00     0.011 A 
ATOM     25  C   UNL     1      69.042  26.761  47.596  1.00  0.00     0.030 A 
ATOM     26  C   UNL     1      67.822  26.057  45.591  1.00  0.00     0.001 A 
ATOM     27  C   UNL     1      68.899  26.748  46.196  1.00  0.00     0.002 A 
BRANCH  22  28
ATOM     28  O   UNL     1      68.955  26.489  50.584  1.00  0.00    -0.417 OA
ATOM     29  C   UNL     1      68.727  26.495  51.991  1.00  0.00     0.313 C 
ENDBRANCH  22  28
ENDBRANCH  18  19
ENDBRANCH   7  18
ENDBRANCH   4   7
ENDBRANCH   2   3
BRANCH   2  30
ATOM     30  N   UNL     1      60.051  23.119  49.576  1.00  0.00    -0.343 N 
ATOM     31  C   UNL     1      59.192  24.060  50.250  1.00  0.00     0.243 C 
ATOM     32  H   UNL     1      60.259  23.288  48.566  1.00  0.00     0.164 HD
ATOM     33  O   UNL     1      58.768  23.797  51.412  1.00  0.00    -0.273 OA
BRANCH  31  34
ATOM     34  C   UNL     1      58.793  25.356  49.569  1.00  0.00     0.174 C 
ATOM     35  N   UNL     1      59.550  26.503  50.112  1.00  0.00    -0.329 N 
ATOM     36  C   UNL     1      57.274  25.630  49.661  1.00  0.00     0.035 C 
ATOM     37  C   UNL     1      59.199  26.991  51.450  1.00  0.00     0.120 C 
ATOM     38  C   UNL     1      56.846  26.159  51.042  1.00  0.00     0.004 C 
ATOM     39  C   UNL     1      57.709  27.347  51.488  1.00  0.00     0.022 C 
BRANCH  35  40
ATOM     40  C   UNL     1      60.177  27.410  49.179  1.00  0.00     0.246 CG0
ATOM     41  O   UNL     1      59.465  27.995  48.316  1.00  0.00    -0.272 OA
ATOM     42  G   UNL     1      61.677  27.645  49.163  1.00  0.00     0.000 G0
ENDBRANCH  35  40
ENDBRANCH  31  34
ENDBRANCH   2  30
ENDBRANCH   1   2
BRANCH   1  43
ATOM     43  C   UNL     1      60.530  19.685  50.949  1.00  0.00     0.003 C 
BRANCH  43  44
ATOM     44  C   UNL     1      60.152  18.295  50.410  1.00  0.00     0.001 C 
BRANCH  44  45
ATOM     45  C   UNL     1      59.004  18.346  49.391  1.00  0.00     0.008 C 
BRANCH  45  46
ATOM     46  C   UNL     1      57.874  17.378  49.786  1.00  0.00     0.075 C 
BRANCH  46  47
ATOM     47  C   UNL     1      56.712  18.103  50.419  1.00  0.00     0.132 C 
ATOM     48  O   UNL     1      55.751  18.431  49.738  1.00  0.00    -0.300 OA
BRANCH  47  49
ATOM     49  C   UNL     1      56.763  18.509  51.869  1.00  0.00     0.072 C 
ATOM     50  C   UNL     1      55.367  18.840  52.393  1.00  0.00     0.012 C 
ENDBRANCH  47  49
ENDBRANCH  46  47
ENDBRANCH  45  46
ENDBRANCH  44  45
ENDBRANCH  43  44
ENDBRANCH   1  43
TORSDOF 12
ENDMDL
MODEL 9
REMARK VINA RESULT:    -3.390     11.443     15.251
REMARK INTER + INTRA:         -10.733
REMARK INTER:                  -8.763
REMARK INTRA:                  -1.970
REMARK UNBOUND:                -3.578
REMARK SMILES CCC(=O)CCCCC[C@@H]1NC(=O)[C@H]2CCCCN2C(=O)[C@@H]([C@@H](C)CC)NC(=O)[C@H](Cc2cn(OC)c3ccccc23)NC1=O
REMARK SMILES IDX 9 1 10 2 44 3 43 4 45 6 30 7 28 8 27 9 29 11 22 12 23 14
REMARK SMILES IDX 24 15 25 16 26 17 31 18 32 19 33 20 42 21 34 22 37 23 41 24
REMARK SMILES IDX 38 25 40 26 39 27 35 28 36 29 11 30 12 31 13 33 14 34 19 35
REMARK SMILES IDX 15 36 18 37 16 38 17 39 20 40 21 41 8 43 7 44 6 45 5 46 3 47
REMARK SMILES IDX 4 48 2 49 1 50
REMARK H PARENT 43 5 27 10 11 32
REMARK Flexibility Score: 80.00
ROOT
ATOM      1  C   UNL     1      63.596  23.672  50.177  1.00  0.00     0.035 C 
ENDROOT
BRANCH   1   2
ATOM      2  C   UNL     1      62.166  23.965  49.665  1.00  0.00     0.171 C 
BRANCH   2   3
ATOM      3  C   UNL     1      61.153  22.954  50.139  1.00  0.00     0.243 C 
ATOM      4  N   UNL     1      60.655  23.008  51.481  1.00  0.00    -0.342 N 
ATOM      5  H   UNL     1      61.199  23.535  52.199  1.00  0.00     0.164 HD
ATOM      6  O   UNL     1      60.752  22.055  49.353  1.00  0.00    -0.273 OA
BRANCH   4   7
ATOM      7  C   UNL     1      59.365  22.448  51.876  1.00  0.00     0.175 C 
BRANCH   7   8
ATOM      8  C   UNL     1      58.699  23.430  52.806  1.00  0.00     0.243 C 
ATOM      9  N   UNL     1      57.677  24.300  52.309  1.00  0.00    -0.342 N 
ATOM     10  H   UNL     1      57.313  24.146  51.341  1.00  0.00     0.164 HD
ATOM     11  O   UNL     1      59.116  23.553  53.989  1.00  0.00    -0.273 OA
BRANCH   9  12
ATOM     12  C   UNL     1      57.264  25.515  53.013  1.00  0.00     0.174 CG0
ATOM     13  G   UNL     1      57.784  26.733  52.269  1.00  0.00     0.000 G0
BRANCH  12  14
ATOM     14  C   UNL     1      55.724  25.501  53.250  1.00  0.00     0.018 C 
ATOM     15  C   UNL     1      55.047  24.572  52.219  1.00  0.00     0.010 C 
BRANCH  14  16
ATOM     16  C   UNL     1      55.370  25.071  54.699  1.00  0.00     0.002 C 
ATOM     17  C   UNL     1      54.166  24.131  54.778  1.00  0.00     0.004 C 
ENDBRANCH  14  16
ENDBRANCH  12  14
ENDBRANCH   9  12
ENDBRANCH   7   8
BRANCH   7  18
ATOM     18  C   UNL     1      59.578  21.068  52.523  1.00  0.00     0.073 C 
BRANCH  18  19
ATOM     19  C   UNL     1      58.478  20.111  52.167  1.00  0.00    -0.016 A 
ATOM     20  C   UNL     1      57.230  20.016  52.784  1.00  0.00     0.134 A 
ATOM     21  C   UNL     1      58.448  19.211  51.112  1.00  0.00     0.006 A 
ATOM     22  N   UNL     1      56.476  19.085  52.153  1.00  0.00    -0.191 N 
ATOM     23  C   UNL     1      57.215  18.606  51.137  1.00  0.00     0.087 A 
ATOM     24  C   UNL     1      59.399  18.897  50.140  1.00  0.00     0.011 A 
ATOM     25  C   UNL     1      56.850  17.640  50.198  1.00  0.00     0.030 A 
ATOM     26  C   UNL     1      59.057  17.930  49.175  1.00  0.00     0.001 A 
ATOM     27  C   UNL     1      57.789  17.303  49.206  1.00  0.00     0.002 A 
BRANCH  22  28
ATOM     28  O   UNL     1      55.180  18.695  52.459  1.00  0.00    -0.417 OA
ATOM     29  C   UNL     1      54.042  19.424  52.007  1.00  0.00     0.313 C 
ENDBRANCH  22  28
ENDBRANCH  18  19
ENDBRANCH   7  18
ENDBRANCH   4   7
ENDBRANCH   2   3
BRANCH   2  30
ATOM     30  N   UNL     1      61.723  25.320  50.020  1.00  0.00    -0.343 N 
ATOM     31  C   UNL     1      60.348  25.726  49.865  1.00  0.00     0.243 C 
ATOM     32  H   UNL     1      62.336  25.906  50.629  1.00  0.00     0.164 HD
ATOM     33  O   UNL     1      59.624  25.157  48.999  1.00  0.00    -0.273 OA
BRANCH  31  34
ATOM     34  C   UNL     1      59.774  26.830  50.733  1.00  0.00     0.174 C 
ATOM     35  N   UNL     1      58.317  26.666  50.917  1.00  0.00    -0.329 N 
ATOM     36  C   UNL     1      60.084  28.239  50.177  1.00  0.00     0.035 C 
ATOM     37  C   UNL     1      57.438  26.973  49.783  1.00  0.00     0.120 C 
ATOM     38  C   UNL     1      59.181  28.625  48.991  1.00  0.00     0.004 C 
ATOM     39  C   UNL     1      57.697  28.409  49.313  1.00  0.00     0.022 C 
BRANCH  35  40
ATOM     40  C   UNL     1      57.785  26.751  52.257  1.00  0.00     0.246 CG0
ATOM     41  O   UNL     1      57.780  27.867  52.848  1.00  0.00    -0.272 OA
ATOM     42  G   UNL     1      57.280  25.530  53.006  1.00  0.00     0.000 G0
ENDBRANCH  35  40
ENDBRANCH  31  34
ENDBRANCH   2  30
ENDBRANCH   1   2
BRANCH   1  43
ATOM     43  C   UNL     1      64.659  23.499  49.074  1.00  0.00     0.003 C 
BRANCH  43  44
ATOM     44  C   UNL     1      64.691  22.078  48.486  1.00  0.00     0.001 C 
BRANCH  44  45
ATOM     45  C   UNL     1      65.746  21.183  49.154  1.00  0.00     0.008 C 
BRANCH  45  46
ATOM     46  C   UNL     1      67.126  21.865  49.152  1.00  0.00     0.075 C 
BRANCH  46  47
ATOM     47  C   UNL     1      67.835  21.690  47.832  1.00  0.00     0.132 C 
ATOM     48  O   UNL     1      68.471  20.669  47.609  1.00  0.00    -0.300 OA
BRANCH  47  49
ATOM     49  C   UNL     1      67.843  22.801  46.815  1.00  0.00     0.072 C 
ATOM     50  C   UNL     1      69.270  23.253  46.510  1.00  0.00     0.012 C 
ENDBRANCH  47  49
ENDBRANCH  46  47
ENDBRANCH  45  46
ENDBRANCH  44  45
ENDBRANCH  43  44
ENDBRANCH   1  43
TORSDOF 12
ENDMDL
