MODEL 1
REMARK VINA RESULT:    17.489      0.000      0.000
REMARK INTER + INTRA:          25.726
REMARK INTER:                  24.134
REMARK INTRA:                   1.592
REMARK UNBOUND:                 1.592
REMARK SMILES CC[C@@H](CC[C@@H](C)[C@@H]1CC[C@@H]2[C@@H]3CC=C4C[C@@H](O)CC[C@@]4(C)[C@@H]3CC[C@@]21C)C(C)C
REMARK SMILES IDX 5 1 4 2 3 3 2 4 1 5 28 6 29 7 30 8 6 9 7 10 8 11 9 12 26 13
REMARK SMILES IDX 10 14 11 15 25 16 27 17 12 18 24 19 23 20 13 21 21 22 14 23
REMARK SMILES IDX 15 24 20 25 22 26 16 27 19 28 17 29 18 30
REMARK H PARENT 18 31
REMARK Flexibility Score: inf
ROOT
ATOM      1  C   UNL     1       9.969  78.698   3.417  1.00  0.00     0.004 C 
ENDROOT
BRANCH   1   2
ATOM      2  C   UNL     1      10.921  79.581   2.580  1.00  0.00     0.004 C 
BRANCH   2   3
ATOM      3  C   UNL     1      12.335  78.947   2.371  1.00  0.00    -0.009 C 
BRANCH   3   4
ATOM      4  C   UNL     1      13.411  79.794   3.106  1.00  0.00     0.000 C 
ATOM      5  C   UNL     1      14.732  79.930   2.340  1.00  0.00     0.004 C 
ENDBRANCH   3   4
BRANCH   3   6
ATOM      6  C   UNL     1      12.662  78.692   0.860  1.00  0.00    -0.014 C 
ATOM      7  C   UNL     1      12.722  77.186   0.541  1.00  0.00     0.007 C 
ATOM      8  C   UNL     1      14.001  79.331   0.440  1.00  0.00     0.007 C 
ENDBRANCH   3   6
ENDBRANCH   2   3
ENDBRANCH   1   2
BRANCH   1   9
ATOM      9  C   UNL     1       8.610  79.382   3.742  1.00  0.00    -0.011 C 
ATOM     10  C   UNL     1       8.058  80.125   2.510  1.00  0.00     0.008 C 
BRANCH   9  11
ATOM     11  C   UNL     1       7.512  78.495   4.439  1.00  0.00    -0.002 C 
ATOM     12  C   UNL     1       6.132  78.527   3.762  1.00  0.00     0.005 C 
ATOM     13  C   UNL     1       7.207  78.546   5.972  1.00  0.00    -0.026 C 
ATOM     14  C   UNL     1       5.143  77.961   4.787  1.00  0.00     0.005 C 
ATOM     15  C   UNL     1       5.975  77.610   6.033  1.00  0.00    -0.001 C 
ATOM     16  C   UNL     1       6.855  79.988   6.485  1.00  0.00     0.007 C 
ATOM     17  C   UNL     1       8.359  77.939   6.813  1.00  0.00     0.012 C 
ATOM     18  C   UNL     1       5.232  77.579   7.403  1.00  0.00     0.000 C 
ATOM     19  C   UNL     1       5.553  80.124   7.297  1.00  0.00     0.005 C 
ATOM     20  C   UNL     1       5.277  78.919   8.214  1.00  0.00     0.003 C 
ATOM     21  C   UNL     1       3.820  76.977   7.302  1.00  0.00     0.031 C 
ATOM     22  C   UNL     1       4.042  79.138   9.199  1.00  0.00    -0.008 C 
ATOM     23  C   UNL     1       3.261  76.818   8.681  1.00  0.00    -0.027 C 
ATOM     24  C   UNL     1       3.413  77.797   9.591  1.00  0.00    -0.065 C 
ATOM     25  C   UNL     1       4.516  79.875  10.496  1.00  0.00     0.014 C 
ATOM     26  C   UNL     1       2.918  79.996   8.559  1.00  0.00     0.016 C 
ATOM     27  C   UNL     1       3.005  77.574  11.026  1.00  0.00     0.063 C 
ATOM     28  C   UNL     1       5.158  78.918  11.518  1.00  0.00     0.033 C 
ATOM     29  C   UNL     1       4.207  77.780  11.970  1.00  0.00     0.118 C 
BRANCH  29  30
ATOM     30  O   UNL     1       4.939  76.585  12.066  1.00  0.00    -0.393 OA
ATOM     31  H   UNL     1       5.796  76.729  11.587  1.00  0.00     0.210 HD
ENDBRANCH  29  30
ENDBRANCH   9  11
ENDBRANCH   1   9
TORSDOF 7
ENDMDL
MODEL 2
REMARK VINA RESULT:    17.974      0.487      1.320
REMARK INTER + INTRA:          26.396
REMARK INTER:                  27.242
REMARK INTRA:                  -0.846
REMARK UNBOUND:                 1.592
REMARK SMILES CC[C@@H](CC[C@@H](C)[C@@H]1CC[C@@H]2[C@@H]3CC=C4C[C@@H](O)CC[C@@]4(C)[C@@H]3CC[C@@]21C)C(C)C
REMARK SMILES IDX 5 1 4 2 3 3 2 4 1 5 28 6 29 7 30 8 6 9 7 10 8 11 9 12 26 13
REMARK SMILES IDX 10 14 11 15 25 16 27 17 12 18 24 19 23 20 13 21 21 22 14 23
REMARK SMILES IDX 15 24 20 25 22 26 16 27 19 28 17 29 18 30
REMARK H PARENT 18 31
REMARK Flexibility Score: inf
ROOT
ATOM      1  C   UNL     1      10.059  78.277   3.187  1.00  0.00     0.004 C 
ENDROOT
BRANCH   1   2
ATOM      2  C   UNL     1      11.235  79.151   2.701  1.00  0.00     0.004 C 
BRANCH   2   3
ATOM      3  C   UNL     1      12.040  78.513   1.522  1.00  0.00    -0.009 C 
BRANCH   3   4
ATOM      4  C   UNL     1      11.923  76.964   1.574  1.00  0.00     0.000 C 
ATOM      5  C   UNL     1      12.557  76.247   0.377  1.00  0.00     0.004 C 
ENDBRANCH   3   4
BRANCH   3   6
ATOM      6  C   UNL     1      13.518  79.027   1.456  1.00  0.00    -0.014 C 
ATOM      7  C   UNL     1      13.786  80.118   2.511  1.00  0.00     0.007 C 
ATOM      8  C   UNL     1      13.875  79.596   0.068  1.00  0.00     0.007 C 
ENDBRANCH   3   6
ENDBRANCH   2   3
ENDBRANCH   1   2
BRANCH   1   9
ATOM      9  C   UNL     1       8.876  79.096   3.777  1.00  0.00    -0.011 C 
ATOM     10  C   UNL     1       8.355  80.125   2.755  1.00  0.00     0.008 C 
BRANCH   9  11
ATOM     11  C   UNL     1       7.705  78.281   4.445  1.00  0.00    -0.002 C 
ATOM     12  C   UNL     1       6.351  78.391   3.725  1.00  0.00     0.005 C 
ATOM     13  C   UNL     1       7.357  78.364   5.968  1.00  0.00    -0.026 C 
ATOM     14  C   UNL     1       5.298  77.894   4.723  1.00  0.00     0.005 C 
ATOM     15  C   UNL     1       6.070  77.504   5.996  1.00  0.00    -0.001 C 
ATOM     16  C   UNL     1       7.077  79.829   6.460  1.00  0.00     0.007 C 
ATOM     17  C   UNL     1       8.444  77.695   6.848  1.00  0.00     0.012 C 
ATOM     18  C   UNL     1       5.285  77.529   7.344  1.00  0.00     0.000 C 
ATOM     19  C   UNL     1       5.762  80.049   7.231  1.00  0.00     0.005 C 
ATOM     20  C   UNL     1       5.386  78.871   8.146  1.00  0.00     0.003 C 
ATOM     21  C   UNL     1       3.843  77.011   7.202  1.00  0.00     0.031 C 
ATOM     22  C   UNL     1       4.137  79.171   9.091  1.00  0.00    -0.008 C 
ATOM     23  C   UNL     1       3.234  76.898   8.565  1.00  0.00    -0.027 C 
ATOM     24  C   UNL     1       3.416  77.874   9.472  1.00  0.00    -0.065 C 
ATOM     25  C   UNL     1       4.614  79.889  10.398  1.00  0.00     0.014 C 
ATOM     26  C   UNL     1       3.086  80.089   8.411  1.00  0.00     0.016 C 
ATOM     27  C   UNL     1       2.952  77.687  10.896  1.00  0.00     0.063 C 
ATOM     28  C   UNL     1       5.166  78.904  11.445  1.00  0.00     0.033 C 
ATOM     29  C   UNL     1       4.135  77.829  11.875  1.00  0.00     0.118 C 
BRANCH  29  30
ATOM     30  O   UNL     1       4.791  76.593  12.002  1.00  0.00    -0.393 OA
ATOM     31  H   UNL     1       4.464  76.174  12.839  1.00  0.00     0.210 HD
ENDBRANCH  29  30
ENDBRANCH   9  11
ENDBRANCH   1   9
TORSDOF 7
ENDMDL
