MODEL 1
REMARK VINA RESULT:    -7.284      0.000      0.000
REMARK INTER + INTRA:         -11.888
REMARK INTER:                 -10.052
REMARK INTRA:                  -1.836
REMARK UNBOUND:                -1.836
REMARK SMILES CC[C@H](CC[C@@H](C)[C@H]1CC[C@@H]2[C@@H]3CC=C4C[C@@H](O)CC[C@@]4(C)[C@@H]3CC[C@@]21C)C(C)C
REMARK SMILES IDX 5 1 4 2 3 3 2 4 1 5 28 6 29 7 30 8 6 9 7 10 8 11 9 12 26 13
REMARK SMILES IDX 10 14 11 15 25 16 27 17 12 18 24 19 23 20 13 21 21 22 14 23
REMARK SMILES IDX 15 24 20 25 22 26 16 27 19 28 17 29 18 30
REMARK H PARENT 18 31
REMARK Flexibility Score: inf
ROOT
ATOM      1  C   UNL     1     186.403 189.354 188.248  1.00  0.00     0.004 C 
ENDROOT
BRANCH   1   2
ATOM      2  C   UNL     1     185.380 188.355 188.830  1.00  0.00     0.004 C 
BRANCH   2   3
ATOM      3  C   UNL     1     185.069 188.597 190.336  1.00  0.00    -0.009 C 
BRANCH   3   4
ATOM      4  C   UNL     1     183.545 188.870 190.499  1.00  0.00     0.000 C 
ATOM      5  C   UNL     1     182.760 187.736 191.155  1.00  0.00     0.004 C 
ENDBRANCH   3   4
BRANCH   3   6
ATOM      6  C   UNL     1     185.633 187.434 191.234  1.00  0.00    -0.014 C 
ATOM      7  C   UNL     1     186.132 186.237 190.407  1.00  0.00     0.007 C 
ATOM      8  C   UNL     1     186.696 187.877 192.253  1.00  0.00     0.007 C 
ENDBRANCH   3   6
ENDBRANCH   2   3
ENDBRANCH   1   2
BRANCH   1   9
ATOM      9  C   UNL     1     187.108 190.202 189.349  1.00  0.00    -0.011 C 
ATOM     10  C   UNL     1     188.611 189.856 189.386  1.00  0.00     0.008 C 
BRANCH   9  11
ATOM     11  C   UNL     1     186.916 191.757 189.212  1.00  0.00    -0.002 C 
ATOM     12  C   UNL     1     185.832 192.214 188.241  1.00  0.00     0.005 C 
ATOM     13  C   UNL     1     186.692 192.588 190.518  1.00  0.00    -0.026 C 
ATOM     14  C   UNL     1     185.764 193.708 188.478  1.00  0.00     0.005 C 
ATOM     15  C   UNL     1     185.984 193.904 189.997  1.00  0.00    -0.001 C 
ATOM     16  C   UNL     1     188.061 192.773 191.268  1.00  0.00     0.007 C 
ATOM     17  C   UNL     1     185.713 191.870 191.492  1.00  0.00     0.012 C 
ATOM     18  C   UNL     1     186.560 195.302 190.439  1.00  0.00     0.000 C 
ATOM     19  C   UNL     1     188.617 194.198 191.329  1.00  0.00     0.005 C 
ATOM     20  C   UNL     1     187.493 195.205 191.666  1.00  0.00     0.003 C 
ATOM     21  C   UNL     1     187.231 196.116 189.309  1.00  0.00     0.031 C 
ATOM     22  C   UNL     1     187.944 196.640 192.191  1.00  0.00    -0.008 C 
ATOM     23  C   UNL     1     187.733 197.439 189.794  1.00  0.00    -0.027 C 
ATOM     24  C   UNL     1     188.082 197.683 191.070  1.00  0.00    -0.065 C 
ATOM     25  C   UNL     1     186.852 197.170 193.178  1.00  0.00     0.014 C 
ATOM     26  C   UNL     1     189.289 196.551 192.966  1.00  0.00     0.016 C 
ATOM     27  C   UNL     1     188.326 199.121 191.479  1.00  0.00     0.063 C 
ATOM     28  C   UNL     1     187.024 198.650 193.597  1.00  0.00     0.033 C 
ATOM     29  C   UNL     1     187.182 199.589 192.387  1.00  0.00     0.118 C 
BRANCH  29  30
ATOM     30  O   UNL     1     185.984 199.615 191.650  1.00  0.00    -0.393 OA
ATOM     31  H   UNL     1     185.261 199.926 192.252  1.00  0.00     0.210 HD
ENDBRANCH  29  30
ENDBRANCH   9  11
ENDBRANCH   1   9
TORSDOF 7
ENDMDL
MODEL 2
REMARK VINA RESULT:    -6.935      1.737      3.428
REMARK INTER + INTRA:         -11.406
REMARK INTER:                 -10.054
REMARK INTRA:                  -1.351
REMARK UNBOUND:                -1.836
REMARK SMILES CC[C@H](CC[C@@H](C)[C@H]1CC[C@@H]2[C@@H]3CC=C4C[C@@H](O)CC[C@@]4(C)[C@@H]3CC[C@@]21C)C(C)C
REMARK SMILES IDX 5 1 4 2 3 3 2 4 1 5 28 6 29 7 30 8 6 9 7 10 8 11 9 12 26 13
REMARK SMILES IDX 10 14 11 15 25 16 27 17 12 18 24 19 23 20 13 21 21 22 14 23
REMARK SMILES IDX 15 24 20 25 22 26 16 27 19 28 17 29 18 30
REMARK H PARENT 18 31
REMARK Flexibility Score: inf
ROOT
ATOM      1  C   UNL     1     186.883 189.235 188.347  1.00  0.00     0.004 C 
ENDROOT
BRANCH   1   2
ATOM      2  C   UNL     1     188.115 189.055 187.435  1.00  0.00     0.004 C 
BRANCH   2   3
ATOM      3  C   UNL     1     188.312 190.224 186.425  1.00  0.00    -0.009 C 
BRANCH   3   4
ATOM      4  C   UNL     1     189.813 190.639 186.420  1.00  0.00     0.000 C 
ATOM      5  C   UNL     1     190.187 191.691 187.463  1.00  0.00     0.004 C 
ENDBRANCH   3   4
BRANCH   3   6
ATOM      6  C   UNL     1     187.719 189.867 185.011  1.00  0.00    -0.014 C 
ATOM      7  C   UNL     1     186.206 189.593 185.056  1.00  0.00     0.007 C 
ATOM      8  C   UNL     1     188.060 190.881 183.906  1.00  0.00     0.007 C 
ENDBRANCH   3   6
ENDBRANCH   2   3
ENDBRANCH   1   2
BRANCH   1   9
ATOM      9  C   UNL     1     187.188 190.101 189.606  1.00  0.00    -0.011 C 
ATOM     10  C   UNL     1     188.623 189.814 190.097  1.00  0.00     0.008 C 
BRANCH   9  11
ATOM     11  C   UNL     1     186.986 191.649 189.411  1.00  0.00    -0.002 C 
ATOM     12  C   UNL     1     185.924 192.062 188.398  1.00  0.00     0.005 C 
ATOM     13  C   UNL     1     186.721 192.521 190.682  1.00  0.00    -0.026 C 
ATOM     14  C   UNL     1     185.835 193.562 188.581  1.00  0.00     0.005 C 
ATOM     15  C   UNL     1     186.014 193.811 190.098  1.00  0.00    -0.001 C 
ATOM     16  C   UNL     1     188.068 192.745 191.460  1.00  0.00     0.007 C 
ATOM     17  C   UNL     1     185.723 191.827 191.654  1.00  0.00     0.012 C 
ATOM     18  C   UNL     1     186.566 195.230 190.507  1.00  0.00     0.000 C 
ATOM     19  C   UNL     1     188.609 194.177 191.487  1.00  0.00     0.005 C 
ATOM     20  C   UNL     1     187.467 195.183 191.759  1.00  0.00     0.003 C 
ATOM     21  C   UNL     1     187.259 196.012 189.367  1.00  0.00     0.031 C 
ATOM     22  C   UNL     1     187.892 196.640 192.246  1.00  0.00    -0.008 C 
ATOM     23  C   UNL     1     187.735 197.355 189.819  1.00  0.00    -0.027 C 
ATOM     24  C   UNL     1     188.049 197.646 191.095  1.00  0.00    -0.065 C 
ATOM     25  C   UNL     1     186.770 197.192 193.187  1.00  0.00     0.014 C 
ATOM     26  C   UNL     1     189.217 196.591 193.059  1.00  0.00     0.016 C 
ATOM     27  C   UNL     1     188.270 199.099 191.461  1.00  0.00     0.063 C 
ATOM     28  C   UNL     1     186.917 198.687 193.559  1.00  0.00     0.033 C 
ATOM     29  C   UNL     1     187.098 199.586 192.322  1.00  0.00     0.118 C 
BRANCH  29  30
ATOM     30  O   UNL     1     185.919 199.575 191.555  1.00  0.00    -0.393 OA
ATOM     31  H   UNL     1     186.054 198.955 190.795  1.00  0.00     0.210 HD
ENDBRANCH  29  30
ENDBRANCH   9  11
ENDBRANCH   1   9
TORSDOF 7
ENDMDL
MODEL 3
REMARK VINA RESULT:    -6.630      2.499      8.700
REMARK INTER + INTRA:         -10.985
REMARK INTER:                  -9.505
REMARK INTRA:                  -1.480
REMARK UNBOUND:                -1.836
REMARK SMILES CC[C@H](CC[C@@H](C)[C@H]1CC[C@@H]2[C@@H]3CC=C4C[C@@H](O)CC[C@@]4(C)[C@@H]3CC[C@@]21C)C(C)C
REMARK SMILES IDX 5 1 4 2 3 3 2 4 1 5 28 6 29 7 30 8 6 9 7 10 8 11 9 12 26 13
REMARK SMILES IDX 10 14 11 15 25 16 27 17 12 18 24 19 23 20 13 21 21 22 14 23
REMARK SMILES IDX 15 24 20 25 22 26 16 27 19 28 17 29 18 30
REMARK H PARENT 18 31
REMARK Flexibility Score: inf
ROOT
ATOM      1  C   UNL     1     190.284 198.345 192.921  1.00  0.00     0.004 C 
ENDROOT
BRANCH   1   2
ATOM      2  C   UNL     1     189.681 199.755 192.748  1.00  0.00     0.004 C 
BRANCH   2   3
ATOM      3  C   UNL     1     188.649 200.125 193.854  1.00  0.00    -0.009 C 
BRANCH   3   4
ATOM      4  C   UNL     1     187.216 199.810 193.333  1.00  0.00     0.000 C 
ATOM      5  C   UNL     1     187.008 200.070 191.842  1.00  0.00     0.004 C 
ENDBRANCH   3   4
BRANCH   3   6
ATOM      6  C   UNL     1     189.016 199.453 195.230  1.00  0.00    -0.014 C 
ATOM      7  C   UNL     1     190.283 200.052 195.863  1.00  0.00     0.007 C 
ATOM      8  C   UNL     1     187.862 199.414 196.245  1.00  0.00     0.007 C 
ENDBRANCH   3   6
ENDBRANCH   2   3
ENDBRANCH   1   2
BRANCH   1   9
ATOM      9  C   UNL     1     190.090 197.449 191.661  1.00  0.00    -0.011 C 
ATOM     10  C   UNL     1     191.450 196.863 191.228  1.00  0.00     0.008 C 
BRANCH   9  11
ATOM     11  C   UNL     1     189.034 196.295 191.824  1.00  0.00    -0.002 C 
ATOM     12  C   UNL     1     188.036 196.459 192.965  1.00  0.00     0.005 C 
ATOM     13  C   UNL     1     188.184 195.895 190.573  1.00  0.00    -0.026 C 
ATOM     14  C   UNL     1     187.063 195.322 192.739  1.00  0.00     0.005 C 
ATOM     15  C   UNL     1     186.912 195.196 191.205  1.00  0.00    -0.001 C 
ATOM     16  C   UNL     1     189.056 195.025 189.597  1.00  0.00     0.007 C 
ATOM     17  C   UNL     1     187.700 197.148 189.786  1.00  0.00     0.012 C 
ATOM     18  C   UNL     1     186.478 193.780 190.665  1.00  0.00     0.000 C 
ATOM     19  C   UNL     1     188.642 193.561 189.436  1.00  0.00     0.005 C 
ATOM     20  C   UNL     1     187.107 193.443 189.296  1.00  0.00     0.003 C 
ATOM     21  C   UNL     1     186.682 192.614 191.659  1.00  0.00     0.031 C 
ATOM     22  C   UNL     1     186.541 192.080 188.696  1.00  0.00    -0.008 C 
ATOM     23  C   UNL     1     186.227 191.308 191.090  1.00  0.00    -0.027 C 
ATOM     24  C   UNL     1     186.184 191.042 189.772  1.00  0.00    -0.065 C 
ATOM     25  C   UNL     1     185.224 192.396 187.910  1.00  0.00     0.014 C 
ATOM     26  C   UNL     1     187.553 191.447 187.699  1.00  0.00     0.016 C 
ATOM     27  C   UNL     1     185.468 189.785 189.322  1.00  0.00     0.063 C 
ATOM     28  C   UNL     1     184.424 191.148 187.463  1.00  0.00     0.033 C 
ATOM     29  C   UNL     1     184.158 190.173 188.624  1.00  0.00     0.118 C 
BRANCH  29  30
ATOM     30  O   UNL     1     183.294 190.775 189.557  1.00  0.00    -0.393 OA
ATOM     31  H   UNL     1     183.783 191.516 189.995  1.00  0.00     0.210 HD
ENDBRANCH  29  30
ENDBRANCH   9  11
ENDBRANCH   1   9
TORSDOF 7
ENDMDL
MODEL 4
REMARK VINA RESULT:    -6.602      4.010     10.048
REMARK INTER + INTRA:         -10.946
REMARK INTER:                  -9.532
REMARK INTRA:                  -1.414
REMARK UNBOUND:                -1.836
REMARK SMILES CC[C@H](CC[C@@H](C)[C@H]1CC[C@@H]2[C@@H]3CC=C4C[C@@H](O)CC[C@@]4(C)[C@@H]3CC[C@@]21C)C(C)C
REMARK SMILES IDX 5 1 4 2 3 3 2 4 1 5 28 6 29 7 30 8 6 9 7 10 8 11 9 12 26 13
REMARK SMILES IDX 10 14 11 15 25 16 27 17 12 18 24 19 23 20 13 21 21 22 14 23
REMARK SMILES IDX 15 24 20 25 22 26 16 27 19 28 17 29 18 30
REMARK H PARENT 18 31
REMARK Flexibility Score: inf
ROOT
ATOM      1  C   UNL     1     184.705 191.490 188.785  1.00  0.00     0.004 C 
ENDROOT
BRANCH   1   2
ATOM      2  C   UNL     1     185.729 192.627 188.582  1.00  0.00     0.004 C 
BRANCH   2   3
ATOM      3  C   UNL     1     186.024 193.431 189.882  1.00  0.00    -0.009 C 
BRANCH   3   4
ATOM      4  C   UNL     1     186.770 192.506 190.888  1.00  0.00     0.000 C 
ATOM      5  C   UNL     1     186.386 192.714 192.352  1.00  0.00     0.004 C 
ENDBRANCH   3   4
BRANCH   3   6
ATOM      6  C   UNL     1     186.754 194.789 189.565  1.00  0.00    -0.014 C 
ATOM      7  C   UNL     1     186.294 195.937 190.480  1.00  0.00     0.007 C 
ATOM      8  C   UNL     1     188.289 194.693 189.536  1.00  0.00     0.007 C 
ENDBRANCH   3   6
ENDBRANCH   2   3
ENDBRANCH   1   2
BRANCH   1   9
ATOM      9  C   UNL     1     185.339 190.075 188.625  1.00  0.00    -0.011 C 
ATOM     10  C   UNL     1     186.770 190.210 188.062  1.00  0.00     0.008 C 
BRANCH   9  11
ATOM     11  C   UNL     1     185.355 189.204 189.934  1.00  0.00    -0.002 C 
ATOM     12  C   UNL     1     184.415 189.653 191.048  1.00  0.00     0.005 C 
ATOM     13  C   UNL     1     185.137 187.661 189.793  1.00  0.00    -0.026 C 
ATOM     14  C   UNL     1     184.516 188.532 192.059  1.00  0.00     0.005 C 
ATOM     15  C   UNL     1     184.642 187.230 191.233  1.00  0.00    -0.001 C 
ATOM     16  C   UNL     1     186.457 186.987 189.269  1.00  0.00     0.007 C 
ATOM     17  C   UNL     1     184.004 187.335 188.778  1.00  0.00     0.012 C 
ATOM     18  C   UNL     1     185.353 186.020 191.949  1.00  0.00     0.000 C 
ATOM     19  C   UNL     1     187.180 186.056 190.246  1.00  0.00     0.005 C 
ATOM     20  C   UNL     1     186.168 185.143 190.975  1.00  0.00     0.003 C 
ATOM     21  C   UNL     1     186.206 186.402 193.180  1.00  0.00     0.031 C 
ATOM     22  C   UNL     1     186.754 183.843 191.686  1.00  0.00    -0.008 C 
ATOM     23  C   UNL     1     186.830 185.205 193.823  1.00  0.00    -0.027 C 
ATOM     24  C   UNL     1     187.108 184.064 193.166  1.00  0.00    -0.065 C 
ATOM     25  C   UNL     1     185.664 182.721 191.639  1.00  0.00     0.014 C 
ATOM     26  C   UNL     1     188.014 183.319 190.939  1.00  0.00     0.016 C 
ATOM     27  C   UNL     1     187.498 182.849 193.982  1.00  0.00     0.063 C 
ATOM     28  C   UNL     1     185.988 181.470 192.492  1.00  0.00     0.033 C 
ATOM     29  C   UNL     1     186.355 181.827 193.944  1.00  0.00     0.118 C 
BRANCH  29  30
ATOM     30  O   UNL     1     185.230 182.362 194.597  1.00  0.00    -0.393 OA
ATOM     31  H   UNL     1     185.245 182.053 195.538  1.00  0.00     0.210 HD
ENDBRANCH  29  30
ENDBRANCH   9  11
ENDBRANCH   1   9
TORSDOF 7
ENDMDL
MODEL 5
REMARK VINA RESULT:    -6.486      4.759     10.154
REMARK INTER + INTRA:         -10.786
REMARK INTER:                  -8.865
REMARK INTRA:                  -1.921
REMARK UNBOUND:                -1.836
REMARK SMILES CC[C@H](CC[C@@H](C)[C@H]1CC[C@@H]2[C@@H]3CC=C4C[C@@H](O)CC[C@@]4(C)[C@@H]3CC[C@@]21C)C(C)C
REMARK SMILES IDX 5 1 4 2 3 3 2 4 1 5 28 6 29 7 30 8 6 9 7 10 8 11 9 12 26 13
REMARK SMILES IDX 10 14 11 15 25 16 27 17 12 18 24 19 23 20 13 21 21 22 14 23
REMARK SMILES IDX 15 24 20 25 22 26 16 27 19 28 17 29 18 30
REMARK H PARENT 18 31
REMARK Flexibility Score: inf
ROOT
ATOM      1  C   UNL     1     183.908 190.764 189.953  1.00  0.00     0.004 C 
ENDROOT
BRANCH   1   2
ATOM      2  C   UNL     1     184.310 191.512 188.663  1.00  0.00     0.004 C 
BRANCH   2   3
ATOM      3  C   UNL     1     185.803 191.307 188.272  1.00  0.00    -0.009 C 
BRANCH   3   4
ATOM      4  C   UNL     1     185.872 190.732 186.827  1.00  0.00     0.000 C 
ATOM      5  C   UNL     1     184.852 189.634 186.528  1.00  0.00     0.004 C 
ENDBRANCH   3   4
BRANCH   3   6
ATOM      6  C   UNL     1     186.642 192.619 188.502  1.00  0.00    -0.014 C 
ATOM      7  C   UNL     1     185.827 193.731 189.185  1.00  0.00     0.007 C 
ATOM      8  C   UNL     1     187.981 192.398 189.226  1.00  0.00     0.007 C 
ENDBRANCH   3   6
ENDBRANCH   2   3
ENDBRANCH   1   2
BRANCH   1   9
ATOM      9  C   UNL     1     185.134 190.174 190.712  1.00  0.00    -0.011 C 
ATOM     10  C   UNL     1     185.459 191.055 191.936  1.00  0.00     0.008 C 
BRANCH   9  11
ATOM     11  C   UNL     1     184.979 188.673 191.155  1.00  0.00    -0.002 C 
ATOM     12  C   UNL     1     183.693 187.977 190.722  1.00  0.00     0.005 C 
ATOM     13  C   UNL     1     186.136 187.680 190.804  1.00  0.00    -0.026 C 
ATOM     14  C   UNL     1     183.929 186.536 191.118  1.00  0.00     0.005 C 
ATOM     15  C   UNL     1     185.428 186.265 190.848  1.00  0.00    -0.001 C 
ATOM     16  C   UNL     1     187.338 187.899 191.793  1.00  0.00     0.007 C 
ATOM     17  C   UNL     1     186.665 187.906 189.358  1.00  0.00     0.012 C 
ATOM     18  C   UNL     1     186.088 185.112 191.696  1.00  0.00     0.000 C 
ATOM     19  C   UNL     1     187.637 186.755 192.766  1.00  0.00     0.005 C 
ATOM     20  C   UNL     1     187.567 185.392 192.039  1.00  0.00     0.003 C 
ATOM     21  C   UNL     1     185.304 184.707 192.965  1.00  0.00     0.031 C 
ATOM     22  C   UNL     1     188.260 184.154 192.763  1.00  0.00    -0.008 C 
ATOM     23  C   UNL     1     185.974 183.594 193.707  1.00  0.00    -0.027 C 
ATOM     24  C   UNL     1     187.296 183.350 193.651  1.00  0.00    -0.065 C 
ATOM     25  C   UNL     1     188.795 183.176 191.665  1.00  0.00     0.014 C 
ATOM     26  C   UNL     1     189.470 184.617 193.624  1.00  0.00     0.016 C 
ATOM     27  C   UNL     1     187.805 182.049 194.237  1.00  0.00     0.063 C 
ATOM     28  C   UNL     1     189.287 181.810 192.201  1.00  0.00     0.033 C 
ATOM     29  C   UNL     1     188.245 181.120 193.100  1.00  0.00     0.118 C 
BRANCH  29  30
ATOM     30  O   UNL     1     187.123 180.761 192.330  1.00  0.00    -0.393 OA
ATOM     31  H   UNL     1     186.695 181.594 192.006  1.00  0.00     0.210 HD
ENDBRANCH  29  30
ENDBRANCH   9  11
ENDBRANCH   1   9
TORSDOF 7
ENDMDL
MODEL 6
REMARK VINA RESULT:    -6.428      2.352      4.322
REMARK INTER + INTRA:         -10.706
REMARK INTER:                  -9.167
REMARK INTRA:                  -1.539
REMARK UNBOUND:                -1.836
REMARK SMILES CC[C@H](CC[C@@H](C)[C@H]1CC[C@@H]2[C@@H]3CC=C4C[C@@H](O)CC[C@@]4(C)[C@@H]3CC[C@@]21C)C(C)C
REMARK SMILES IDX 5 1 4 2 3 3 2 4 1 5 28 6 29 7 30 8 6 9 7 10 8 11 9 12 26 13
REMARK SMILES IDX 10 14 11 15 25 16 27 17 12 18 24 19 23 20 13 21 21 22 14 23
REMARK SMILES IDX 15 24 20 25 22 26 16 27 19 28 17 29 18 30
REMARK H PARENT 18 31
REMARK Flexibility Score: inf
ROOT
ATOM      1  C   UNL     1     186.289 190.574 188.729  1.00  0.00     0.004 C 
ENDROOT
BRANCH   1   2
ATOM      2  C   UNL     1     187.302 189.923 187.764  1.00  0.00     0.004 C 
BRANCH   2   3
ATOM      3  C   UNL     1     187.896 190.923 186.728  1.00  0.00    -0.009 C 
BRANCH   3   4
ATOM      4  C   UNL     1     189.429 190.678 186.613  1.00  0.00     0.000 C 
ATOM      5  C   UNL     1     189.855 189.218 186.757  1.00  0.00     0.004 C 
ENDBRANCH   3   4
BRANCH   3   6
ATOM      6  C   UNL     1     187.113 190.869 185.364  1.00  0.00    -0.014 C 
ATOM      7  C   UNL     1     188.015 191.153 184.151  1.00  0.00     0.007 C 
ATOM      8  C   UNL     1     186.297 189.583 185.151  1.00  0.00     0.007 C 
ENDBRANCH   3   6
ENDBRANCH   2   3
ENDBRANCH   1   2
BRANCH   1   9
ATOM      9  C   UNL     1     186.300 192.130 188.654  1.00  0.00    -0.011 C 
ATOM     10  C   UNL     1     185.026 192.623 187.936  1.00  0.00     0.008 C 
BRANCH   9  11
ATOM     11  C   UNL     1     186.454 192.860 190.038  1.00  0.00    -0.002 C 
ATOM     12  C   UNL     1     186.683 191.959 191.247  1.00  0.00     0.005 C 
ATOM     13  C   UNL     1     187.518 194.001 190.153  1.00  0.00    -0.026 C 
ATOM     14  C   UNL     1     186.981 192.942 192.359  1.00  0.00     0.005 C 
ATOM     15  C   UNL     1     187.804 194.078 191.708  1.00  0.00    -0.001 C 
ATOM     16  C   UNL     1     186.970 195.306 189.471  1.00  0.00     0.007 C 
ATOM     17  C   UNL     1     188.847 193.617 189.440  1.00  0.00     0.012 C 
ATOM     18  C   UNL     1     187.736 195.481 192.423  1.00  0.00     0.000 C 
ATOM     19  C   UNL     1     186.674 196.487 190.398  1.00  0.00     0.005 C 
ATOM     20  C   UNL     1     187.810 196.663 191.432  1.00  0.00     0.003 C 
ATOM     21  C   UNL     1     186.547 195.659 193.395  1.00  0.00     0.031 C 
ATOM     22  C   UNL     1     187.893 198.067 192.180  1.00  0.00    -0.008 C 
ATOM     23  C   UNL     1     186.560 197.001 194.054  1.00  0.00    -0.027 C 
ATOM     24  C   UNL     1     187.131 198.094 193.514  1.00  0.00    -0.065 C 
ATOM     25  C   UNL     1     189.395 198.365 192.504  1.00  0.00     0.014 C 
ATOM     26  C   UNL     1     187.363 199.214 191.272  1.00  0.00     0.016 C 
ATOM     27  C   UNL     1     187.298 199.318 194.391  1.00  0.00     0.063 C 
ATOM     28  C   UNL     1     189.626 199.580 193.435  1.00  0.00     0.033 C 
ATOM     29  C   UNL     1     188.784 199.503 194.722  1.00  0.00     0.118 C 
BRANCH  29  30
ATOM     30  O   UNL     1     189.224 198.424 195.510  1.00  0.00    -0.393 OA
ATOM     31  H   UNL     1     188.845 198.533 196.419  1.00  0.00     0.210 HD
ENDBRANCH  29  30
ENDBRANCH   9  11
ENDBRANCH   1   9
TORSDOF 7
ENDMDL
MODEL 7
REMARK VINA RESULT:    -6.427      2.717      8.618
REMARK INTER + INTRA:         -10.705
REMARK INTER:                  -9.478
REMARK INTRA:                  -1.227
REMARK UNBOUND:                -1.836
REMARK SMILES CC[C@H](CC[C@@H](C)[C@H]1CC[C@@H]2[C@@H]3CC=C4C[C@@H](O)CC[C@@]4(C)[C@@H]3CC[C@@]21C)C(C)C
REMARK SMILES IDX 5 1 4 2 3 3 2 4 1 5 28 6 29 7 30 8 6 9 7 10 8 11 9 12 26 13
REMARK SMILES IDX 10 14 11 15 25 16 27 17 12 18 24 19 23 20 13 21 21 22 14 23
REMARK SMILES IDX 15 24 20 25 22 26 16 27 19 28 17 29 18 30
REMARK H PARENT 18 31
REMARK Flexibility Score: inf
ROOT
ATOM      1  C   UNL     1     187.950 196.848 194.250  1.00  0.00     0.004 C 
ENDROOT
BRANCH   1   2
ATOM      2  C   UNL     1     187.187 197.797 195.198  1.00  0.00     0.004 C 
BRANCH   2   3
ATOM      3  C   UNL     1     186.585 199.038 194.475  1.00  0.00    -0.009 C 
BRANCH   3   4
ATOM      4  C   UNL     1     185.359 199.549 195.287  1.00  0.00     0.000 C 
ATOM      5  C   UNL     1     185.369 199.167 196.766  1.00  0.00     0.004 C 
ENDBRANCH   3   4
BRANCH   3   6
ATOM      6  C   UNL     1     187.687 200.125 194.186  1.00  0.00    -0.014 C 
ATOM      7  C   UNL     1     188.809 200.125 195.238  1.00  0.00     0.007 C 
ATOM      8  C   UNL     1     188.269 200.076 192.764  1.00  0.00     0.007 C 
ENDBRANCH   3   6
ENDBRANCH   2   3
ENDBRANCH   1   2
BRANCH   1   9
ATOM      9  C   UNL     1     187.201 195.502 194.016  1.00  0.00    -0.011 C 
ATOM     10  C   UNL     1     185.925 195.462 194.883  1.00  0.00     0.008 C 
BRANCH   9  11
ATOM     11  C   UNL     1     186.842 195.195 192.516  1.00  0.00    -0.002 C 
ATOM     12  C   UNL     1     186.744 196.403 191.591  1.00  0.00     0.005 C 
ATOM     13  C   UNL     1     187.717 194.147 191.751  1.00  0.00    -0.026 C 
ATOM     14  C   UNL     1     186.587 195.779 190.221  1.00  0.00     0.005 C 
ATOM     15  C   UNL     1     187.481 194.515 190.230  1.00  0.00    -0.001 C 
ATOM     16  C   UNL     1     187.312 192.695 192.196  1.00  0.00     0.007 C 
ATOM     17  C   UNL     1     189.231 194.331 192.059  1.00  0.00     0.012 C 
ATOM     18  C   UNL     1     187.073 193.371 189.226  1.00  0.00     0.000 C 
ATOM     19  C   UNL     1     186.640 191.820 191.136  1.00  0.00     0.005 C 
ATOM     20  C   UNL     1     187.365 191.959 189.777  1.00  0.00     0.003 C 
ATOM     21  C   UNL     1     185.625 193.458 188.693  1.00  0.00     0.031 C 
ATOM     22  C   UNL     1     187.090 190.824 188.694  1.00  0.00    -0.008 C 
ATOM     23  C   UNL     1     185.316 192.357 187.729  1.00  0.00    -0.027 C 
ATOM     24  C   UNL     1     185.940 191.164 187.733  1.00  0.00    -0.065 C 
ATOM     25  C   UNL     1     188.378 190.650 187.823  1.00  0.00     0.014 C 
ATOM     26  C   UNL     1     186.787 189.461 189.379  1.00  0.00     0.016 C 
ATOM     27  C   UNL     1     185.716 190.241 186.553  1.00  0.00     0.063 C 
ATOM     28  C   UNL     1     188.198 189.751 186.576  1.00  0.00     0.033 C 
ATOM     29  C   UNL     1     186.996 190.176 185.712  1.00  0.00     0.118 C 
BRANCH  29  30
ATOM     30  O   UNL     1     187.247 191.440 185.146  1.00  0.00    -0.393 OA
ATOM     31  H   UNL     1     187.998 191.346 184.507  1.00  0.00     0.210 HD
ENDBRANCH  29  30
ENDBRANCH   9  11
ENDBRANCH   1   9
TORSDOF 7
ENDMDL
MODEL 8
REMARK VINA RESULT:    -6.262      2.766      8.366
REMARK INTER + INTRA:         -10.477
REMARK INTER:                  -8.380
REMARK INTRA:                  -2.097
REMARK UNBOUND:                -1.836
REMARK SMILES CC[C@H](CC[C@@H](C)[C@H]1CC[C@@H]2[C@@H]3CC=C4C[C@@H](O)CC[C@@]4(C)[C@@H]3CC[C@@]21C)C(C)C
REMARK SMILES IDX 5 1 4 2 3 3 2 4 1 5 28 6 29 7 30 8 6 9 7 10 8 11 9 12 26 13
REMARK SMILES IDX 10 14 11 15 25 16 27 17 12 18 24 19 23 20 13 21 21 22 14 23
REMARK SMILES IDX 15 24 20 25 22 26 16 27 19 28 17 29 18 30
REMARK H PARENT 18 31
REMARK Flexibility Score: inf
ROOT
ATOM      1  C   UNL     1     187.147 197.133 194.308  1.00  0.00     0.004 C 
ENDROOT
BRANCH   1   2
ATOM      2  C   UNL     1     188.325 197.519 195.228  1.00  0.00     0.004 C 
BRANCH   2   3
ATOM      3  C   UNL     1     189.564 198.056 194.451  1.00  0.00    -0.009 C 
BRANCH   3   4
ATOM      4  C   UNL     1     190.672 196.963 194.452  1.00  0.00     0.000 C 
ATOM      5  C   UNL     1     190.537 195.918 195.559  1.00  0.00     0.004 C 
ENDBRANCH   3   4
BRANCH   3   6
ATOM      6  C   UNL     1     189.161 198.590 193.026  1.00  0.00    -0.014 C 
ATOM      7  C   UNL     1     189.077 200.124 192.971  1.00  0.00     0.007 C 
ATOM      8  C   UNL     1     190.028 198.047 191.878  1.00  0.00     0.007 C 
ENDBRANCH   3   6
ENDBRANCH   2   3
ENDBRANCH   1   2
BRANCH   1   9
ATOM      9  C   UNL     1     187.136 195.616 193.951  1.00  0.00    -0.011 C 
ATOM     10  C   UNL     1     186.174 194.868 194.897  1.00  0.00     0.008 C 
BRANCH   9  11
ATOM     11  C   UNL     1     186.781 195.290 192.454  1.00  0.00    -0.002 C 
ATOM     12  C   UNL     1     186.647 196.490 191.522  1.00  0.00     0.005 C 
ATOM     13  C   UNL     1     187.681 194.261 191.692  1.00  0.00    -0.026 C 
ATOM     14  C   UNL     1     186.503 195.853 190.157  1.00  0.00     0.005 C 
ATOM     15  C   UNL     1     187.430 194.614 190.170  1.00  0.00    -0.001 C 
ATOM     16  C   UNL     1     187.316 192.802 192.148  1.00  0.00     0.007 C 
ATOM     17  C   UNL     1     189.190 194.488 191.994  1.00  0.00     0.012 C 
ATOM     18  C   UNL     1     187.049 193.454 189.174  1.00  0.00     0.000 C 
ATOM     19  C   UNL     1     186.663 191.903 191.095  1.00  0.00     0.005 C 
ATOM     20  C   UNL     1     187.380 192.053 189.733  1.00  0.00     0.003 C 
ATOM     21  C   UNL     1     185.597 193.499 188.646  1.00  0.00     0.031 C 
ATOM     22  C   UNL     1     187.131 190.904 188.658  1.00  0.00    -0.008 C 
ATOM     23  C   UNL     1     185.314 192.384 187.690  1.00  0.00    -0.027 C 
ATOM     24  C   UNL     1     185.969 191.209 187.698  1.00  0.00    -0.065 C 
ATOM     25  C   UNL     1     188.421 190.759 187.784  1.00  0.00     0.014 C 
ATOM     26  C   UNL     1     186.867 189.538 189.353  1.00  0.00     0.016 C 
ATOM     27  C   UNL     1     185.766 190.272 186.525  1.00  0.00     0.063 C 
ATOM     28  C   UNL     1     188.260 189.848 186.542  1.00  0.00     0.033 C 
ATOM     29  C   UNL     1     187.045 190.236 185.680  1.00  0.00     0.118 C 
BRANCH  29  30
ATOM     30  O   UNL     1     187.260 191.503 185.106  1.00  0.00    -0.393 OA
ATOM     31  H   UNL     1     186.384 191.857 184.809  1.00  0.00     0.210 HD
ENDBRANCH  29  30
ENDBRANCH   9  11
ENDBRANCH   1   9
TORSDOF 7
ENDMDL
MODEL 9
REMARK VINA RESULT:    -5.823      1.598      3.372
REMARK INTER + INTRA:          -9.872
REMARK INTER:                  -8.317
REMARK INTRA:                  -1.555
REMARK UNBOUND:                -1.836
REMARK SMILES CC[C@H](CC[C@@H](C)[C@H]1CC[C@@H]2[C@@H]3CC=C4C[C@@H](O)CC[C@@]4(C)[C@@H]3CC[C@@]21C)C(C)C
REMARK SMILES IDX 5 1 4 2 3 3 2 4 1 5 28 6 29 7 30 8 6 9 7 10 8 11 9 12 26 13
REMARK SMILES IDX 10 14 11 15 25 16 27 17 12 18 24 19 23 20 13 21 21 22 14 23
REMARK SMILES IDX 15 24 20 25 22 26 16 27 19 28 17 29 18 30
REMARK H PARENT 18 31
REMARK Flexibility Score: inf
ROOT
ATOM      1  C   UNL     1     187.109 191.201 188.627  1.00  0.00     0.004 C 
ENDROOT
BRANCH   1   2
ATOM      2  C   UNL     1     186.253 190.243 187.772  1.00  0.00     0.004 C 
BRANCH   2   3
ATOM      3  C   UNL     1     185.790 188.973 188.546  1.00  0.00    -0.009 C 
BRANCH   3   4
ATOM      4  C   UNL     1     186.686 188.796 189.806  1.00  0.00     0.000 C 
ATOM      5  C   UNL     1     187.023 187.346 190.151  1.00  0.00     0.004 C 
ENDBRANCH   3   4
BRANCH   3   6
ATOM      6  C   UNL     1     184.243 189.008 188.833  1.00  0.00    -0.014 C 
ATOM      7  C   UNL     1     183.567 187.645 188.607  1.00  0.00     0.007 C 
ATOM      8  C   UNL     1     183.866 189.585 190.208  1.00  0.00     0.007 C 
ENDBRANCH   3   6
ENDBRANCH   2   3
ENDBRANCH   1   2
BRANCH   1   9
ATOM      9  C   UNL     1     186.516 192.641 188.693  1.00  0.00    -0.011 C 
ATOM     10  C   UNL     1     185.052 192.620 188.207  1.00  0.00     0.008 C 
BRANCH   9  11
ATOM     11  C   UNL     1     186.605 193.330 190.104  1.00  0.00    -0.002 C 
ATOM     12  C   UNL     1     186.882 192.405 191.284  1.00  0.00     0.005 C 
ATOM     13  C   UNL     1     187.588 194.536 190.272  1.00  0.00    -0.026 C 
ATOM     14  C   UNL     1     187.100 193.365 192.433  1.00  0.00     0.005 C 
ATOM     15  C   UNL     1     187.850 194.577 191.832  1.00  0.00    -0.001 C 
ATOM     16  C   UNL     1     186.959 195.824 189.628  1.00  0.00     0.007 C 
ATOM     17  C   UNL     1     188.948 194.268 189.564  1.00  0.00     0.012 C 
ATOM     18  C   UNL     1     187.680 195.946 192.595  1.00  0.00     0.000 C 
ATOM     19  C   UNL     1     186.574 196.949 190.591  1.00  0.00     0.005 C 
ATOM     20  C   UNL     1     187.684 197.164 191.646  1.00  0.00     0.003 C 
ATOM     21  C   UNL     1     186.471 196.009 193.556  1.00  0.00     0.031 C 
ATOM     22  C   UNL     1     187.663 198.544 192.442  1.00  0.00    -0.008 C 
ATOM     23  C   UNL     1     186.385 197.325 194.261  1.00  0.00    -0.027 C 
ATOM     24  C   UNL     1     186.886 198.472 193.767  1.00  0.00    -0.065 C 
ATOM     25  C   UNL     1     189.138 198.931 192.796  1.00  0.00     0.014 C 
ATOM     26  C   UNL     1     187.066 199.683 191.568  1.00  0.00     0.016 C 
ATOM     27  C   UNL     1     186.960 199.672 194.688  1.00  0.00     0.063 C 
ATOM     28  C   UNL     1     189.275 200.125 193.772  1.00  0.00     0.033 C 
ATOM     29  C   UNL     1     188.426 199.946 195.044  1.00  0.00     0.118 C 
BRANCH  29  30
ATOM     30  O   UNL     1     188.930 198.872 195.800  1.00  0.00    -0.393 OA
ATOM     31  H   UNL     1     188.766 198.037 195.294  1.00  0.00     0.210 HD
ENDBRANCH  29  30
ENDBRANCH   9  11
ENDBRANCH   1   9
TORSDOF 7
ENDMDL
