MODEL 1
REMARK VINA RESULT:    -4.474      0.000      0.000
REMARK INTER + INTRA:         -11.487
REMARK INTER:                  -9.444
REMARK INTRA:                  -2.044
REMARK UNBOUND:                -2.044
REMARK SMILES CCC(=O)CCCCC[C@H]1NC(=O)[C@H]2CCCCN2C(=O)[C@H]([C@H](C)CC)NC(=O)[C@@H](Cc2cn(OC)c3ccccc23)NC1=O
REMARK SMILES IDX 9 1 10 2 44 3 43 4 45 6 30 7 28 8 27 9 29 11 22 12 23 14
REMARK SMILES IDX 24 15 25 16 26 17 31 18 32 19 33 20 42 21 34 22 37 23 41 24
REMARK SMILES IDX 38 25 40 26 39 27 35 28 36 29 11 30 12 31 13 33 14 34 19 35
REMARK SMILES IDX 15 36 18 37 16 38 17 39 20 40 21 41 8 43 7 44 6 45 5 46 3 47
REMARK SMILES IDX 4 48 2 49 1 50
REMARK H PARENT 43 5 27 10 11 32
REMARK Flexibility Score: 80.00
ROOT
ATOM      1  C   UNL     1      61.273  31.559  60.422  1.00  0.00     0.035 C 
ENDROOT
BRANCH   1   2
ATOM      2  C   UNL     1      61.197  30.489  61.538  1.00  0.00     0.171 C 
BRANCH   2   3
ATOM      3  C   UNL     1      62.444  29.641  61.576  1.00  0.00     0.243 C 
ATOM      4  N   UNL     1      62.346  28.217  61.468  1.00  0.00    -0.342 N 
ATOM      5  H   UNL     1      61.577  27.767  62.018  1.00  0.00     0.164 HD
ATOM      6  O   UNL     1      63.561  30.181  61.803  1.00  0.00    -0.273 OA
BRANCH   4   7
ATOM      7  C   UNL     1      63.343  27.352  60.820  1.00  0.00     0.175 C 
BRANCH   7   8
ATOM      8  C   UNL     1      62.637  26.286  60.022  1.00  0.00     0.243 C 
ATOM      9  N   UNL     1      61.599  25.497  60.619  1.00  0.00    -0.342 N 
ATOM     10  H   UNL     1      61.835  24.901  61.445  1.00  0.00     0.164 HD
ATOM     11  O   UNL     1      62.893  26.156  58.794  1.00  0.00    -0.273 OA
BRANCH   9  12
ATOM     12  C   UNL     1      60.204  25.582  60.178  1.00  0.00     0.174 CG0
ATOM     13  G   UNL     1      59.354  26.201  61.271  1.00  0.00     0.000 G0
BRANCH  12  14
ATOM     14  C   UNL     1      59.647  24.198  59.711  1.00  0.00     0.018 C 
ATOM     15  C   UNL     1      60.563  23.026  60.115  1.00  0.00     0.010 C 
BRANCH  14  16
ATOM     16  C   UNL     1      59.387  24.148  58.183  1.00  0.00     0.002 C 
ATOM     17  C   UNL     1      59.739  22.792  57.563  1.00  0.00     0.004 C 
ENDBRANCH  14  16
ENDBRANCH  12  14
ENDBRANCH   9  12
ENDBRANCH   7   8
BRANCH   7  18
ATOM     18  C   UNL     1      64.286  28.141  59.879  1.00  0.00     0.073 C 
BRANCH  18  19
ATOM     19  C   UNL     1      65.736  27.918  60.217  1.00  0.00    -0.016 A 
ATOM     20  C   UNL     1      66.556  28.799  60.917  1.00  0.00     0.134 A 
ATOM     21  C   UNL     1      66.538  26.834  59.888  1.00  0.00     0.006 A 
ATOM     22  N   UNL     1      67.802  28.278  61.030  1.00  0.00    -0.191 N 
ATOM     23  C   UNL     1      67.785  27.088  60.405  1.00  0.00     0.087 A 
ATOM     24  C   UNL     1      66.270  25.667  59.169  1.00  0.00     0.011 A 
ATOM     25  C   UNL     1      68.842  26.193  60.250  1.00  0.00     0.030 A 
ATOM     26  C   UNL     1      67.316  24.742  59.004  1.00  0.00     0.001 A 
ATOM     27  C   UNL     1      68.594  25.005  59.541  1.00  0.00     0.002 A 
BRANCH  22  28
ATOM     28  O   UNL     1      68.902  28.844  61.650  1.00  0.00    -0.417 OA
ATOM     29  C   UNL     1      69.859  29.626  60.943  1.00  0.00     0.313 C 
ENDBRANCH  22  28
ENDBRANCH  18  19
ENDBRANCH   7  18
ENDBRANCH   4   7
ENDBRANCH   2   3
BRANCH   2  30
ATOM     30  N   UNL     1      59.997  29.646  61.399  1.00  0.00    -0.343 N 
ATOM     31  C   UNL     1      59.629  28.944  60.198  1.00  0.00     0.243 C 
ATOM     32  H   UNL     1      59.376  29.568  62.234  1.00  0.00     0.164 HD
ATOM     33  O   UNL     1      60.374  28.991  59.181  1.00  0.00    -0.273 OA
BRANCH  31  34
ATOM     34  C   UNL     1      58.293  28.238  60.117  1.00  0.00     0.174 C 
ATOM     35  N   UNL     1      58.182  27.041  60.981  1.00  0.00    -0.329 N 
ATOM     36  C   UNL     1      57.974  27.855  58.663  1.00  0.00     0.035 C 
ATOM     37  C   UNL     1      56.861  26.400  60.964  1.00  0.00     0.120 C 
ATOM     38  C   UNL     1      56.600  27.178  58.575  1.00  0.00     0.004 C 
ATOM     39  C   UNL     1      56.503  25.983  59.532  1.00  0.00     0.022 C 
BRANCH  35  40
ATOM     40  C   UNL     1      59.319  26.204  61.272  1.00  0.00     0.246 CG0
ATOM     41  O   UNL     1      59.637  26.000  62.474  1.00  0.00    -0.272 OA
ATOM     42  G   UNL     1      60.164  25.593  60.171  1.00  0.00     0.000 G0
ENDBRANCH  35  40
ENDBRANCH  31  34
ENDBRANCH   2  30
ENDBRANCH   1   2
BRANCH   1  43
ATOM     43  C   UNL     1      61.524  32.986  60.942  1.00  0.00     0.003 C 
BRANCH  43  44
ATOM     44  C   UNL     1      62.607  33.722  60.136  1.00  0.00     0.001 C 
BRANCH  44  45
ATOM     45  C   UNL     1      62.875  35.144  60.658  1.00  0.00     0.008 C 
BRANCH  45  46
ATOM     46  C   UNL     1      61.673  36.103  60.565  1.00  0.00     0.075 C 
BRANCH  46  47
ATOM     47  C   UNL     1      61.331  36.499  59.148  1.00  0.00     0.132 C 
ATOM     48  O   UNL     1      62.199  36.969  58.431  1.00  0.00    -0.300 OA
BRANCH  47  49
ATOM     49  C   UNL     1      59.950  36.280  58.580  1.00  0.00     0.072 C 
ATOM     50  C   UNL     1      59.800  34.867  58.020  1.00  0.00     0.012 C 
ENDBRANCH  47  49
ENDBRANCH  46  47
ENDBRANCH  45  46
ENDBRANCH  44  45
ENDBRANCH  43  44
ENDBRANCH   1  43
TORSDOF 12
ENDMDL
MODEL 2
REMARK VINA RESULT:    -4.335      8.555     12.238
REMARK INTER + INTRA:         -11.194
REMARK INTER:                  -8.953
REMARK INTRA:                  -2.242
REMARK UNBOUND:                -2.044
REMARK SMILES CCC(=O)CCCCC[C@H]1NC(=O)[C@H]2CCCCN2C(=O)[C@H]([C@H](C)CC)NC(=O)[C@@H](Cc2cn(OC)c3ccccc23)NC1=O
REMARK SMILES IDX 9 1 10 2 44 3 43 4 45 6 30 7 28 8 27 9 29 11 22 12 23 14
REMARK SMILES IDX 24 15 25 16 26 17 31 18 32 19 33 20 42 21 34 22 37 23 41 24
REMARK SMILES IDX 38 25 40 26 39 27 35 28 36 29 11 30 12 31 13 33 14 34 19 35
REMARK SMILES IDX 15 36 18 37 16 38 17 39 20 40 21 41 8 43 7 44 6 45 5 46 3 47
REMARK SMILES IDX 4 48 2 49 1 50
REMARK H PARENT 43 5 27 10 11 32
REMARK Flexibility Score: 80.00
ROOT
ATOM      1  C   UNL     1      61.534  22.895  51.181  1.00  0.00     0.035 C 
ENDROOT
BRANCH   1   2
ATOM      2  C   UNL     1      60.452  23.971  50.922  1.00  0.00     0.171 C 
BRANCH   2   3
ATOM      3  C   UNL     1      61.024  25.169  50.207  1.00  0.00     0.243 C 
ATOM      4  N   UNL     1      60.160  26.046  49.476  1.00  0.00    -0.342 N 
ATOM      5  H   UNL     1      59.424  25.585  48.892  1.00  0.00     0.164 HD
ATOM      6  O   UNL     1      62.273  25.338  50.171  1.00  0.00    -0.273 OA
BRANCH   4   7
ATOM      7  C   UNL     1      60.359  27.496  49.335  1.00  0.00     0.175 C 
BRANCH   7   8
ATOM      8  C   UNL     1      59.023  28.192  49.396  1.00  0.00     0.243 C 
ATOM      9  N   UNL     1      57.956  27.649  50.185  1.00  0.00    -0.342 N 
ATOM     10  H   UNL     1      57.592  26.698  49.949  1.00  0.00     0.164 HD
ATOM     11  O   UNL     1      58.877  29.309  48.831  1.00  0.00    -0.273 OA
BRANCH   9  12
ATOM     12  C   UNL     1      57.434  28.336  51.369  1.00  0.00     0.174 CG0
ATOM     13  G   UNL     1      58.100  27.790  52.618  1.00  0.00     0.000 G0
BRANCH  12  14
ATOM     14  C   UNL     1      55.875  28.267  51.455  1.00  0.00     0.018 C 
ATOM     15  C   UNL     1      55.278  27.218  50.495  1.00  0.00     0.010 C 
BRANCH  14  16
ATOM     16  C   UNL     1      55.203  29.641  51.201  1.00  0.00     0.002 C 
ATOM     17  C   UNL     1      53.677  29.553  51.121  1.00  0.00     0.004 C 
ENDBRANCH  14  16
ENDBRANCH  12  14
ENDBRANCH   9  12
ENDBRANCH   7   8
BRANCH   7  18
ATOM     18  C   UNL     1      61.277  28.076  50.440  1.00  0.00     0.073 C 
BRANCH  18  19
ATOM     19  C   UNL     1      62.223  29.114  49.899  1.00  0.00    -0.016 A 
ATOM     20  C   UNL     1      62.032  30.493  49.935  1.00  0.00     0.134 A 
ATOM     21  C   UNL     1      63.434  28.917  49.248  1.00  0.00     0.006 A 
ATOM     22  N   UNL     1      63.082  31.119  49.349  1.00  0.00    -0.191 N 
ATOM     23  C   UNL     1      63.926  30.160  48.935  1.00  0.00     0.087 A 
ATOM     24  C   UNL     1      64.120  27.751  48.900  1.00  0.00     0.011 A 
ATOM     25  C   UNL     1      65.138  30.324  48.266  1.00  0.00     0.030 A 
ATOM     26  C   UNL     1      65.349  27.887  48.231  1.00  0.00     0.001 A 
ATOM     27  C   UNL     1      65.854  29.166  47.915  1.00  0.00     0.002 A 
BRANCH  22  28
ATOM     28  O   UNL     1      63.267  32.481  49.182  1.00  0.00    -0.417 OA
ATOM     29  C   UNL     1      62.245  33.334  48.679  1.00  0.00     0.313 C 
ENDBRANCH  22  28
ENDBRANCH  18  19
ENDBRANCH   7  18
ENDBRANCH   4   7
ENDBRANCH   2   3
BRANCH   2  30
ATOM     30  N   UNL     1      59.783  24.377  52.170  1.00  0.00    -0.343 N 
ATOM     31  C   UNL     1      58.436  24.876  52.248  1.00  0.00     0.243 C 
ATOM     32  H   UNL     1      60.339  24.300  53.050  1.00  0.00     0.164 HD
ATOM     33  O   UNL     1      57.725  24.950  51.208  1.00  0.00    -0.273 OA
BRANCH  31  34
ATOM     34  C   UNL     1      57.906  25.414  53.559  1.00  0.00     0.174 C 
ATOM     35  N   UNL     1      57.468  26.827  53.506  1.00  0.00    -0.329 N 
ATOM     36  C   UNL     1      58.951  25.240  54.673  1.00  0.00     0.035 C 
ATOM     37  C   UNL     1      56.882  27.328  54.755  1.00  0.00     0.120 C 
ATOM     38  C   UNL     1      58.399  25.747  56.012  1.00  0.00     0.004 C 
ATOM     39  C   UNL     1      57.895  27.192  55.898  1.00  0.00     0.022 C 
BRANCH  35  40
ATOM     40  C   UNL     1      58.103  27.790  52.642  1.00  0.00     0.246 CG0
ATOM     41  O   UNL     1      59.237  28.239  52.954  1.00  0.00    -0.272 OA
ATOM     42  G   UNL     1      57.427  28.303  51.385  1.00  0.00     0.000 G0
ENDBRANCH  35  40
ENDBRANCH  31  34
ENDBRANCH   2  30
ENDBRANCH   1   2
BRANCH   1  43
ATOM     43  C   UNL     1      61.009  21.450  51.102  1.00  0.00     0.003 C 
BRANCH  43  44
ATOM     44  C   UNL     1      59.709  21.253  51.899  1.00  0.00     0.001 C 
BRANCH  44  45
ATOM     45  C   UNL     1      59.024  19.908  51.600  1.00  0.00     0.008 C 
BRANCH  45  46
ATOM     46  C   UNL     1      58.279  19.284  52.796  1.00  0.00     0.075 C 
BRANCH  46  47
ATOM     47  C   UNL     1      56.833  18.963  52.499  1.00  0.00     0.132 C 
ATOM     48  O   UNL     1      56.411  19.098  51.362  1.00  0.00    -0.300 OA
BRANCH  47  49
ATOM     49  C   UNL     1      55.908  18.434  53.566  1.00  0.00     0.072 C 
ATOM     50  C   UNL     1      55.772  19.423  54.721  1.00  0.00     0.012 C 
ENDBRANCH  47  49
ENDBRANCH  46  47
ENDBRANCH  45  46
ENDBRANCH  44  45
ENDBRANCH  43  44
ENDBRANCH   1  43
TORSDOF 12
ENDMDL
MODEL 3
REMARK VINA RESULT:    -4.327      9.031     11.413
REMARK INTER + INTRA:         -11.176
REMARK INTER:                  -8.443
REMARK INTRA:                  -2.733
REMARK UNBOUND:                -2.044
REMARK SMILES CCC(=O)CCCCC[C@H]1NC(=O)[C@H]2CCCCN2C(=O)[C@H]([C@H](C)CC)NC(=O)[C@@H](Cc2cn(OC)c3ccccc23)NC1=O
REMARK SMILES IDX 9 1 10 2 44 3 43 4 45 6 30 7 28 8 27 9 29 11 22 12 23 14
REMARK SMILES IDX 24 15 25 16 26 17 31 18 32 19 33 20 42 21 34 22 37 23 41 24
REMARK SMILES IDX 38 25 40 26 39 27 35 28 36 29 11 30 12 31 13 33 14 34 19 35
REMARK SMILES IDX 15 36 18 37 16 38 17 39 20 40 21 41 8 43 7 44 6 45 5 46 3 47
REMARK SMILES IDX 4 48 2 49 1 50
REMARK H PARENT 43 5 27 10 11 32
REMARK Flexibility Score: 80.00
ROOT
ATOM      1  C   UNL     1      57.066  27.299  50.554  1.00  0.00     0.035 C 
ENDROOT
BRANCH   1   2
ATOM      2  C   UNL     1      58.449  27.279  51.247  1.00  0.00     0.171 C 
BRANCH   2   3
ATOM      3  C   UNL     1      59.325  28.409  50.765  1.00  0.00     0.243 C 
ATOM      4  N   UNL     1      60.241  29.039  51.667  1.00  0.00    -0.342 N 
ATOM      5  H   UNL     1      59.876  29.239  52.627  1.00  0.00     0.164 HD
ATOM      6  O   UNL     1      59.176  28.861  49.598  1.00  0.00    -0.273 OA
BRANCH   4   7
ATOM      7  C   UNL     1      61.550  29.590  51.286  1.00  0.00     0.175 C 
BRANCH   7   8
ATOM      8  C   UNL     1      62.636  28.869  52.044  1.00  0.00     0.243 C 
ATOM      9  N   UNL     1      62.492  27.481  52.376  1.00  0.00    -0.342 N 
ATOM     10  H   UNL     1      61.697  27.193  52.990  1.00  0.00     0.164 HD
ATOM     11  O   UNL     1      63.717  29.464  52.299  1.00  0.00    -0.273 OA
BRANCH   9  12
ATOM     12  C   UNL     1      63.356  26.448  51.801  1.00  0.00     0.174 CG0
ATOM     13  G   UNL     1      62.519  25.444  51.032  1.00  0.00     0.000 G0
BRANCH  12  14
ATOM     14  C   UNL     1      64.258  25.762  52.879  1.00  0.00     0.018 C 
ATOM     15  C   UNL     1      64.083  26.388  54.277  1.00  0.00     0.010 C 
BRANCH  14  16
ATOM     16  C   UNL     1      65.759  25.772  52.491  1.00  0.00     0.002 C 
ATOM     17  C   UNL     1      65.983  25.782  50.977  1.00  0.00     0.004 C 
ENDBRANCH  14  16
ENDBRANCH  12  14
ENDBRANCH   9  12
ENDBRANCH   7   8
BRANCH   7  18
ATOM     18  C   UNL     1      61.827  29.458  49.768  1.00  0.00     0.073 C 
BRANCH  18  19
ATOM     19  C   UNL     1      63.132  30.097  49.375  1.00  0.00    -0.016 A 
ATOM     20  C   UNL     1      63.508  31.413  49.631  1.00  0.00     0.134 A 
ATOM     21  C   UNL     1      64.188  29.531  48.675  1.00  0.00     0.006 A 
ATOM     22  N   UNL     1      64.744  31.646  49.128  1.00  0.00    -0.191 N 
ATOM     23  C   UNL     1      65.151  30.503  48.550  1.00  0.00     0.087 A 
ATOM     24  C   UNL     1      64.364  28.256  48.132  1.00  0.00     0.011 A 
ATOM     25  C   UNL     1      66.354  30.266  47.887  1.00  0.00     0.030 A 
ATOM     26  C   UNL     1      65.573  27.986  47.465  1.00  0.00     0.001 A 
ATOM     27  C   UNL     1      66.561  28.986  47.343  1.00  0.00     0.002 A 
BRANCH  22  28
ATOM     28  O   UNL     1      65.466  32.825  49.172  1.00  0.00    -0.417 OA
ATOM     29  C   UNL     1      65.494  33.745  48.086  1.00  0.00     0.313 C 
ENDBRANCH  22  28
ENDBRANCH  18  19
ENDBRANCH   7  18
ENDBRANCH   4   7
ENDBRANCH   2   3
BRANCH   2  30
ATOM     30  N   UNL     1      59.125  25.982  51.069  1.00  0.00    -0.343 N 
ATOM     31  C   UNL     1      59.744  25.233  52.130  1.00  0.00     0.243 C 
ATOM     32  H   UNL     1      59.155  25.595  50.100  1.00  0.00     0.164 HD
ATOM     33  O   UNL     1      59.696  25.656  53.318  1.00  0.00    -0.273 OA
BRANCH  31  34
ATOM     34  C   UNL     1      60.548  23.993  51.808  1.00  0.00     0.174 C 
ATOM     35  N   UNL     1      61.991  24.240  51.593  1.00  0.00    -0.329 N 
ATOM     36  C   UNL     1      59.960  23.275  50.582  1.00  0.00     0.035 C 
ATOM     37  C   UNL     1      62.786  23.028  51.357  1.00  0.00     0.120 C 
ATOM     38  C   UNL     1      60.749  21.994  50.280  1.00  0.00     0.004 C 
ATOM     39  C   UNL     1      62.248  22.283  50.130  1.00  0.00     0.022 C 
BRANCH  35  40
ATOM     40  C   UNL     1      62.477  25.470  51.020  1.00  0.00     0.246 CG0
ATOM     41  O   UNL     1      62.199  25.740  49.822  1.00  0.00    -0.272 OA
ATOM     42  G   UNL     1      63.343  26.431  51.811  1.00  0.00     0.000 G0
ENDBRANCH  35  40
ENDBRANCH  31  34
ENDBRANCH   2  30
ENDBRANCH   1   2
BRANCH   1  43
ATOM     43  C   UNL     1      56.364  25.929  50.521  1.00  0.00     0.003 C 
BRANCH  43  44
ATOM     44  C   UNL     1      55.201  25.890  49.516  1.00  0.00     0.001 C 
BRANCH  44  45
ATOM     45  C   UNL     1      53.859  26.313  50.139  1.00  0.00     0.008 C 
BRANCH  45  46
ATOM     46  C   UNL     1      53.386  27.728  49.752  1.00  0.00     0.075 C 
BRANCH  46  47
ATOM     47  C   UNL     1      53.660  28.763  50.818  1.00  0.00     0.132 C 
ATOM     48  O   UNL     1      54.021  29.881  50.488  1.00  0.00    -0.300 OA
BRANCH  47  49
ATOM     49  C   UNL     1      53.451  28.461  52.281  1.00  0.00     0.072 C 
ATOM     50  C   UNL     1      54.749  28.620  53.069  1.00  0.00     0.012 C 
ENDBRANCH  47  49
ENDBRANCH  46  47
ENDBRANCH  45  46
ENDBRANCH  44  45
ENDBRANCH  43  44
ENDBRANCH   1  43
TORSDOF 12
ENDMDL
MODEL 4
REMARK VINA RESULT:    -4.272      8.427     11.432
REMARK INTER + INTRA:         -11.061
REMARK INTER:                  -8.252
REMARK INTRA:                  -2.809
REMARK UNBOUND:                -2.044
REMARK SMILES CCC(=O)CCCCC[C@H]1NC(=O)[C@H]2CCCCN2C(=O)[C@H]([C@H](C)CC)NC(=O)[C@@H](Cc2cn(OC)c3ccccc23)NC1=O
REMARK SMILES IDX 9 1 10 2 44 3 43 4 45 6 30 7 28 8 27 9 29 11 22 12 23 14
REMARK SMILES IDX 24 15 25 16 26 17 31 18 32 19 33 20 42 21 34 22 37 23 41 24
REMARK SMILES IDX 38 25 40 26 39 27 35 28 36 29 11 30 12 31 13 33 14 34 19 35
REMARK SMILES IDX 15 36 18 37 16 38 17 39 20 40 21 41 8 43 7 44 6 45 5 46 3 47
REMARK SMILES IDX 4 48 2 49 1 50
REMARK H PARENT 43 5 27 10 11 32
REMARK Flexibility Score: 80.00
ROOT
ATOM      1  C   UNL     1      55.536  27.410  50.258  1.00  0.00     0.035 C 
ENDROOT
BRANCH   1   2
ATOM      2  C   UNL     1      57.067  27.303  50.055  1.00  0.00     0.171 C 
BRANCH   2   3
ATOM      3  C   UNL     1      57.571  25.918  50.374  1.00  0.00     0.243 C 
ATOM      4  N   UNL     1      58.784  25.444  49.781  1.00  0.00    -0.342 N 
ATOM      5  H   UNL     1      58.914  25.658  48.765  1.00  0.00     0.164 HD
ATOM      6  O   UNL     1      56.870  25.145  51.083  1.00  0.00    -0.273 OA
BRANCH   4   7
ATOM      7  C   UNL     1      59.736  24.531  50.431  1.00  0.00     0.175 C 
BRANCH   7   8
ATOM      8  C   UNL     1      61.139  25.044  50.228  1.00  0.00     0.243 C 
ATOM      9  N   UNL     1      61.381  26.445  50.040  1.00  0.00    -0.342 N 
ATOM     10  H   UNL     1      60.952  26.922  49.215  1.00  0.00     0.164 HD
ATOM     11  O   UNL     1      62.113  24.249  50.323  1.00  0.00    -0.273 OA
BRANCH   9  12
ATOM     12  C   UNL     1      62.118  27.247  51.020  1.00  0.00     0.174 CG0
ATOM     13  G   UNL     1      61.147  28.026  51.885  1.00  0.00     0.000 G0
BRANCH  12  14
ATOM     14  C   UNL     1      63.182  28.174  50.346  1.00  0.00     0.018 C 
ATOM     15  C   UNL     1      63.431  27.809  48.868  1.00  0.00     0.010 C 
BRANCH  14  16
ATOM     16  C   UNL     1      64.531  28.185  51.110  1.00  0.00     0.002 C 
ATOM     17  C   UNL     1      65.219  29.553  51.082  1.00  0.00     0.004 C 
ENDBRANCH  14  16
ENDBRANCH  12  14
ENDBRANCH   9  12
ENDBRANCH   7   8
BRANCH   7  18
ATOM     18  C   UNL     1      59.472  24.385  51.950  1.00  0.00     0.073 C 
BRANCH  18  19
ATOM     19  C   UNL     1      59.198  22.957  52.340  1.00  0.00    -0.016 A 
ATOM     20  C   UNL     1      59.921  21.842  51.922  1.00  0.00     0.134 A 
ATOM     21  C   UNL     1      58.184  22.467  53.150  1.00  0.00     0.006 A 
ATOM     22  N   UNL     1      59.389  20.719  52.462  1.00  0.00    -0.191 N 
ATOM     23  C   UNL     1      58.338  21.103  53.204  1.00  0.00     0.087 A 
ATOM     24  C   UNL     1      57.142  23.111  53.822  1.00  0.00     0.011 A 
ATOM     25  C   UNL     1      57.473  20.293  53.938  1.00  0.00     0.030 A 
ATOM     26  C   UNL     1      56.258  22.319  54.577  1.00  0.00     0.001 A 
ATOM     27  C   UNL     1      56.423  20.919  54.633  1.00  0.00     0.002 A 
BRANCH  22  28
ATOM     28  O   UNL     1      59.817  19.414  52.288  1.00  0.00    -0.417 OA
ATOM     29  C   UNL     1      60.029  18.846  51.000  1.00  0.00     0.313 C 
ENDBRANCH  22  28
ENDBRANCH  18  19
ENDBRANCH   7  18
ENDBRANCH   4   7
ENDBRANCH   2   3
BRANCH   2  30
ATOM     30  N   UNL     1      57.789  28.316  50.843  1.00  0.00    -0.343 N 
ATOM     31  C   UNL     1      58.867  29.126  50.339  1.00  0.00     0.243 C 
ATOM     32  H   UNL     1      57.493  28.440  51.837  1.00  0.00     0.164 HD
ATOM     33  O   UNL     1      59.226  29.024  49.134  1.00  0.00    -0.273 OA
BRANCH  31  34
ATOM     34  C   UNL     1      59.642  30.020  51.281  1.00  0.00     0.174 C 
ATOM     35  N   UNL     1      60.941  29.462  51.722  1.00  0.00    -0.329 N 
ATOM     36  C   UNL     1      58.790  30.373  52.510  1.00  0.00     0.035 C 
ATOM     37  C   UNL     1      61.730  30.361  52.573  1.00  0.00     0.120 C 
ATOM     38  C   UNL     1      59.560  31.315  53.446  1.00  0.00     0.004 C 
ATOM     39  C   UNL     1      60.927  30.731  53.826  1.00  0.00     0.022 C 
BRANCH  35  40
ATOM     40  C   UNL     1      61.143  28.045  51.890  1.00  0.00     0.246 CG0
ATOM     41  O   UNL     1      60.511  27.440  52.795  1.00  0.00    -0.272 OA
ATOM     42  G   UNL     1      62.125  27.271  51.032  1.00  0.00     0.000 G0
ENDBRANCH  35  40
ENDBRANCH  31  34
ENDBRANCH   2  30
ENDBRANCH   1   2
BRANCH   1  43
ATOM     43  C   UNL     1      55.107  28.565  51.181  1.00  0.00     0.003 C 
BRANCH  43  44
ATOM     44  C   UNL     1      53.964  29.400  50.584  1.00  0.00     0.001 C 
BRANCH  44  45
ATOM     45  C   UNL     1      53.315  30.346  51.610  1.00  0.00     0.008 C 
BRANCH  45  46
ATOM     46  C   UNL     1      53.423  29.880  53.075  1.00  0.00     0.075 C 
BRANCH  46  47
ATOM     47  C   UNL     1      54.115  30.880  53.971  1.00  0.00     0.132 C 
ATOM     48  O   UNL     1      53.958  30.812  55.180  1.00  0.00    -0.300 OA
BRANCH  47  49
ATOM     49  C   UNL     1      55.036  31.936  53.411  1.00  0.00     0.072 C 
ATOM     50  C   UNL     1      55.764  32.682  54.526  1.00  0.00     0.012 C 
ENDBRANCH  47  49
ENDBRANCH  46  47
ENDBRANCH  45  46
ENDBRANCH  44  45
ENDBRANCH  43  44
ENDBRANCH   1  43
TORSDOF 12
ENDMDL
MODEL 5
REMARK VINA RESULT:    -4.267      2.953      8.932
REMARK INTER + INTRA:         -11.051
REMARK INTER:                  -8.598
REMARK INTRA:                  -2.453
REMARK UNBOUND:                -2.044
REMARK SMILES CCC(=O)CCCCC[C@H]1NC(=O)[C@H]2CCCCN2C(=O)[C@H]([C@H](C)CC)NC(=O)[C@@H](Cc2cn(OC)c3ccccc23)NC1=O
REMARK SMILES IDX 9 1 10 2 44 3 43 4 45 6 30 7 28 8 27 9 29 11 22 12 23 14
REMARK SMILES IDX 24 15 25 16 26 17 31 18 32 19 33 20 42 21 34 22 37 23 41 24
REMARK SMILES IDX 38 25 40 26 39 27 35 28 36 29 11 30 12 31 13 33 14 34 19 35
REMARK SMILES IDX 15 36 18 37 16 38 17 39 20 40 21 41 8 43 7 44 6 45 5 46 3 47
REMARK SMILES IDX 4 48 2 49 1 50
REMARK H PARENT 43 5 27 10 11 32
REMARK Flexibility Score: 80.00
ROOT
ATOM      1  C   UNL     1      66.337  27.455  60.289  1.00  0.00     0.035 C 
ENDROOT
BRANCH   1   2
ATOM      2  C   UNL     1      65.523  28.758  60.478  1.00  0.00     0.171 C 
BRANCH   2   3
ATOM      3  C   UNL     1      64.089  28.465  60.841  1.00  0.00     0.243 C 
ATOM      4  N   UNL     1      63.337  29.412  61.608  1.00  0.00    -0.342 N 
ATOM      5  H   UNL     1      63.839  29.852  62.414  1.00  0.00     0.164 HD
ATOM      6  O   UNL     1      63.587  27.344  60.554  1.00  0.00    -0.273 OA
BRANCH   4   7
ATOM      7  C   UNL     1      61.892  29.648  61.468  1.00  0.00     0.175 C 
BRANCH   7   8
ATOM      8  C   UNL     1      61.633  31.132  61.407  1.00  0.00     0.243 C 
ATOM      9  N   UNL     1      62.546  32.003  60.726  1.00  0.00    -0.342 N 
ATOM     10  H   UNL     1      63.532  32.062  61.067  1.00  0.00     0.164 HD
ATOM     11  O   UNL     1      60.557  31.595  61.874  1.00  0.00    -0.273 OA
BRANCH   9  12
ATOM     12  C   UNL     1      62.170  32.728  59.510  1.00  0.00     0.174 CG0
ATOM     13  G   UNL     1      62.841  32.098  58.304  1.00  0.00     0.000 G0
BRANCH  12  14
ATOM     14  C   UNL     1      62.468  34.259  59.617  1.00  0.00     0.018 C 
ATOM     15  C   UNL     1      63.103  34.643  60.969  1.00  0.00     0.010 C 
BRANCH  14  16
ATOM     16  C   UNL     1      61.208  35.129  59.372  1.00  0.00     0.002 C 
ATOM     17  C   UNL     1      61.009  36.205  60.444  1.00  0.00     0.004 C 
ENDBRANCH  14  16
ENDBRANCH  12  14
ENDBRANCH   9  12
ENDBRANCH   7   8
BRANCH   7  18
ATOM     18  C   UNL     1      61.305  28.985  60.198  1.00  0.00     0.073 C 
BRANCH  18  19
ATOM     19  C   UNL     1      60.025  28.249  60.486  1.00  0.00    -0.016 A 
ATOM     20  C   UNL     1      59.865  27.215  61.405  1.00  0.00     0.134 A 
ATOM     21  C   UNL     1      58.781  28.425  59.895  1.00  0.00     0.006 A 
ATOM     22  N   UNL     1      58.581  26.783  61.395  1.00  0.00    -0.191 N 
ATOM     23  C   UNL     1      57.930  27.519  60.479  1.00  0.00     0.087 A 
ATOM     24  C   UNL     1      58.347  29.293  58.890  1.00  0.00     0.011 A 
ATOM     25  C   UNL     1      56.589  27.425  60.109  1.00  0.00     0.030 A 
ATOM     26  C   UNL     1      56.997  29.225  58.503  1.00  0.00     0.001 A 
ATOM     27  C   UNL     1      56.124  28.296  59.108  1.00  0.00     0.002 A 
BRANCH  22  28
ATOM     28  O   UNL     1      58.023  25.773  62.159  1.00  0.00    -0.417 OA
ATOM     29  C   UNL     1      58.737  24.589  62.497  1.00  0.00     0.313 C 
ENDBRANCH  22  28
ENDBRANCH  18  19
ENDBRANCH   7  18
ENDBRANCH   4   7
ENDBRANCH   2   3
BRANCH   2  30
ATOM     30  N   UNL     1      65.595  29.618  59.285  1.00  0.00    -0.343 N 
ATOM     31  C   UNL     1      65.439  31.048  59.300  1.00  0.00     0.243 C 
ATOM     32  H   UNL     1      65.764  29.144  58.370  1.00  0.00     0.164 HD
ATOM     33  O   UNL     1      65.266  31.656  60.392  1.00  0.00    -0.273 OA
BRANCH  31  34
ATOM     34  C   UNL     1      65.371  31.813  57.997  1.00  0.00     0.174 C 
ATOM     35  N   UNL     1      64.107  32.556  57.789  1.00  0.00    -0.329 N 
ATOM     36  C   UNL     1      65.616  30.871  56.807  1.00  0.00     0.035 C 
ATOM     37  C   UNL     1      64.071  33.361  56.562  1.00  0.00     0.120 C 
ATOM     38  C   UNL     1      65.590  31.654  55.487  1.00  0.00     0.004 C 
ATOM     39  C   UNL     1      64.294  32.461  55.341  1.00  0.00     0.022 C 
BRANCH  35  40
ATOM     40  C   UNL     1      62.849  32.076  58.303  1.00  0.00     0.246 CG0
ATOM     41  O   UNL     1      62.277  31.116  57.722  1.00  0.00    -0.272 OA
ATOM     42  G   UNL     1      62.177  32.720  59.500  1.00  0.00     0.000 G0
ENDBRANCH  35  40
ENDBRANCH  31  34
ENDBRANCH   2  30
ENDBRANCH   1   2
BRANCH   1  43
ATOM     43  C   UNL     1      67.826  27.689  59.973  1.00  0.00     0.003 C 
BRANCH  43  44
ATOM     44  C   UNL     1      68.410  28.881  60.748  1.00  0.00     0.001 C 
BRANCH  44  45
ATOM     45  C   UNL     1      69.948  28.863  60.800  1.00  0.00     0.008 C 
BRANCH  45  46
ATOM     46  C   UNL     1      70.604  30.246  60.979  1.00  0.00     0.075 C 
BRANCH  46  47
ATOM     47  C   UNL     1      70.863  30.958  59.672  1.00  0.00     0.132 C 
ATOM     48  O   UNL     1      71.016  32.169  59.669  1.00  0.00    -0.300 OA
BRANCH  47  49
ATOM     49  C   UNL     1      70.987  30.201  58.373  1.00  0.00     0.072 C 
ATOM     50  C   UNL     1      72.382  30.355  57.773  1.00  0.00     0.012 C 
ENDBRANCH  47  49
ENDBRANCH  46  47
ENDBRANCH  45  46
ENDBRANCH  44  45
ENDBRANCH  43  44
ENDBRANCH   1  43
TORSDOF 12
ENDMDL
MODEL 6
REMARK VINA RESULT:    -4.196      9.197     11.959
REMARK INTER + INTRA:         -10.901
REMARK INTER:                  -7.966
REMARK INTRA:                  -2.935
REMARK UNBOUND:                -2.044
REMARK SMILES CCC(=O)CCCCC[C@H]1NC(=O)[C@H]2CCCCN2C(=O)[C@H]([C@H](C)CC)NC(=O)[C@@H](Cc2cn(OC)c3ccccc23)NC1=O
REMARK SMILES IDX 9 1 10 2 44 3 43 4 45 6 30 7 28 8 27 9 29 11 22 12 23 14
REMARK SMILES IDX 24 15 25 16 26 17 31 18 32 19 33 20 42 21 34 22 37 23 41 24
REMARK SMILES IDX 38 25 40 26 39 27 35 28 36 29 11 30 12 31 13 33 14 34 19 35
REMARK SMILES IDX 15 36 18 37 16 38 17 39 20 40 21 41 8 43 7 44 6 45 5 46 3 47
REMARK SMILES IDX 4 48 2 49 1 50
REMARK H PARENT 43 5 27 10 11 32
REMARK Flexibility Score: 80.00
ROOT
ATOM      1  C   UNL     1      61.447  27.327  51.304  1.00  0.00     0.035 C 
ENDROOT
BRANCH   1   2
ATOM      2  C   UNL     1      61.257  28.863  51.280  1.00  0.00     0.171 C 
BRANCH   2   3
ATOM      3  C   UNL     1      62.283  29.532  50.399  1.00  0.00     0.243 C 
ATOM      4  N   UNL     1      61.944  30.726  49.685  1.00  0.00    -0.342 N 
ATOM      5  H   UNL     1      61.003  30.736  49.228  1.00  0.00     0.164 HD
ATOM      6  O   UNL     1      63.404  28.983  50.216  1.00  0.00    -0.273 OA
BRANCH   4   7
ATOM      7  C   UNL     1      62.879  31.822  49.390  1.00  0.00     0.175 C 
BRANCH   7   8
ATOM      8  C   UNL     1      62.341  33.106  49.969  1.00  0.00     0.243 C 
ATOM      9  N   UNL     1      61.551  33.090  51.165  1.00  0.00    -0.342 N 
ATOM     10  H   UNL     1      60.647  32.565  51.162  1.00  0.00     0.164 HD
ATOM     11  O   UNL     1      62.671  34.208  49.453  1.00  0.00    -0.273 OA
BRANCH   9  12
ATOM     12  C   UNL     1      62.018  33.693  52.416  1.00  0.00     0.174 CG0
ATOM     13  G   UNL     1      62.196  32.619  53.472  1.00  0.00     0.000 G0
BRANCH  12  14
ATOM     14  C   UNL     1      61.082  34.848  52.902  1.00  0.00     0.018 C 
ATOM     15  C   UNL     1      59.979  35.183  51.878  1.00  0.00     0.010 C 
BRANCH  14  16
ATOM     16  C   UNL     1      61.866  36.138  53.259  1.00  0.00     0.002 C 
ATOM     17  C   UNL     1      62.518  36.795  52.039  1.00  0.00     0.004 C 
ENDBRANCH  14  16
ENDBRANCH  12  14
ENDBRANCH   9  12
ENDBRANCH   7   8
BRANCH   7  18
ATOM     18  C   UNL     1      64.292  31.565  49.968  1.00  0.00     0.073 C 
BRANCH  18  19
ATOM     19  C   UNL     1      65.351  31.589  48.899  1.00  0.00    -0.016 A 
ATOM     20  C   UNL     1      65.777  30.498  48.146  1.00  0.00     0.134 A 
ATOM     21  C   UNL     1      66.119  32.665  48.475  1.00  0.00     0.006 A 
ATOM     22  N   UNL     1      66.750  30.884  47.284  1.00  0.00    -0.191 N 
ATOM     23  C   UNL     1      66.952  32.196  47.489  1.00  0.00     0.087 A 
ATOM     24  C   UNL     1      66.156  33.998  48.889  1.00  0.00     0.011 A 
ATOM     25  C   UNL     1      67.868  33.026  46.844  1.00  0.00     0.030 A 
ATOM     26  C   UNL     1      67.064  34.860  48.250  1.00  0.00     0.001 A 
ATOM     27  C   UNL     1      67.915  34.376  47.234  1.00  0.00     0.002 A 
BRANCH  22  28
ATOM     28  O   UNL     1      67.430  30.098  46.371  1.00  0.00    -0.417 OA
ATOM     29  C   UNL     1      67.647  28.706  46.574  1.00  0.00     0.313 C 
ENDBRANCH  22  28
ENDBRANCH  18  19
ENDBRANCH   7  18
ENDBRANCH   4   7
ENDBRANCH   2   3
BRANCH   2  30
ATOM     30  N   UNL     1      61.283  29.432  52.637  1.00  0.00    -0.343 N 
ATOM     31  C   UNL     1      60.312  30.363  53.149  1.00  0.00     0.243 C 
ATOM     32  H   UNL     1      62.069  29.139  53.258  1.00  0.00     0.164 HD
ATOM     33  O   UNL     1      59.331  30.713  52.437  1.00  0.00    -0.273 OA
BRANCH  31  34
ATOM     34  C   UNL     1      60.524  31.006  54.502  1.00  0.00     0.174 C 
ATOM     35  N   UNL     1      61.224  32.310  54.454  1.00  0.00    -0.329 N 
ATOM     36  C   UNL     1      61.280  30.050  55.439  1.00  0.00     0.035 C 
ATOM     37  C   UNL     1      61.363  32.973  55.757  1.00  0.00     0.120 C 
ATOM     38  C   UNL     1      61.459  30.685  56.825  1.00  0.00     0.004 C 
ATOM     39  C   UNL     1      62.127  32.063  56.726  1.00  0.00     0.022 C 
BRANCH  35  40
ATOM     40  C   UNL     1      62.220  32.604  53.454  1.00  0.00     0.246 CG0
ATOM     41  O   UNL     1      63.297  31.952  53.453  1.00  0.00    -0.272 OA
ATOM     42  G   UNL     1      62.020  33.701  52.427  1.00  0.00     0.000 G0
ENDBRANCH  35  40
ENDBRANCH  31  34
ENDBRANCH   2  30
ENDBRANCH   1   2
BRANCH   1  43
ATOM     43  C   UNL     1      60.794  26.598  50.115  1.00  0.00     0.003 C 
BRANCH  43  44
ATOM     44  C   UNL     1      59.966  25.380  50.556  1.00  0.00     0.001 C 
BRANCH  44  45
ATOM     45  C   UNL     1      58.505  25.447  50.078  1.00  0.00     0.008 C 
BRANCH  45  46
ATOM     46  C   UNL     1      57.486  25.826  51.170  1.00  0.00     0.075 C 
BRANCH  46  47
ATOM     47  C   UNL     1      57.508  27.295  51.524  1.00  0.00     0.132 C 
ATOM     48  O   UNL     1      57.986  27.647  52.590  1.00  0.00    -0.300 OA
BRANCH  47  49
ATOM     49  C   UNL     1      56.996  28.344  50.568  1.00  0.00     0.072 C 
ATOM     50  C   UNL     1      55.714  28.989  51.090  1.00  0.00     0.012 C 
ENDBRANCH  47  49
ENDBRANCH  46  47
ENDBRANCH  45  46
ENDBRANCH  44  45
ENDBRANCH  43  44
ENDBRANCH   1  43
TORSDOF 12
ENDMDL
MODEL 7
REMARK VINA RESULT:    -4.191      9.268     11.916
REMARK INTER + INTRA:         -10.890
REMARK INTER:                  -8.276
REMARK INTRA:                  -2.614
REMARK UNBOUND:                -2.044
REMARK SMILES CCC(=O)CCCCC[C@H]1NC(=O)[C@H]2CCCCN2C(=O)[C@H]([C@H](C)CC)NC(=O)[C@@H](Cc2cn(OC)c3ccccc23)NC1=O
REMARK SMILES IDX 9 1 10 2 44 3 43 4 45 6 30 7 28 8 27 9 29 11 22 12 23 14
REMARK SMILES IDX 24 15 25 16 26 17 31 18 32 19 33 20 42 21 34 22 37 23 41 24
REMARK SMILES IDX 38 25 40 26 39 27 35 28 36 29 11 30 12 31 13 33 14 34 19 35
REMARK SMILES IDX 15 36 18 37 16 38 17 39 20 40 21 41 8 43 7 44 6 45 5 46 3 47
REMARK SMILES IDX 4 48 2 49 1 50
REMARK H PARENT 43 5 27 10 11 32
REMARK Flexibility Score: 80.00
ROOT
ATOM      1  C   UNL     1      60.678  27.183  51.212  1.00  0.00     0.035 C 
ENDROOT
BRANCH   1   2
ATOM      2  C   UNL     1      60.698  28.730  51.246  1.00  0.00     0.171 C 
BRANCH   2   3
ATOM      3  C   UNL     1      61.760  29.289  50.332  1.00  0.00     0.243 C 
ATOM      4  N   UNL     1      61.582  30.574  49.728  1.00  0.00    -0.342 N 
ATOM      5  H   UNL     1      60.627  30.775  49.350  1.00  0.00     0.164 HD
ATOM      6  O   UNL     1      62.756  28.579  50.023  1.00  0.00    -0.273 OA
BRANCH   4   7
ATOM      7  C   UNL     1      62.666  31.522  49.432  1.00  0.00     0.175 C 
BRANCH   7   8
ATOM      8  C   UNL     1      62.298  32.885  49.961  1.00  0.00     0.243 C 
ATOM      9  N   UNL     1      61.553  33.015  51.179  1.00  0.00    -0.342 N 
ATOM     10  H   UNL     1      60.596  32.598  51.229  1.00  0.00     0.164 HD
ATOM     11  O   UNL     1      62.733  33.916  49.381  1.00  0.00    -0.273 OA
BRANCH   9  12
ATOM     12  C   UNL     1      62.129  33.618  52.384  1.00  0.00     0.174 CG0
ATOM     13  G   UNL     1      62.390  32.545  53.424  1.00  0.00     0.000 G0
BRANCH  12  14
ATOM     14  C   UNL     1      61.246  34.779  52.945  1.00  0.00     0.018 C 
ATOM     15  C   UNL     1      60.222  35.293  51.912  1.00  0.00     0.010 C 
BRANCH  14  16
ATOM     16  C   UNL     1      62.091  35.969  53.470  1.00  0.00     0.002 C 
ATOM     17  C   UNL     1      62.961  36.606  52.384  1.00  0.00     0.004 C 
ENDBRANCH  14  16
ENDBRANCH  12  14
ENDBRANCH   9  12
ENDBRANCH   7   8
BRANCH   7  18
ATOM     18  C   UNL     1      64.015  31.089  50.057  1.00  0.00     0.073 C 
BRANCH  18  19
ATOM     19  C   UNL     1      65.168  31.298  49.112  1.00  0.00    -0.016 A 
ATOM     20  C   UNL     1      65.870  32.487  48.930  1.00  0.00     0.134 A 
ATOM     21  C   UNL     1      65.734  30.385  48.234  1.00  0.00     0.006 A 
ATOM     22  N   UNL     1      66.837  32.313  47.995  1.00  0.00    -0.191 N 
ATOM     23  C   UNL     1      66.749  31.039  47.578  1.00  0.00     0.087 A 
ATOM     24  C   UNL     1      65.426  29.051  47.957  1.00  0.00     0.011 A 
ATOM     25  C   UNL     1      67.529  30.405  46.612  1.00  0.00     0.030 A 
ATOM     26  C   UNL     1      66.202  28.384  46.992  1.00  0.00     0.001 A 
ATOM     27  C   UNL     1      67.246  29.058  46.324  1.00  0.00     0.002 A 
BRANCH  22  28
ATOM     28  O   UNL     1      67.742  33.250  47.531  1.00  0.00    -0.417 OA
ATOM     29  C   UNL     1      67.447  34.126  46.448  1.00  0.00     0.313 C 
ENDBRANCH  22  28
ENDBRANCH  18  19
ENDBRANCH   7  18
ENDBRANCH   4   7
ENDBRANCH   2   3
BRANCH   2  30
ATOM     30  N   UNL     1      60.869  29.239  52.617  1.00  0.00    -0.343 N 
ATOM     31  C   UNL     1      60.288  30.460  53.112  1.00  0.00     0.243 C 
ATOM     32  H   UNL     1      61.460  28.670  53.262  1.00  0.00     0.164 HD
ATOM     33  O   UNL     1      59.541  31.154  52.369  1.00  0.00    -0.273 OA
BRANCH  31  34
ATOM     34  C   UNL     1      60.660  30.968  54.487  1.00  0.00     0.174 C 
ATOM     35  N   UNL     1      61.455  32.217  54.482  1.00  0.00    -0.329 N 
ATOM     36  C   UNL     1      61.411  29.883  55.276  1.00  0.00     0.035 C 
ATOM     37  C   UNL     1      61.750  32.754  55.817  1.00  0.00     0.120 C 
ATOM     38  C   UNL     1      61.751  30.382  56.687  1.00  0.00     0.004 C 
ATOM     39  C   UNL     1      62.516  31.711  56.640  1.00  0.00     0.022 C 
BRANCH  35  40
ATOM     40  C   UNL     1      62.386  32.522  53.426  1.00  0.00     0.246 CG0
ATOM     41  O   UNL     1      63.476  31.893  53.369  1.00  0.00    -0.272 OA
ATOM     42  G   UNL     1      62.106  33.607  52.404  1.00  0.00     0.000 G0
ENDBRANCH  35  40
ENDBRANCH  31  34
ENDBRANCH   2  30
ENDBRANCH   1   2
BRANCH   1  43
ATOM     43  C   UNL     1      59.771  26.547  52.282  1.00  0.00     0.003 C 
BRANCH  43  44
ATOM     44  C   UNL     1      58.721  25.603  51.675  1.00  0.00     0.001 C 
BRANCH  44  45
ATOM     45  C   UNL     1      58.058  26.181  50.411  1.00  0.00     0.008 C 
BRANCH  45  46
ATOM     46  C   UNL     1      56.874  27.129  50.680  1.00  0.00     0.075 C 
BRANCH  46  47
ATOM     47  C   UNL     1      55.580  26.662  50.055  1.00  0.00     0.132 C 
ATOM     48  O   UNL     1      55.616  25.891  49.110  1.00  0.00    -0.300 OA
BRANCH  47  49
ATOM     49  C   UNL     1      54.241  27.089  50.603  1.00  0.00     0.072 C 
ATOM     50  C   UNL     1      53.939  28.544  50.251  1.00  0.00     0.012 C 
ENDBRANCH  47  49
ENDBRANCH  46  47
ENDBRANCH  45  46
ENDBRANCH  44  45
ENDBRANCH  43  44
ENDBRANCH   1  43
TORSDOF 12
ENDMDL
MODEL 8
REMARK VINA RESULT:    -4.160      8.715     11.012
REMARK INTER + INTRA:         -10.824
REMARK INTER:                  -7.949
REMARK INTRA:                  -2.875
REMARK UNBOUND:                -2.044
REMARK SMILES CCC(=O)CCCCC[C@H]1NC(=O)[C@H]2CCCCN2C(=O)[C@H]([C@H](C)CC)NC(=O)[C@@H](Cc2cn(OC)c3ccccc23)NC1=O
REMARK SMILES IDX 9 1 10 2 44 3 43 4 45 6 30 7 28 8 27 9 29 11 22 12 23 14
REMARK SMILES IDX 24 15 25 16 26 17 31 18 32 19 33 20 42 21 34 22 37 23 41 24
REMARK SMILES IDX 38 25 40 26 39 27 35 28 36 29 11 30 12 31 13 33 14 34 19 35
REMARK SMILES IDX 15 36 18 37 16 38 17 39 20 40 21 41 8 43 7 44 6 45 5 46 3 47
REMARK SMILES IDX 4 48 2 49 1 50
REMARK H PARENT 43 5 27 10 11 32
REMARK Flexibility Score: 80.00
ROOT
ATOM      1  C   UNL     1      57.471  28.004  50.201  1.00  0.00     0.035 C 
ENDROOT
BRANCH   1   2
ATOM      2  C   UNL     1      58.768  27.796  51.019  1.00  0.00     0.171 C 
BRANCH   2   3
ATOM      3  C   UNL     1      59.845  28.767  50.604  1.00  0.00     0.243 C 
ATOM      4  N   UNL     1      60.828  29.195  51.553  1.00  0.00    -0.342 N 
ATOM      5  H   UNL     1      60.472  29.426  52.510  1.00  0.00     0.164 HD
ATOM      6  O   UNL     1      59.817  29.277  49.451  1.00  0.00    -0.273 OA
BRANCH   4   7
ATOM      7  C   UNL     1      62.225  29.517  51.228  1.00  0.00     0.175 C 
BRANCH   7   8
ATOM      8  C   UNL     1      63.139  28.798  52.187  1.00  0.00     0.243 C 
ATOM      9  N   UNL     1      62.806  27.488  52.666  1.00  0.00    -0.342 N 
ATOM     10  H   UNL     1      61.925  27.364  53.215  1.00  0.00     0.164 HD
ATOM     11  O   UNL     1      64.250  29.310  52.491  1.00  0.00    -0.273 OA
BRANCH   9  12
ATOM     12  C   UNL     1      63.601  26.306  52.322  1.00  0.00     0.174 CG0
ATOM     13  G   UNL     1      62.838  25.440  51.337  1.00  0.00     0.000 G0
BRANCH  12  14
ATOM     14  C   UNL     1      64.049  25.505  53.587  1.00  0.00     0.018 C 
ATOM     15  C   UNL     1      63.378  26.018  54.878  1.00  0.00     0.010 C 
BRANCH  14  16
ATOM     16  C   UNL     1      65.588  25.498  53.772  1.00  0.00     0.002 C 
ATOM     17  C   UNL     1      66.318  26.342  52.723  1.00  0.00     0.004 C 
ENDBRANCH  14  16
ENDBRANCH  12  14
ENDBRANCH   9  12
ENDBRANCH   7   8
BRANCH   7  18
ATOM     18  C   UNL     1      62.602  29.117  49.781  1.00  0.00     0.073 C 
BRANCH  18  19
ATOM     19  C   UNL     1      63.777  29.905  49.266  1.00  0.00    -0.016 A 
ATOM     20  C   UNL     1      64.939  29.373  48.714  1.00  0.00     0.134 A 
ATOM     21  C   UNL     1      63.951  31.282  49.259  1.00  0.00     0.006 A 
ATOM     22  N   UNL     1      65.785  30.373  48.367  1.00  0.00    -0.191 N 
ATOM     23  C   UNL     1      65.181  31.526  48.699  1.00  0.00     0.087 A 
ATOM     24  C   UNL     1      63.135  32.321  49.712  1.00  0.00     0.011 A 
ATOM     25  C   UNL     1      65.674  32.821  48.544  1.00  0.00     0.030 A 
ATOM     26  C   UNL     1      63.604  33.638  49.560  1.00  0.00     0.001 A 
ATOM     27  C   UNL     1      64.867  33.885  48.981  1.00  0.00     0.002 A 
BRANCH  22  28
ATOM     28  O   UNL     1      67.039  30.259  47.793  1.00  0.00    -0.417 OA
ATOM     29  C   UNL     1      67.736  29.020  47.723  1.00  0.00     0.313 C 
ENDBRANCH  22  28
ENDBRANCH  18  19
ENDBRANCH   7  18
ENDBRANCH   4   7
ENDBRANCH   2   3
BRANCH   2  30
ATOM     30  N   UNL     1      59.252  26.408  50.923  1.00  0.00    -0.343 N 
ATOM     31  C   UNL     1      59.955  25.716  51.971  1.00  0.00     0.243 C 
ATOM     32  H   UNL     1      59.072  25.907  50.026  1.00  0.00     0.164 HD
ATOM     33  O   UNL     1      60.159  26.281  53.080  1.00  0.00    -0.273 OA
BRANCH  31  34
ATOM     34  C   UNL     1      60.545  24.349  51.706  1.00  0.00     0.174 C 
ATOM     35  N   UNL     1      62.025  24.306  51.736  1.00  0.00    -0.329 N 
ATOM     36  C   UNL     1      60.042  23.797  50.362  1.00  0.00     0.035 C 
ATOM     37  C   UNL     1      62.598  22.966  51.557  1.00  0.00     0.120 C 
ATOM     38  C   UNL     1      60.607  22.392  50.112  1.00  0.00     0.004 C 
ATOM     39  C   UNL     1      62.138  22.378  50.218  1.00  0.00     0.022 C 
BRANCH  35  40
ATOM     40  C   UNL     1      62.828  25.429  51.322  1.00  0.00     0.246 CG0
ATOM     41  O   UNL     1      62.929  25.689  50.094  1.00  0.00    -0.272 OA
ATOM     42  G   UNL     1      63.582  26.283  52.322  1.00  0.00     0.000 G0
ENDBRANCH  35  40
ENDBRANCH  31  34
ENDBRANCH   2  30
ENDBRANCH   1   2
BRANCH   1  43
ATOM     43  C   UNL     1      56.267  27.199  50.724  1.00  0.00     0.003 C 
BRANCH  43  44
ATOM     44  C   UNL     1      54.936  27.677  50.122  1.00  0.00     0.001 C 
BRANCH  44  45
ATOM     45  C   UNL     1      54.498  29.051  50.659  1.00  0.00     0.008 C 
BRANCH  45  46
ATOM     46  C   UNL     1      54.465  29.163  52.195  1.00  0.00     0.075 C 
BRANCH  46  47
ATOM     47  C   UNL     1      54.651  30.577  52.696  1.00  0.00     0.132 C 
ATOM     48  O   UNL     1      53.693  31.333  52.725  1.00  0.00    -0.300 OA
BRANCH  47  49
ATOM     49  C   UNL     1      55.985  31.063  53.207  1.00  0.00     0.072 C 
ATOM     50  C   UNL     1      56.934  29.896  53.470  1.00  0.00     0.012 C 
ENDBRANCH  47  49
ENDBRANCH  46  47
ENDBRANCH  45  46
ENDBRANCH  44  45
ENDBRANCH  43  44
ENDBRANCH   1  43
TORSDOF 12
ENDMDL
MODEL 9
REMARK VINA RESULT:    -4.090      2.711      3.866
REMARK INTER + INTRA:         -10.676
REMARK INTER:                  -7.972
REMARK INTRA:                  -2.704
REMARK UNBOUND:                -2.044
REMARK SMILES CCC(=O)CCCCC[C@H]1NC(=O)[C@H]2CCCCN2C(=O)[C@H]([C@H](C)CC)NC(=O)[C@@H](Cc2cn(OC)c3ccccc23)NC1=O
REMARK SMILES IDX 9 1 10 2 44 3 43 4 45 6 30 7 28 8 27 9 29 11 22 12 23 14
REMARK SMILES IDX 24 15 25 16 26 17 31 18 32 19 33 20 42 21 34 22 37 23 41 24
REMARK SMILES IDX 38 25 40 26 39 27 35 28 36 29 11 30 12 31 13 33 14 34 19 35
REMARK SMILES IDX 15 36 18 37 16 38 17 39 20 40 21 41 8 43 7 44 6 45 5 46 3 47
REMARK SMILES IDX 4 48 2 49 1 50
REMARK H PARENT 43 5 27 10 11 32
REMARK Flexibility Score: 80.00
ROOT
ATOM      1  C   UNL     1      63.062  32.984  60.694  1.00  0.00     0.035 C 
ENDROOT
BRANCH   1   2
ATOM      2  C   UNL     1      63.358  31.470  60.818  1.00  0.00     0.171 C 
BRANCH   2   3
ATOM      3  C   UNL     1      64.750  31.139  60.340  1.00  0.00     0.243 C 
ATOM      4  N   UNL     1      65.497  30.099  60.980  1.00  0.00    -0.342 N 
ATOM      5  H   UNL     1      65.451  30.075  62.025  1.00  0.00     0.164 HD
ATOM      6  O   UNL     1      65.289  31.845  59.446  1.00  0.00    -0.273 OA
BRANCH   4   7
ATOM      7  C   UNL     1      66.457  29.215  60.302  1.00  0.00     0.175 C 
BRANCH   7   8
ATOM      8  C   UNL     1      65.987  27.786  60.415  1.00  0.00     0.243 C 
ATOM      9  N   UNL     1      64.587  27.484  60.468  1.00  0.00    -0.342 N 
ATOM     10  H   UNL     1      64.021  27.866  61.259  1.00  0.00     0.164 HD
ATOM     11  O   UNL     1      66.828  26.849  60.363  1.00  0.00    -0.273 OA
BRANCH   9  12
ATOM     12  C   UNL     1      63.907  26.749  59.398  1.00  0.00     0.174 CG0
ATOM     13  G   UNL     1      62.825  27.616  58.783  1.00  0.00     0.000 G0
BRANCH  12  14
ATOM     14  C   UNL     1      63.352  25.371  59.886  1.00  0.00     0.018 C 
ATOM     15  C   UNL     1      63.134  25.331  61.412  1.00  0.00     0.010 C 
BRANCH  14  16
ATOM     16  C   UNL     1      64.253  24.183  59.461  1.00  0.00     0.002 C 
ATOM     17  C   UNL     1      65.131  24.505  58.249  1.00  0.00     0.004 C 
ENDBRANCH  14  16
ENDBRANCH  12  14
ENDBRANCH   9  12
ENDBRANCH   7   8
BRANCH   7  18
ATOM     18  C   UNL     1      66.628  29.568  58.804  1.00  0.00     0.073 C 
BRANCH  18  19
ATOM     19  C   UNL     1      68.025  30.033  58.490  1.00  0.00    -0.016 A 
ATOM     20  C   UNL     1      68.386  31.310  58.069  1.00  0.00     0.134 A 
ATOM     21  C   UNL     1      69.203  29.300  58.529  1.00  0.00     0.006 A 
ATOM     22  N   UNL     1      69.726  31.369  57.873  1.00  0.00    -0.191 N 
ATOM     23  C   UNL     1      70.215  30.150  58.153  1.00  0.00     0.087 A 
ATOM     24  C   UNL     1      69.454  27.963  58.849  1.00  0.00     0.011 A 
ATOM     25  C   UNL     1      71.541  29.728  58.080  1.00  0.00     0.030 A 
ATOM     26  C   UNL     1      70.784  27.513  58.792  1.00  0.00     0.001 A 
ATOM     27  C   UNL     1      71.821  28.390  58.410  1.00  0.00     0.002 A 
BRANCH  22  28
ATOM     28  O   UNL     1      70.471  32.457  57.452  1.00  0.00    -0.417 OA
ATOM     29  C   UNL     1      70.275  33.766  57.978  1.00  0.00     0.313 C 
ENDBRANCH  22  28
ENDBRANCH  18  19
ENDBRANCH   7  18
ENDBRANCH   4   7
ENDBRANCH   2   3
BRANCH   2  30
ATOM     30  N   UNL     1      62.355  30.662  60.103  1.00  0.00    -0.343 N 
ATOM     31  C   UNL     1      61.645  29.550  60.677  1.00  0.00     0.243 C 
ATOM     32  H   UNL     1      62.160  30.921  59.111  1.00  0.00     0.164 HD
ATOM     33  O   UNL     1      61.832  29.232  61.884  1.00  0.00    -0.273 OA
BRANCH  31  34
ATOM     34  C   UNL     1      60.756  28.692  59.804  1.00  0.00     0.174 C 
ATOM     35  N   UNL     1      61.448  27.552  59.161  1.00  0.00    -0.329 N 
ATOM     36  C   UNL     1      60.068  29.550  58.730  1.00  0.00     0.035 C 
ATOM     37  C   UNL     1      60.571  26.674  58.376  1.00  0.00     0.120 C 
ATOM     38  C   UNL     1      59.133  28.689  57.871  1.00  0.00     0.004 C 
ATOM     39  C   UNL     1      59.873  27.483  57.276  1.00  0.00     0.022 C 
BRANCH  35  40
ATOM     40  C   UNL     1      62.832  27.626  58.768  1.00  0.00     0.246 CG0
ATOM     41  O   UNL     1      63.167  28.419  57.849  1.00  0.00    -0.272 OA
ATOM     42  G   UNL     1      63.891  26.747  59.406  1.00  0.00     0.000 G0
ENDBRANCH  35  40
ENDBRANCH  31  34
ENDBRANCH   2  30
ENDBRANCH   1   2
BRANCH   1  43
ATOM     43  C   UNL     1      61.621  33.305  60.257  1.00  0.00     0.003 C 
BRANCH  43  44
ATOM     44  C   UNL     1      61.356  34.817  60.174  1.00  0.00     0.001 C 
BRANCH  44  45
ATOM     45  C   UNL     1      62.461  35.653  60.843  1.00  0.00     0.008 C 
BRANCH  45  46
ATOM     46  C   UNL     1      62.809  36.965  60.112  1.00  0.00     0.075 C 
BRANCH  46  47
ATOM     47  C   UNL     1      64.066  36.869  59.279  1.00  0.00     0.132 C 
ATOM     48  O   UNL     1      65.146  37.103  59.796  1.00  0.00    -0.300 OA
BRANCH  47  49
ATOM     49  C   UNL     1      64.022  36.444  57.832  1.00  0.00     0.072 C 
ATOM     50  C   UNL     1      64.265  34.944  57.689  1.00  0.00     0.012 C 
ENDBRANCH  47  49
ENDBRANCH  46  47
ENDBRANCH  45  46
ENDBRANCH  44  45
ENDBRANCH  43  44
ENDBRANCH   1  43
TORSDOF 12
ENDMDL
