MODEL 1
REMARK VINA RESULT:    -6.750      0.000      0.000
REMARK INTER + INTRA:         -16.159
REMARK INTER:                 -14.248
REMARK INTRA:                  -1.911
REMARK UNBOUND:                -1.911
REMARK SMILES CCC(=O)CCCCC[C@@H]1NC(=O)[C@H]2CCCCN2C(=O)[C@H]([C@@H](C)CC)NC(=O)[C@@H](Cc2cn(OC)c3ccccc23)NC1=O
REMARK SMILES IDX 9 1 10 2 44 3 43 4 45 6 30 7 28 8 27 9 29 11 22 12 23 14
REMARK SMILES IDX 24 15 25 16 26 17 31 18 32 19 33 20 42 21 34 22 37 23 41 24
REMARK SMILES IDX 38 25 40 26 39 27 35 28 36 29 11 30 12 31 13 33 14 34 19 35
REMARK SMILES IDX 15 36 18 37 16 38 17 39 20 40 21 41 8 43 7 44 6 45 5 46 3 47
REMARK SMILES IDX 4 48 2 49 1 50
REMARK H PARENT 43 5 27 10 11 32
REMARK Flexibility Score: 80.00
ROOT
ATOM      1  C   UNL     1      81.833  58.454  10.739  1.00  0.00     0.035 C 
ENDROOT
BRANCH   1   2
ATOM      2  C   UNL     1      82.596  57.363   9.963  1.00  0.00     0.171 C 
BRANCH   2   3
ATOM      3  C   UNL     1      84.057  57.708   9.838  1.00  0.00     0.243 C 
ATOM      4  N   UNL     1      84.787  57.333   8.660  1.00  0.00    -0.342 N 
ATOM      5  H   UNL     1      84.289  56.793   7.915  1.00  0.00     0.164 HD
ATOM      6  O   UNL     1      84.654  58.263  10.802  1.00  0.00    -0.273 OA
BRANCH   4   7
ATOM      7  C   UNL     1      86.235  57.535   8.531  1.00  0.00     0.175 C 
BRANCH   7   8
ATOM      8  C   UNL     1      86.985  56.230   8.633  1.00  0.00     0.243 C 
ATOM      9  N   UNL     1      86.312  54.967   8.473  1.00  0.00    -0.342 N 
ATOM     10  H   UNL     1      85.516  54.946   7.799  1.00  0.00     0.164 HD
ATOM     11  O   UNL     1      88.234  56.267   8.798  1.00  0.00    -0.273 OA
BRANCH   9  12
ATOM     12  C   UNL     1      86.462  53.767   9.318  1.00  0.00     0.174 CG0
ATOM     13  G   UNL     1      85.538  53.881  10.511  1.00  0.00     0.000 G0
BRANCH  12  14
ATOM     14  C   UNL     1      87.939  53.404   9.698  1.00  0.00     0.018 C 
ATOM     15  C   UNL     1      88.062  52.489  10.941  1.00  0.00     0.010 C 
BRANCH  14  16
ATOM     16  C   UNL     1      88.672  52.772   8.488  1.00  0.00     0.002 C 
ATOM     17  C   UNL     1      89.394  51.470   8.840  1.00  0.00     0.004 C 
ENDBRANCH  14  16
ENDBRANCH  12  14
ENDBRANCH   9  12
ENDBRANCH   7   8
BRANCH   7  18
ATOM     18  C   UNL     1      86.560  58.245   7.206  1.00  0.00     0.073 C 
BRANCH  18  19
ATOM     19  C   UNL     1      86.804  59.712   7.421  1.00  0.00    -0.016 A 
ATOM     20  C   UNL     1      85.855  60.664   7.791  1.00  0.00     0.134 A 
ATOM     21  C   UNL     1      88.014  60.383   7.356  1.00  0.00     0.006 A 
ATOM     22  N   UNL     1      86.457  61.868   7.948  1.00  0.00    -0.191 N 
ATOM     23  C   UNL     1      87.765  61.692   7.687  1.00  0.00     0.087 A 
ATOM     24  C   UNL     1      89.298  59.937   7.045  1.00  0.00     0.011 A 
ATOM     25  C   UNL     1      88.781  62.645   7.737  1.00  0.00     0.030 A 
ATOM     26  C   UNL     1      90.348  60.872   7.098  1.00  0.00     0.001 A 
ATOM     27  C   UNL     1      90.092  62.218   7.441  1.00  0.00     0.002 A 
BRANCH  22  28
ATOM     28  O   UNL     1      85.868  63.074   8.287  1.00  0.00    -0.417 OA
ATOM     29  C   UNL     1      85.059  63.811   7.375  1.00  0.00     0.313 C 
ENDBRANCH  22  28
ENDBRANCH  18  19
ENDBRANCH   7  18
ENDBRANCH   4   7
ENDBRANCH   2   3
BRANCH   2  30
ATOM     30  N   UNL     1      82.472  56.068  10.636  1.00  0.00    -0.343 N 
ATOM     31  C   UNL     1      82.809  54.834   9.988  1.00  0.00     0.243 C 
ATOM     32  H   UNL     1      82.310  56.056  11.669  1.00  0.00     0.164 HD
ATOM     33  O   UNL     1      83.014  54.812   8.744  1.00  0.00    -0.273 OA
BRANCH  31  34
ATOM     34  C   UNL     1      82.996  53.576  10.801  1.00  0.00     0.174 C 
ATOM     35  N   UNL     1      84.340  52.997  10.581  1.00  0.00    -0.329 N 
ATOM     36  C   UNL     1      81.883  52.568  10.450  1.00  0.00     0.035 C 
ATOM     37  C   UNL     1      84.614  51.634  11.062  1.00  0.00     0.120 C 
ATOM     38  C   UNL     1      82.133  51.222  11.123  1.00  0.00     0.004 C 
ATOM     39  C   UNL     1      83.489  50.666  10.689  1.00  0.00     0.022 C 
BRANCH  35  40
ATOM     40  C   UNL     1      85.473  53.885  10.495  1.00  0.00     0.246 CG0
ATOM     41  O   UNL     1      85.575  54.835  11.318  1.00  0.00    -0.272 OA
ATOM     42  G   UNL     1      86.454  53.767   9.349  1.00  0.00     0.000 G0
ENDBRANCH  35  40
ENDBRANCH  31  34
ENDBRANCH   2  30
ENDBRANCH   1   2
BRANCH   1  43
ATOM     43  C   UNL     1      80.719  59.086   9.887  1.00  0.00     0.003 C 
BRANCH  43  44
ATOM     44  C   UNL     1      79.338  58.775  10.473  1.00  0.00     0.001 C 
BRANCH  44  45
ATOM     45  C   UNL     1      79.195  57.277  10.781  1.00  0.00     0.008 C 
BRANCH  45  46
ATOM     46  C   UNL     1      78.048  56.657   9.978  1.00  0.00     0.075 C 
BRANCH  46  47
ATOM     47  C   UNL     1      78.586  55.781   8.880  1.00  0.00     0.132 C 
ATOM     48  O   UNL     1      79.617  55.153   9.069  1.00  0.00    -0.300 OA
BRANCH  47  49
ATOM     49  C   UNL     1      77.874  55.641   7.564  1.00  0.00     0.072 C 
ATOM     50  C   UNL     1      77.914  56.953   6.780  1.00  0.00     0.012 C 
ENDBRANCH  47  49
ENDBRANCH  46  47
ENDBRANCH  45  46
ENDBRANCH  44  45
ENDBRANCH  43  44
ENDBRANCH   1  43
TORSDOF 12
ENDMDL
MODEL 2
REMARK VINA RESULT:    -6.641      3.072      7.172
REMARK INTER + INTRA:         -15.929
REMARK INTER:                 -14.429
REMARK INTRA:                  -1.500
REMARK UNBOUND:                -1.911
REMARK SMILES CCC(=O)CCCCC[C@@H]1NC(=O)[C@H]2CCCCN2C(=O)[C@H]([C@@H](C)CC)NC(=O)[C@@H](Cc2cn(OC)c3ccccc23)NC1=O
REMARK SMILES IDX 9 1 10 2 44 3 43 4 45 6 30 7 28 8 27 9 29 11 22 12 23 14
REMARK SMILES IDX 24 15 25 16 26 17 31 18 32 19 33 20 42 21 34 22 37 23 41 24
REMARK SMILES IDX 38 25 40 26 39 27 35 28 36 29 11 30 12 31 13 33 14 34 19 35
REMARK SMILES IDX 15 36 18 37 16 38 17 39 20 40 21 41 8 43 7 44 6 45 5 46 3 47
REMARK SMILES IDX 4 48 2 49 1 50
REMARK H PARENT 43 5 27 10 11 32
REMARK Flexibility Score: 80.00
ROOT
ATOM      1  C   UNL     1      86.544  57.517  10.301  1.00  0.00     0.035 C 
ENDROOT
BRANCH   1   2
ATOM      2  C   UNL     1      86.134  56.031  10.331  1.00  0.00     0.171 C 
BRANCH   2   3
ATOM      3  C   UNL     1      84.845  55.809   9.583  1.00  0.00     0.243 C 
ATOM      4  N   UNL     1      83.994  54.705   9.928  1.00  0.00    -0.342 N 
ATOM      5  H   UNL     1      84.305  54.051  10.681  1.00  0.00     0.164 HD
ATOM      6  O   UNL     1      84.553  56.553   8.605  1.00  0.00    -0.273 OA
BRANCH   4   7
ATOM      7  C   UNL     1      82.789  54.369   9.159  1.00  0.00     0.175 C 
BRANCH   7   8
ATOM      8  C   UNL     1      83.125  53.552   7.936  1.00  0.00     0.243 C 
ATOM      9  N   UNL     1      83.692  52.232   8.051  1.00  0.00    -0.342 N 
ATOM     10  H   UNL     1      83.381  51.663   8.868  1.00  0.00     0.164 HD
ATOM     11  O   UNL     1      82.840  54.023   6.802  1.00  0.00    -0.273 OA
BRANCH   9  12
ATOM     12  C   UNL     1      84.829  51.683   7.287  1.00  0.00     0.174 CG0
ATOM     13  G   UNL     1      86.031  52.584   7.470  1.00  0.00     0.000 G0
BRANCH  12  14
ATOM     14  C   UNL     1      84.518  51.344   5.789  1.00  0.00     0.018 C 
ATOM     15  C   UNL     1      85.532  50.369   5.141  1.00  0.00     0.010 C 
BRANCH  14  16
ATOM     16  C   UNL     1      83.076  50.798   5.643  1.00  0.00     0.002 C 
ATOM     17  C   UNL     1      82.250  51.562   4.605  1.00  0.00     0.004 C 
ENDBRANCH  14  16
ENDBRANCH  12  14
ENDBRANCH   9  12
ENDBRANCH   7   8
BRANCH   7  18
ATOM     18  C   UNL     1      81.780  53.622  10.048  1.00  0.00     0.073 C 
BRANCH  18  19
ATOM     19  C   UNL     1      80.574  54.473  10.332  1.00  0.00    -0.016 A 
ATOM     20  C   UNL     1      80.160  54.930  11.582  1.00  0.00     0.134 A 
ATOM     21  C   UNL     1      79.688  55.012   9.413  1.00  0.00     0.006 A 
ATOM     22  N   UNL     1      79.066  55.719  11.437  1.00  0.00    -0.191 N 
ATOM     23  C   UNL     1      78.787  55.768  10.122  1.00  0.00     0.087 A 
ATOM     24  C   UNL     1      79.622  54.903   8.025  1.00  0.00     0.011 A 
ATOM     25  C   UNL     1      77.761  56.471   9.493  1.00  0.00     0.030 A 
ATOM     26  C   UNL     1      78.605  55.610   7.359  1.00  0.00     0.001 A 
ATOM     27  C   UNL     1      77.678  56.389   8.088  1.00  0.00     0.002 A 
BRANCH  22  28
ATOM     28  O   UNL     1      78.336  56.348  12.430  1.00  0.00    -0.417 OA
ATOM     29  C   UNL     1      78.305  55.872  13.772  1.00  0.00     0.313 C 
ENDBRANCH  22  28
ENDBRANCH  18  19
ENDBRANCH   7  18
ENDBRANCH   4   7
ENDBRANCH   2   3
BRANCH   2  30
ATOM     30  N   UNL     1      87.177  55.195   9.734  1.00  0.00    -0.343 N 
ATOM     31  C   UNL     1      87.194  53.770   9.884  1.00  0.00     0.243 C 
ATOM     32  H   UNL     1      87.821  55.626   9.031  1.00  0.00     0.164 HD
ATOM     33  O   UNL     1      86.429  53.215  10.719  1.00  0.00    -0.273 OA
BRANCH  31  34
ATOM     34  C   UNL     1      88.067  52.922   8.989  1.00  0.00     0.174 C 
ATOM     35  N   UNL     1      87.246  52.055   8.115  1.00  0.00    -0.329 N 
ATOM     36  C   UNL     1      89.037  52.094   9.855  1.00  0.00     0.035 C 
ATOM     37  C   UNL     1      87.903  50.966   7.375  1.00  0.00     0.120 C 
ATOM     38  C   UNL     1      89.819  51.100   9.000  1.00  0.00     0.004 C 
ATOM     39  C   UNL     1      88.853  50.167   8.271  1.00  0.00     0.022 C 
BRANCH  35  40
ATOM     40  C   UNL     1      86.050  52.599   7.522  1.00  0.00     0.246 CG0
ATOM     41  O   UNL     1      85.980  53.840   7.303  1.00  0.00    -0.272 OA
ATOM     42  G   UNL     1      84.839  51.720   7.293  1.00  0.00     0.000 G0
ENDBRANCH  35  40
ENDBRANCH  31  34
ENDBRANCH   2  30
ENDBRANCH   1   2
BRANCH   1  43
ATOM     43  C   UNL     1      86.103  58.255  11.576  1.00  0.00     0.003 C 
BRANCH  43  44
ATOM     44  C   UNL     1      85.960  59.759  11.317  1.00  0.00     0.001 C 
BRANCH  44  45
ATOM     45  C   UNL     1      84.667  60.064  10.545  1.00  0.00     0.008 C 
BRANCH  45  46
ATOM     46  C   UNL     1      83.465  60.131  11.493  1.00  0.00     0.075 C 
BRANCH  46  47
ATOM     47  C   UNL     1      82.179  60.115  10.713  1.00  0.00     0.132 C 
ATOM     48  O   UNL     1      81.890  61.077  10.018  1.00  0.00    -0.300 OA
BRANCH  47  49
ATOM     49  C   UNL     1      81.252  58.932  10.750  1.00  0.00     0.072 C 
ATOM     50  C   UNL     1      79.883  59.295  10.176  1.00  0.00     0.012 C 
ENDBRANCH  47  49
ENDBRANCH  46  47
ENDBRANCH  45  46
ENDBRANCH  44  45
ENDBRANCH  43  44
ENDBRANCH   1  43
TORSDOF 12
ENDMDL
MODEL 3
REMARK VINA RESULT:    -6.596      1.554      2.370
REMARK INTER + INTRA:         -15.833
REMARK INTER:                 -13.781
REMARK INTRA:                  -2.052
REMARK UNBOUND:                -1.911
REMARK SMILES CCC(=O)CCCCC[C@@H]1NC(=O)[C@H]2CCCCN2C(=O)[C@H]([C@@H](C)CC)NC(=O)[C@@H](Cc2cn(OC)c3ccccc23)NC1=O
REMARK SMILES IDX 9 1 10 2 44 3 43 4 45 6 30 7 28 8 27 9 29 11 22 12 23 14
REMARK SMILES IDX 24 15 25 16 26 17 31 18 32 19 33 20 42 21 34 22 37 23 41 24
REMARK SMILES IDX 38 25 40 26 39 27 35 28 36 29 11 30 12 31 13 33 14 34 19 35
REMARK SMILES IDX 15 36 18 37 16 38 17 39 20 40 21 41 8 43 7 44 6 45 5 46 3 47
REMARK SMILES IDX 4 48 2 49 1 50
REMARK H PARENT 43 5 27 10 11 32
REMARK Flexibility Score: 80.00
ROOT
ATOM      1  C   UNL     1      83.588  59.381  11.049  1.00  0.00     0.035 C 
ENDROOT
BRANCH   1   2
ATOM      2  C   UNL     1      83.955  58.276  10.039  1.00  0.00     0.171 C 
BRANCH   2   3
ATOM      3  C   UNL     1      85.442  58.234   9.799  1.00  0.00     0.243 C 
ATOM      4  N   UNL     1      85.951  57.984   8.481  1.00  0.00    -0.342 N 
ATOM      5  H   UNL     1      85.271  57.805   7.708  1.00  0.00     0.164 HD
ATOM      6  O   UNL     1      86.236  58.345  10.774  1.00  0.00    -0.273 OA
BRANCH   4   7
ATOM      7  C   UNL     1      87.384  57.813   8.208  1.00  0.00     0.175 C 
BRANCH   7   8
ATOM      8  C   UNL     1      87.747  56.356   8.063  1.00  0.00     0.243 C 
ATOM      9  N   UNL     1      86.731  55.339   7.962  1.00  0.00    -0.342 N 
ATOM     10  H   UNL     1      85.853  55.607   7.468  1.00  0.00     0.164 HD
ATOM     11  O   UNL     1      88.966  56.047   7.967  1.00  0.00    -0.273 OA
BRANCH   9  12
ATOM     12  C   UNL     1      86.693  54.047   8.674  1.00  0.00     0.174 CG0
ATOM     13  G   UNL     1      85.844  54.192   9.918  1.00  0.00     0.000 G0
BRANCH  12  14
ATOM     14  C   UNL     1      88.093  53.395   8.940  1.00  0.00     0.018 C 
ATOM     15  C   UNL     1      88.283  52.882  10.389  1.00  0.00     0.010 C 
BRANCH  14  16
ATOM     16  C   UNL     1      88.364  52.257   7.924  1.00  0.00     0.002 C 
ATOM     17  C   UNL     1      87.528  51.005   8.193  1.00  0.00     0.004 C 
ENDBRANCH  14  16
ENDBRANCH  12  14
ENDBRANCH   9  12
ENDBRANCH   7   8
BRANCH   7  18
ATOM     18  C   UNL     1      87.786  58.599   6.948  1.00  0.00     0.073 C 
BRANCH  18  19
ATOM     19  C   UNL     1      88.390  59.928   7.307  1.00  0.00    -0.016 A 
ATOM     20  C   UNL     1      89.743  60.260   7.267  1.00  0.00     0.134 A 
ATOM     21  C   UNL     1      87.722  61.083   7.681  1.00  0.00     0.006 A 
ATOM     22  N   UNL     1      89.900  61.565   7.601  1.00  0.00    -0.191 N 
ATOM     23  C   UNL     1      88.673  62.059   7.847  1.00  0.00     0.087 A 
ATOM     24  C   UNL     1      86.365  61.341   7.871  1.00  0.00     0.011 A 
ATOM     25  C   UNL     1      88.335  63.362   8.208  1.00  0.00     0.030 A 
ATOM     26  C   UNL     1      85.990  62.650   8.224  1.00  0.00     0.001 A 
ATOM     27  C   UNL     1      86.968  63.655   8.394  1.00  0.00     0.002 A 
BRANCH  22  28
ATOM     28  O   UNL     1      91.082  62.278   7.704  1.00  0.00    -0.417 OA
ATOM     29  C   UNL     1      91.699  62.897   6.580  1.00  0.00     0.313 C 
ENDBRANCH  22  28
ENDBRANCH  18  19
ENDBRANCH   7  18
ENDBRANCH   4   7
ENDBRANCH   2   3
BRANCH   2  30
ATOM     30  N   UNL     1      83.516  56.966  10.524  1.00  0.00    -0.343 N 
ATOM     31  C   UNL     1      83.447  55.818   9.668  1.00  0.00     0.243 C 
ATOM     32  H   UNL     1      83.427  56.820  11.556  1.00  0.00     0.164 HD
ATOM     33  O   UNL     1      83.553  55.956   8.419  1.00  0.00    -0.273 OA
BRANCH  31  34
ATOM     34  C   UNL     1      83.325  54.435  10.262  1.00  0.00     0.174 C 
ATOM     35  N   UNL     1      84.486  53.595   9.892  1.00  0.00    -0.329 N 
ATOM     36  C   UNL     1      81.998  53.795   9.806  1.00  0.00     0.035 C 
ATOM     37  C   UNL     1      84.422  52.146  10.137  1.00  0.00     0.120 C 
ATOM     38  C   UNL     1      81.916  52.337  10.244  1.00  0.00     0.004 C 
ATOM     39  C   UNL     1      83.093  51.551   9.666  1.00  0.00     0.022 C 
BRANCH  35  40
ATOM     40  C   UNL     1      85.801  54.187   9.897  1.00  0.00     0.246 CG0
ATOM     41  O   UNL     1      86.145  54.916  10.868  1.00  0.00    -0.272 OA
ATOM     42  G   UNL     1      86.707  54.053   8.692  1.00  0.00     0.000 G0
ENDBRANCH  35  40
ENDBRANCH  31  34
ENDBRANCH   2  30
ENDBRANCH   1   2
BRANCH   1  43
ATOM     43  C   UNL     1      83.242  60.704  10.345  1.00  0.00     0.003 C 
BRANCH  43  44
ATOM     44  C   UNL     1      81.726  60.860  10.183  1.00  0.00     0.001 C 
BRANCH  44  45
ATOM     45  C   UNL     1      80.979  59.701  10.861  1.00  0.00     0.008 C 
BRANCH  45  46
ATOM     46  C   UNL     1      79.802  59.228  10.001  1.00  0.00     0.075 C 
BRANCH  46  47
ATOM     47  C   UNL     1      79.566  57.755  10.195  1.00  0.00     0.132 C 
ATOM     48  O   UNL     1      80.456  57.066  10.670  1.00  0.00    -0.300 OA
BRANCH  47  49
ATOM     49  C   UNL     1      78.253  57.116   9.840  1.00  0.00     0.072 C 
ATOM     50  C   UNL     1      78.454  55.664   9.406  1.00  0.00     0.012 C 
ENDBRANCH  47  49
ENDBRANCH  46  47
ENDBRANCH  45  46
ENDBRANCH  44  45
ENDBRANCH  43  44
ENDBRANCH   1  43
TORSDOF 12
ENDMDL
MODEL 4
REMARK VINA RESULT:    -6.514      2.243      6.653
REMARK INTER + INTRA:         -15.660
REMARK INTER:                 -13.390
REMARK INTRA:                  -2.270
REMARK UNBOUND:                -1.911
REMARK SMILES CCC(=O)CCCCC[C@@H]1NC(=O)[C@H]2CCCCN2C(=O)[C@H]([C@@H](C)CC)NC(=O)[C@@H](Cc2cn(OC)c3ccccc23)NC1=O
REMARK SMILES IDX 9 1 10 2 44 3 43 4 45 6 30 7 28 8 27 9 29 11 22 12 23 14
REMARK SMILES IDX 24 15 25 16 26 17 31 18 32 19 33 20 42 21 34 22 37 23 41 24
REMARK SMILES IDX 38 25 40 26 39 27 35 28 36 29 11 30 12 31 13 33 14 34 19 35
REMARK SMILES IDX 15 36 18 37 16 38 17 39 20 40 21 41 8 43 7 44 6 45 5 46 3 47
REMARK SMILES IDX 4 48 2 49 1 50
REMARK H PARENT 43 5 27 10 11 32
REMARK Flexibility Score: 80.00
ROOT
ATOM      1  C   UNL     1      87.988  56.284   5.914  1.00  0.00     0.035 C 
ENDROOT
BRANCH   1   2
ATOM      2  C   UNL     1      87.743  55.625   7.285  1.00  0.00     0.171 C 
BRANCH   2   3
ATOM      3  C   UNL     1      86.376  55.968   7.815  1.00  0.00     0.243 C 
ATOM      4  N   UNL     1      86.193  56.243   9.212  1.00  0.00    -0.342 N 
ATOM      5  H   UNL     1      87.020  56.170   9.848  1.00  0.00     0.164 HD
ATOM      6  O   UNL     1      85.379  55.941   7.040  1.00  0.00    -0.273 OA
BRANCH   4   7
ATOM      7  C   UNL     1      84.869  56.466   9.806  1.00  0.00     0.175 C 
BRANCH   7   8
ATOM      8  C   UNL     1      84.311  55.197  10.401  1.00  0.00     0.243 C 
ATOM      9  N   UNL     1      85.164  54.076  10.706  1.00  0.00    -0.342 N 
ATOM     10  H   UNL     1      86.133  54.302  11.021  1.00  0.00     0.164 HD
ATOM     11  O   UNL     1      83.085  55.157  10.689  1.00  0.00    -0.273 OA
BRANCH   9  12
ATOM     12  C   UNL     1      84.908  52.656  10.401  1.00  0.00     0.174 CG0
ATOM     13  G   UNL     1      85.549  52.309   9.075  1.00  0.00     0.000 G0
BRANCH  12  14
ATOM     14  C   UNL     1      83.408  52.215  10.510  1.00  0.00     0.018 C 
ATOM     15  C   UNL     1      83.020  51.062   9.550  1.00  0.00     0.010 C 
BRANCH  14  16
ATOM     16  C   UNL     1      83.055  51.842  11.971  1.00  0.00     0.002 C 
ATOM     17  C   UNL     1      84.063  50.880  12.603  1.00  0.00     0.004 C 
ENDBRANCH  14  16
ENDBRANCH  12  14
ENDBRANCH   9  12
ENDBRANCH   7   8
BRANCH   7  18
ATOM     18  C   UNL     1      84.939  57.577  10.868  1.00  0.00     0.073 C 
BRANCH  18  19
ATOM     19  C   UNL     1      83.960  58.677  10.569  1.00  0.00    -0.016 A 
ATOM     20  C   UNL     1      82.571  58.596  10.659  1.00  0.00     0.134 A 
ATOM     21  C   UNL     1      84.246  59.985  10.213  1.00  0.00     0.006 A 
ATOM     22  N   UNL     1      82.027  59.804  10.371  1.00  0.00    -0.191 N 
ATOM     23  C   UNL     1      83.045  60.642  10.105  1.00  0.00     0.087 A 
ATOM     24  C   UNL     1      85.460  60.635   9.991  1.00  0.00     0.011 A 
ATOM     25  C   UNL     1      82.973  61.994   9.775  1.00  0.00     0.030 A 
ATOM     26  C   UNL     1      85.422  62.003   9.669  1.00  0.00     0.001 A 
ATOM     27  C   UNL     1      84.186  62.680   9.559  1.00  0.00     0.002 A 
BRANCH  22  28
ATOM     28  O   UNL     1      80.685  60.141  10.325  1.00  0.00    -0.417 OA
ATOM     29  C   UNL     1      79.670  59.190  10.020  1.00  0.00     0.313 C 
ENDBRANCH  22  28
ENDBRANCH  18  19
ENDBRANCH   7  18
ENDBRANCH   4   7
ENDBRANCH   2   3
BRANCH   2  30
ATOM     30  N   UNL     1      87.860  54.168   7.186  1.00  0.00    -0.343 N 
ATOM     31  C   UNL     1      88.157  53.346   8.322  1.00  0.00     0.243 C 
ATOM     32  H   UNL     1      87.540  53.700   6.307  1.00  0.00     0.164 HD
ATOM     33  O   UNL     1      88.543  53.876   9.400  1.00  0.00    -0.273 OA
BRANCH  31  34
ATOM     34  C   UNL     1      87.935  51.854   8.259  1.00  0.00     0.174 C 
ATOM     35  N   UNL     1      86.777  51.454   9.089  1.00  0.00    -0.329 N 
ATOM     36  C   UNL     1      89.221  51.124   8.696  1.00  0.00     0.035 C 
ATOM     37  C   UNL     1      86.568  50.027   9.379  1.00  0.00     0.120 C 
ATOM     38  C   UNL     1      88.985  49.621   8.809  1.00  0.00     0.004 C 
ATOM     39  C   UNL     1      87.867  49.343   9.813  1.00  0.00     0.022 C 
BRANCH  35  40
ATOM     40  C   UNL     1      85.598  52.284   9.082  1.00  0.00     0.246 CG0
ATOM     41  O   UNL     1      85.200  52.780   7.992  1.00  0.00    -0.272 OA
ATOM     42  G   UNL     1      84.924  52.672  10.381  1.00  0.00     0.000 G0
ENDBRANCH  35  40
ENDBRANCH  31  34
ENDBRANCH   2  30
ENDBRANCH   1   2
BRANCH   1  43
ATOM     43  C   UNL     1      88.222  57.799   6.044  1.00  0.00     0.003 C 
BRANCH  43  44
ATOM     44  C   UNL     1      89.024  58.123   7.310  1.00  0.00     0.001 C 
BRANCH  44  45
ATOM     45  C   UNL     1      88.406  59.310   8.064  1.00  0.00     0.008 C 
BRANCH  45  46
ATOM     46  C   UNL     1      87.839  60.346   7.088  1.00  0.00     0.075 C 
BRANCH  46  47
ATOM     47  C   UNL     1      88.749  61.541   7.000  1.00  0.00     0.132 C 
ATOM     48  O   UNL     1      88.586  62.473   7.772  1.00  0.00    -0.300 OA
BRANCH  47  49
ATOM     49  C   UNL     1      89.871  61.604   6.001  1.00  0.00     0.072 C 
ATOM     50  C   UNL     1      91.199  61.211   6.648  1.00  0.00     0.012 C 
ENDBRANCH  47  49
ENDBRANCH  46  47
ENDBRANCH  45  46
ENDBRANCH  44  45
ENDBRANCH  43  44
ENDBRANCH   1  43
TORSDOF 12
ENDMDL
MODEL 5
REMARK VINA RESULT:    -6.457      2.544      7.511
REMARK INTER + INTRA:         -15.541
REMARK INTER:                 -14.264
REMARK INTRA:                  -1.277
REMARK UNBOUND:                -1.911
REMARK SMILES CCC(=O)CCCCC[C@@H]1NC(=O)[C@H]2CCCCN2C(=O)[C@H]([C@@H](C)CC)NC(=O)[C@@H](Cc2cn(OC)c3ccccc23)NC1=O
REMARK SMILES IDX 9 1 10 2 44 3 43 4 45 6 30 7 28 8 27 9 29 11 22 12 23 14
REMARK SMILES IDX 24 15 25 16 26 17 31 18 32 19 33 20 42 21 34 22 37 23 41 24
REMARK SMILES IDX 38 25 40 26 39 27 35 28 36 29 11 30 12 31 13 33 14 34 19 35
REMARK SMILES IDX 15 36 18 37 16 38 17 39 20 40 21 41 8 43 7 44 6 45 5 46 3 47
REMARK SMILES IDX 4 48 2 49 1 50
REMARK H PARENT 43 5 27 10 11 32
REMARK Flexibility Score: 80.00
ROOT
ATOM      1  C   UNL     1      83.140  54.044  10.816  1.00  0.00     0.035 C 
ENDROOT
BRANCH   1   2
ATOM      2  C   UNL     1      84.328  55.004  10.610  1.00  0.00     0.171 C 
BRANCH   2   3
ATOM      3  C   UNL     1      85.196  54.553   9.464  1.00  0.00     0.243 C 
ATOM      4  N   UNL     1      86.610  54.800   9.491  1.00  0.00    -0.342 N 
ATOM      5  H   UNL     1      87.010  55.323  10.304  1.00  0.00     0.164 HD
ATOM      6  O   UNL     1      84.666  54.023   8.448  1.00  0.00    -0.273 OA
BRANCH   4   7
ATOM      7  C   UNL     1      87.487  54.493   8.355  1.00  0.00     0.175 C 
BRANCH   7   8
ATOM      8  C   UNL     1      87.980  55.750   7.682  1.00  0.00     0.243 C 
ATOM      9  N   UNL     1      87.908  57.028   8.343  1.00  0.00    -0.342 N 
ATOM     10  H   UNL     1      88.037  57.024   9.378  1.00  0.00     0.164 HD
ATOM     11  O   UNL     1      88.518  55.652   6.546  1.00  0.00    -0.273 OA
BRANCH   9  12
ATOM     12  C   UNL     1      87.445  58.304   7.764  1.00  0.00     0.174 CG0
ATOM     13  G   UNL     1      85.941  58.394   7.904  1.00  0.00     0.000 G0
BRANCH  12  14
ATOM     14  C   UNL     1      87.962  58.600   6.314  1.00  0.00     0.018 C 
ATOM     15  C   UNL     1      86.891  58.406   5.213  1.00  0.00     0.010 C 
BRANCH  14  16
ATOM     16  C   UNL     1      88.567  60.024   6.233  1.00  0.00     0.002 C 
ATOM     17  C   UNL     1      87.726  60.983   5.389  1.00  0.00     0.004 C 
ENDBRANCH  14  16
ENDBRANCH  12  14
ENDBRANCH   9  12
ENDBRANCH   7   8
BRANCH   7  18
ATOM     18  C   UNL     1      88.671  53.624   8.813  1.00  0.00     0.073 C 
BRANCH  18  19
ATOM     19  C   UNL     1      88.340  52.161   8.718  1.00  0.00    -0.016 A 
ATOM     20  C   UNL     1      88.379  51.376   7.567  1.00  0.00     0.134 A 
ATOM     21  C   UNL     1      87.998  51.306   9.754  1.00  0.00     0.006 A 
ATOM     22  N   UNL     1      88.075  50.093   7.883  1.00  0.00    -0.191 N 
ATOM     23  C   UNL     1      87.849  50.056   9.208  1.00  0.00     0.087 A 
ATOM     24  C   UNL     1      87.823  51.537  11.118  1.00  0.00     0.011 A 
ATOM     25  C   UNL     1      87.521  48.947   9.987  1.00  0.00     0.030 A 
ATOM     26  C   UNL     1      87.503  50.436  11.933  1.00  0.00     0.001 A 
ATOM     27  C   UNL     1      87.351  49.148  11.372  1.00  0.00     0.002 A 
BRANCH  22  28
ATOM     28  O   UNL     1      87.982  49.008   7.027  1.00  0.00    -0.417 OA
ATOM     29  C   UNL     1      87.220  49.048   5.825  1.00  0.00     0.313 C 
ENDBRANCH  22  28
ENDBRANCH  18  19
ENDBRANCH   7  18
ENDBRANCH   4   7
ENDBRANCH   2   3
BRANCH   2  30
ATOM     30  N   UNL     1      83.854  56.362  10.338  1.00  0.00    -0.343 N 
ATOM     31  C   UNL     1      84.724  57.501  10.394  1.00  0.00     0.243 C 
ATOM     32  H   UNL     1      82.905  56.485   9.916  1.00  0.00     0.164 HD
ATOM     33  O   UNL     1      85.876  57.390  10.894  1.00  0.00    -0.273 OA
BRANCH  31  34
ATOM     34  C   UNL     1      84.294  58.815   9.785  1.00  0.00     0.174 C 
ATOM     35  N   UNL     1      85.298  59.301   8.812  1.00  0.00    -0.329 N 
ATOM     36  C   UNL     1      84.051  59.844  10.907  1.00  0.00     0.035 C 
ATOM     37  C   UNL     1      85.200  60.685   8.322  1.00  0.00     0.120 C 
ATOM     38  C   UNL     1      83.781  61.229  10.327  1.00  0.00     0.004 C 
ATOM     39  C   UNL     1      84.963  61.674   9.467  1.00  0.00     0.022 C 
BRANCH  35  40
ATOM     40  C   UNL     1      85.922  58.351   7.925  1.00  0.00     0.246 CG0
ATOM     41  O   UNL     1      85.213  57.467   7.371  1.00  0.00    -0.272 OA
ATOM     42  G   UNL     1      87.427  58.324   7.766  1.00  0.00     0.000 G0
ENDBRANCH  35  40
ENDBRANCH  31  34
ENDBRANCH   2  30
ENDBRANCH   1   2
BRANCH   1  43
ATOM     43  C   UNL     1      81.806  54.696  10.416  1.00  0.00     0.003 C 
BRANCH  43  44
ATOM     44  C   UNL     1      80.710  54.376  11.439  1.00  0.00     0.001 C 
BRANCH  44  45
ATOM     45  C   UNL     1      79.701  55.529  11.543  1.00  0.00     0.008 C 
BRANCH  45  46
ATOM     46  C   UNL     1      80.188  56.757  10.769  1.00  0.00     0.075 C 
BRANCH  46  47
ATOM     47  C   UNL     1      79.038  57.431  10.072  1.00  0.00     0.132 C 
ATOM     48  O   UNL     1      79.096  58.630   9.847  1.00  0.00    -0.300 OA
BRANCH  47  49
ATOM     49  C   UNL     1      77.829  56.659   9.624  1.00  0.00     0.072 C 
ATOM     50  C   UNL     1      77.834  56.470   8.107  1.00  0.00     0.012 C 
ENDBRANCH  47  49
ENDBRANCH  46  47
ENDBRANCH  45  46
ENDBRANCH  44  45
ENDBRANCH  43  44
ENDBRANCH   1  43
TORSDOF 12
ENDMDL
MODEL 6
REMARK VINA RESULT:    -6.423      2.558      7.550
REMARK INTER + INTRA:         -15.469
REMARK INTER:                 -13.680
REMARK INTRA:                  -1.789
REMARK UNBOUND:                -1.911
REMARK SMILES CCC(=O)CCCCC[C@@H]1NC(=O)[C@H]2CCCCN2C(=O)[C@H]([C@@H](C)CC)NC(=O)[C@@H](Cc2cn(OC)c3ccccc23)NC1=O
REMARK SMILES IDX 9 1 10 2 44 3 43 4 45 6 30 7 28 8 27 9 29 11 22 12 23 14
REMARK SMILES IDX 24 15 25 16 26 17 31 18 32 19 33 20 42 21 34 22 37 23 41 24
REMARK SMILES IDX 38 25 40 26 39 27 35 28 36 29 11 30 12 31 13 33 14 34 19 35
REMARK SMILES IDX 15 36 18 37 16 38 17 39 20 40 21 41 8 43 7 44 6 45 5 46 3 47
REMARK SMILES IDX 4 48 2 49 1 50
REMARK H PARENT 43 5 27 10 11 32
REMARK Flexibility Score: 80.00
ROOT
ATOM      1  C   UNL     1      87.161  56.745  10.696  1.00  0.00     0.035 C 
ENDROOT
BRANCH   1   2
ATOM      2  C   UNL     1      86.740  55.270  10.546  1.00  0.00     0.171 C 
BRANCH   2   3
ATOM      3  C   UNL     1      85.402  55.155   9.863  1.00  0.00     0.243 C 
ATOM      4  N   UNL     1      84.491  54.110  10.236  1.00  0.00    -0.342 N 
ATOM      5  H   UNL     1      84.791  53.421  10.963  1.00  0.00     0.164 HD
ATOM      6  O   UNL     1      85.116  55.935   8.912  1.00  0.00    -0.273 OA
BRANCH   4   7
ATOM      7  C   UNL     1      83.228  53.874   9.526  1.00  0.00     0.175 C 
BRANCH   7   8
ATOM      8  C   UNL     1      83.313  52.660   8.636  1.00  0.00     0.243 C 
ATOM      9  N   UNL     1      84.334  51.662   8.829  1.00  0.00    -0.342 N 
ATOM     10  H   UNL     1      84.633  51.487   9.814  1.00  0.00     0.164 HD
ATOM     11  O   UNL     1      82.428  52.499   7.752  1.00  0.00    -0.273 OA
BRANCH   9  12
ATOM     12  C   UNL     1      85.168  51.030   7.789  1.00  0.00     0.174 CG0
ATOM     13  G   UNL     1      86.373  51.905   7.520  1.00  0.00     0.000 G0
BRANCH  12  14
ATOM     14  C   UNL     1      84.399  50.602   6.492  1.00  0.00     0.018 C 
ATOM     15  C   UNL     1      85.241  50.711   5.196  1.00  0.00     0.010 C 
BRANCH  14  16
ATOM     16  C   UNL     1      83.828  49.170   6.646  1.00  0.00     0.002 C 
ATOM     17  C   UNL     1      82.383  49.154   7.148  1.00  0.00     0.004 C 
ENDBRANCH  14  16
ENDBRANCH  12  14
ENDBRANCH   9  12
ENDBRANCH   7   8
BRANCH   7  18
ATOM     18  C   UNL     1      82.070  53.731  10.529  1.00  0.00     0.073 C 
BRANCH  18  19
ATOM     19  C   UNL     1      81.029  54.793  10.312  1.00  0.00    -0.016 A 
ATOM     20  C   UNL     1      80.993  56.051  10.912  1.00  0.00     0.134 A 
ATOM     21  C   UNL     1      79.955  54.754   9.438  1.00  0.00     0.006 A 
ATOM     22  N   UNL     1      79.940  56.755  10.427  1.00  0.00    -0.191 N 
ATOM     23  C   UNL     1      79.318  55.966   9.533  1.00  0.00     0.087 A 
ATOM     24  C   UNL     1      79.509  53.756   8.573  1.00  0.00     0.011 A 
ATOM     25  C   UNL     1      78.195  56.269   8.764  1.00  0.00     0.030 A 
ATOM     26  C   UNL     1      78.385  54.034   7.775  1.00  0.00     0.001 A 
ATOM     27  C   UNL     1      77.729  55.283   7.870  1.00  0.00     0.002 A 
BRANCH  22  28
ATOM     28  O   UNL     1      79.539  58.031  10.779  1.00  0.00    -0.417 OA
ATOM     29  C   UNL     1      80.386  59.166  10.631  1.00  0.00     0.313 C 
ENDBRANCH  22  28
ENDBRANCH  18  19
ENDBRANCH   7  18
ENDBRANCH   4   7
ENDBRANCH   2   3
BRANCH   2  30
ATOM     30  N   UNL     1      87.733  54.526   9.770  1.00  0.00    -0.343 N 
ATOM     31  C   UNL     1      87.780  53.093   9.762  1.00  0.00     0.243 C 
ATOM     32  H   UNL     1      88.304  55.044   9.062  1.00  0.00     0.164 HD
ATOM     33  O   UNL     1      87.103  52.436  10.598  1.00  0.00    -0.273 OA
BRANCH  31  34
ATOM     34  C   UNL     1      88.577  52.365   8.704  1.00  0.00     0.174 C 
ATOM     35  N   UNL     1      87.709  51.464   7.914  1.00  0.00    -0.329 N 
ATOM     36  C   UNL     1      89.732  51.593   9.373  1.00  0.00     0.035 C 
ATOM     37  C   UNL     1      88.336  50.471   7.028  1.00  0.00     0.120 C 
ATOM     38  C   UNL     1      90.456  50.710   8.362  1.00  0.00     0.004 C 
ATOM     39  C   UNL     1      89.473  49.725   7.732  1.00  0.00     0.022 C 
BRANCH  35  40
ATOM     40  C   UNL     1      86.396  51.923   7.532  1.00  0.00     0.246 CG0
ATOM     41  O   UNL     1      86.256  53.098   7.096  1.00  0.00    -0.272 OA
ATOM     42  G   UNL     1      85.180  51.057   7.781  1.00  0.00     0.000 G0
ENDBRANCH  35  40
ENDBRANCH  31  34
ENDBRANCH   2  30
ENDBRANCH   1   2
BRANCH   1  43
ATOM     43  C   UNL     1      88.354  57.092   9.790  1.00  0.00     0.003 C 
BRANCH  43  44
ATOM     44  C   UNL     1      88.201  58.497   9.197  1.00  0.00     0.001 C 
BRANCH  44  45
ATOM     45  C   UNL     1      88.357  58.470   7.669  1.00  0.00     0.008 C 
BRANCH  45  46
ATOM     46  C   UNL     1      87.058  58.020   6.992  1.00  0.00     0.075 C 
BRANCH  46  47
ATOM     47  C   UNL     1      86.226  59.212   6.605  1.00  0.00     0.132 C 
ATOM     48  O   UNL     1      85.966  59.401   5.426  1.00  0.00    -0.300 OA
BRANCH  47  49
ATOM     49  C   UNL     1      85.686  60.163   7.636  1.00  0.00     0.072 C 
ATOM     50  C   UNL     1      84.867  59.418   8.689  1.00  0.00     0.012 C 
ENDBRANCH  47  49
ENDBRANCH  46  47
ENDBRANCH  45  46
ENDBRANCH  44  45
ENDBRANCH  43  44
ENDBRANCH   1  43
TORSDOF 12
ENDMDL
MODEL 7
REMARK VINA RESULT:    -6.408      2.422      7.428
REMARK INTER + INTRA:         -15.437
REMARK INTER:                 -13.796
REMARK INTRA:                  -1.641
REMARK UNBOUND:                -1.911
REMARK SMILES CCC(=O)CCCCC[C@@H]1NC(=O)[C@H]2CCCCN2C(=O)[C@H]([C@@H](C)CC)NC(=O)[C@@H](Cc2cn(OC)c3ccccc23)NC1=O
REMARK SMILES IDX 9 1 10 2 44 3 43 4 45 6 30 7 28 8 27 9 29 11 22 12 23 14
REMARK SMILES IDX 24 15 25 16 26 17 31 18 32 19 33 20 42 21 34 22 37 23 41 24
REMARK SMILES IDX 38 25 40 26 39 27 35 28 36 29 11 30 12 31 13 33 14 34 19 35
REMARK SMILES IDX 15 36 18 37 16 38 17 39 20 40 21 41 8 43 7 44 6 45 5 46 3 47
REMARK SMILES IDX 4 48 2 49 1 50
REMARK H PARENT 43 5 27 10 11 32
REMARK Flexibility Score: 80.00
ROOT
ATOM      1  C   UNL     1      87.418  57.117  10.190  1.00  0.00     0.035 C 
ENDROOT
BRANCH   1   2
ATOM      2  C   UNL     1      86.897  55.667  10.181  1.00  0.00     0.171 C 
BRANCH   2   3
ATOM      3  C   UNL     1      85.531  55.586   9.552  1.00  0.00     0.243 C 
ATOM      4  N   UNL     1      84.575  54.626  10.026  1.00  0.00    -0.342 N 
ATOM      5  H   UNL     1      84.861  53.972  10.790  1.00  0.00     0.164 HD
ATOM      6  O   UNL     1      85.256  56.315   8.557  1.00  0.00    -0.273 OA
BRANCH   4   7
ATOM      7  C   UNL     1      83.275  54.419   9.376  1.00  0.00     0.175 C 
BRANCH   7   8
ATOM      8  C   UNL     1      83.294  53.207   8.478  1.00  0.00     0.243 C 
ATOM      9  N   UNL     1      84.136  52.075   8.769  1.00  0.00    -0.342 N 
ATOM     10  H   UNL     1      84.290  51.857   9.778  1.00  0.00     0.164 HD
ATOM     11  O   UNL     1      82.505  53.176   7.495  1.00  0.00    -0.273 OA
BRANCH   9  12
ATOM     12  C   UNL     1      84.990  51.335   7.820  1.00  0.00     0.174 CG0
ATOM     13  G   UNL     1      86.232  52.150   7.532  1.00  0.00     0.000 G0
BRANCH  12  14
ATOM     14  C   UNL     1      84.259  50.823   6.531  1.00  0.00     0.018 C 
ATOM     15  C   UNL     1      85.184  50.686   5.296  1.00  0.00     0.010 C 
BRANCH  14  16
ATOM     16  C   UNL     1      83.533  49.484   6.813  1.00  0.00     0.002 C 
ATOM     17  C   UNL     1      82.036  49.659   7.072  1.00  0.00     0.004 C 
ENDBRANCH  14  16
ENDBRANCH  12  14
ENDBRANCH   9  12
ENDBRANCH   7   8
BRANCH   7  18
ATOM     18  C   UNL     1      82.163  54.294  10.432  1.00  0.00     0.073 C 
BRANCH  18  19
ATOM     19  C   UNL     1      81.115  55.354  10.245  1.00  0.00    -0.016 A 
ATOM     20  C   UNL     1      81.164  56.661  10.728  1.00  0.00     0.134 A 
ATOM     21  C   UNL     1      79.942  55.259   9.513  1.00  0.00     0.006 A 
ATOM     22  N   UNL     1      80.067  57.340  10.309  1.00  0.00    -0.191 N 
ATOM     23  C   UNL     1      79.334  56.488   9.571  1.00  0.00     0.087 A 
ATOM     24  C   UNL     1      79.385  54.198   8.801  1.00  0.00     0.011 A 
ATOM     25  C   UNL     1      78.129  56.745   8.918  1.00  0.00     0.030 A 
ATOM     26  C   UNL     1      78.176  54.427   8.121  1.00  0.00     0.001 A 
ATOM     27  C   UNL     1      77.550  55.693   8.179  1.00  0.00     0.002 A 
BRANCH  22  28
ATOM     28  O   UNL     1      79.724  58.652  10.589  1.00  0.00    -0.417 OA
ATOM     29  C   UNL     1      80.629  59.735  10.398  1.00  0.00     0.313 C 
ENDBRANCH  22  28
ENDBRANCH  18  19
ENDBRANCH   7  18
ENDBRANCH   4   7
ENDBRANCH   2   3
BRANCH   2  30
ATOM     30  N   UNL     1      87.811  54.794   9.442  1.00  0.00    -0.343 N 
ATOM     31  C   UNL     1      87.811  53.370   9.609  1.00  0.00     0.243 C 
ATOM     32  H   UNL     1      88.349  55.198   8.641  1.00  0.00     0.164 HD
ATOM     33  O   UNL     1      87.170  52.847  10.562  1.00  0.00    -0.273 OA
BRANCH  31  34
ATOM     34  C   UNL     1      88.510  52.487   8.602  1.00  0.00     0.174 C 
ATOM     35  N   UNL     1      87.546  51.596   7.919  1.00  0.00    -0.329 N 
ATOM     36  C   UNL     1      89.619  51.682   9.309  1.00  0.00     0.035 C 
ATOM     37  C   UNL     1      88.060  50.478   7.112  1.00  0.00     0.120 C 
ATOM     38  C   UNL     1      90.235  50.656   8.363  1.00  0.00     0.004 C 
ATOM     39  C   UNL     1      89.155  49.704   7.851  1.00  0.00     0.022 C 
BRANCH  35  40
ATOM     40  C   UNL     1      86.263  52.127   7.531  1.00  0.00     0.246 CG0
ATOM     41  O   UNL     1      86.197  53.293   7.054  1.00  0.00    -0.272 OA
ATOM     42  G   UNL     1      84.994  51.355   7.820  1.00  0.00     0.000 G0
ENDBRANCH  35  40
ENDBRANCH  31  34
ENDBRANCH   2  30
ENDBRANCH   1   2
BRANCH   1  43
ATOM     43  C   UNL     1      88.330  57.402   8.984  1.00  0.00     0.003 C 
BRANCH  43  44
ATOM     44  C   UNL     1      88.238  58.873   8.563  1.00  0.00     0.001 C 
BRANCH  44  45
ATOM     45  C   UNL     1      86.783  59.273   8.277  1.00  0.00     0.008 C 
BRANCH  45  46
ATOM     46  C   UNL     1      86.625  60.796   8.257  1.00  0.00     0.075 C 
BRANCH  46  47
ATOM     47  C   UNL     1      85.590  61.231   9.258  1.00  0.00     0.132 C 
ATOM     48  O   UNL     1      85.364  62.423   9.404  1.00  0.00    -0.300 OA
BRANCH  47  49
ATOM     49  C   UNL     1      84.808  60.233  10.066  1.00  0.00     0.072 C 
ATOM     50  C   UNL     1      84.828  60.599  11.550  1.00  0.00     0.012 C 
ENDBRANCH  47  49
ENDBRANCH  46  47
ENDBRANCH  45  46
ENDBRANCH  44  45
ENDBRANCH  43  44
ENDBRANCH   1  43
TORSDOF 12
ENDMDL
MODEL 8
REMARK VINA RESULT:    -6.322      4.701      9.942
REMARK INTER + INTRA:         -15.256
REMARK INTER:                 -12.599
REMARK INTRA:                  -2.657
REMARK UNBOUND:                -1.911
REMARK SMILES CCC(=O)CCCCC[C@@H]1NC(=O)[C@H]2CCCCN2C(=O)[C@H]([C@@H](C)CC)NC(=O)[C@@H](Cc2cn(OC)c3ccccc23)NC1=O
REMARK SMILES IDX 9 1 10 2 44 3 43 4 45 6 30 7 28 8 27 9 29 11 22 12 23 14
REMARK SMILES IDX 24 15 25 16 26 17 31 18 32 19 33 20 42 21 34 22 37 23 41 24
REMARK SMILES IDX 38 25 40 26 39 27 35 28 36 29 11 30 12 31 13 33 14 34 19 35
REMARK SMILES IDX 15 36 18 37 16 38 17 39 20 40 21 41 8 43 7 44 6 45 5 46 3 47
REMARK SMILES IDX 4 48 2 49 1 50
REMARK H PARENT 43 5 27 10 11 32
REMARK Flexibility Score: 80.00
ROOT
ATOM      1  C   UNL     1      84.994  63.499   8.500  1.00  0.00     0.035 C 
ENDROOT
BRANCH   1   2
ATOM      2  C   UNL     1      86.527  63.423   8.356  1.00  0.00     0.171 C 
BRANCH   2   3
ATOM      3  C   UNL     1      86.928  62.328   7.403  1.00  0.00     0.243 C 
ATOM      4  N   UNL     1      88.110  61.552   7.655  1.00  0.00    -0.342 N 
ATOM      5  H   UNL     1      88.692  61.786   8.491  1.00  0.00     0.164 HD
ATOM      6  O   UNL     1      86.264  62.144   6.345  1.00  0.00    -0.273 OA
BRANCH   4   7
ATOM      7  C   UNL     1      88.616  60.554   6.704  1.00  0.00     0.175 C 
BRANCH   7   8
ATOM      8  C   UNL     1      89.734  61.115   5.860  1.00  0.00     0.243 C 
ATOM      9  N   UNL     1      90.503  62.251   6.298  1.00  0.00    -0.342 N 
ATOM     10  H   UNL     1      90.666  62.334   7.325  1.00  0.00     0.164 HD
ATOM     11  O   UNL     1      90.027  60.527   4.784  1.00  0.00    -0.273 OA
BRANCH   9  12
ATOM     12  C   UNL     1      90.886  63.429   5.496  1.00  0.00     0.174 CG0
ATOM     13  G   UNL     1      89.794  64.472   5.594  1.00  0.00     0.000 G0
BRANCH  12  14
ATOM     14  C   UNL     1      91.325  63.113   4.024  1.00  0.00     0.018 C 
ATOM     15  C   UNL     1      91.241  64.330   3.069  1.00  0.00     0.010 C 
BRANCH  14  16
ATOM     16  C   UNL     1      92.750  62.507   4.000  1.00  0.00     0.002 C 
ATOM     17  C   UNL     1      93.096  61.846   2.665  1.00  0.00     0.004 C 
ENDBRANCH  14  16
ENDBRANCH  12  14
ENDBRANCH   9  12
ENDBRANCH   7   8
BRANCH   7  18
ATOM     18  C   UNL     1      89.081  59.292   7.450  1.00  0.00     0.073 C 
BRANCH  18  19
ATOM     19  C   UNL     1      88.332  58.077   6.980  1.00  0.00    -0.016 A 
ATOM     20  C   UNL     1      87.854  57.846   5.692  1.00  0.00     0.134 A 
ATOM     21  C   UNL     1      88.032  56.938   7.711  1.00  0.00     0.006 A 
ATOM     22  N   UNL     1      87.284  56.616   5.633  1.00  0.00    -0.191 N 
ATOM     23  C   UNL     1      87.399  56.070   6.857  1.00  0.00     0.087 A 
ATOM     24  C   UNL     1      88.280  56.607   9.042  1.00  0.00     0.011 A 
ATOM     25  C   UNL     1      86.974  54.808   7.271  1.00  0.00     0.030 A 
ATOM     26  C   UNL     1      87.875  55.336   9.489  1.00  0.00     0.001 A 
ATOM     27  C   UNL     1      87.224  54.442   8.609  1.00  0.00     0.002 A 
BRANCH  22  28
ATOM     28  O   UNL     1      86.672  56.016   4.546  1.00  0.00    -0.417 OA
ATOM     29  C   UNL     1      85.908  56.754   3.598  1.00  0.00     0.313 C 
ENDBRANCH  22  28
ENDBRANCH  18  19
ENDBRANCH   7  18
ENDBRANCH   4   7
ENDBRANCH   2   3
BRANCH   2  30
ATOM     30  N   UNL     1      87.063  64.695   7.867  1.00  0.00    -0.343 N 
ATOM     31  C   UNL     1      88.421  65.091   8.098  1.00  0.00     0.243 C 
ATOM     32  H   UNL     1      86.498  65.244   7.179  1.00  0.00     0.164 HD
ATOM     33  O   UNL     1      89.134  64.451   8.918  1.00  0.00    -0.273 OA
BRANCH  31  34
ATOM     34  C   UNL     1      89.027  66.224   7.303  1.00  0.00     0.174 C 
ATOM     35  N   UNL     1      90.046  65.721   6.355  1.00  0.00    -0.329 N 
ATOM     36  C   UNL     1      89.622  67.267   8.270  1.00  0.00     0.035 C 
ATOM     37  C   UNL     1      90.940  66.685   5.695  1.00  0.00     0.120 C 
ATOM     38  C   UNL     1      90.393  68.341   7.507  1.00  0.00     0.004 C 
ATOM     39  C   UNL     1      91.511  67.699   6.689  1.00  0.00     0.022 C 
BRANCH  35  40
ATOM     40  C   UNL     1      89.784  64.497   5.639  1.00  0.00     0.246 CG0
ATOM     41  O   UNL     1      88.616  64.264   5.224  1.00  0.00    -0.272 OA
ATOM     42  G   UNL     1      90.860  63.442   5.505  1.00  0.00     0.000 G0
ENDBRANCH  35  40
ENDBRANCH  31  34
ENDBRANCH   2  30
ENDBRANCH   1   2
BRANCH   1  43
ATOM     43  C   UNL     1      84.528  63.017   9.884  1.00  0.00     0.003 C 
BRANCH  43  44
ATOM     44  C   UNL     1      83.265  62.157   9.769  1.00  0.00     0.001 C 
BRANCH  44  45
ATOM     45  C   UNL     1      83.371  60.904  10.651  1.00  0.00     0.008 C 
BRANCH  45  46
ATOM     46  C   UNL     1      84.835  60.528  10.899  1.00  0.00     0.075 C 
BRANCH  46  47
ATOM     47  C   UNL     1      85.296  59.513   9.889  1.00  0.00     0.132 C 
ATOM     48  O   UNL     1      86.402  59.633   9.384  1.00  0.00    -0.300 OA
BRANCH  47  49
ATOM     49  C   UNL     1      84.439  58.340   9.505  1.00  0.00     0.072 C 
ATOM     50  C   UNL     1      84.829  57.095  10.301  1.00  0.00     0.012 C 
ENDBRANCH  47  49
ENDBRANCH  46  47
ENDBRANCH  45  46
ENDBRANCH  44  45
ENDBRANCH  43  44
ENDBRANCH   1  43
TORSDOF 12
ENDMDL
MODEL 9
REMARK VINA RESULT:    -6.261      3.285      7.421
REMARK INTER + INTRA:         -15.127
REMARK INTER:                 -13.948
REMARK INTRA:                  -1.179
REMARK UNBOUND:                -1.911
REMARK SMILES CCC(=O)CCCCC[C@@H]1NC(=O)[C@H]2CCCCN2C(=O)[C@H]([C@@H](C)CC)NC(=O)[C@@H](Cc2cn(OC)c3ccccc23)NC1=O
REMARK SMILES IDX 9 1 10 2 44 3 43 4 45 6 30 7 28 8 27 9 29 11 22 12 23 14
REMARK SMILES IDX 24 15 25 16 26 17 31 18 32 19 33 20 42 21 34 22 37 23 41 24
REMARK SMILES IDX 38 25 40 26 39 27 35 28 36 29 11 30 12 31 13 33 14 34 19 35
REMARK SMILES IDX 15 36 18 37 16 38 17 39 20 40 21 41 8 43 7 44 6 45 5 46 3 47
REMARK SMILES IDX 4 48 2 49 1 50
REMARK H PARENT 43 5 27 10 11 32
REMARK Flexibility Score: 80.00
ROOT
ATOM      1  C   UNL     1      86.569  57.254  10.249  1.00  0.00     0.035 C 
ENDROOT
BRANCH   1   2
ATOM      2  C   UNL     1      86.179  55.766  10.352  1.00  0.00     0.171 C 
BRANCH   2   3
ATOM      3  C   UNL     1      84.873  55.498   9.651  1.00  0.00     0.243 C 
ATOM      4  N   UNL     1      84.010  54.448  10.113  1.00  0.00    -0.342 N 
ATOM      5  H   UNL     1      84.323  53.863  10.921  1.00  0.00     0.164 HD
ATOM      6  O   UNL     1      84.576  56.151   8.611  1.00  0.00    -0.273 OA
BRANCH   4   7
ATOM      7  C   UNL     1      82.786  54.062   9.401  1.00  0.00     0.175 C 
BRANCH   7   8
ATOM      8  C   UNL     1      82.929  52.708   8.752  1.00  0.00     0.243 C 
ATOM      9  N   UNL     1      83.865  51.735   9.253  1.00  0.00    -0.342 N 
ATOM     10  H   UNL     1      84.022  51.729  10.285  1.00  0.00     0.164 HD
ATOM     11  O   UNL     1      82.162  52.416   7.795  1.00  0.00    -0.273 OA
BRANCH   9  12
ATOM     12  C   UNL     1      84.798  50.909   8.462  1.00  0.00     0.174 CG0
ATOM     13  G   UNL     1      85.920  51.784   7.947  1.00  0.00     0.000 G0
BRANCH  12  14
ATOM     14  C   UNL     1      84.126  50.028   7.353  1.00  0.00     0.018 C 
ATOM     15  C   UNL     1      85.123  49.147   6.561  1.00  0.00     0.010 C 
BRANCH  14  16
ATOM     16  C   UNL     1      82.999  49.155   7.961  1.00  0.00     0.002 C 
ATOM     17  C   UNL     1      81.861  48.880   6.977  1.00  0.00     0.004 C 
ENDBRANCH  14  16
ENDBRANCH  12  14
ENDBRANCH   9  12
ENDBRANCH   7   8
BRANCH   7  18
ATOM     18  C   UNL     1      81.582  54.080  10.358  1.00  0.00     0.073 C 
BRANCH  18  19
ATOM     19  C   UNL     1      80.787  55.347  10.208  1.00  0.00    -0.016 A 
ATOM     20  C   UNL     1      81.100  56.590  10.753  1.00  0.00     0.134 A 
ATOM     21  C   UNL     1      79.638  55.536   9.456  1.00  0.00     0.006 A 
ATOM     22  N   UNL     1      80.183  57.506  10.352  1.00  0.00    -0.191 N 
ATOM     23  C   UNL     1      79.303  56.862   9.565  1.00  0.00     0.087 A 
ATOM     24  C   UNL     1      78.885  54.649   8.687  1.00  0.00     0.011 A 
ATOM     25  C   UNL     1      78.196  57.398   8.908  1.00  0.00     0.030 A 
ATOM     26  C   UNL     1      77.768  55.161   8.002  1.00  0.00     0.001 A 
ATOM     27  C   UNL     1      77.424  56.527   8.112  1.00  0.00     0.002 A 
BRANCH  22  28
ATOM     28  O   UNL     1      80.120  58.847  10.689  1.00  0.00    -0.417 OA
ATOM     29  C   UNL     1      81.214  59.736  10.489  1.00  0.00     0.313 C 
ENDBRANCH  22  28
ENDBRANCH  18  19
ENDBRANCH   7  18
ENDBRANCH   4   7
ENDBRANCH   2   3
BRANCH   2  30
ATOM     30  N   UNL     1      87.216  54.918   9.762  1.00  0.00    -0.343 N 
ATOM     31  C   UNL     1      87.206  53.491   9.898  1.00  0.00     0.243 C 
ATOM     32  H   UNL     1      87.877  55.345   9.073  1.00  0.00     0.164 HD
ATOM     33  O   UNL     1      86.420  52.942  10.717  1.00  0.00    -0.273 OA
BRANCH  31  34
ATOM     34  C   UNL     1      88.077  52.637   9.007  1.00  0.00     0.174 C 
ATOM     35  N   UNL     1      87.302  51.522   8.420  1.00  0.00    -0.329 N 
ATOM     36  C   UNL     1      89.285  52.121   9.814  1.00  0.00     0.035 C 
ATOM     37  C   UNL     1      88.024  50.428   7.752  1.00  0.00     0.120 C 
ATOM     38  C   UNL     1      90.097  51.119   8.999  1.00  0.00     0.004 C 
ATOM     39  C   UNL     1      89.212  49.943   8.588  1.00  0.00     0.022 C 
BRANCH  35  40
ATOM     40  C   UNL     1      85.959  51.775   7.959  1.00  0.00     0.246 CG0
ATOM     41  O   UNL     1      85.738  52.779   7.228  1.00  0.00    -0.272 OA
ATOM     42  G   UNL     1      84.805  50.932   8.457  1.00  0.00     0.000 G0
ENDBRANCH  35  40
ENDBRANCH  31  34
ENDBRANCH   2  30
ENDBRANCH   1   2
BRANCH   1  43
ATOM     43  C   UNL     1      85.431  58.175  10.721  1.00  0.00     0.003 C 
BRANCH  43  44
ATOM     44  C   UNL     1      85.988  59.406  11.445  1.00  0.00     0.001 C 
BRANCH  44  45
ATOM     45  C   UNL     1      85.633  59.373  12.939  1.00  0.00     0.008 C 
BRANCH  45  46
ATOM     46  C   UNL     1      84.254  59.989  13.191  1.00  0.00     0.075 C 
BRANCH  46  47
ATOM     47  C   UNL     1      84.233  60.714  14.509  1.00  0.00     0.132 C 
ATOM     48  O   UNL     1      83.246  60.626  15.223  1.00  0.00    -0.300 OA
BRANCH  47  49
ATOM     49  C   UNL     1      85.408  61.525  14.979  1.00  0.00     0.072 C 
ATOM     50  C   UNL     1      85.542  61.460  16.499  1.00  0.00     0.012 C 
ENDBRANCH  47  49
ENDBRANCH  46  47
ENDBRANCH  45  46
ENDBRANCH  44  45
ENDBRANCH  43  44
ENDBRANCH   1  43
TORSDOF 12
ENDMDL
