MODEL 1
REMARK VINA RESULT:    -7.195      0.000      0.000
REMARK INTER + INTRA:          -8.752
REMARK INTER:                  -8.457
REMARK INTRA:                  -0.295
REMARK UNBOUND:                -0.295
REMARK SMILES Oc1ccc(-c2[o+]c3cc(O)cc(O)c3cc2O)cc1
REMARK SMILES IDX 6 1 7 2 8 3 9 4 10 5 12 6 13 7 15 8 16 9 17 10 5 11 4 12
REMARK SMILES IDX 3 13 2 14 19 15 20 16 1 17 18 19 11 21 14 23
REMARK H PARENT 1 18 18 20 11 22 14 24
REMARK Flexibility Score: inf
ROOT
ATOM      1  C   UNL     1     -29.328  19.356  -0.614  1.00  0.00     0.401 A 
ATOM      2  O   UNL     1     -29.745  18.621   0.416  1.00  0.00    -0.202 OA
ATOM      3  C   UNL     1     -29.057  18.497   1.546  1.00  0.00     0.368 A 
ATOM      4  C   UNL     1     -29.566  17.710   2.585  1.00  0.00     0.162 A 
ATOM      5  C   UNL     1     -28.852  17.574   3.782  1.00  0.00     0.128 A 
ATOM      6  C   UNL     1     -27.624  18.227   3.941  1.00  0.00     0.093 A 
ATOM      7  C   UNL     1     -27.101  19.019   2.908  1.00  0.00     0.136 A 
ATOM      8  C   UNL     1     -27.818  19.156   1.705  1.00  0.00     0.125 A 
ATOM      9  C   UNL     1     -27.341  19.926   0.638  1.00  0.00     0.078 A 
ATOM     10  C   UNL     1     -28.089  20.024  -0.538  1.00  0.00     0.223 A 
ENDROOT
BRANCH   1  11
ATOM     11  C   UNL     1     -30.187  19.425  -1.817  1.00  0.00     0.084 A 
ATOM     12  C   UNL     1     -31.239  20.357  -1.863  1.00  0.00     0.022 A 
ATOM     13  C   UNL     1     -32.050  20.454  -2.999  1.00  0.00     0.047 A 
ATOM     14  C   UNL     1     -31.812  19.634  -4.106  1.00  0.00     0.115 A 
ATOM     15  C   UNL     1     -29.940  18.618  -2.943  1.00  0.00     0.022 A 
ATOM     16  C   UNL     1     -30.752  18.718  -4.077  1.00  0.00     0.047 A 
BRANCH  14  17
ATOM     17  O   UNL     1     -32.627  19.742  -5.231  1.00  0.00    -0.508 OA
ATOM     18  H   UNL     1     -33.492  19.221  -5.309  1.00  0.00     0.293 HD
ENDBRANCH  14  17
ENDBRANCH   1  11
BRANCH  10  19
ATOM     19  O   UNL     1     -27.595  20.749  -1.623  1.00  0.00    -0.500 OA
ATOM     20  H   UNL     1     -27.106  21.628  -1.496  1.00  0.00     0.294 HD
ENDBRANCH  10  19
BRANCH   5  21
ATOM     21  O   UNL     1     -29.352  16.792   4.821  1.00  0.00    -0.507 OA
ATOM     22  H   UNL     1     -28.765  16.134   5.318  1.00  0.00     0.293 HD
ENDBRANCH   5  21
BRANCH   7  23
ATOM     23  O   UNL     1     -25.875  19.664   3.078  1.00  0.00    -0.507 OA
ATOM     24  H   UNL     1     -25.014  19.143   3.199  1.00  0.00     0.293 HD
ENDBRANCH   7  23
TORSDOF 5
ENDMDL
MODEL 2
REMARK VINA RESULT:    -6.741      3.938      6.669
REMARK INTER + INTRA:          -8.219
REMARK INTER:                  -7.923
REMARK INTRA:                  -0.296
REMARK UNBOUND:                -0.295
REMARK SMILES Oc1ccc(-c2[o+]c3cc(O)cc(O)c3cc2O)cc1
REMARK SMILES IDX 6 1 7 2 8 3 9 4 10 5 12 6 13 7 15 8 16 9 17 10 5 11 4 12
REMARK SMILES IDX 3 13 2 14 19 15 20 16 1 17 18 19 11 21 14 23
REMARK H PARENT 1 18 18 20 11 22 14 24
REMARK Flexibility Score: inf
ROOT
ATOM      1  C   UNL     1     -29.125  16.608  -3.524  1.00  0.00     0.401 A 
ATOM      2  O   UNL     1     -30.213  17.143  -4.075  1.00  0.00    -0.202 OA
ATOM      3  C   UNL     1     -30.724  18.309  -3.692  1.00  0.00     0.368 A 
ATOM      4  C   UNL     1     -31.869  18.805  -4.325  1.00  0.00     0.162 A 
ATOM      5  C   UNL     1     -32.414  20.035  -3.934  1.00  0.00     0.128 A 
ATOM      6  C   UNL     1     -31.813  20.769  -2.906  1.00  0.00     0.093 A 
ATOM      7  C   UNL     1     -30.666  20.284  -2.261  1.00  0.00     0.136 A 
ATOM      8  C   UNL     1     -30.117  19.049  -2.654  1.00  0.00     0.125 A 
ATOM      9  C   UNL     1     -28.979  18.512  -2.042  1.00  0.00     0.078 A 
ATOM     10  C   UNL     1     -28.478  17.278  -2.465  1.00  0.00     0.223 A 
ENDROOT
BRANCH   1  11
ATOM     11  C   UNL     1     -28.646  15.307  -4.042  1.00  0.00     0.084 A 
ATOM     12  C   UNL     1     -29.338  14.131  -3.704  1.00  0.00     0.022 A 
ATOM     13  C   UNL     1     -28.917  12.894  -4.199  1.00  0.00     0.047 A 
ATOM     14  C   UNL     1     -27.809  12.816  -5.049  1.00  0.00     0.115 A 
ATOM     15  C   UNL     1     -27.545  15.225  -4.914  1.00  0.00     0.022 A 
ATOM     16  C   UNL     1     -27.126  13.985  -5.408  1.00  0.00     0.047 A 
BRANCH  14  17
ATOM     17  O   UNL     1     -27.400  11.576  -5.535  1.00  0.00    -0.508 OA
ATOM     18  H   UNL     1     -27.964  10.745  -5.408  1.00  0.00     0.293 HD
ENDBRANCH  14  17
ENDBRANCH   1  11
BRANCH  10  19
ATOM     19  O   UNL     1     -27.375  16.714  -1.825  1.00  0.00    -0.500 OA
ATOM     20  H   UNL     1     -27.427  16.385  -0.868  1.00  0.00     0.294 HD
ENDBRANCH  10  19
BRANCH   5  21
ATOM     21  O   UNL     1     -33.554  20.536  -4.559  1.00  0.00    -0.507 OA
ATOM     22  H   UNL     1     -34.385  20.774  -4.033  1.00  0.00     0.293 HD
ENDBRANCH   5  21
BRANCH   7  23
ATOM     23  O   UNL     1     -30.076  21.025  -1.236  1.00  0.00    -0.507 OA
ATOM     24  H   UNL     1     -30.346  20.898  -0.267  1.00  0.00     0.293 HD
ENDBRANCH   7  23
TORSDOF 5
ENDMDL
MODEL 3
REMARK VINA RESULT:    -6.302      1.445      6.841
REMARK INTER + INTRA:          -7.703
REMARK INTER:                  -7.564
REMARK INTRA:                  -0.139
REMARK UNBOUND:                -0.295
REMARK SMILES Oc1ccc(-c2[o+]c3cc(O)cc(O)c3cc2O)cc1
REMARK SMILES IDX 6 1 7 2 8 3 9 4 10 5 12 6 13 7 15 8 16 9 17 10 5 11 4 12
REMARK SMILES IDX 3 13 2 14 19 15 20 16 1 17 18 19 11 21 14 23
REMARK H PARENT 1 18 18 20 11 22 14 24
REMARK Flexibility Score: inf
ROOT
ATOM      1  C   UNL     1     -29.688  18.861  -0.754  1.00  0.00     0.401 A 
ATOM      2  O   UNL     1     -30.919  19.341  -0.923  1.00  0.00    -0.202 OA
ATOM      3  C   UNL     1     -31.463  19.544  -2.119  1.00  0.00     0.368 A 
ATOM      4  C   UNL     1     -32.765  20.046  -2.212  1.00  0.00     0.162 A 
ATOM      5  C   UNL     1     -33.350  20.260  -3.466  1.00  0.00     0.128 A 
ATOM      6  C   UNL     1     -32.630  19.973  -4.631  1.00  0.00     0.093 A 
ATOM      7  C   UNL     1     -31.323  19.470  -4.553  1.00  0.00     0.136 A 
ATOM      8  C   UNL     1     -30.734  19.254  -3.293  1.00  0.00     0.125 A 
ATOM      9  C   UNL     1     -29.432  18.762  -3.155  1.00  0.00     0.078 A 
ATOM     10  C   UNL     1     -28.892  18.571  -1.881  1.00  0.00     0.223 A 
ENDROOT
BRANCH   1  11
ATOM     11  C   UNL     1     -29.195  18.669   0.629  1.00  0.00     0.084 A 
ATOM     12  C   UNL     1     -28.112  19.438   1.090  1.00  0.00     0.022 A 
ATOM     13  C   UNL     1     -27.645  19.289   2.399  1.00  0.00     0.047 A 
ATOM     14  C   UNL     1     -28.260  18.383   3.267  1.00  0.00     0.115 A 
ATOM     15  C   UNL     1     -29.823  17.774   1.514  1.00  0.00     0.022 A 
ATOM     16  C   UNL     1     -29.354  17.628   2.823  1.00  0.00     0.047 A 
BRANCH  14  17
ATOM     17  O   UNL     1     -27.783  18.244   4.569  1.00  0.00    -0.508 OA
ATOM     18  H   UNL     1     -27.024  18.817   4.919  1.00  0.00     0.293 HD
ENDBRANCH  14  17
ENDBRANCH   1  11
BRANCH  10  19
ATOM     19  O   UNL     1     -27.576  18.129  -1.737  1.00  0.00    -0.500 OA
ATOM     20  H   UNL     1     -27.053  17.754  -2.520  1.00  0.00     0.294 HD
ENDBRANCH  10  19
BRANCH   5  21
ATOM     21  O   UNL     1     -34.647  20.760  -3.567  1.00  0.00    -0.507 OA
ATOM     22  H   UNL     1     -35.237  20.869  -2.752  1.00  0.00     0.293 HD
ENDBRANCH   5  21
BRANCH   7  23
ATOM     23  O   UNL     1     -30.614  19.189  -5.722  1.00  0.00    -0.507 OA
ATOM     24  H   UNL     1     -30.636  18.269  -6.148  1.00  0.00     0.293 HD
ENDBRANCH   7  23
TORSDOF 5
ENDMDL
MODEL 4
REMARK VINA RESULT:    -6.224      5.252      8.048
REMARK INTER + INTRA:          -7.610
REMARK INTER:                  -7.791
REMARK INTRA:                   0.181
REMARK UNBOUND:                -0.295
REMARK SMILES Oc1ccc(-c2[o+]c3cc(O)cc(O)c3cc2O)cc1
REMARK SMILES IDX 6 1 7 2 8 3 9 4 10 5 12 6 13 7 15 8 16 9 17 10 5 11 4 12
REMARK SMILES IDX 3 13 2 14 19 15 20 16 1 17 18 19 11 21 14 23
REMARK H PARENT 1 18 18 20 11 22 14 24
REMARK Flexibility Score: inf
ROOT
ATOM      1  C   UNL     1     -32.247  15.210  -5.048  1.00  0.00     0.401 A 
ATOM      2  O   UNL     1     -33.012  16.300  -5.002  1.00  0.00    -0.202 OA
ATOM      3  C   UNL     1     -32.555  17.495  -4.640  1.00  0.00     0.368 A 
ATOM      4  C   UNL     1     -33.423  18.592  -4.624  1.00  0.00     0.162 A 
ATOM      5  C   UNL     1     -32.952  19.857  -4.248  1.00  0.00     0.128 A 
ATOM      6  C   UNL     1     -31.611  20.024  -3.887  1.00  0.00     0.093 A 
ATOM      7  C   UNL     1     -30.730  18.933  -3.898  1.00  0.00     0.136 A 
ATOM      8  C   UNL     1     -31.201  17.662  -4.276  1.00  0.00     0.125 A 
ATOM      9  C   UNL     1     -30.370  16.536  -4.298  1.00  0.00     0.078 A 
ATOM     10  C   UNL     1     -30.890  15.295  -4.674  1.00  0.00     0.223 A 
ENDROOT
BRANCH   1  11
ATOM     11  C   UNL     1     -32.868  13.937  -5.476  1.00  0.00     0.084 A 
ATOM     12  C   UNL     1     -32.531  12.746  -4.810  1.00  0.00     0.022 A 
ATOM     13  C   UNL     1     -33.122  11.534  -5.183  1.00  0.00     0.047 A 
ATOM     14  C   UNL     1     -34.065  11.500  -6.213  1.00  0.00     0.115 A 
ATOM     15  C   UNL     1     -33.834  13.898  -6.498  1.00  0.00     0.022 A 
ATOM     16  C   UNL     1     -34.423  12.685  -6.868  1.00  0.00     0.047 A 
BRANCH  14  17
ATOM     17  O   UNL     1     -34.646  10.285  -6.575  1.00  0.00    -0.508 OA
ATOM     18  H   UNL     1     -34.121   9.574  -7.068  1.00  0.00     0.293 HD
ENDBRANCH  14  17
ENDBRANCH   1  11
BRANCH  10  19
ATOM     19  O   UNL     1     -30.079  14.160  -4.649  1.00  0.00    -0.500 OA
ATOM     20  H   UNL     1     -30.466  13.234  -4.512  1.00  0.00     0.294 HD
ENDBRANCH  10  19
BRANCH   5  21
ATOM     21  O   UNL     1     -33.810  20.955  -4.229  1.00  0.00    -0.507 OA
ATOM     22  H   UNL     1     -34.706  20.919  -3.758  1.00  0.00     0.293 HD
ENDBRANCH   5  21
BRANCH   7  23
ATOM     23  O   UNL     1     -29.394  19.112  -3.535  1.00  0.00    -0.507 OA
ATOM     24  H   UNL     1     -28.699  19.425  -4.204  1.00  0.00     0.293 HD
ENDBRANCH   7  23
TORSDOF 5
ENDMDL
MODEL 5
REMARK VINA RESULT:    -6.038      1.674      6.794
REMARK INTER + INTRA:          -7.393
REMARK INTER:                  -7.075
REMARK INTRA:                  -0.317
REMARK UNBOUND:                -0.295
REMARK SMILES Oc1ccc(-c2[o+]c3cc(O)cc(O)c3cc2O)cc1
REMARK SMILES IDX 6 1 7 2 8 3 9 4 10 5 12 6 13 7 15 8 16 9 17 10 5 11 4 12
REMARK SMILES IDX 3 13 2 14 19 15 20 16 1 17 18 19 11 21 14 23
REMARK H PARENT 1 18 18 20 11 22 14 24
REMARK Flexibility Score: inf
ROOT
ATOM      1  C   UNL     1     -28.790  18.870  -0.298  1.00  0.00     0.401 A 
ATOM      2  O   UNL     1     -29.760  19.565  -0.889  1.00  0.00    -0.202 OA
ATOM      3  C   UNL     1     -30.272  19.239  -2.072  1.00  0.00     0.368 A 
ATOM      4  C   UNL     1     -31.294  20.020  -2.624  1.00  0.00     0.162 A 
ATOM      5  C   UNL     1     -31.844  19.684  -3.867  1.00  0.00     0.128 A 
ATOM      6  C   UNL     1     -31.370  18.565  -4.562  1.00  0.00     0.093 A 
ATOM      7  C   UNL     1     -30.345  17.774  -4.022  1.00  0.00     0.136 A 
ATOM      8  C   UNL     1     -29.792  18.111  -2.771  1.00  0.00     0.125 A 
ATOM      9  C   UNL     1     -28.763  17.363  -2.188  1.00  0.00     0.078 A 
ATOM     10  C   UNL     1     -28.244  17.744  -0.948  1.00  0.00     0.223 A 
ENDROOT
BRANCH   1  11
ATOM     11  C   UNL     1     -28.308  19.327   1.025  1.00  0.00     0.084 A 
ATOM     12  C   UNL     1     -27.397  20.395   1.097  1.00  0.00     0.022 A 
ATOM     13  C   UNL     1     -26.945  20.857   2.337  1.00  0.00     0.047 A 
ATOM     14  C   UNL     1     -27.407  20.269   3.518  1.00  0.00     0.115 A 
ATOM     15  C   UNL     1     -28.786  18.754   2.218  1.00  0.00     0.022 A 
ATOM     16  C   UNL     1     -28.332  19.219   3.456  1.00  0.00     0.047 A 
BRANCH  14  17
ATOM     17  O   UNL     1     -26.948  20.740   4.747  1.00  0.00    -0.508 OA
ATOM     18  H   UNL     1     -26.052  21.203   4.835  1.00  0.00     0.293 HD
ENDBRANCH  14  17
ENDBRANCH   1  11
BRANCH  10  19
ATOM     19  O   UNL     1     -27.184  17.033  -0.385  1.00  0.00    -0.500 OA
ATOM     20  H   UNL     1     -27.174  16.785   0.598  1.00  0.00     0.294 HD
ENDBRANCH  10  19
BRANCH   5  21
ATOM     21  O   UNL     1     -32.862  20.456  -4.424  1.00  0.00    -0.507 OA
ATOM     22  H   UNL     1     -32.771  21.459  -4.523  1.00  0.00     0.293 HD
ENDBRANCH   5  21
BRANCH   7  23
ATOM     23  O   UNL     1     -29.879  16.662  -4.724  1.00  0.00    -0.507 OA
ATOM     24  H   UNL     1     -30.274  16.397  -5.620  1.00  0.00     0.293 HD
ENDBRANCH   7  23
TORSDOF 5
ENDMDL
MODEL 6
REMARK VINA RESULT:    -6.007      3.834      6.747
REMARK INTER + INTRA:          -7.356
REMARK INTER:                  -7.190
REMARK INTRA:                  -0.166
REMARK UNBOUND:                -0.295
REMARK SMILES Oc1ccc(-c2[o+]c3cc(O)cc(O)c3cc2O)cc1
REMARK SMILES IDX 6 1 7 2 8 3 9 4 10 5 12 6 13 7 15 8 16 9 17 10 5 11 4 12
REMARK SMILES IDX 3 13 2 14 19 15 20 16 1 17 18 19 11 21 14 23
REMARK H PARENT 1 18 18 20 11 22 14 24
REMARK Flexibility Score: inf
ROOT
ATOM      1  C   UNL     1     -30.308  16.635  -4.128  1.00  0.00     0.401 A 
ATOM      2  O   UNL     1     -29.627  17.462  -3.336  1.00  0.00    -0.202 OA
ATOM      3  C   UNL     1     -30.080  18.657  -2.971  1.00  0.00     0.368 A 
ATOM      4  C   UNL     1     -29.305  19.465  -2.131  1.00  0.00     0.162 A 
ATOM      5  C   UNL     1     -29.773  20.724  -1.736  1.00  0.00     0.128 A 
ATOM      6  C   UNL     1     -31.019  21.178  -2.183  1.00  0.00     0.093 A 
ATOM      7  C   UNL     1     -31.806  20.380  -3.025  1.00  0.00     0.136 A 
ATOM      8  C   UNL     1     -31.337  19.114  -3.423  1.00  0.00     0.125 A 
ATOM      9  C   UNL     1     -32.076  18.279  -4.268  1.00  0.00     0.078 A 
ATOM     10  C   UNL     1     -31.561  17.033  -4.638  1.00  0.00     0.223 A 
ENDROOT
BRANCH   1  11
ATOM     11  C   UNL     1     -29.704  15.325  -4.458  1.00  0.00     0.084 A 
ATOM     12  C   UNL     1     -28.448  15.283  -5.088  1.00  0.00     0.022 A 
ATOM     13  C   UNL     1     -27.848  14.057  -5.389  1.00  0.00     0.047 A 
ATOM     14  C   UNL     1     -28.486  12.859  -5.053  1.00  0.00     0.115 A 
ATOM     15  C   UNL     1     -30.331  14.117  -4.103  1.00  0.00     0.022 A 
ATOM     16  C   UNL     1     -29.728  12.892  -4.405  1.00  0.00     0.047 A 
BRANCH  14  17
ATOM     17  O   UNL     1     -27.877  11.644  -5.359  1.00  0.00    -0.508 OA
ATOM     18  H   UNL     1     -26.900  11.593  -5.621  1.00  0.00     0.293 HD
ENDBRANCH  14  17
ENDBRANCH   1  11
BRANCH  10  19
ATOM     19  O   UNL     1     -32.269  16.218  -5.521  1.00  0.00    -0.500 OA
ATOM     20  H   UNL     1     -32.731  15.372  -5.208  1.00  0.00     0.294 HD
ENDBRANCH  10  19
BRANCH   5  21
ATOM     21  O   UNL     1     -29.007  21.534  -0.900  1.00  0.00    -0.507 OA
ATOM     22  H   UNL     1     -28.208  22.050  -1.249  1.00  0.00     0.293 HD
ENDBRANCH   5  21
BRANCH   7  23
ATOM     23  O   UNL     1     -33.046  20.844  -3.466  1.00  0.00    -0.507 OA
ATOM     24  H   UNL     1     -33.780  20.206  -3.754  1.00  0.00     0.293 HD
ENDBRANCH   7  23
TORSDOF 5
ENDMDL
MODEL 7
REMARK VINA RESULT:    -5.897      3.474      5.710
REMARK INTER + INTRA:          -7.227
REMARK INTER:                  -7.669
REMARK INTRA:                   0.442
REMARK UNBOUND:                -0.295
REMARK SMILES Oc1ccc(-c2[o+]c3cc(O)cc(O)c3cc2O)cc1
REMARK SMILES IDX 6 1 7 2 8 3 9 4 10 5 12 6 13 7 15 8 16 9 17 10 5 11 4 12
REMARK SMILES IDX 3 13 2 14 19 15 20 16 1 17 18 19 11 21 14 23
REMARK H PARENT 1 18 18 20 11 22 14 24
REMARK Flexibility Score: inf
ROOT
ATOM      1  C   UNL     1     -32.039  18.129  -3.979  1.00  0.00     0.401 A 
ATOM      2  O   UNL     1     -30.778  18.057  -3.557  1.00  0.00    -0.202 OA
ATOM      3  C   UNL     1     -30.204  19.000  -2.817  1.00  0.00     0.368 A 
ATOM      4  C   UNL     1     -28.875  18.846  -2.409  1.00  0.00     0.162 A 
ATOM      5  C   UNL     1     -28.260  19.832  -1.626  1.00  0.00     0.128 A 
ATOM      6  C   UNL     1     -28.976  20.974  -1.251  1.00  0.00     0.093 A 
ATOM      7  C   UNL     1     -30.308  21.142  -1.654  1.00  0.00     0.136 A 
ATOM      8  C   UNL     1     -30.928  20.152  -2.440  1.00  0.00     0.125 A 
ATOM      9  C   UNL     1     -32.252  20.270  -2.878  1.00  0.00     0.078 A 
ATOM     10  C   UNL     1     -32.817  19.262  -3.663  1.00  0.00     0.223 A 
ENDROOT
BRANCH   1  11
ATOM     11  C   UNL     1     -32.571  17.011  -4.790  1.00  0.00     0.084 A 
ATOM     12  C   UNL     1     -31.798  15.848  -4.956  1.00  0.00     0.022 A 
ATOM     13  C   UNL     1     -32.289  14.771  -5.700  1.00  0.00     0.047 A 
ATOM     14  C   UNL     1     -33.562  14.835  -6.274  1.00  0.00     0.115 A 
ATOM     15  C   UNL     1     -33.859  17.060  -5.353  1.00  0.00     0.022 A 
ATOM     16  C   UNL     1     -34.348  15.980  -6.096  1.00  0.00     0.047 A 
BRANCH  14  17
ATOM     17  O   UNL     1     -34.039  13.754  -7.013  1.00  0.00    -0.508 OA
ATOM     18  H   UNL     1     -34.440  12.940  -6.562  1.00  0.00     0.293 HD
ENDBRANCH  14  17
ENDBRANCH   1  11
BRANCH  10  19
ATOM     19  O   UNL     1     -34.119  19.397  -4.144  1.00  0.00    -0.500 OA
ATOM     20  H   UNL     1     -34.881  19.685  -3.541  1.00  0.00     0.294 HD
ENDBRANCH  10  19
BRANCH   5  21
ATOM     21  O   UNL     1     -26.936  19.686  -1.215  1.00  0.00    -0.507 OA
ATOM     22  H   UNL     1     -26.325  18.995  -1.632  1.00  0.00     0.293 HD
ENDBRANCH   5  21
BRANCH   7  23
ATOM     23  O   UNL     1     -31.012  22.286  -1.275  1.00  0.00    -0.507 OA
ATOM     24  H   UNL     1     -31.898  22.227  -0.786  1.00  0.00     0.293 HD
ENDBRANCH   7  23
TORSDOF 5
ENDMDL
MODEL 8
REMARK VINA RESULT:    -5.895      2.118      6.758
REMARK INTER + INTRA:          -7.225
REMARK INTER:                  -6.909
REMARK INTRA:                  -0.316
REMARK UNBOUND:                -0.295
REMARK SMILES Oc1ccc(-c2[o+]c3cc(O)cc(O)c3cc2O)cc1
REMARK SMILES IDX 6 1 7 2 8 3 9 4 10 5 12 6 13 7 15 8 16 9 17 10 5 11 4 12
REMARK SMILES IDX 3 13 2 14 19 15 20 16 1 17 18 19 11 21 14 23
REMARK H PARENT 1 18 18 20 11 22 14 24
REMARK Flexibility Score: inf
ROOT
ATOM      1  C   UNL     1     -28.101  19.026   1.044  1.00  0.00     0.401 A 
ATOM      2  O   UNL     1     -28.914  19.636   0.184  1.00  0.00    -0.202 OA
ATOM      3  C   UNL     1     -29.248  19.119  -0.994  1.00  0.00     0.368 A 
ATOM      4  C   UNL     1     -30.113  19.822  -1.839  1.00  0.00     0.162 A 
ATOM      5  C   UNL     1     -30.475  19.285  -3.082  1.00  0.00     0.128 A 
ATOM      6  C   UNL     1     -29.968  18.043  -3.480  1.00  0.00     0.093 A 
ATOM      7  C   UNL     1     -29.099  17.328  -2.644  1.00  0.00     0.136 A 
ATOM      8  C   UNL     1     -28.735  17.866  -1.395  1.00  0.00     0.125 A 
ATOM      9  C   UNL     1     -27.865  17.201  -0.524  1.00  0.00     0.078 A 
ATOM     10  C   UNL     1     -27.531  17.782   0.702  1.00  0.00     0.223 A 
ENDROOT
BRANCH   1  11
ATOM     11  C   UNL     1     -27.811  19.698   2.331  1.00  0.00     0.084 A 
ATOM     12  C   UNL     1     -26.866  20.738   2.370  1.00  0.00     0.022 A 
ATOM     13  C   UNL     1     -26.592  21.401   3.570  1.00  0.00     0.047 A 
ATOM     14  C   UNL     1     -27.268  21.045   4.741  1.00  0.00     0.115 A 
ATOM     15  C   UNL     1     -28.502  19.358   3.508  1.00  0.00     0.022 A 
ATOM     16  C   UNL     1     -28.227  20.024   4.707  1.00  0.00     0.047 A 
BRANCH  14  17
ATOM     17  O   UNL     1     -26.985  21.715   5.930  1.00  0.00    -0.508 OA
ATOM     18  H   UNL     1     -26.172  21.483   6.487  1.00  0.00     0.293 HD
ENDBRANCH  14  17
ENDBRANCH   1  11
BRANCH  10  19
ATOM     19  O   UNL     1     -26.625  17.148   1.553  1.00  0.00    -0.500 OA
ATOM     20  H   UNL     1     -26.178  17.643   2.316  1.00  0.00     0.294 HD
ENDBRANCH  10  19
BRANCH   5  21
ATOM     21  O   UNL     1     -31.336  19.979  -3.929  1.00  0.00    -0.507 OA
ATOM     22  H   UNL     1     -31.252  20.978  -4.067  1.00  0.00     0.293 HD
ENDBRANCH   5  21
BRANCH   7  23
ATOM     23  O   UNL     1     -28.599  16.091  -3.053  1.00  0.00    -0.507 OA
ATOM     24  H   UNL     1     -29.020  15.575  -3.818  1.00  0.00     0.293 HD
ENDBRANCH   7  23
TORSDOF 5
ENDMDL
MODEL 9
REMARK VINA RESULT:    -4.984      1.760      2.533
REMARK INTER + INTRA:          -6.154
REMARK INTER:                  -6.067
REMARK INTRA:                  -0.087
REMARK UNBOUND:                -0.295
REMARK SMILES Oc1ccc(-c2[o+]c3cc(O)cc(O)c3cc2O)cc1
REMARK SMILES IDX 6 1 7 2 8 3 9 4 10 5 12 6 13 7 15 8 16 9 17 10 5 11 4 12
REMARK SMILES IDX 3 13 2 14 19 15 20 16 1 17 18 19 11 21 14 23
REMARK H PARENT 1 18 18 20 11 22 14 24
REMARK Flexibility Score: inf
ROOT
ATOM      1  C   UNL     1     -29.192  18.892  -0.926  1.00  0.00     0.401 A 
ATOM      2  O   UNL     1     -28.713  19.869  -0.158  1.00  0.00    -0.202 OA
ATOM      3  C   UNL     1     -27.816  19.667   0.802  1.00  0.00     0.368 A 
ATOM      4  C   UNL     1     -27.359  20.748   1.563  1.00  0.00     0.162 A 
ATOM      5  C   UNL     1     -26.411  20.547   2.574  1.00  0.00     0.128 A 
ATOM      6  C   UNL     1     -25.920  19.261   2.827  1.00  0.00     0.093 A 
ATOM      7  C   UNL     1     -26.371  18.168   2.073  1.00  0.00     0.136 A 
ATOM      8  C   UNL     1     -27.323  18.368   1.056  1.00  0.00     0.125 A 
ATOM      9  C   UNL     1     -27.814  17.314   0.278  1.00  0.00     0.078 A 
ATOM     10  C   UNL     1     -28.764  17.566  -0.715  1.00  0.00     0.223 A 
ENDROOT
BRANCH   1  11
ATOM     11  C   UNL     1     -30.182  19.244  -1.969  1.00  0.00     0.084 A 
ATOM     12  C   UNL     1     -31.314  20.001  -1.621  1.00  0.00     0.022 A 
ATOM     13  C   UNL     1     -32.250  20.363  -2.594  1.00  0.00     0.047 A 
ATOM     14  C   UNL     1     -32.061  19.987  -3.927  1.00  0.00     0.115 A 
ATOM     15  C   UNL     1     -29.987  18.886  -3.316  1.00  0.00     0.022 A 
ATOM     16  C   UNL     1     -30.925  19.250  -4.287  1.00  0.00     0.047 A 
BRANCH  14  17
ATOM     17  O   UNL     1     -33.003  20.354  -4.887  1.00  0.00    -0.508 OA
ATOM     18  H   UNL     1     -32.724  20.734  -5.783  1.00  0.00     0.293 HD
ENDBRANCH  14  17
ENDBRANCH   1  11
BRANCH  10  19
ATOM     19  O   UNL     1     -29.294  16.512  -1.459  1.00  0.00    -0.500 OA
ATOM     20  H   UNL     1     -28.698  15.829  -1.913  1.00  0.00     0.294 HD
ENDBRANCH  10  19
BRANCH   5  21
ATOM     21  O   UNL     1     -25.950  21.619   3.336  1.00  0.00    -0.507 OA
ATOM     22  H   UNL     1     -26.085  22.577   3.038  1.00  0.00     0.293 HD
ENDBRANCH   5  21
BRANCH   7  23
ATOM     23  O   UNL     1     -25.875  16.890   2.335  1.00  0.00    -0.507 OA
ATOM     24  H   UNL     1     -25.871  16.166   1.625  1.00  0.00     0.293 HD
ENDBRANCH   7  23
TORSDOF 5
ENDMDL
