MODEL 1
REMARK VINA RESULT:    -5.051      0.000      0.000
REMARK INTER + INTRA:          -9.341
REMARK INTER:                  -6.971
REMARK INTRA:                  -2.370
REMARK UNBOUND:                -2.370
REMARK SMILES CC[C@H](CC[C@H](C)[C@H]1CC[C@H]2[C@@H]3CC=C4C[C@@H](O)CC[C@]4(C)[C@@H]3CC[C@]12C)C(C)C
REMARK SMILES IDX 5 1 4 2 3 3 2 4 1 5 28 6 29 7 30 8 6 9 7 10 8 11 9 12 26 13
REMARK SMILES IDX 10 14 11 15 25 16 27 17 12 18 24 19 23 20 13 21 21 22 14 23
REMARK SMILES IDX 15 24 20 25 22 26 16 27 19 28 17 29 18 30
REMARK H PARENT 18 31
REMARK Flexibility Score: inf
ROOT
ATOM      1  C   UNL     1      -6.511   2.190 -26.315  1.00  0.00     0.004 C 
ENDROOT
BRANCH   1   2
ATOM      2  C   UNL     1      -6.292   3.687 -25.997  1.00  0.00     0.004 C 
BRANCH   2   3
ATOM      3  C   UNL     1      -5.832   4.575 -27.193  1.00  0.00    -0.009 C 
BRANCH   3   4
ATOM      4  C   UNL     1      -5.907   3.745 -28.515  1.00  0.00     0.000 C 
ATOM      5  C   UNL     1      -6.827   4.361 -29.575  1.00  0.00     0.004 C 
ENDBRANCH   3   4
BRANCH   3   6
ATOM      6  C   UNL     1      -6.582   5.950 -27.257  1.00  0.00    -0.014 C 
ATOM      7  C   UNL     1      -5.654   7.179 -27.251  1.00  0.00     0.007 C 
ATOM      8  C   UNL     1      -7.647   6.089 -26.164  1.00  0.00     0.007 C 
ENDBRANCH   3   6
ENDBRANCH   2   3
ENDBRANCH   1   2
BRANCH   1   9
ATOM      9  C   UNL     1      -7.977   1.680 -26.211  1.00  0.00    -0.011 C 
ATOM     10  C   UNL     1      -8.203   0.478 -27.159  1.00  0.00     0.008 C 
BRANCH   9  11
ATOM     11  C   UNL     1      -8.976   2.877 -26.421  1.00  0.00    -0.002 C 
ATOM     12  C   UNL     1      -9.823   2.868 -27.712  1.00  0.00     0.005 C 
ATOM     13  C   UNL     1      -9.996   3.162 -25.285  1.00  0.00    -0.026 C 
ATOM     14  C   UNL     1     -11.090   3.682 -27.399  1.00  0.00     0.005 C 
ATOM     15  C   UNL     1     -10.887   4.208 -25.972  1.00  0.00    -0.001 C 
ATOM     16  C   UNL     1      -9.375   3.803 -24.015  1.00  0.00     0.007 C 
ATOM     17  C   UNL     1     -10.776   1.868 -24.901  1.00  0.00     0.012 C 
ATOM     18  C   UNL     1     -12.146   4.568 -25.141  1.00  0.00     0.000 C 
ATOM     19  C   UNL     1     -10.246   4.926 -23.382  1.00  0.00     0.005 C 
ATOM     20  C   UNL     1     -11.792   4.786 -23.608  1.00  0.00     0.003 C 
ATOM     21  C   UNL     1     -12.896   5.755 -25.804  1.00  0.00     0.031 C 
ATOM     22  C   UNL     1     -12.662   5.927 -22.922  1.00  0.00    -0.008 C 
ATOM     23  C   UNL     1     -12.681   7.074 -25.129  1.00  0.00    -0.027 C 
ATOM     24  C   UNL     1     -12.662   7.186 -23.791  1.00  0.00    -0.065 C 
ATOM     25  C   UNL     1     -12.130   6.275 -21.493  1.00  0.00     0.014 C 
ATOM     26  C   UNL     1     -14.126   5.420 -22.774  1.00  0.00     0.016 C 
ATOM     27  C   UNL     1     -13.010   8.542 -23.196  1.00  0.00     0.063 C 
ATOM     28  C   UNL     1     -12.797   7.514 -20.886  1.00  0.00     0.033 C 
ATOM     29  C   UNL     1     -12.485   8.734 -21.765  1.00  0.00     0.118 C 
BRANCH  29  30
ATOM     30  O   UNL     1     -13.009   9.907 -21.195  1.00  0.00    -0.393 OA
ATOM     31  H   UNL     1     -12.322  10.618 -21.290  1.00  0.00     0.210 HD
ENDBRANCH  29  30
ENDBRANCH   9  11
ENDBRANCH   1   9
TORSDOF 7
ENDMDL
MODEL 2
REMARK VINA RESULT:    -5.043     11.154     14.676
REMARK INTER + INTRA:          -9.330
REMARK INTER:                  -7.543
REMARK INTRA:                  -1.787
REMARK UNBOUND:                -2.370
REMARK SMILES CC[C@H](CC[C@H](C)[C@H]1CC[C@H]2[C@@H]3CC=C4C[C@@H](O)CC[C@]4(C)[C@@H]3CC[C@]12C)C(C)C
REMARK SMILES IDX 5 1 4 2 3 3 2 4 1 5 28 6 29 7 30 8 6 9 7 10 8 11 9 12 26 13
REMARK SMILES IDX 10 14 11 15 25 16 27 17 12 18 24 19 23 20 13 21 21 22 14 23
REMARK SMILES IDX 15 24 20 25 22 26 16 27 19 28 17 29 18 30
REMARK H PARENT 18 31
REMARK Flexibility Score: inf
ROOT
ATOM      1  C   UNL     1     -19.189   3.707 -35.780  1.00  0.00     0.004 C 
ENDROOT
BRANCH   1   2
ATOM      2  C   UNL     1     -19.131   5.186 -35.338  1.00  0.00     0.004 C 
BRANCH   2   3
ATOM      3  C   UNL     1     -20.051   5.573 -34.140  1.00  0.00    -0.009 C 
BRANCH   3   4
ATOM      4  C   UNL     1     -19.906   4.505 -33.008  1.00  0.00     0.000 C 
ATOM      5  C   UNL     1     -18.615   4.647 -32.192  1.00  0.00     0.004 C 
ENDBRANCH   3   4
BRANCH   3   6
ATOM      6  C   UNL     1     -19.837   7.049 -33.658  1.00  0.00    -0.014 C 
ATOM      7  C   UNL     1     -20.870   7.535 -32.624  1.00  0.00     0.007 C 
ATOM      8  C   UNL     1     -19.753   8.041 -34.824  1.00  0.00     0.007 C 
ENDBRANCH   3   6
ENDBRANCH   2   3
ENDBRANCH   1   2
BRANCH   1   9
ATOM      9  C   UNL     1     -17.855   2.912 -35.676  1.00  0.00    -0.011 C 
ATOM     10  C   UNL     1     -17.965   1.805 -34.601  1.00  0.00     0.008 C 
BRANCH   9  11
ATOM     11  C   UNL     1     -16.655   3.908 -35.472  1.00  0.00    -0.002 C 
ATOM     12  C   UNL     1     -15.741   3.667 -34.250  1.00  0.00     0.005 C 
ATOM     13  C   UNL     1     -15.675   4.099 -36.662  1.00  0.00    -0.026 C 
ATOM     14  C   UNL     1     -14.376   4.279 -34.610  1.00  0.00     0.005 C 
ATOM     15  C   UNL     1     -14.577   4.930 -35.984  1.00  0.00    -0.001 C 
ATOM     16  C   UNL     1     -16.259   4.923 -37.842  1.00  0.00     0.007 C 
ATOM     17  C   UNL     1     -15.155   2.723 -37.180  1.00  0.00     0.012 C 
ATOM     18  C   UNL     1     -13.331   5.133 -36.884  1.00  0.00     0.000 C 
ATOM     19  C   UNL     1     -15.250   5.926 -38.472  1.00  0.00     0.005 C 
ATOM     20  C   UNL     1     -13.739   5.515 -38.371  1.00  0.00     0.003 C 
ATOM     21  C   UNL     1     -12.347   6.128 -36.211  1.00  0.00     0.031 C 
ATOM     22  C   UNL     1     -12.733   6.540 -39.052  1.00  0.00    -0.008 C 
ATOM     23  C   UNL     1     -12.377   7.510 -36.790  1.00  0.00    -0.027 C 
ATOM     24  C   UNL     1     -12.461   7.718 -38.113  1.00  0.00    -0.065 C 
ATOM     25  C   UNL     1     -13.288   7.072 -40.414  1.00  0.00     0.014 C 
ATOM     26  C   UNL     1     -11.390   5.808 -39.340  1.00  0.00     0.016 C 
ATOM     27  C   UNL     1     -11.926   9.035 -38.653  1.00  0.00     0.063 C 
ATOM     28  C   UNL     1     -12.458   8.222 -40.996  1.00  0.00     0.033 C 
ATOM     29  C   UNL     1     -12.500   9.412 -40.026  1.00  0.00     0.118 C 
BRANCH  29  30
ATOM     30  O   UNL     1     -11.821  10.519 -40.564  1.00  0.00    -0.393 OA
ATOM     31  H   UNL     1     -10.916  10.212 -40.835  1.00  0.00     0.210 HD
ENDBRANCH  29  30
ENDBRANCH   9  11
ENDBRANCH   1   9
TORSDOF 7
ENDMDL
MODEL 3
REMARK VINA RESULT:    -5.039      4.616      7.333
REMARK INTER + INTRA:          -9.324
REMARK INTER:                  -7.118
REMARK INTRA:                  -2.206
REMARK UNBOUND:                -2.370
REMARK SMILES CC[C@H](CC[C@H](C)[C@H]1CC[C@H]2[C@@H]3CC=C4C[C@@H](O)CC[C@]4(C)[C@@H]3CC[C@]12C)C(C)C
REMARK SMILES IDX 5 1 4 2 3 3 2 4 1 5 28 6 29 7 30 8 6 9 7 10 8 11 9 12 26 13
REMARK SMILES IDX 10 14 11 15 25 16 27 17 12 18 24 19 23 20 13 21 21 22 14 23
REMARK SMILES IDX 15 24 20 25 22 26 16 27 19 28 17 29 18 30
REMARK H PARENT 18 31
REMARK Flexibility Score: inf
ROOT
ATOM      1  C   UNL     1     -11.394   5.052 -26.274  1.00  0.00     0.004 C 
ENDROOT
BRANCH   1   2
ATOM      2  C   UNL     1     -10.401   3.903 -25.989  1.00  0.00     0.004 C 
BRANCH   2   3
ATOM      3  C   UNL     1      -9.092   4.307 -25.243  1.00  0.00    -0.009 C 
BRANCH   3   4
ATOM      4  C   UNL     1      -9.063   5.858 -25.050  1.00  0.00     0.000 C 
ATOM      5  C   UNL     1      -7.882   6.541 -25.750  1.00  0.00     0.004 C 
ENDBRANCH   3   4
BRANCH   3   6
ATOM      6  C   UNL     1      -8.865   3.493 -23.924  1.00  0.00    -0.014 C 
ATOM      7  C   UNL     1      -7.389   3.371 -23.500  1.00  0.00     0.007 C 
ATOM      8  C   UNL     1      -9.516   2.106 -23.970  1.00  0.00     0.007 C 
ENDBRANCH   3   6
ENDBRANCH   2   3
ENDBRANCH   1   2
BRANCH   1   9
ATOM      9  C   UNL     1     -12.689   5.063 -25.410  1.00  0.00    -0.011 C 
ATOM     10  C   UNL     1     -13.083   6.513 -25.041  1.00  0.00     0.008 C 
BRANCH   9  11
ATOM     11  C   UNL     1     -12.517   4.097 -24.180  1.00  0.00    -0.002 C 
ATOM     12  C   UNL     1     -12.625   4.725 -22.772  1.00  0.00     0.005 C 
ATOM     13  C   UNL     1     -13.436   2.846 -24.121  1.00  0.00    -0.026 C 
ATOM     14  C   UNL     1     -13.071   3.593 -21.832  1.00  0.00     0.005 C 
ATOM     15  C   UNL     1     -13.115   2.335 -22.709  1.00  0.00    -0.001 C 
ATOM     16  C   UNL     1     -13.066   1.736 -25.142  1.00  0.00     0.007 C 
ATOM     17  C   UNL     1     -14.933   3.248 -24.290  1.00  0.00     0.012 C 
ATOM     18  C   UNL     1     -14.036   1.169 -22.266  1.00  0.00     0.000 C 
ATOM     19  C   UNL     1     -13.164   0.293 -24.569  1.00  0.00     0.005 C 
ATOM     20  C   UNL     1     -14.215   0.094 -23.421  1.00  0.00     0.003 C 
ATOM     21  C   UNL     1     -13.539   0.586 -20.915  1.00  0.00     0.031 C 
ATOM     22  C   UNL     1     -14.319  -1.397 -22.877  1.00  0.00    -0.008 C 
ATOM     23  C   UNL     1     -12.792  -0.706 -21.040  1.00  0.00    -0.027 C 
ATOM     24  C   UNL     1     -13.194  -1.675 -21.878  1.00  0.00    -0.065 C 
ATOM     25  C   UNL     1     -14.256  -2.440 -24.041  1.00  0.00     0.014 C 
ATOM     26  C   UNL     1     -15.686  -1.572 -22.155  1.00  0.00     0.016 C 
ATOM     27  C   UNL     1     -12.775  -3.101 -21.556  1.00  0.00     0.063 C 
ATOM     28  C   UNL     1     -14.132  -3.886 -23.550  1.00  0.00     0.033 C 
ATOM     29  C   UNL     1     -12.818  -4.040 -22.770  1.00  0.00     0.118 C 
BRANCH  29  30
ATOM     30  O   UNL     1     -12.625  -5.375 -22.375  1.00  0.00    -0.393 OA
ATOM     31  H   UNL     1     -13.412  -5.643 -21.831  1.00  0.00     0.210 HD
ENDBRANCH  29  30
ENDBRANCH   9  11
ENDBRANCH   1   9
TORSDOF 7
ENDMDL
MODEL 4
REMARK VINA RESULT:    -5.021      2.435      3.834
REMARK INTER + INTRA:          -9.299
REMARK INTER:                  -7.208
REMARK INTRA:                  -2.091
REMARK UNBOUND:                -2.370
REMARK SMILES CC[C@H](CC[C@H](C)[C@H]1CC[C@H]2[C@@H]3CC=C4C[C@@H](O)CC[C@]4(C)[C@@H]3CC[C@]12C)C(C)C
REMARK SMILES IDX 5 1 4 2 3 3 2 4 1 5 28 6 29 7 30 8 6 9 7 10 8 11 9 12 26 13
REMARK SMILES IDX 10 14 11 15 25 16 27 17 12 18 24 19 23 20 13 21 21 22 14 23
REMARK SMILES IDX 15 24 20 25 22 26 16 27 19 28 17 29 18 30
REMARK H PARENT 18 31
REMARK Flexibility Score: inf
ROOT
ATOM      1  C   UNL     1      -3.739   4.153 -26.111  1.00  0.00     0.004 C 
ENDROOT
BRANCH   1   2
ATOM      2  C   UNL     1      -3.889   5.648 -26.472  1.00  0.00     0.004 C 
BRANCH   2   3
ATOM      3  C   UNL     1      -4.277   5.954 -27.951  1.00  0.00    -0.009 C 
BRANCH   3   4
ATOM      4  C   UNL     1      -4.864   4.665 -28.611  1.00  0.00     0.000 C 
ATOM      5  C   UNL     1      -6.334   4.802 -29.025  1.00  0.00     0.004 C 
ENDBRANCH   3   4
BRANCH   3   6
ATOM      6  C   UNL     1      -5.191   7.219 -28.094  1.00  0.00    -0.014 C 
ATOM      7  C   UNL     1      -4.714   8.229 -29.155  1.00  0.00     0.007 C 
ATOM      8  C   UNL     1      -5.422   7.930 -26.756  1.00  0.00     0.007 C 
ENDBRANCH   3   6
ENDBRANCH   2   3
ENDBRANCH   1   2
BRANCH   1   9
ATOM      9  C   UNL     1      -4.752   3.600 -25.067  1.00  0.00    -0.011 C 
ATOM     10  C   UNL     1      -4.098   2.489 -24.211  1.00  0.00     0.008 C 
BRANCH   9  11
ATOM     11  C   UNL     1      -6.083   3.173 -25.789  1.00  0.00    -0.002 C 
ATOM     12  C   UNL     1      -6.335   1.658 -25.962  1.00  0.00     0.005 C 
ATOM     13  C   UNL     1      -7.416   3.727 -25.215  1.00  0.00    -0.026 C 
ATOM     14  C   UNL     1      -7.860   1.486 -26.059  1.00  0.00     0.005 C 
ATOM     15  C   UNL     1      -8.428   2.911 -26.031  1.00  0.00    -0.001 C 
ATOM     16  C   UNL     1      -7.654   5.235 -25.500  1.00  0.00     0.007 C 
ATOM     17  C   UNL     1      -7.518   3.453 -23.683  1.00  0.00     0.012 C 
ATOM     18  C   UNL     1      -9.889   3.104 -25.549  1.00  0.00     0.000 C 
ATOM     19  C   UNL     1      -9.122   5.581 -25.882  1.00  0.00     0.005 C 
ATOM     20  C   UNL     1     -10.217   4.634 -25.276  1.00  0.00     0.003 C 
ATOM     21  C   UNL     1     -10.867   2.401 -26.528  1.00  0.00     0.031 C 
ATOM     22  C   UNL     1     -11.710   5.031 -25.654  1.00  0.00    -0.008 C 
ATOM     23  C   UNL     1     -11.577   3.330 -27.464  1.00  0.00    -0.027 C 
ATOM     24  C   UNL     1     -12.056   4.515 -27.052  1.00  0.00    -0.065 C 
ATOM     25  C   UNL     1     -11.926   6.579 -25.597  1.00  0.00     0.014 C 
ATOM     26  C   UNL     1     -12.677   4.378 -24.625  1.00  0.00     0.016 C 
ATOM     27  C   UNL     1     -13.209   5.118 -27.840  1.00  0.00     0.063 C 
ATOM     28  C   UNL     1     -13.280   7.020 -26.163  1.00  0.00     0.033 C 
ATOM     29  C   UNL     1     -13.353   6.635 -27.648  1.00  0.00     0.118 C 
BRANCH  29  30
ATOM     30  O   UNL     1     -14.547   7.100 -28.226  1.00  0.00    -0.393 OA
ATOM     31  H   UNL     1     -14.473   8.086 -28.312  1.00  0.00     0.210 HD
ENDBRANCH  29  30
ENDBRANCH   9  11
ENDBRANCH   1   9
TORSDOF 7
ENDMDL
MODEL 5
REMARK VINA RESULT:    -5.021     11.929     15.622
REMARK INTER + INTRA:          -9.299
REMARK INTER:                  -7.052
REMARK INTRA:                  -2.246
REMARK UNBOUND:                -2.370
REMARK SMILES CC[C@H](CC[C@H](C)[C@H]1CC[C@H]2[C@@H]3CC=C4C[C@@H](O)CC[C@]4(C)[C@@H]3CC[C@]12C)C(C)C
REMARK SMILES IDX 5 1 4 2 3 3 2 4 1 5 28 6 29 7 30 8 6 9 7 10 8 11 9 12 26 13
REMARK SMILES IDX 10 14 11 15 25 16 27 17 12 18 24 19 23 20 13 21 21 22 14 23
REMARK SMILES IDX 15 24 20 25 22 26 16 27 19 28 17 29 18 30
REMARK H PARENT 18 31
REMARK Flexibility Score: inf
ROOT
ATOM      1  C   UNL     1     -13.834   5.200 -35.216  1.00  0.00     0.004 C 
ENDROOT
BRANCH   1   2
ATOM      2  C   UNL     1     -14.831   4.081 -35.593  1.00  0.00     0.004 C 
BRANCH   2   3
ATOM      3  C   UNL     1     -16.081   4.531 -36.410  1.00  0.00    -0.009 C 
BRANCH   3   4
ATOM      4  C   UNL     1     -16.099   6.091 -36.511  1.00  0.00     0.000 C 
ATOM      5  C   UNL     1     -17.345   6.731 -35.886  1.00  0.00     0.004 C 
ENDBRANCH   3   4
BRANCH   3   6
ATOM      6  C   UNL     1     -16.204   3.799 -37.790  1.00  0.00    -0.014 C 
ATOM      7  C   UNL     1     -17.623   3.813 -38.391  1.00  0.00     0.007 C 
ATOM      8  C   UNL     1     -15.666   2.364 -37.744  1.00  0.00     0.007 C 
ENDBRANCH   3   6
ENDBRANCH   2   3
ENDBRANCH   1   2
BRANCH   1   9
ATOM      9  C   UNL     1     -12.566   5.310 -36.111  1.00  0.00    -0.011 C 
ATOM     10  C   UNL     1     -12.238   6.793 -36.408  1.00  0.00     0.008 C 
BRANCH   9  11
ATOM     11  C   UNL     1     -12.733   4.408 -37.388  1.00  0.00    -0.002 C 
ATOM     12  C   UNL     1     -12.707   5.119 -38.760  1.00  0.00     0.005 C 
ATOM     13  C   UNL     1     -11.757   3.211 -37.550  1.00  0.00    -0.026 C 
ATOM     14  C   UNL     1     -12.240   4.065 -39.779  1.00  0.00     0.005 C 
ATOM     15  C   UNL     1     -12.102   2.764 -38.978  1.00  0.00    -0.001 C 
ATOM     16  C   UNL     1     -12.034   2.027 -36.583  1.00  0.00     0.007 C 
ATOM     17  C   UNL     1     -10.276   3.679 -37.407  1.00  0.00     0.012 C 
ATOM     18  C   UNL     1     -11.142   1.673 -39.518  1.00  0.00     0.000 C 
ATOM     19  C   UNL     1     -11.886   0.626 -37.242  1.00  0.00     0.005 C 
ATOM     20  C   UNL     1     -10.869   0.546 -38.433  1.00  0.00     0.003 C 
ATOM     21  C   UNL     1     -11.658   1.143 -40.883  1.00  0.00     0.031 C 
ATOM     22  C   UNL     1     -10.711  -0.905 -39.066  1.00  0.00    -0.008 C 
ATOM     23  C   UNL     1     -12.335  -0.191 -40.809  1.00  0.00    -0.027 C 
ATOM     24  C   UNL     1     -11.856  -1.184 -40.042  1.00  0.00    -0.065 C 
ATOM     25  C   UNL     1     -10.680  -2.013 -37.963  1.00  0.00     0.014 C 
ATOM     26  C   UNL     1      -9.364  -0.969 -39.841  1.00  0.00     0.016 C 
ATOM     27  C   UNL     1     -12.215  -2.609 -40.432  1.00  0.00     0.063 C 
ATOM     28  C   UNL     1     -10.751  -3.434 -38.532  1.00  0.00     0.033 C 
ATOM     29  C   UNL     1     -12.082  -3.611 -39.276  1.00  0.00     0.118 C 
BRANCH  29  30
ATOM     30  O   UNL     1     -12.223  -4.930 -39.741  1.00  0.00    -0.393 OA
ATOM     31  H   UNL     1     -12.271  -5.524 -38.946  1.00  0.00     0.210 HD
ENDBRANCH  29  30
ENDBRANCH   9  11
ENDBRANCH   1   9
TORSDOF 7
ENDMDL
MODEL 6
REMARK VINA RESULT:    -5.002     11.914     14.343
REMARK INTER + INTRA:          -9.272
REMARK INTER:                  -7.460
REMARK INTRA:                  -1.813
REMARK UNBOUND:                -2.370
REMARK SMILES CC[C@H](CC[C@H](C)[C@H]1CC[C@H]2[C@@H]3CC=C4C[C@@H](O)CC[C@]4(C)[C@@H]3CC[C@]12C)C(C)C
REMARK SMILES IDX 5 1 4 2 3 3 2 4 1 5 28 6 29 7 30 8 6 9 7 10 8 11 9 12 26 13
REMARK SMILES IDX 10 14 11 15 25 16 27 17 12 18 24 19 23 20 13 21 21 22 14 23
REMARK SMILES IDX 15 24 20 25 22 26 16 27 19 28 17 29 18 30
REMARK H PARENT 18 31
REMARK Flexibility Score: inf
ROOT
ATOM      1  C   UNL     1     -12.239   8.469 -37.494  1.00  0.00     0.004 C 
ENDROOT
BRANCH   1   2
ATOM      2  C   UNL     1     -11.306   8.867 -38.660  1.00  0.00     0.004 C 
BRANCH   2   3
ATOM      3  C   UNL     1     -12.012   9.245 -39.997  1.00  0.00    -0.009 C 
BRANCH   3   4
ATOM      4  C   UNL     1     -11.419  10.587 -40.535  1.00  0.00     0.000 C 
ATOM      5  C   UNL     1     -10.093  10.981 -39.872  1.00  0.00     0.004 C 
ENDBRANCH   3   4
BRANCH   3   6
ATOM      6  C   UNL     1     -12.007   8.078 -41.043  1.00  0.00    -0.014 C 
ATOM      7  C   UNL     1     -13.328   7.290 -41.121  1.00  0.00     0.007 C 
ATOM      8  C   UNL     1     -10.830   7.115 -40.842  1.00  0.00     0.007 C 
ENDBRANCH   3   6
ENDBRANCH   2   3
ENDBRANCH   1   2
BRANCH   1   9
ATOM      9  C   UNL     1     -12.052   7.029 -36.934  1.00  0.00    -0.011 C 
ATOM     10  C   UNL     1     -10.569   6.596 -37.033  1.00  0.00     0.008 C 
BRANCH   9  11
ATOM     11  C   UNL     1     -13.069   6.049 -37.627  1.00  0.00    -0.002 C 
ATOM     12  C   UNL     1     -12.475   4.863 -38.419  1.00  0.00     0.005 C 
ATOM     13  C   UNL     1     -14.168   5.412 -36.734  1.00  0.00    -0.026 C 
ATOM     14  C   UNL     1     -13.555   3.768 -38.423  1.00  0.00     0.005 C 
ATOM     15  C   UNL     1     -14.764   4.393 -37.716  1.00  0.00    -0.001 C 
ATOM     16  C   UNL     1     -15.290   6.396 -36.305  1.00  0.00     0.007 C 
ATOM     17  C   UNL     1     -13.540   4.739 -35.476  1.00  0.00     0.012 C 
ATOM     18  C   UNL     1     -15.791   3.441 -37.049  1.00  0.00     0.000 C 
ATOM     19  C   UNL     1     -16.718   5.781 -36.343  1.00  0.00     0.005 C 
ATOM     20  C   UNL     1     -16.791   4.232 -36.102  1.00  0.00     0.003 C 
ATOM     21  C   UNL     1     -16.482   2.567 -38.130  1.00  0.00     0.031 C 
ATOM     22  C   UNL     1     -18.265   3.635 -36.112  1.00  0.00    -0.008 C 
ATOM     23  C   UNL     1     -17.868   3.010 -38.486  1.00  0.00    -0.027 C 
ATOM     24  C   UNL     1     -18.739   3.420 -37.550  1.00  0.00    -0.065 C 
ATOM     25  C   UNL     1     -19.270   4.570 -35.361  1.00  0.00     0.014 C 
ATOM     26  C   UNL     1     -18.254   2.263 -35.378  1.00  0.00     0.016 C 
ATOM     27  C   UNL     1     -20.221   3.303 -37.871  1.00  0.00     0.063 C 
ATOM     28  C   UNL     1     -20.732   4.146 -35.534  1.00  0.00     0.033 C 
ATOM     29  C   UNL     1     -21.106   4.226 -37.021  1.00  0.00     0.118 C 
BRANCH  29  30
ATOM     30  O   UNL     1     -22.467   3.927 -37.211  1.00  0.00    -0.393 OA
ATOM     31  H   UNL     1     -22.637   3.920 -38.189  1.00  0.00     0.210 HD
ENDBRANCH  29  30
ENDBRANCH   9  11
ENDBRANCH   1   9
TORSDOF 7
ENDMDL
MODEL 7
REMARK VINA RESULT:    -4.933     11.611     13.560
REMARK INTER + INTRA:          -9.177
REMARK INTER:                  -7.565
REMARK INTRA:                  -1.612
REMARK UNBOUND:                -2.370
REMARK SMILES CC[C@H](CC[C@H](C)[C@H]1CC[C@H]2[C@@H]3CC=C4C[C@@H](O)CC[C@]4(C)[C@@H]3CC[C@]12C)C(C)C
REMARK SMILES IDX 5 1 4 2 3 3 2 4 1 5 28 6 29 7 30 8 6 9 7 10 8 11 9 12 26 13
REMARK SMILES IDX 10 14 11 15 25 16 27 17 12 18 24 19 23 20 13 21 21 22 14 23
REMARK SMILES IDX 15 24 20 25 22 26 16 27 19 28 17 29 18 30
REMARK H PARENT 18 31
REMARK Flexibility Score: inf
ROOT
ATOM      1  C   UNL     1     -12.606   6.356 -40.187  1.00  0.00     0.004 C 
ENDROOT
BRANCH   1   2
ATOM      2  C   UNL     1     -12.686   7.882 -39.956  1.00  0.00     0.004 C 
BRANCH   2   3
ATOM      3  C   UNL     1     -11.324   8.642 -39.957  1.00  0.00    -0.009 C 
BRANCH   3   4
ATOM      4  C   UNL     1     -11.440   9.912 -40.859  1.00  0.00     0.000 C 
ATOM      5  C   UNL     1     -10.327  10.940 -40.617  1.00  0.00     0.004 C 
ENDBRANCH   3   4
BRANCH   3   6
ATOM      6  C   UNL     1     -10.782   8.927 -38.514  1.00  0.00    -0.014 C 
ATOM      7  C   UNL     1      -9.569   8.068 -38.110  1.00  0.00     0.007 C 
ATOM      8  C   UNL     1     -11.877   8.827 -37.446  1.00  0.00     0.007 C 
ENDBRANCH   3   6
ENDBRANCH   2   3
ENDBRANCH   1   2
BRANCH   1   9
ATOM      9  C   UNL     1     -12.319   5.491 -38.925  1.00  0.00    -0.011 C 
ATOM     10  C   UNL     1     -11.016   4.678 -39.109  1.00  0.00     0.008 C 
BRANCH   9  11
ATOM     11  C   UNL     1     -13.586   4.628 -38.571  1.00  0.00    -0.002 C 
ATOM     12  C   UNL     1     -13.399   3.096 -38.509  1.00  0.00     0.005 C 
ATOM     13  C   UNL     1     -14.347   4.982 -37.264  1.00  0.00    -0.026 C 
ATOM     14  C   UNL     1     -14.491   2.569 -37.563  1.00  0.00     0.005 C 
ATOM     15  C   UNL     1     -15.325   3.801 -37.186  1.00  0.00    -0.001 C 
ATOM     16  C   UNL     1     -15.170   6.297 -37.341  1.00  0.00     0.007 C 
ATOM     17  C   UNL     1     -13.371   5.036 -36.049  1.00  0.00     0.012 C 
ATOM     18  C   UNL     1     -16.122   3.763 -35.857  1.00  0.00     0.000 C 
ATOM     19  C   UNL     1     -16.563   6.213 -36.655  1.00  0.00     0.005 C 
ATOM     20  C   UNL     1     -16.664   5.202 -35.459  1.00  0.00     0.003 C 
ATOM     21  C   UNL     1     -17.212   2.660 -35.924  1.00  0.00     0.031 C 
ATOM     22  C   UNL     1     -18.088   5.160 -34.753  1.00  0.00    -0.008 C 
ATOM     23  C   UNL     1     -18.598   3.177 -36.165  1.00  0.00    -0.027 C 
ATOM     24  C   UNL     1     -19.052   4.285 -35.557  1.00  0.00    -0.065 C 
ATOM     25  C   UNL     1     -18.693   6.594 -34.591  1.00  0.00     0.014 C 
ATOM     26  C   UNL     1     -17.925   4.550 -33.331  1.00  0.00     0.016 C 
ATOM     27  C   UNL     1     -20.556   4.425 -35.387  1.00  0.00     0.063 C 
ATOM     28  C   UNL     1     -20.150   6.584 -34.119  1.00  0.00     0.033 C 
ATOM     29  C   UNL     1     -21.014   5.875 -35.171  1.00  0.00     0.118 C 
BRANCH  29  30
ATOM     30  O   UNL     1     -22.374   5.921 -34.815  1.00  0.00    -0.393 OA
ATOM     31  H   UNL     1     -22.698   6.843 -34.992  1.00  0.00     0.210 HD
ENDBRANCH  29  30
ENDBRANCH   9  11
ENDBRANCH   1   9
TORSDOF 7
ENDMDL
MODEL 8
REMARK VINA RESULT:    -4.893     12.493     15.698
REMARK INTER + INTRA:          -9.123
REMARK INTER:                  -7.292
REMARK INTRA:                  -1.830
REMARK UNBOUND:                -2.370
REMARK SMILES CC[C@H](CC[C@H](C)[C@H]1CC[C@H]2[C@@H]3CC=C4C[C@@H](O)CC[C@]4(C)[C@@H]3CC[C@]12C)C(C)C
REMARK SMILES IDX 5 1 4 2 3 3 2 4 1 5 28 6 29 7 30 8 6 9 7 10 8 11 9 12 26 13
REMARK SMILES IDX 10 14 11 15 25 16 27 17 12 18 24 19 23 20 13 21 21 22 14 23
REMARK SMILES IDX 15 24 20 25 22 26 16 27 19 28 17 29 18 30
REMARK H PARENT 18 31
REMARK Flexibility Score: inf
ROOT
ATOM      1  C   UNL     1     -14.153   6.265 -36.505  1.00  0.00     0.004 C 
ENDROOT
BRANCH   1   2
ATOM      2  C   UNL     1     -15.323   6.140 -37.507  1.00  0.00     0.004 C 
BRANCH   2   3
ATOM      3  C   UNL     1     -16.480   5.184 -37.084  1.00  0.00    -0.009 C 
BRANCH   3   4
ATOM      4  C   UNL     1     -16.294   3.801 -37.787  1.00  0.00     0.000 C 
ATOM      5  C   UNL     1     -17.529   3.339 -38.569  1.00  0.00     0.004 C 
ENDBRANCH   3   4
BRANCH   3   6
ATOM      6  C   UNL     1     -16.660   5.094 -35.530  1.00  0.00    -0.014 C 
ATOM      7  C   UNL     1     -16.582   3.663 -34.964  1.00  0.00     0.007 C 
ATOM      8  C   UNL     1     -17.942   5.782 -35.046  1.00  0.00     0.007 C 
ENDBRANCH   3   6
ENDBRANCH   2   3
ENDBRANCH   1   2
BRANCH   1   9
ATOM      9  C   UNL     1     -12.728   6.043 -37.092  1.00  0.00    -0.011 C 
ATOM     10  C   UNL     1     -12.075   7.397 -37.460  1.00  0.00     0.008 C 
BRANCH   9  11
ATOM     11  C   UNL     1     -12.792   5.004 -38.272  1.00  0.00    -0.002 C 
ATOM     12  C   UNL     1     -12.316   5.486 -39.660  1.00  0.00     0.005 C 
ATOM     13  C   UNL     1     -12.075   3.642 -38.063  1.00  0.00    -0.026 C 
ATOM     14  C   UNL     1     -11.864   4.227 -40.418  1.00  0.00     0.005 C 
ATOM     15  C   UNL     1     -12.180   3.056 -39.478  1.00  0.00    -0.001 C 
ATOM     16  C   UNL     1     -12.798   2.684 -37.078  1.00  0.00     0.007 C 
ATOM     17  C   UNL     1     -10.598   3.856 -37.609  1.00  0.00     0.012 C 
ATOM     18  C   UNL     1     -11.371   1.744 -39.650  1.00  0.00     0.000 C 
ATOM     19  C   UNL     1     -12.802   1.197 -37.532  1.00  0.00     0.005 C 
ATOM     20  C   UNL     1     -11.586   0.761 -38.422  1.00  0.00     0.003 C 
ATOM     21  C   UNL     1     -11.671   1.116 -41.038  1.00  0.00     0.031 C 
ATOM     22  C   UNL     1     -11.596  -0.773 -38.843  1.00  0.00    -0.008 C 
ATOM     23  C   UNL     1     -12.610  -0.051 -40.996  1.00  0.00    -0.027 C 
ATOM     24  C   UNL     1     -12.529  -0.987 -40.037  1.00  0.00    -0.065 C 
ATOM     25  C   UNL     1     -12.041  -1.692 -37.658  1.00  0.00     0.014 C 
ATOM     26  C   UNL     1     -10.154  -1.190 -39.252  1.00  0.00     0.016 C 
ATOM     27  C   UNL     1     -13.081  -2.367 -40.355  1.00  0.00     0.063 C 
ATOM     28  C   UNL     1     -12.277  -3.147 -38.079  1.00  0.00     0.033 C 
ATOM     29  C   UNL     1     -13.417  -3.194 -39.105  1.00  0.00     0.118 C 
BRANCH  29  30
ATOM     30  O   UNL     1     -13.723  -4.522 -39.452  1.00  0.00    -0.393 OA
ATOM     31  H   UNL     1     -13.736  -5.054 -38.614  1.00  0.00     0.210 HD
ENDBRANCH  29  30
ENDBRANCH   9  11
ENDBRANCH   1   9
TORSDOF 7
ENDMDL
MODEL 9
REMARK VINA RESULT:    -4.846     10.957     14.310
REMARK INTER + INTRA:          -9.057
REMARK INTER:                  -6.720
REMARK INTRA:                  -2.338
REMARK UNBOUND:                -2.370
REMARK SMILES CC[C@H](CC[C@H](C)[C@H]1CC[C@H]2[C@@H]3CC=C4C[C@@H](O)CC[C@]4(C)[C@@H]3CC[C@]12C)C(C)C
REMARK SMILES IDX 5 1 4 2 3 3 2 4 1 5 28 6 29 7 30 8 6 9 7 10 8 11 9 12 26 13
REMARK SMILES IDX 10 14 11 15 25 16 27 17 12 18 24 19 23 20 13 21 21 22 14 23
REMARK SMILES IDX 15 24 20 25 22 26 16 27 19 28 17 29 18 30
REMARK H PARENT 18 31
REMARK Flexibility Score: inf
ROOT
ATOM      1  C   UNL     1     -16.454   1.533 -36.594  1.00  0.00     0.004 C 
ENDROOT
BRANCH   1   2
ATOM      2  C   UNL     1     -17.430   2.620 -36.089  1.00  0.00     0.004 C 
BRANCH   2   3
ATOM      3  C   UNL     1     -17.568   3.882 -36.995  1.00  0.00    -0.009 C 
BRANCH   3   4
ATOM      4  C   UNL     1     -18.849   3.746 -37.880  1.00  0.00     0.000 C 
ATOM      5  C   UNL     1     -19.764   2.588 -37.462  1.00  0.00     0.004 C 
ENDBRANCH   3   4
BRANCH   3   6
ATOM      6  C   UNL     1     -17.485   5.224 -36.190  1.00  0.00    -0.014 C 
ATOM      7  C   UNL     1     -16.332   6.151 -36.620  1.00  0.00     0.007 C 
ATOM      8  C   UNL     1     -17.442   4.998 -34.674  1.00  0.00     0.007 C 
ENDBRANCH   3   6
ENDBRANCH   2   3
ENDBRANCH   1   2
BRANCH   1   9
ATOM      9  C   UNL     1     -15.047   1.520 -35.929  1.00  0.00    -0.011 C 
ATOM     10  C   UNL     1     -15.056   0.642 -34.655  1.00  0.00     0.008 C 
BRANCH   9  11
ATOM     11  C   UNL     1     -14.549   2.996 -35.704  1.00  0.00    -0.002 C 
ATOM     12  C   UNL     1     -14.046   3.361 -34.290  1.00  0.00     0.005 C 
ATOM     13  C   UNL     1     -13.449   3.531 -36.661  1.00  0.00    -0.026 C 
ATOM     14  C   UNL     1     -13.066   4.531 -34.473  1.00  0.00     0.005 C 
ATOM     15  C   UNL     1     -13.107   4.860 -35.971  1.00  0.00    -0.001 C 
ATOM     16  C   UNL     1     -13.948   3.837 -38.099  1.00  0.00     0.007 C 
ATOM     17  C   UNL     1     -12.236   2.553 -36.716  1.00  0.00     0.012 C 
ATOM     18  C   UNL     1     -11.877   5.566 -36.597  1.00  0.00     0.000 C 
ATOM     19  C   UNL     1     -13.360   5.142 -38.708  1.00  0.00     0.005 C 
ATOM     20  C   UNL     1     -11.938   5.548 -38.184  1.00  0.00     0.003 C 
ATOM     21  C   UNL     1     -11.705   6.979 -35.976  1.00  0.00     0.031 C 
ATOM     22  C   UNL     1     -11.346   6.866 -38.848  1.00  0.00    -0.008 C 
ATOM     23  C   UNL     1     -12.173   8.099 -36.853  1.00  0.00    -0.027 C 
ATOM     24  C   UNL     1     -11.933   8.108 -38.174  1.00  0.00    -0.065 C 
ATOM     25  C   UNL     1     -11.635   6.917 -40.384  1.00  0.00     0.014 C 
ATOM     26  C   UNL     1      -9.802   6.874 -38.654  1.00  0.00     0.016 C 
ATOM     27  C   UNL     1     -11.911   9.457 -38.874  1.00  0.00     0.063 C 
ATOM     28  C   UNL     1     -11.277   8.264 -41.021  1.00  0.00     0.033 C 
ATOM     29  C   UNL     1     -12.143   9.364 -40.389  1.00  0.00     0.118 C 
BRANCH  29  30
ATOM     30  O   UNL     1     -11.906  10.604 -41.008  1.00  0.00    -0.393 OA
ATOM     31  H   UNL     1     -12.038  11.310 -40.322  1.00  0.00     0.210 HD
ENDBRANCH  29  30
ENDBRANCH   9  11
ENDBRANCH   1   9
TORSDOF 7
ENDMDL
