MODEL 1
REMARK VINA RESULT:    26.142      0.000      0.000
REMARK INTER + INTRA:          30.408
REMARK INTER:                  30.727
REMARK INTRA:                  -0.319
REMARK UNBOUND:                -0.319
REMARK SMILES Oc1ccc(-c2[o+]c3cc(O)cc(O)c3cc2O)cc1
REMARK SMILES IDX 6 1 7 2 8 3 9 4 10 5 12 6 13 7 15 8 16 9 17 10 5 11 4 12
REMARK SMILES IDX 3 13 2 14 19 15 20 16 1 17 18 19 11 21 14 23
REMARK H PARENT 1 18 18 20 11 22 14 24
REMARK Flexibility Score: inf
ROOT
ATOM      1  C   UNL     1      15.128   4.638  15.148  1.00  0.00     0.401 A 
ATOM      2  O   UNL     1      15.374   5.826  15.697  1.00  0.00    -0.202 OA
ATOM      3  C   UNL     1      14.633   6.904  15.460  1.00  0.00     0.368 A 
ATOM      4  C   UNL     1      14.954   8.115  16.080  1.00  0.00     0.162 A 
ATOM      5  C   UNL     1      14.179   9.257  15.841  1.00  0.00     0.128 A 
ATOM      6  C   UNL     1      13.080   9.187  14.978  1.00  0.00     0.093 A 
ATOM      7  C   UNL     1      12.746   7.978  14.348  1.00  0.00     0.136 A 
ATOM      8  C   UNL     1      13.524   6.831  14.589  1.00  0.00     0.125 A 
ATOM      9  C   UNL     1      13.243   5.601  13.983  1.00  0.00     0.078 A 
ATOM     10  C   UNL     1      14.052   4.493  14.249  1.00  0.00     0.223 A 
ENDROOT
BRANCH   1  11
ATOM     11  C   UNL     1      16.019   3.508  15.497  1.00  0.00     0.084 A 
ATOM     12  C   UNL     1      17.163   3.263  14.719  1.00  0.00     0.022 A 
ATOM     13  C   UNL     1      18.029   2.216  15.042  1.00  0.00     0.047 A 
ATOM     14  C   UNL     1      17.773   1.408  16.157  1.00  0.00     0.115 A 
ATOM     15  C   UNL     1      15.778   2.704  16.627  1.00  0.00     0.022 A 
ATOM     16  C   UNL     1      16.648   1.658  16.948  1.00  0.00     0.047 A 
BRANCH  14  17
ATOM     17  O   UNL     1      18.629   0.361  16.489  1.00  0.00    -0.508 OA
ATOM     18  H   UNL     1      18.391  -0.310  17.210  1.00  0.00     0.293 HD
ENDBRANCH  14  17
ENDBRANCH   1  11
BRANCH  10  19
ATOM     19  O   UNL     1      13.806   3.278  13.609  1.00  0.00    -0.500 OA
ATOM     20  H   UNL     1      14.425   2.485  13.720  1.00  0.00     0.294 HD
ENDBRANCH  10  19
BRANCH   5  21
ATOM     21  O   UNL     1      14.492  10.468  16.454  1.00  0.00    -0.507 OA
ATOM     22  H   UNL     1      14.789  10.511  17.422  1.00  0.00     0.293 HD
ENDBRANCH   5  21
BRANCH   7  23
ATOM     23  O   UNL     1      11.647   7.921  13.490  1.00  0.00    -0.507 OA
ATOM     24  H   UNL     1      11.317   7.043  13.107  1.00  0.00     0.293 HD
ENDBRANCH   7  23
TORSDOF 5
ENDMDL
MODEL 2
REMARK VINA RESULT:    26.782      2.174      6.495
REMARK INTER + INTRA:          31.160
REMARK INTER:                  31.180
REMARK INTRA:                  -0.020
REMARK UNBOUND:                -0.319
REMARK SMILES Oc1ccc(-c2[o+]c3cc(O)cc(O)c3cc2O)cc1
REMARK SMILES IDX 6 1 7 2 8 3 9 4 10 5 12 6 13 7 15 8 16 9 17 10 5 11 4 12
REMARK SMILES IDX 3 13 2 14 19 15 20 16 1 17 18 19 11 21 14 23
REMARK H PARENT 1 18 18 20 11 22 14 24
REMARK Flexibility Score: inf
ROOT
ATOM      1  C   UNL     1      14.887   7.991  15.910  1.00  0.00     0.401 A 
ATOM      2  O   UNL     1      15.267   6.886  16.550  1.00  0.00    -0.202 OA
ATOM      3  C   UNL     1      14.865   5.669  16.200  1.00  0.00     0.368 A 
ATOM      4  C   UNL     1      15.314   4.558  16.921  1.00  0.00     0.162 A 
ATOM      5  C   UNL     1      14.900   3.269  16.561  1.00  0.00     0.128 A 
ATOM      6  C   UNL     1      14.033   3.092  15.477  1.00  0.00     0.093 A 
ATOM      7  C   UNL     1      13.573   4.197  14.745  1.00  0.00     0.136 A 
ATOM      8  C   UNL     1      13.990   5.492  15.107  1.00  0.00     0.125 A 
ATOM      9  C   UNL     1      13.558   6.631  14.418  1.00  0.00     0.078 A 
ATOM     10  C   UNL     1      13.995   7.895  14.822  1.00  0.00     0.223 A 
ENDROOT
BRANCH   1  11
ATOM     11  C   UNL     1      15.411   9.291  16.387  1.00  0.00     0.084 A 
ATOM     12  C   UNL     1      16.799   9.479  16.497  1.00  0.00     0.022 A 
ATOM     13  C   UNL     1      17.317  10.704  16.925  1.00  0.00     0.047 A 
ATOM     14  C   UNL     1      16.454  11.764  17.234  1.00  0.00     0.115 A 
ATOM     15  C   UNL     1      14.551  10.366  16.681  1.00  0.00     0.022 A 
ATOM     16  C   UNL     1      15.073  11.591  17.107  1.00  0.00     0.047 A 
BRANCH  14  17
ATOM     17  O   UNL     1      16.959  12.990  17.662  1.00  0.00    -0.508 OA
ATOM     18  H   UNL     1      17.575  13.542  17.076  1.00  0.00     0.293 HD
ENDBRANCH  14  17
ENDBRANCH   1  11
BRANCH  10  19
ATOM     19  O   UNL     1      13.528   9.038  14.171  1.00  0.00    -0.500 OA
ATOM     20  H   UNL     1      13.248   9.864  14.684  1.00  0.00     0.294 HD
ENDBRANCH  10  19
BRANCH   5  21
ATOM     21  O   UNL     1      15.342   2.157  17.274  1.00  0.00    -0.507 OA
ATOM     22  H   UNL     1      16.278   2.114  17.662  1.00  0.00     0.293 HD
ENDBRANCH   5  21
BRANCH   7  23
ATOM     23  O   UNL     1      12.709   4.007  13.666  1.00  0.00    -0.507 OA
ATOM     24  H   UNL     1      13.055   3.772  12.743  1.00  0.00     0.293 HD
ENDBRANCH   7  23
TORSDOF 5
ENDMDL
MODEL 3
REMARK VINA RESULT:    27.222      1.457      6.952
REMARK INTER + INTRA:          31.678
REMARK INTER:                  31.998
REMARK INTRA:                  -0.320
REMARK UNBOUND:                -0.319
REMARK SMILES Oc1ccc(-c2[o+]c3cc(O)cc(O)c3cc2O)cc1
REMARK SMILES IDX 6 1 7 2 8 3 9 4 10 5 12 6 13 7 15 8 16 9 17 10 5 11 4 12
REMARK SMILES IDX 3 13 2 14 19 15 20 16 1 17 18 19 11 21 14 23
REMARK H PARENT 1 18 18 20 11 22 14 24
REMARK Flexibility Score: inf
ROOT
ATOM      1  C   UNL     1      14.998   5.030  15.460  1.00  0.00     0.401 A 
ATOM      2  O   UNL     1      15.797   4.490  14.541  1.00  0.00    -0.202 OA
ATOM      3  C   UNL     1      16.563   3.429  14.775  1.00  0.00     0.368 A 
ATOM      4  C   UNL     1      17.371   2.919  13.754  1.00  0.00     0.162 A 
ATOM      5  C   UNL     1      18.180   1.800  13.987  1.00  0.00     0.128 A 
ATOM      6  C   UNL     1      18.180   1.189  15.247  1.00  0.00     0.093 A 
ATOM      7  C   UNL     1      17.375   1.690  16.281  1.00  0.00     0.136 A 
ATOM      8  C   UNL     1      16.563   2.815  16.046  1.00  0.00     0.125 A 
ATOM      9  C   UNL     1      15.745   3.362  17.042  1.00  0.00     0.078 A 
ATOM     10  C   UNL     1      14.962   4.485  16.759  1.00  0.00     0.223 A 
ENDROOT
BRANCH   1  11
ATOM     11  C   UNL     1      14.185   6.206  15.076  1.00  0.00     0.084 A 
ATOM     12  C   UNL     1      14.719   7.496  15.230  1.00  0.00     0.022 A 
ATOM     13  C   UNL     1      13.977   8.620  14.856  1.00  0.00     0.047 A 
ATOM     14  C   UNL     1      12.697   8.467  14.307  1.00  0.00     0.115 A 
ATOM     15  C   UNL     1      12.906   6.060  14.508  1.00  0.00     0.022 A 
ATOM     16  C   UNL     1      12.167   7.186  14.132  1.00  0.00     0.047 A 
BRANCH  14  17
ATOM     17  O   UNL     1      11.949   9.580  13.930  1.00  0.00    -0.508 OA
ATOM     18  H   UNL     1      12.125  10.066  13.058  1.00  0.00     0.293 HD
ENDBRANCH  14  17
ENDBRANCH   1  11
BRANCH  10  19
ATOM     19  O   UNL     1      14.185   5.065  17.762  1.00  0.00    -0.500 OA
ATOM     20  H   UNL     1      13.239   4.757  17.946  1.00  0.00     0.294 HD
ENDBRANCH  10  19
BRANCH   5  21
ATOM     21  O   UNL     1      18.988   1.285  12.976  1.00  0.00    -0.507 OA
ATOM     22  H   UNL     1      18.901   0.324  12.666  1.00  0.00     0.293 HD
ENDBRANCH   5  21
BRANCH   7  23
ATOM     23  O   UNL     1      17.385   1.073  17.532  1.00  0.00    -0.507 OA
ATOM     24  H   UNL     1      17.982   0.278  17.728  1.00  0.00     0.293 HD
ENDBRANCH   7  23
TORSDOF 5
ENDMDL
MODEL 4
REMARK VINA RESULT:    27.439      2.918      4.823
REMARK INTER + INTRA:          31.933
REMARK INTER:                  31.911
REMARK INTRA:                   0.022
REMARK UNBOUND:                -0.319
REMARK SMILES Oc1ccc(-c2[o+]c3cc(O)cc(O)c3cc2O)cc1
REMARK SMILES IDX 6 1 7 2 8 3 9 4 10 5 12 6 13 7 15 8 16 9 17 10 5 11 4 12
REMARK SMILES IDX 3 13 2 14 19 15 20 16 1 17 18 19 11 21 14 23
REMARK H PARENT 1 18 18 20 11 22 14 24
REMARK Flexibility Score: inf
ROOT
ATOM      1  C   UNL     1      17.330   3.072  13.884  1.00  0.00     0.401 A 
ATOM      2  O   UNL     1      16.222   3.711  13.514  1.00  0.00    -0.202 OA
ATOM      3  C   UNL     1      15.252   4.038  14.362  1.00  0.00     0.368 A 
ATOM      4  C   UNL     1      14.121   4.715  13.893  1.00  0.00     0.162 A 
ATOM      5  C   UNL     1      13.094   5.068  14.777  1.00  0.00     0.128 A 
ATOM      6  C   UNL     1      13.199   4.743  16.134  1.00  0.00     0.093 A 
ATOM      7  C   UNL     1      14.327   4.064  16.619  1.00  0.00     0.136 A 
ATOM      8  C   UNL     1      15.359   3.710  15.730  1.00  0.00     0.125 A 
ATOM      9  C   UNL     1      16.504   3.026  16.155  1.00  0.00     0.078 A 
ATOM     10  C   UNL     1      17.497   2.690  15.231  1.00  0.00     0.223 A 
ENDROOT
BRANCH   1  11
ATOM     11  C   UNL     1      18.344   2.771  12.849  1.00  0.00     0.084 A 
ATOM     12  C   UNL     1      18.806   3.802  12.013  1.00  0.00     0.022 A 
ATOM     13  C   UNL     1      19.778   3.545  11.042  1.00  0.00     0.047 A 
ATOM     14  C   UNL     1      20.313   2.258  10.905  1.00  0.00     0.115 A 
ATOM     15  C   UNL     1      18.899   1.485  12.717  1.00  0.00     0.022 A 
ATOM     16  C   UNL     1      19.873   1.232  11.746  1.00  0.00     0.047 A 
BRANCH  14  17
ATOM     17  O   UNL     1      21.282   1.990   9.941  1.00  0.00    -0.508 OA
ATOM     18  H   UNL     1      21.868   2.724   9.561  1.00  0.00     0.293 HD
ENDBRANCH  14  17
ENDBRANCH   1  11
BRANCH  10  19
ATOM     19  O   UNL     1      18.616   1.964  15.640  1.00  0.00    -0.500 OA
ATOM     20  H   UNL     1      18.863   1.081  15.210  1.00  0.00     0.294 HD
ENDBRANCH  10  19
BRANCH   5  21
ATOM     21  O   UNL     1      11.964   5.741  14.319  1.00  0.00    -0.507 OA
ATOM     22  H   UNL     1      11.117   5.245  14.065  1.00  0.00     0.293 HD
ENDBRANCH   5  21
BRANCH   7  23
ATOM     23  O   UNL     1      14.420   3.746  17.974  1.00  0.00    -0.507 OA
ATOM     24  H   UNL     1      14.407   4.463  18.690  1.00  0.00     0.293 HD
ENDBRANCH   7  23
TORSDOF 5
ENDMDL
