MODEL 1
REMARK VINA RESULT:    -8.026      0.000      0.000
REMARK INTER + INTRA:         -12.537
REMARK INTER:                 -11.076
REMARK INTRA:                  -1.461
REMARK UNBOUND:                -1.461
REMARK SMILES CC[C@H](CC[C@H](C)[C@@H]1CC[C@@H]2[C@@H]3CC=C4C[C@H](O)CC[C@]4(C)[C@@H]3CC[C@]21C)C(C)C
REMARK SMILES IDX 5 1 4 2 3 3 2 4 1 5 28 6 29 7 30 8 6 9 7 10 8 11 9 12 26 13
REMARK SMILES IDX 10 14 11 15 25 16 27 17 12 18 24 19 23 20 13 21 21 22 14 23
REMARK SMILES IDX 15 24 20 25 22 26 16 27 19 28 17 29 18 30
REMARK H PARENT 18 31
REMARK Flexibility Score: inf
ROOT
ATOM      1  C   UNL     1      12.322  19.805  18.114  1.00  0.00     0.004 C 
ENDROOT
BRANCH   1   2
ATOM      2  C   UNL     1      11.940  18.363  17.731  1.00  0.00     0.004 C 
BRANCH   2   3
ATOM      3  C   UNL     1      10.634  18.239  16.887  1.00  0.00    -0.009 C 
BRANCH   3   4
ATOM      4  C   UNL     1      10.089  19.633  16.461  1.00  0.00     0.000 C 
ATOM      5  C   UNL     1       8.689  19.933  17.001  1.00  0.00     0.004 C 
ENDBRANCH   3   4
BRANCH   3   6
ATOM      6  C   UNL     1      10.756  17.276  15.651  1.00  0.00    -0.014 C 
ATOM      7  C   UNL     1       9.416  16.584  15.343  1.00  0.00     0.007 C 
ATOM      8  C   UNL     1      11.828  16.185  15.843  1.00  0.00     0.007 C 
ENDBRANCH   3   6
ENDBRANCH   2   3
ENDBRANCH   1   2
BRANCH   1   9
ATOM      9  C   UNL     1      13.077  19.988  19.469  1.00  0.00    -0.011 C 
ATOM     10  C   UNL     1      13.562  18.615  19.983  1.00  0.00     0.008 C 
BRANCH   9  11
ATOM     11  C   UNL     1      12.464  20.815  20.662  1.00  0.00    -0.002 C 
ATOM     12  C   UNL     1      12.978  20.545  22.103  1.00  0.00     0.005 C 
ATOM     13  C   UNL     1      10.930  21.037  20.830  1.00  0.00    -0.026 C 
ATOM     14  C   UNL     1      11.934  21.168  23.056  1.00  0.00     0.005 C 
ATOM     15  C   UNL     1      10.961  21.880  22.125  1.00  0.00    -0.001 C 
ATOM     16  C   UNL     1      10.259  21.894  19.736  1.00  0.00     0.007 C 
ATOM     17  C   UNL     1      10.176  19.689  20.975  1.00  0.00     0.012 C 
ATOM     18  C   UNL     1       9.612  22.407  22.666  1.00  0.00     0.000 C 
ATOM     19  C   UNL     1       8.859  22.396  20.174  1.00  0.00     0.005 C 
ATOM     20  C   UNL     1       8.862  23.176  21.530  1.00  0.00     0.003 C 
ATOM     21  C   UNL     1       8.763  21.380  23.445  1.00  0.00     0.031 C 
ATOM     22  C   UNL     1       7.457  23.720  22.017  1.00  0.00    -0.008 C 
ATOM     23  C   UNL     1       7.284  21.662  23.468  1.00  0.00    -0.027 C 
ATOM     24  C   UNL     1       6.670  22.660  22.795  1.00  0.00    -0.065 C 
ATOM     25  C   UNL     1       6.595  24.215  20.811  1.00  0.00     0.014 C 
ATOM     26  C   UNL     1       7.704  24.918  22.976  1.00  0.00     0.016 C 
ATOM     27  C   UNL     1       5.194  22.903  23.080  1.00  0.00     0.063 C 
ATOM     28  C   UNL     1       5.152  24.584  21.189  1.00  0.00     0.033 C 
ATOM     29  C   UNL     1       4.435  23.391  21.840  1.00  0.00     0.118 C 
BRANCH  29  30
ATOM     30  O   UNL     1       4.310  22.329  20.927  1.00  0.00    -0.393 OA
ATOM     31  H   UNL     1       4.550  21.498  21.418  1.00  0.00     0.210 HD
ENDBRANCH  29  30
ENDBRANCH   9  11
ENDBRANCH   1   9
TORSDOF 7
ENDMDL
MODEL 2
REMARK VINA RESULT:    -7.809      4.046      8.125
REMARK INTER + INTRA:         -12.237
REMARK INTER:                 -11.107
REMARK INTRA:                  -1.130
REMARK UNBOUND:                -1.461
REMARK SMILES CC[C@H](CC[C@H](C)[C@@H]1CC[C@@H]2[C@@H]3CC=C4C[C@H](O)CC[C@]4(C)[C@@H]3CC[C@]21C)C(C)C
REMARK SMILES IDX 5 1 4 2 3 3 2 4 1 5 28 6 29 7 30 8 6 9 7 10 8 11 9 12 26 13
REMARK SMILES IDX 10 14 11 15 25 16 27 17 12 18 24 19 23 20 13 21 21 22 14 23
REMARK SMILES IDX 15 24 20 25 22 26 16 27 19 28 17 29 18 30
REMARK H PARENT 18 31
REMARK Flexibility Score: inf
ROOT
ATOM      1  C   UNL     1       1.959  19.241  19.852  1.00  0.00     0.004 C 
ENDROOT
BRANCH   1   2
ATOM      2  C   UNL     1       0.492  19.701  19.950  1.00  0.00     0.004 C 
BRANCH   2   3
ATOM      3  C   UNL     1       0.164  20.565  21.207  1.00  0.00    -0.009 C 
BRANCH   3   4
ATOM      4  C   UNL     1       0.215  22.087  20.888  1.00  0.00     0.000 C 
ATOM      5  C   UNL     1       0.994  22.902  21.923  1.00  0.00     0.004 C 
ENDBRANCH   3   4
BRANCH   3   6
ATOM      6  C   UNL     1      -1.184  20.179  21.917  1.00  0.00    -0.014 C 
ATOM      7  C   UNL     1      -1.045  20.225  23.450  1.00  0.00     0.007 C 
ATOM      8  C   UNL     1      -1.692  18.779  21.523  1.00  0.00     0.007 C 
ENDBRANCH   3   6
ENDBRANCH   2   3
ENDBRANCH   1   2
BRANCH   1   9
ATOM      9  C   UNL     1       2.721  19.620  18.543  1.00  0.00    -0.011 C 
ATOM     10  C   UNL     1       3.341  18.352  17.918  1.00  0.00     0.008 C 
BRANCH   9  11
ATOM     11  C   UNL     1       3.764  20.800  18.495  1.00  0.00    -0.002 C 
ATOM     12  C   UNL     1       4.559  21.045  17.184  1.00  0.00     0.005 C 
ATOM     13  C   UNL     1       4.800  21.052  19.633  1.00  0.00    -0.026 C 
ATOM     14  C   UNL     1       5.753  21.946  17.566  1.00  0.00     0.005 C 
ATOM     15  C   UNL     1       5.507  22.288  19.030  1.00  0.00    -0.001 C 
ATOM     16  C   UNL     1       4.205  21.476  20.992  1.00  0.00     0.007 C 
ATOM     17  C   UNL     1       5.733  19.828  19.830  1.00  0.00     0.012 C 
ATOM     18  C   UNL     1       6.618  22.956  19.871  1.00  0.00     0.000 C 
ATOM     19  C   UNL     1       5.281  22.085  21.928  1.00  0.00     0.005 C 
ATOM     20  C   UNL     1       6.066  23.282  21.296  1.00  0.00     0.003 C 
ATOM     21  C   UNL     1       7.991  22.250  19.837  1.00  0.00     0.031 C 
ATOM     22  C   UNL     1       7.169  23.947  22.216  1.00  0.00    -0.008 C 
ATOM     23  C   UNL     1       8.871  22.509  21.030  1.00  0.00    -0.027 C 
ATOM     24  C   UNL     1       8.510  23.210  22.128  1.00  0.00    -0.065 C 
ATOM     25  C   UNL     1       6.707  23.991  23.709  1.00  0.00     0.014 C 
ATOM     26  C   UNL     1       7.402  25.403  21.725  1.00  0.00     0.016 C 
ATOM     27  C   UNL     1       9.589  23.523  23.155  1.00  0.00     0.063 C 
ATOM     28  C   UNL     1       7.801  24.454  24.684  1.00  0.00     0.033 C 
ATOM     29  C   UNL     1       9.040  23.549  24.586  1.00  0.00     0.118 C 
BRANCH  29  30
ATOM     30  O   UNL     1       8.729  22.238  24.987  1.00  0.00    -0.393 OA
ATOM     31  H   UNL     1       9.268  21.628  24.416  1.00  0.00     0.210 HD
ENDBRANCH  29  30
ENDBRANCH   9  11
ENDBRANCH   1   9
TORSDOF 7
ENDMDL
MODEL 3
REMARK VINA RESULT:    -7.774      3.014      4.570
REMARK INTER + INTRA:         -12.189
REMARK INTER:                 -11.420
REMARK INTRA:                  -0.769
REMARK UNBOUND:                -1.461
REMARK SMILES CC[C@H](CC[C@H](C)[C@@H]1CC[C@@H]2[C@@H]3CC=C4C[C@H](O)CC[C@]4(C)[C@@H]3CC[C@]21C)C(C)C
REMARK SMILES IDX 5 1 4 2 3 3 2 4 1 5 28 6 29 7 30 8 6 9 7 10 8 11 9 12 26 13
REMARK SMILES IDX 10 14 11 15 25 16 27 17 12 18 24 19 23 20 13 21 21 22 14 23
REMARK SMILES IDX 15 24 20 25 22 26 16 27 19 28 17 29 18 30
REMARK H PARENT 18 31
REMARK Flexibility Score: inf
ROOT
ATOM      1  C   UNL     1      11.848  21.596  20.129  1.00  0.00     0.004 C 
ENDROOT
BRANCH   1   2
ATOM      2  C   UNL     1      11.650  20.105  19.797  1.00  0.00     0.004 C 
BRANCH   2   3
ATOM      3  C   UNL     1      12.554  19.570  18.643  1.00  0.00    -0.009 C 
BRANCH   3   4
ATOM      4  C   UNL     1      13.446  18.385  19.112  1.00  0.00     0.000 C 
ATOM      5  C   UNL     1      13.819  18.451  20.594  1.00  0.00     0.004 C 
ENDBRANCH   3   4
BRANCH   3   6
ATOM      6  C   UNL     1      11.769  19.205  17.331  1.00  0.00    -0.014 C 
ATOM      7  C   UNL     1      10.260  19.471  17.485  1.00  0.00     0.007 C 
ATOM      8  C   UNL     1      11.957  17.735  16.907  1.00  0.00     0.007 C 
ENDBRANCH   3   6
ENDBRANCH   2   3
ENDBRANCH   1   2
BRANCH   1   9
ATOM      9  C   UNL     1      11.849  21.977  21.643  1.00  0.00    -0.011 C 
ATOM     10  C   UNL     1      13.136  21.449  22.312  1.00  0.00     0.008 C 
BRANCH   9  11
ATOM     11  C   UNL     1      10.612  21.694  22.577  1.00  0.00    -0.002 C 
ATOM     12  C   UNL     1       9.541  20.669  22.113  1.00  0.00     0.005 C 
ATOM     13  C   UNL     1       9.793  22.835  23.256  1.00  0.00    -0.026 C 
ATOM     14  C   UNL     1       8.297  20.918  22.994  1.00  0.00     0.005 C 
ATOM     15  C   UNL     1       8.760  21.961  24.004  1.00  0.00    -0.001 C 
ATOM     16  C   UNL     1      10.554  23.659  24.315  1.00  0.00     0.007 C 
ATOM     17  C   UNL     1       9.167  23.786  22.202  1.00  0.00     0.012 C 
ATOM     18  C   UNL     1       7.730  22.684  24.902  1.00  0.00     0.000 C 
ATOM     19  C   UNL     1       9.589  24.480  25.209  1.00  0.00     0.005 C 
ATOM     20  C   UNL     1       8.482  23.620  25.903  1.00  0.00     0.003 C 
ATOM     21  C   UNL     1       6.538  23.326  24.160  1.00  0.00     0.031 C 
ATOM     22  C   UNL     1       7.477  24.410  26.837  1.00  0.00    -0.008 C 
ATOM     23  C   UNL     1       5.879  24.470  24.884  1.00  0.00    -0.027 C 
ATOM     24  C   UNL     1       6.310  25.011  26.045  1.00  0.00    -0.065 C 
ATOM     25  C   UNL     1       8.209  25.552  27.615  1.00  0.00     0.014 C 
ATOM     26  C   UNL     1       6.880  23.411  27.866  1.00  0.00     0.016 C 
ATOM     27  C   UNL     1       5.417  26.041  26.721  1.00  0.00     0.063 C 
ATOM     28  C   UNL     1       7.262  26.476  28.398  1.00  0.00     0.033 C 
ATOM     29  C   UNL     1       6.224  27.114  27.461  1.00  0.00     0.118 C 
BRANCH  29  30
ATOM     30  O   UNL     1       6.851  27.951  26.522  1.00  0.00    -0.393 OA
ATOM     31  H   UNL     1       6.756  28.883  26.858  1.00  0.00     0.210 HD
ENDBRANCH  29  30
ENDBRANCH   9  11
ENDBRANCH   1   9
TORSDOF 7
ENDMDL
MODEL 4
REMARK VINA RESULT:    -7.754     10.226     12.718
REMARK INTER + INTRA:         -12.161
REMARK INTER:                 -10.217
REMARK INTRA:                  -1.944
REMARK UNBOUND:                -1.461
REMARK SMILES CC[C@H](CC[C@H](C)[C@@H]1CC[C@@H]2[C@@H]3CC=C4C[C@H](O)CC[C@]4(C)[C@@H]3CC[C@]21C)C(C)C
REMARK SMILES IDX 5 1 4 2 3 3 2 4 1 5 28 6 29 7 30 8 6 9 7 10 8 11 9 12 26 13
REMARK SMILES IDX 10 14 11 15 25 16 27 17 12 18 24 19 23 20 13 21 21 22 14 23
REMARK SMILES IDX 15 24 20 25 22 26 16 27 19 28 17 29 18 30
REMARK H PARENT 18 31
REMARK Flexibility Score: inf
ROOT
ATOM      1  C   UNL     1       9.761  16.827  30.458  1.00  0.00     0.004 C 
ENDROOT
BRANCH   1   2
ATOM      2  C   UNL     1      10.871  16.183  29.606  1.00  0.00     0.004 C 
BRANCH   2   3
ATOM      3  C   UNL     1      10.542  14.749  29.085  1.00  0.00    -0.009 C 
BRANCH   3   4
ATOM      4  C   UNL     1      11.241  14.455  27.727  1.00  0.00     0.000 C 
ATOM      5  C   UNL     1      10.262  14.209  26.577  1.00  0.00     0.004 C 
ENDBRANCH   3   4
BRANCH   3   6
ATOM      6  C   UNL     1      10.824  13.607  30.127  1.00  0.00    -0.014 C 
ATOM      7  C   UNL     1      12.306  13.190  30.117  1.00  0.00     0.007 C 
ATOM      8  C   UNL     1       9.969  12.347  29.886  1.00  0.00     0.007 C 
ENDBRANCH   3   6
ENDBRANCH   2   3
ENDBRANCH   1   2
BRANCH   1   9
ATOM      9  C   UNL     1       8.315  16.773  29.871  1.00  0.00    -0.011 C 
ATOM     10  C   UNL     1       7.721  18.197  29.822  1.00  0.00     0.008 C 
BRANCH   9  11
ATOM     11  C   UNL     1       7.231  15.764  30.411  1.00  0.00    -0.002 C 
ATOM     12  C   UNL     1       7.647  14.721  31.484  1.00  0.00     0.005 C 
ATOM     13  C   UNL     1       6.261  14.989  29.467  1.00  0.00    -0.026 C 
ATOM     14  C   UNL     1       6.535  13.649  31.494  1.00  0.00     0.005 C 
ATOM     15  C   UNL     1       5.481  14.198  30.542  1.00  0.00    -0.001 C 
ATOM     16  C   UNL     1       5.242  15.859  28.702  1.00  0.00     0.007 C 
ATOM     17  C   UNL     1       7.039  14.094  28.468  1.00  0.00     0.012 C 
ATOM     18  C   UNL     1       4.321  13.296  30.061  1.00  0.00     0.000 C 
ATOM     19  C   UNL     1       4.084  15.011  28.118  1.00  0.00     0.005 C 
ATOM     20  C   UNL     1       3.341  14.135  29.180  1.00  0.00     0.003 C 
ATOM     21  C   UNL     1       4.742  11.932  29.471  1.00  0.00     0.031 C 
ATOM     22  C   UNL     1       2.141  13.258  28.636  1.00  0.00    -0.008 C 
ATOM     23  C   UNL     1       3.755  11.321  28.511  1.00  0.00    -0.027 C 
ATOM     24  C   UNL     1       2.621  11.914  28.077  1.00  0.00    -0.065 C 
ATOM     25  C   UNL     1       1.344  14.018  27.526  1.00  0.00     0.014 C 
ATOM     26  C   UNL     1       1.180  12.957  29.819  1.00  0.00     0.016 C 
ATOM     27  C   UNL     1       1.656  11.075  27.250  1.00  0.00     0.063 C 
ATOM     28  C   UNL     1       0.282  13.157  26.824  1.00  0.00     0.033 C 
ATOM     29  C   UNL     1       0.919  11.908  26.195  1.00  0.00     0.118 C 
BRANCH  29  30
ATOM     30  O   UNL     1       1.821  12.270  25.179  1.00  0.00    -0.393 OA
ATOM     31  H   UNL     1       1.654  11.657  24.414  1.00  0.00     0.210 HD
ENDBRANCH  29  30
ENDBRANCH   9  11
ENDBRANCH   1   9
TORSDOF 7
ENDMDL
MODEL 5
REMARK VINA RESULT:    -7.703      2.785      5.763
REMARK INTER + INTRA:         -12.090
REMARK INTER:                 -10.797
REMARK INTRA:                  -1.293
REMARK UNBOUND:                -1.461
REMARK SMILES CC[C@H](CC[C@H](C)[C@@H]1CC[C@@H]2[C@@H]3CC=C4C[C@H](O)CC[C@]4(C)[C@@H]3CC[C@]21C)C(C)C
REMARK SMILES IDX 5 1 4 2 3 3 2 4 1 5 28 6 29 7 30 8 6 9 7 10 8 11 9 12 26 13
REMARK SMILES IDX 10 14 11 15 25 16 27 17 12 18 24 19 23 20 13 21 21 22 14 23
REMARK SMILES IDX 15 24 20 25 22 26 16 27 19 28 17 29 18 30
REMARK H PARENT 18 31
REMARK Flexibility Score: inf
ROOT
ATOM      1  C   UNL     1      10.520  21.939  23.380  1.00  0.00     0.004 C 
ENDROOT
BRANCH   1   2
ATOM      2  C   UNL     1      11.897  21.647  22.756  1.00  0.00     0.004 C 
BRANCH   2   3
ATOM      3  C   UNL     1      12.041  20.221  22.139  1.00  0.00    -0.009 C 
BRANCH   3   4
ATOM      4  C   UNL     1      11.709  20.215  20.619  1.00  0.00     0.000 C 
ATOM      5  C   UNL     1      11.954  21.561  19.934  1.00  0.00     0.004 C 
ENDBRANCH   3   4
BRANCH   3   6
ATOM      6  C   UNL     1      13.429  19.539  22.419  1.00  0.00    -0.014 C 
ATOM      7  C   UNL     1      14.538  20.586  22.633  1.00  0.00     0.007 C 
ATOM      8  C   UNL     1      13.874  18.593  21.287  1.00  0.00     0.007 C 
ENDBRANCH   3   6
ENDBRANCH   2   3
ENDBRANCH   1   2
BRANCH   1   9
ATOM      9  C   UNL     1       9.927  23.361  23.126  1.00  0.00    -0.011 C 
ATOM     10  C   UNL     1       9.491  23.990  24.467  1.00  0.00     0.008 C 
BRANCH   9  11
ATOM     11  C   UNL     1       8.824  23.624  22.033  1.00  0.00    -0.002 C 
ATOM     12  C   UNL     1       8.087  24.991  22.024  1.00  0.00     0.005 C 
ATOM     13  C   UNL     1       7.716  22.581  21.689  1.00  0.00    -0.026 C 
ATOM     14  C   UNL     1       6.826  24.795  21.155  1.00  0.00     0.005 C 
ATOM     15  C   UNL     1       6.975  23.385  20.597  1.00  0.00    -0.001 C 
ATOM     16  C   UNL     1       8.213  21.272  21.043  1.00  0.00     0.007 C 
ATOM     17  C   UNL     1       6.844  22.253  22.930  1.00  0.00     0.012 C 
ATOM     18  C   UNL     1       5.784  22.698  19.889  1.00  0.00     0.000 C 
ATOM     19  C   UNL     1       7.057  20.481  20.378  1.00  0.00     0.005 C 
ATOM     20  C   UNL     1       6.241  21.311  19.333  1.00  0.00     0.003 C 
ATOM     21  C   UNL     1       4.457  22.693  20.678  1.00  0.00     0.031 C 
ATOM     22  C   UNL     1       5.055  20.546  18.616  1.00  0.00    -0.008 C 
ATOM     23  C   UNL     1       3.502  21.589  20.310  1.00  0.00    -0.027 C 
ATOM     24  C   UNL     1       3.765  20.588  19.441  1.00  0.00    -0.065 C 
ATOM     25  C   UNL     1       5.434  19.055  18.335  1.00  0.00     0.014 C 
ATOM     26  C   UNL     1       4.768  21.250  17.261  1.00  0.00     0.016 C 
ATOM     27  C   UNL     1       2.617  19.665  19.057  1.00  0.00     0.063 C 
ATOM     28  C   UNL     1       4.266  18.206  17.810  1.00  0.00     0.033 C 
ATOM     29  C   UNL     1       3.087  18.229  18.796  1.00  0.00     0.118 C 
BRANCH  29  30
ATOM     30  O   UNL     1       3.449  17.632  20.016  1.00  0.00    -0.393 OA
ATOM     31  H   UNL     1       3.188  18.267  20.735  1.00  0.00     0.210 HD
ENDBRANCH  29  30
ENDBRANCH   9  11
ENDBRANCH   1   9
TORSDOF 7
ENDMDL
MODEL 6
REMARK VINA RESULT:    -7.608      3.171      5.714
REMARK INTER + INTRA:         -11.960
REMARK INTER:                 -10.657
REMARK INTRA:                  -1.303
REMARK UNBOUND:                -1.461
REMARK SMILES CC[C@H](CC[C@H](C)[C@@H]1CC[C@@H]2[C@@H]3CC=C4C[C@H](O)CC[C@]4(C)[C@@H]3CC[C@]21C)C(C)C
REMARK SMILES IDX 5 1 4 2 3 3 2 4 1 5 28 6 29 7 30 8 6 9 7 10 8 11 9 12 26 13
REMARK SMILES IDX 10 14 11 15 25 16 27 17 12 18 24 19 23 20 13 21 21 22 14 23
REMARK SMILES IDX 15 24 20 25 22 26 16 27 19 28 17 29 18 30
REMARK H PARENT 18 31
REMARK Flexibility Score: inf
ROOT
ATOM      1  C   UNL     1       7.423  21.825  19.724  1.00  0.00     0.004 C 
ENDROOT
BRANCH   1   2
ATOM      2  C   UNL     1       6.842  22.579  18.514  1.00  0.00     0.004 C 
BRANCH   2   3
ATOM      3  C   UNL     1       5.628  23.503  18.846  1.00  0.00    -0.009 C 
BRANCH   3   4
ATOM      4  C   UNL     1       5.194  23.370  20.335  1.00  0.00     0.000 C 
ATOM      5  C   UNL     1       3.825  22.710  20.514  1.00  0.00     0.004 C 
ENDBRANCH   3   4
BRANCH   3   6
ATOM      6  C   UNL     1       5.840  25.009  18.450  1.00  0.00    -0.014 C 
ATOM      7  C   UNL     1       5.684  25.218  16.932  1.00  0.00     0.007 C 
ATOM      8  C   UNL     1       7.220  25.553  18.869  1.00  0.00     0.007 C 
ENDBRANCH   3   6
ENDBRANCH   2   3
ENDBRANCH   1   2
BRANCH   1   9
ATOM      9  C   UNL     1       8.954  21.997  19.981  1.00  0.00    -0.011 C 
ATOM     10  C   UNL     1       9.729  20.859  19.284  1.00  0.00     0.008 C 
BRANCH   9  11
ATOM     11  C   UNL     1       9.538  22.229  21.426  1.00  0.00    -0.002 C 
ATOM     12  C   UNL     1      10.563  21.209  21.993  1.00  0.00     0.005 C 
ATOM     13  C   UNL     1       8.640  22.600  22.646  1.00  0.00    -0.026 C 
ATOM     14  C   UNL     1      10.619  21.457  23.516  1.00  0.00     0.005 C 
ATOM     15  C   UNL     1       9.743  22.686  23.725  1.00  0.00    -0.001 C 
ATOM     16  C   UNL     1       7.956  23.980  22.572  1.00  0.00     0.007 C 
ATOM     17  C   UNL     1       7.577  21.503  22.920  1.00  0.00     0.012 C 
ATOM     18  C   UNL     1       9.317  23.105  25.150  1.00  0.00     0.000 C 
ATOM     19  C   UNL     1       7.425  24.436  23.956  1.00  0.00     0.005 C 
ATOM     20  C   UNL     1       8.513  24.443  25.080  1.00  0.00     0.003 C 
ATOM     21  C   UNL     1       8.675  21.990  26.004  1.00  0.00     0.031 C 
ATOM     22  C   UNL     1       8.026  24.912  26.511  1.00  0.00    -0.008 C 
ATOM     23  C   UNL     1       7.765  22.472  27.103  1.00  0.00    -0.027 C 
ATOM     24  C   UNL     1       7.412  23.760  27.314  1.00  0.00    -0.065 C 
ATOM     25  C   UNL     1       6.981  26.070  26.400  1.00  0.00     0.014 C 
ATOM     26  C   UNL     1       9.259  25.430  27.303  1.00  0.00     0.016 C 
ATOM     27  C   UNL     1       6.629  24.081  28.579  1.00  0.00     0.063 C 
ATOM     28  C   UNL     1       6.328  26.449  27.739  1.00  0.00     0.033 C 
ATOM     29  C   UNL     1       5.637  25.231  28.373  1.00  0.00     0.118 C 
BRANCH  29  30
ATOM     30  O   UNL     1       4.575  24.787  27.564  1.00  0.00    -0.393 OA
ATOM     31  H   UNL     1       4.805  25.033  26.628  1.00  0.00     0.210 HD
ENDBRANCH  29  30
ENDBRANCH   9  11
ENDBRANCH   1   9
TORSDOF 7
ENDMDL
MODEL 7
REMARK VINA RESULT:    -7.598      2.260      4.442
REMARK INTER + INTRA:         -11.946
REMARK INTER:                 -10.597
REMARK INTRA:                  -1.348
REMARK UNBOUND:                -1.461
REMARK SMILES CC[C@H](CC[C@H](C)[C@@H]1CC[C@@H]2[C@@H]3CC=C4C[C@H](O)CC[C@]4(C)[C@@H]3CC[C@]21C)C(C)C
REMARK SMILES IDX 5 1 4 2 3 3 2 4 1 5 28 6 29 7 30 8 6 9 7 10 8 11 9 12 26 13
REMARK SMILES IDX 10 14 11 15 25 16 27 17 12 18 24 19 23 20 13 21 21 22 14 23
REMARK SMILES IDX 15 24 20 25 22 26 16 27 19 28 17 29 18 30
REMARK H PARENT 18 31
REMARK Flexibility Score: inf
ROOT
ATOM      1  C   UNL     1      12.211  20.890  23.137  1.00  0.00     0.004 C 
ENDROOT
BRANCH   1   2
ATOM      2  C   UNL     1      12.346  19.918  21.949  1.00  0.00     0.004 C 
BRANCH   2   3
ATOM      3  C   UNL     1      13.452  20.302  20.918  1.00  0.00    -0.009 C 
BRANCH   3   4
ATOM      4  C   UNL     1      14.879  20.168  21.526  1.00  0.00     0.000 C 
ATOM      5  C   UNL     1      15.617  21.503  21.650  1.00  0.00     0.004 C 
ENDBRANCH   3   4
BRANCH   3   6
ATOM      6  C   UNL     1      13.346  19.539  19.548  1.00  0.00    -0.014 C 
ATOM      7  C   UNL     1      11.898  19.523  19.024  1.00  0.00     0.007 C 
ATOM      8  C   UNL     1      13.842  18.082  19.631  1.00  0.00     0.007 C 
ENDBRANCH   3   6
ENDBRANCH   2   3
ENDBRANCH   1   2
BRANCH   1   9
ATOM      9  C   UNL     1      12.062  22.403  22.784  1.00  0.00    -0.011 C 
ATOM     10  C   UNL     1      12.899  23.251  23.765  1.00  0.00     0.008 C 
BRANCH   9  11
ATOM     11  C   UNL     1      10.653  23.076  22.570  1.00  0.00    -0.002 C 
ATOM     12  C   UNL     1      10.001  23.842  23.753  1.00  0.00     0.005 C 
ATOM     13  C   UNL     1       9.465  22.338  21.879  1.00  0.00    -0.026 C 
ATOM     14  C   UNL     1       8.510  24.010  23.388  1.00  0.00     0.005 C 
ATOM     15  C   UNL     1       8.412  23.467  21.967  1.00  0.00    -0.001 C 
ATOM     16  C   UNL     1       9.666  22.008  20.386  1.00  0.00     0.007 C 
ATOM     17  C   UNL     1       9.073  21.052  22.653  1.00  0.00     0.012 C 
ATOM     18  C   UNL     1       7.030  23.205  21.328  1.00  0.00     0.000 C 
ATOM     19  C   UNL     1       8.327  21.653  19.689  1.00  0.00     0.005 C 
ATOM     20  C   UNL     1       7.222  22.749  19.845  1.00  0.00     0.003 C 
ATOM     21  C   UNL     1       6.064  22.341  22.168  1.00  0.00     0.031 C 
ATOM     22  C   UNL     1       5.838  22.440  19.141  1.00  0.00    -0.008 C 
ATOM     23  C   UNL     1       5.008  21.615  21.378  1.00  0.00    -0.027 C 
ATOM     24  C   UNL     1       4.920  21.593  20.029  1.00  0.00    -0.065 C 
ATOM     25  C   UNL     1       6.050  21.705  17.778  1.00  0.00     0.014 C 
ATOM     26  C   UNL     1       5.115  23.789  18.872  1.00  0.00     0.016 C 
ATOM     27  C   UNL     1       3.683  20.956  19.411  1.00  0.00     0.063 C 
ATOM     28  C   UNL     1       4.747  21.210  17.130  1.00  0.00     0.033 C 
ATOM     29  C   UNL     1       3.990  20.266  18.077  1.00  0.00     0.118 C 
BRANCH  29  30
ATOM     30  O   UNL     1       4.738  19.101  18.319  1.00  0.00    -0.393 OA
ATOM     31  H   UNL     1       5.660  19.395  18.553  1.00  0.00     0.210 HD
ENDBRANCH  29  30
ENDBRANCH   9  11
ENDBRANCH   1   9
TORSDOF 7
ENDMDL
MODEL 8
REMARK VINA RESULT:    -7.464      9.913     12.942
REMARK INTER + INTRA:         -11.760
REMARK INTER:                 -10.489
REMARK INTRA:                  -1.271
REMARK UNBOUND:                -1.461
REMARK SMILES CC[C@H](CC[C@H](C)[C@@H]1CC[C@@H]2[C@@H]3CC=C4C[C@H](O)CC[C@]4(C)[C@@H]3CC[C@]21C)C(C)C
REMARK SMILES IDX 5 1 4 2 3 3 2 4 1 5 28 6 29 7 30 8 6 9 7 10 8 11 9 12 26 13
REMARK SMILES IDX 10 14 11 15 25 16 27 17 12 18 24 19 23 20 13 21 21 22 14 23
REMARK SMILES IDX 15 24 20 25 22 26 16 27 19 28 17 29 18 30
REMARK H PARENT 18 31
REMARK Flexibility Score: inf
ROOT
ATOM      1  C   UNL     1       1.672  11.544  26.743  1.00  0.00     0.004 C 
ENDROOT
BRANCH   1   2
ATOM      2  C   UNL     1       0.428  11.463  27.647  1.00  0.00     0.004 C 
BRANCH   2   3
ATOM      3  C   UNL     1       0.721  11.618  29.172  1.00  0.00    -0.009 C 
BRANCH   3   4
ATOM      4  C   UNL     1       1.387  12.987  29.494  1.00  0.00     0.000 C 
ATOM      5  C   UNL     1       2.733  12.858  30.211  1.00  0.00     0.004 C 
ENDBRANCH   3   4
BRANCH   3   6
ATOM      6  C   UNL     1      -0.525  11.363  30.095  1.00  0.00    -0.014 C 
ATOM      7  C   UNL     1      -0.976  12.655  30.801  1.00  0.00     0.007 C 
ATOM      8  C   UNL     1      -0.267  10.292  31.172  1.00  0.00     0.007 C 
ENDBRANCH   3   6
ENDBRANCH   2   3
ENDBRANCH   1   2
BRANCH   1   9
ATOM      9  C   UNL     1       1.590  12.529  25.534  1.00  0.00    -0.011 C 
ATOM     10  C   UNL     1       1.031  11.790  24.299  1.00  0.00     0.008 C 
BRANCH   9  11
ATOM     11  C   UNL     1       2.810  13.429  25.106  1.00  0.00    -0.002 C 
ATOM     12  C   UNL     1       3.646  13.018  23.864  1.00  0.00     0.005 C 
ATOM     13  C   UNL     1       3.863  13.960  26.128  1.00  0.00    -0.026 C 
ATOM     14  C   UNL     1       4.966  13.815  23.950  1.00  0.00     0.005 C 
ATOM     15  C   UNL     1       4.764  14.740  25.144  1.00  0.00    -0.001 C 
ATOM     16  C   UNL     1       3.331  14.967  27.167  1.00  0.00     0.007 C 
ATOM     17  C   UNL     1       4.585  12.793  26.852  1.00  0.00     0.012 C 
ATOM     18  C   UNL     1       5.961  15.518  25.736  1.00  0.00     0.000 C 
ATOM     19  C   UNL     1       4.482  15.735  27.867  1.00  0.00     0.005 C 
ATOM     20  C   UNL     1       5.455  16.458  26.878  1.00  0.00     0.003 C 
ATOM     21  C   UNL     1       7.202  14.666  26.079  1.00  0.00     0.031 C 
ATOM     22  C   UNL     1       6.642  17.266  27.543  1.00  0.00    -0.008 C 
ATOM     23  C   UNL     1       8.102  15.247  27.137  1.00  0.00    -0.027 C 
ATOM     24  C   UNL     1       7.848  16.370  27.846  1.00  0.00    -0.065 C 
ATOM     25  C   UNL     1       6.180  17.964  28.864  1.00  0.00     0.014 C 
ATOM     26  C   UNL     1       7.110  18.359  26.542  1.00  0.00     0.016 C 
ATOM     27  C   UNL     1       8.953  16.904  28.746  1.00  0.00     0.063 C 
ATOM     28  C   UNL     1       7.325  18.612  29.658  1.00  0.00     0.033 C 
ATOM     29  C   UNL     1       8.402  17.574  30.010  1.00  0.00     0.118 C 
BRANCH  29  30
ATOM     30  O   UNL     1       7.880  16.588  30.866  1.00  0.00    -0.393 OA
ATOM     31  H   UNL     1       7.336  17.061  31.550  1.00  0.00     0.210 HD
ENDBRANCH  29  30
ENDBRANCH   9  11
ENDBRANCH   1   9
TORSDOF 7
ENDMDL
MODEL 9
REMARK VINA RESULT:    -7.360      3.585      7.495
REMARK INTER + INTRA:         -11.618
REMARK INTER:                  -9.604
REMARK INTRA:                  -2.014
REMARK UNBOUND:                -1.461
REMARK SMILES CC[C@H](CC[C@H](C)[C@@H]1CC[C@@H]2[C@@H]3CC=C4C[C@H](O)CC[C@]4(C)[C@@H]3CC[C@]21C)C(C)C
REMARK SMILES IDX 5 1 4 2 3 3 2 4 1 5 28 6 29 7 30 8 6 9 7 10 8 11 9 12 26 13
REMARK SMILES IDX 10 14 11 15 25 16 27 17 12 18 24 19 23 20 13 21 21 22 14 23
REMARK SMILES IDX 15 24 20 25 22 26 16 27 19 28 17 29 18 30
REMARK H PARENT 18 31
REMARK Flexibility Score: inf
ROOT
ATOM      1  C   UNL     1      10.389  24.131  24.431  1.00  0.00     0.004 C 
ENDROOT
BRANCH   1   2
ATOM      2  C   UNL     1       9.873  24.016  25.878  1.00  0.00     0.004 C 
BRANCH   2   3
ATOM      3  C   UNL     1       8.425  23.448  26.008  1.00  0.00    -0.009 C 
BRANCH   3   4
ATOM      4  C   UNL     1       8.395  22.135  26.842  1.00  0.00     0.000 C 
ATOM      5  C   UNL     1       8.788  20.893  26.039  1.00  0.00     0.004 C 
ENDBRANCH   3   4
BRANCH   3   6
ATOM      6  C   UNL     1       7.375  24.486  26.546  1.00  0.00    -0.014 C 
ATOM      7  C   UNL     1       6.480  25.020  25.412  1.00  0.00     0.007 C 
ATOM      8  C   UNL     1       8.027  25.691  27.251  1.00  0.00     0.007 C 
ENDBRANCH   3   6
ENDBRANCH   2   3
ENDBRANCH   1   2
BRANCH   1   9
ATOM      9  C   UNL     1       9.891  23.045  23.426  1.00  0.00    -0.011 C 
ATOM     10  C   UNL     1      11.100  22.279  22.848  1.00  0.00     0.008 C 
BRANCH   9  11
ATOM     11  C   UNL     1       8.873  23.379  22.271  1.00  0.00    -0.002 C 
ATOM     12  C   UNL     1       8.222  24.789  22.229  1.00  0.00     0.005 C 
ATOM     13  C   UNL     1       7.727  22.407  21.854  1.00  0.00    -0.026 C 
ATOM     14  C   UNL     1       7.006  24.674  21.285  1.00  0.00     0.005 C 
ATOM     15  C   UNL     1       7.102  23.259  20.726  1.00  0.00    -0.001 C 
ATOM     16  C   UNL     1       8.181  21.073  21.228  1.00  0.00     0.007 C 
ATOM     17  C   UNL     1       6.763  22.128  23.038  1.00  0.00     0.012 C 
ATOM     18  C   UNL     1       5.917  22.650  19.943  1.00  0.00     0.000 C 
ATOM     19  C   UNL     1       7.021  20.357  20.489  1.00  0.00     0.005 C 
ATOM     20  C   UNL     1       6.322  21.240  19.404  1.00  0.00     0.003 C 
ATOM     21  C   UNL     1       4.547  22.722  20.651  1.00  0.00     0.031 C 
ATOM     22  C   UNL     1       5.136  20.551  18.612  1.00  0.00    -0.008 C 
ATOM     23  C   UNL     1       3.550  21.680  20.218  1.00  0.00    -0.027 C 
ATOM     24  C   UNL     1       3.803  20.668  19.359  1.00  0.00    -0.065 C 
ATOM     25  C   UNL     1       5.440  19.041  18.342  1.00  0.00     0.014 C 
ATOM     26  C   UNL     1       4.974  21.277  17.247  1.00  0.00     0.016 C 
ATOM     27  C   UNL     1       2.627  19.819  18.899  1.00  0.00     0.063 C 
ATOM     28  C   UNL     1       4.256  18.267  17.742  1.00  0.00     0.033 C 
ATOM     29  C   UNL     1       3.024  18.358  18.656  1.00  0.00     0.118 C 
BRANCH  29  30
ATOM     30  O   UNL     1       3.275  17.735  19.891  1.00  0.00    -0.393 OA
ATOM     31  H   UNL     1       2.396  17.633  20.345  1.00  0.00     0.210 HD
ENDBRANCH  29  30
ENDBRANCH   9  11
ENDBRANCH   1   9
TORSDOF 7
ENDMDL
