MODEL 1
REMARK VINA RESULT:    55.992      0.000      0.000
REMARK INTER + INTRA:          59.266
REMARK INTER:                  59.266
REMARK INTRA:                   0.000
REMARK UNBOUND:                 0.000
REMARK SMILES C[C@H]1CC[C@H]2[N@H+](C1)C[C@@H]1[C@H]3C[C@H]4[C@H](CC(=O)[C@@H]5C[C@H](O)CC[C@]54C)[C@@H]3CC[C@@H]1[C@]2(C)O
REMARK SMILES IDX 5 1 6 2 8 3 7 4 4 5 29 6 3 7 28 8 30 9 2 10 27 11 9 12 1 13
REMARK SMILES IDX 26 14 10 15 25 16 11 17 13 18 12 19 14 20 23 21 15 22 17 23
REMARK SMILES IDX 22 24 24 25 16 26 18 27 21 28 19 29 31 31 20 33
REMARK H PARENT 6 30 31 32 20 34
REMARK Flexibility Score: inf
ROOT
ATOM      1  C   UNL     1      13.028  21.016   5.037  1.00  0.00     0.216 C 
ATOM      2  N   UNL     1      11.763  21.801   5.023  1.00  0.00    -0.330 N 
ATOM      3  C   UNL     1      11.816  22.908   4.026  1.00  0.00     0.266 C 
ATOM      4  C   UNL     1      10.569  20.973   4.696  1.00  0.00     0.265 C 
ATOM      5  C   UNL     1      12.901  19.692   5.848  1.00  0.00     0.069 C 
ATOM      6  C   UNL     1      14.250  21.892   5.551  1.00  0.00     0.117 C 
ATOM      7  C   UNL     1      11.690  18.876   5.422  1.00  0.00     0.015 C 
ATOM      8  C   UNL     1      14.108  23.402   5.115  1.00  0.00     0.036 C 
ATOM      9  C   UNL     1      14.366  21.881   7.099  1.00  0.00     0.049 C 
ATOM     10  C   UNL     1      10.437  19.733   5.589  1.00  0.00     0.041 C 
ATOM     11  C   UNL     1      15.471  24.152   4.963  1.00  0.00     0.007 C 
ATOM     12  C   UNL     1      13.182  23.640   3.896  1.00  0.00     0.054 C 
ATOM     13  C   UNL     1       9.181  18.931   5.226  1.00  0.00     0.013 C 
ATOM     14  C   UNL     1      16.148  23.964   3.589  1.00  0.00     0.004 C 
ATOM     15  C   UNL     1      13.936  23.356   2.568  1.00  0.00     0.002 C 
ATOM     16  C   UNL     1      15.145  24.265   2.468  1.00  0.00    -0.004 C 
ATOM     17  C   UNL     1      13.173  23.653   1.279  1.00  0.00     0.009 C 
ATOM     18  C   UNL     1      15.593  24.183   0.996  1.00  0.00     0.003 C 
ATOM     19  C   UNL     1      14.240  24.036   0.211  1.00  0.00    -0.000 C 
ATOM     20  C   UNL     1      16.666  23.090   0.684  1.00  0.00     0.080 C 
ATOM     21  C   UNL     1      14.332  23.076  -1.032  1.00  0.00    -0.020 C 
ATOM     22  C   UNL     1      16.080  21.761   0.298  1.00  0.00     0.136 C 
ATOM     23  C   UNL     1      14.822  21.676  -0.536  1.00  0.00     0.065 C 
ATOM     24  C   UNL     1      12.948  22.871  -1.728  1.00  0.00     0.010 C 
ATOM     25  C   UNL     1      15.278  23.748  -2.087  1.00  0.00     0.012 C 
ATOM     26  O   UNL     1      16.621  20.736   0.686  1.00  0.00    -0.299 OA
ATOM     27  C   UNL     1      14.924  20.641  -1.679  1.00  0.00     0.043 C 
ATOM     28  C   UNL     1      13.040  21.865  -2.890  1.00  0.00     0.032 C 
ATOM     29  C   UNL     1      13.576  20.503  -2.418  1.00  0.00     0.115 C 
ATOM     30  H   UNL     1      11.614  22.217   5.974  1.00  0.00     0.348 HD
ENDROOT
BRANCH   6  31
ATOM     31  O   UNL     1      15.457  21.337   5.075  1.00  0.00    -0.384 OA
ATOM     32  H   UNL     1      15.262  20.733   4.317  1.00  0.00     0.211 HD
ENDBRANCH   6  31
BRANCH  29  33
ATOM     33  O   UNL     1      13.726  19.661  -3.531  1.00  0.00    -0.393 OA
ATOM     34  H   UNL     1      13.022  18.965  -3.460  1.00  0.00     0.210 HD
ENDBRANCH  29  33
TORSDOF 2
ENDMDL
MODEL 2
REMARK VINA RESULT:    58.922      2.658      6.957
REMARK INTER + INTRA:          62.366
REMARK INTER:                  62.366
REMARK INTRA:                   0.000
REMARK UNBOUND:                 0.000
REMARK SMILES C[C@H]1CC[C@H]2[N@H+](C1)C[C@@H]1[C@H]3C[C@H]4[C@H](CC(=O)[C@@H]5C[C@H](O)CC[C@]54C)[C@@H]3CC[C@@H]1[C@]2(C)O
REMARK SMILES IDX 5 1 6 2 8 3 7 4 4 5 29 6 3 7 28 8 30 9 2 10 27 11 9 12 1 13
REMARK SMILES IDX 26 14 10 15 25 16 11 17 13 18 12 19 14 20 23 21 15 22 17 23
REMARK SMILES IDX 22 24 24 25 16 26 18 27 21 28 19 29 31 31 20 33
REMARK H PARENT 6 30 31 32 20 34
REMARK Flexibility Score: inf
ROOT
ATOM      1  C   UNL     1      12.672  22.009  -1.845  1.00  0.00     0.216 C 
ATOM      2  N   UNL     1      13.375  20.733  -2.156  1.00  0.00    -0.330 N 
ATOM      3  C   UNL     1      14.158  20.238  -0.988  1.00  0.00     0.266 C 
ATOM      4  C   UNL     1      12.445  19.640  -2.555  1.00  0.00     0.265 C 
ATOM      5  C   UNL     1      11.627  22.395  -2.932  1.00  0.00     0.069 C 
ATOM      6  C   UNL     1      13.703  23.190  -1.588  1.00  0.00     0.117 C 
ATOM      7  C   UNL     1      10.679  21.248  -3.247  1.00  0.00     0.015 C 
ATOM      8  C   UNL     1      15.023  22.673  -0.895  1.00  0.00     0.036 C 
ATOM      9  C   UNL     1      14.131  23.888  -2.907  1.00  0.00     0.049 C 
ATOM     10  C   UNL     1      11.502  20.042  -3.696  1.00  0.00     0.041 C 
ATOM     11  C   UNL     1      15.750  23.749  -0.025  1.00  0.00     0.007 C 
ATOM     12  C   UNL     1      14.873  21.328  -0.141  1.00  0.00     0.054 C 
ATOM     13  C   UNL     1      10.584  18.875  -4.081  1.00  0.00     0.013 C 
ATOM     14  C   UNL     1      15.208  23.872   1.414  1.00  0.00     0.004 C 
ATOM     15  C   UNL     1      14.256  21.552   1.267  1.00  0.00     0.002 C 
ATOM     16  C   UNL     1      15.144  22.485   2.067  1.00  0.00    -0.004 C 
ATOM     17  C   UNL     1      14.150  20.322   2.164  1.00  0.00     0.009 C 
ATOM     18  C   UNL     1      14.668  22.345   3.526  1.00  0.00     0.003 C 
ATOM     19  C   UNL     1      14.257  20.833   3.632  1.00  0.00    -0.000 C 
ATOM     20  C   UNL     1      13.572  23.366   3.971  1.00  0.00     0.080 C 
ATOM     21  C   UNL     1      12.990  20.584   4.531  1.00  0.00    -0.020 C 
ATOM     22  C   UNL     1      12.168  22.880   3.752  1.00  0.00     0.136 C 
ATOM     23  C   UNL     1      11.806  21.426   3.954  1.00  0.00     0.065 C 
ATOM     24  C   UNL     1      12.547  19.085   4.532  1.00  0.00     0.010 C 
ATOM     25  C   UNL     1      13.373  20.947   6.008  1.00  0.00     0.012 C 
ATOM     26  O   UNL     1      11.314  23.672   3.381  1.00  0.00    -0.299 OA
ATOM     27  C   UNL     1      10.496  21.236   4.751  1.00  0.00     0.043 C 
ATOM     28  C   UNL     1      11.259  18.875   5.349  1.00  0.00     0.032 C 
ATOM     29  C   UNL     1      10.105  19.745   4.821  1.00  0.00     0.115 C 
ATOM     30  H   UNL     1      14.035  20.898  -2.954  1.00  0.00     0.348 HD
ENDROOT
BRANCH   6  31
ATOM     31  O   UNL     1      13.081  24.193  -0.813  1.00  0.00    -0.384 OA
ATOM     32  H   UNL     1      12.773  24.921  -1.407  1.00  0.00     0.211 HD
ENDBRANCH   6  31
BRANCH  29  33
ATOM     33  O   UNL     1       8.990  19.581   5.657  1.00  0.00    -0.393 OA
ATOM     34  H   UNL     1       8.639  20.490   5.846  1.00  0.00     0.210 HD
ENDBRANCH  29  33
TORSDOF 2
ENDMDL
