MODEL 1
REMARK VINA RESULT:    12.816      0.000      0.000
REMARK INTER + INTRA:          17.582
REMARK INTER:                  17.686
REMARK INTRA:                  -0.104
REMARK UNBOUND:                -0.104
REMARK SMILES CC[C@H](CC[C@H](C)[C@H]1CC[C@@H]2[C@@H]3CC=C4C[C@@H](O)CC[C@@]4(C)[C@H]3CC[C@]21C)C(C)C
REMARK SMILES IDX 5 1 4 2 3 3 2 4 1 5 28 6 29 7 30 8 6 9 7 10 8 11 9 12 26 13
REMARK SMILES IDX 10 14 11 15 25 16 27 17 12 18 24 19 23 20 13 21 21 22 14 23
REMARK SMILES IDX 15 24 20 25 22 26 16 27 19 28 17 29 18 30
REMARK H PARENT 18 31
REMARK Flexibility Score: inf
ROOT
ATOM      1  C   UNL     1       5.403  78.047   5.277  1.00  0.00     0.004 C 
ENDROOT
BRANCH   1   2
ATOM      2  C   UNL     1       4.999  77.385   6.613  1.00  0.00     0.004 C 
BRANCH   2   3
ATOM      3  C   UNL     1       3.476  77.533   6.923  1.00  0.00    -0.009 C 
BRANCH   3   4
ATOM      4  C   UNL     1       3.272  77.894   8.424  1.00  0.00     0.000 C 
ATOM      5  C   UNL     1       3.621  79.346   8.771  1.00  0.00     0.004 C 
ENDBRANCH   3   4
BRANCH   3   6
ATOM      6  C   UNL     1       2.750  78.525   5.945  1.00  0.00    -0.014 C 
ATOM      7  C   UNL     1       2.075  77.794   4.771  1.00  0.00     0.007 C 
ATOM      8  C   UNL     1       1.690  79.372   6.675  1.00  0.00     0.007 C 
ENDBRANCH   3   6
ENDBRANCH   2   3
ENDBRANCH   1   2
BRANCH   1   9
ATOM      9  C   UNL     1       6.906  77.848   4.929  1.00  0.00    -0.011 C 
ATOM     10  C   UNL     1       7.707  77.464   6.193  1.00  0.00     0.008 C 
BRANCH   9  11
ATOM     11  C   UNL     1       7.469  79.101   4.161  1.00  0.00    -0.002 C 
ATOM     12  C   UNL     1       8.389  80.007   5.039  1.00  0.00     0.005 C 
ATOM     13  C   UNL     1       8.280  78.886   2.830  1.00  0.00    -0.026 C 
ATOM     14  C   UNL     1       9.772  80.060   4.370  1.00  0.00     0.005 C 
ATOM     15  C   UNL     1       9.731  78.939   3.342  1.00  0.00    -0.001 C 
ATOM     16  C   UNL     1       8.053  77.557   2.013  1.00  0.00     0.007 C 
ATOM     17  C   UNL     1       7.935  80.111   1.913  1.00  0.00     0.012 C 
ATOM     18  C   UNL     1      10.852  78.823   2.268  1.00  0.00     0.000 C 
ATOM     19  C   UNL     1       9.354  76.939   1.418  1.00  0.00     0.005 C 
ATOM     20  C   UNL     1      10.385  78.026   1.020  1.00  0.00     0.003 C 
ATOM     21  C   UNL     1      11.495  80.125   1.786  1.00  0.00     0.031 C 
ATOM     22  C   UNL     1      11.612  77.554   0.158  1.00  0.00    -0.008 C 
ATOM     23  C   UNL     1      12.635  79.797   0.849  1.00  0.00    -0.027 C 
ATOM     24  C   UNL     1      12.708  78.645   0.127  1.00  0.00    -0.065 C 
ATOM     25  C   UNL     1      12.246  76.249   0.727  1.00  0.00     0.014 C 
ATOM     26  C   UNL     1      11.119  77.305  -1.293  1.00  0.00     0.016 C 
ATOM     27  C   UNL     1      14.013  78.295  -0.560  1.00  0.00     0.063 C 
ATOM     28  C   UNL     1      13.581  75.869   0.052  1.00  0.00     0.033 C 
ATOM     29  C   UNL     1      14.603  77.025   0.070  1.00  0.00     0.118 C 
BRANCH  29  30
ATOM     30  O   UNL     1      15.004  77.301   1.388  1.00  0.00    -0.393 OA
ATOM     31  H   UNL     1      14.523  76.654   1.971  1.00  0.00     0.210 HD
ENDBRANCH  29  30
ENDBRANCH   9  11
ENDBRANCH   1   9
TORSDOF 7
ENDMDL
MODEL 2
REMARK VINA RESULT:    14.549      3.417      4.841
REMARK INTER + INTRA:          19.973
REMARK INTER:                  18.927
REMARK INTRA:                   1.046
REMARK UNBOUND:                -0.104
REMARK SMILES CC[C@H](CC[C@H](C)[C@H]1CC[C@@H]2[C@@H]3CC=C4C[C@@H](O)CC[C@@]4(C)[C@H]3CC[C@]21C)C(C)C
REMARK SMILES IDX 5 1 4 2 3 3 2 4 1 5 28 6 29 7 30 8 6 9 7 10 8 11 9 12 26 13
REMARK SMILES IDX 10 14 11 15 25 16 27 17 12 18 24 19 23 20 13 21 21 22 14 23
REMARK SMILES IDX 15 24 20 25 22 26 16 27 19 28 17 29 18 30
REMARK H PARENT 18 31
REMARK Flexibility Score: inf
ROOT
ATOM      1  C   UNL     1       6.425  77.192   1.446  1.00  0.00     0.004 C 
ENDROOT
BRANCH   1   2
ATOM      2  C   UNL     1       5.396  77.047   0.303  1.00  0.00     0.004 C 
BRANCH   2   3
ATOM      3  C   UNL     1       4.614  75.696   0.364  1.00  0.00    -0.009 C 
BRANCH   3   4
ATOM      4  C   UNL     1       3.966  75.396  -1.020  1.00  0.00     0.000 C 
ATOM      5  C   UNL     1       4.963  74.936  -2.091  1.00  0.00     0.004 C 
ENDBRANCH   3   4
BRANCH   3   6
ATOM      6  C   UNL     1       5.491  74.511   0.905  1.00  0.00    -0.014 C 
ATOM      7  C   UNL     1       4.814  73.773   2.074  1.00  0.00     0.007 C 
ATOM      8  C   UNL     1       5.815  73.489  -0.203  1.00  0.00     0.007 C 
ENDBRANCH   3   6
ENDBRANCH   2   3
ENDBRANCH   1   2
BRANCH   1   9
ATOM      9  C   UNL     1       6.612  78.665   1.912  1.00  0.00    -0.011 C 
ATOM     10  C   UNL     1       6.420  79.636   0.725  1.00  0.00     0.008 C 
BRANCH   9  11
ATOM     11  C   UNL     1       7.980  78.836   2.674  1.00  0.00    -0.002 C 
ATOM     12  C   UNL     1       8.389  77.580   3.505  1.00  0.00     0.005 C 
ATOM     13  C   UNL     1       9.272  79.210   1.858  1.00  0.00    -0.026 C 
ATOM     14  C   UNL     1       9.743  77.085   2.971  1.00  0.00     0.005 C 
ATOM     15  C   UNL     1       9.917  77.828   1.654  1.00  0.00    -0.001 C 
ATOM     16  C   UNL     1       9.104  79.930   0.466  1.00  0.00     0.007 C 
ATOM     17  C   UNL     1      10.127  80.125   2.803  1.00  0.00     0.012 C 
ATOM     18  C   UNL     1      11.289  77.802   0.919  1.00  0.00     0.000 C 
ATOM     19  C   UNL     1      10.085  79.429  -0.637  1.00  0.00     0.005 C 
ATOM     20  C   UNL     1      11.455  79.005  -0.049  1.00  0.00     0.003 C 
ATOM     21  C   UNL     1      12.545  77.714   1.787  1.00  0.00     0.031 C 
ATOM     22  C   UNL     1      12.617  78.749  -1.076  1.00  0.00    -0.008 C 
ATOM     23  C   UNL     1      13.757  77.575   0.893  1.00  0.00    -0.027 C 
ATOM     24  C   UNL     1      13.797  78.020  -0.394  1.00  0.00    -0.065 C 
ATOM     25  C   UNL     1      12.139  77.879  -2.278  1.00  0.00     0.014 C 
ATOM     26  C   UNL     1      13.118  80.125  -1.595  1.00  0.00     0.016 C 
ATOM     27  C   UNL     1      14.948  77.586  -1.280  1.00  0.00     0.063 C 
ATOM     28  C   UNL     1      13.291  77.415  -3.196  1.00  0.00     0.033 C 
ATOM     29  C   UNL     1      14.418  76.703  -2.418  1.00  0.00     0.118 C 
BRANCH  29  30
ATOM     30  O   UNL     1      13.952  75.488  -1.889  1.00  0.00    -0.393 OA
ATOM     31  H   UNL     1      12.984  75.614  -1.697  1.00  0.00     0.210 HD
ENDBRANCH  29  30
ENDBRANCH   9  11
ENDBRANCH   1   9
TORSDOF 7
ENDMDL
MODEL 3
REMARK VINA RESULT:    15.462      1.431      2.522
REMARK INTER + INTRA:          21.233
REMARK INTER:                  22.046
REMARK INTRA:                  -0.813
REMARK UNBOUND:                -0.104
REMARK SMILES CC[C@H](CC[C@H](C)[C@H]1CC[C@@H]2[C@@H]3CC=C4C[C@@H](O)CC[C@@]4(C)[C@H]3CC[C@]21C)C(C)C
REMARK SMILES IDX 5 1 4 2 3 3 2 4 1 5 28 6 29 7 30 8 6 9 7 10 8 11 9 12 26 13
REMARK SMILES IDX 10 14 11 15 25 16 27 17 12 18 24 19 23 20 13 21 21 22 14 23
REMARK SMILES IDX 15 24 20 25 22 26 16 27 19 28 17 29 18 30
REMARK H PARENT 18 31
REMARK Flexibility Score: inf
ROOT
ATOM      1  C   UNL     1       5.927  77.937   5.143  1.00  0.00     0.004 C 
ENDROOT
BRANCH   1   2
ATOM      2  C   UNL     1       5.998  77.977   6.685  1.00  0.00     0.004 C 
BRANCH   2   3
ATOM      3  C   UNL     1       4.721  78.602   7.331  1.00  0.00    -0.009 C 
BRANCH   3   4
ATOM      4  C   UNL     1       3.476  77.730   6.995  1.00  0.00     0.000 C 
ATOM      5  C   UNL     1       2.246  78.536   6.560  1.00  0.00     0.004 C 
ENDBRANCH   3   4
BRANCH   3   6
ATOM      6  C   UNL     1       4.889  78.873   8.869  1.00  0.00    -0.014 C 
ATOM      7  C   UNL     1       3.656  79.567   9.475  1.00  0.00     0.007 C 
ATOM      8  C   UNL     1       5.156  77.571   9.651  1.00  0.00     0.007 C 
ENDBRANCH   3   6
ENDBRANCH   2   3
ENDBRANCH   1   2
BRANCH   1   9
ATOM      9  C   UNL     1       7.170  78.578   4.460  1.00  0.00    -0.011 C 
ATOM     10  C   UNL     1       7.412  80.003   5.006  1.00  0.00     0.008 C 
BRANCH   9  11
ATOM     11  C   UNL     1       7.045  78.498   2.893  1.00  0.00    -0.002 C 
ATOM     12  C   UNL     1       6.826  79.886   2.214  1.00  0.00     0.005 C 
ATOM     13  C   UNL     1       8.203  77.830   2.063  1.00  0.00    -0.026 C 
ATOM     14  C   UNL     1       7.993  80.123   1.242  1.00  0.00     0.005 C 
ATOM     15  C   UNL     1       9.014  79.062   1.622  1.00  0.00    -0.001 C 
ATOM     16  C   UNL     1       9.152  76.798   2.785  1.00  0.00     0.007 C 
ATOM     17  C   UNL     1       7.508  77.119   0.850  1.00  0.00     0.012 C 
ATOM     18  C   UNL     1      10.241  78.793   0.702  1.00  0.00     0.000 C 
ATOM     19  C   UNL     1      10.655  76.927   2.394  1.00  0.00     0.005 C 
ATOM     20  C   UNL     1      10.837  77.376   0.922  1.00  0.00     0.003 C 
ATOM     21  C   UNL     1      10.045  78.998  -0.801  1.00  0.00     0.031 C 
ATOM     22  C   UNL     1      12.288  77.274   0.326  1.00  0.00    -0.008 C 
ATOM     23  C   UNL     1      11.370  78.813  -1.504  1.00  0.00    -0.027 C 
ATOM     24  C   UNL     1      12.387  78.056  -1.004  1.00  0.00    -0.065 C 
ATOM     25  C   UNL     1      13.354  77.849   1.306  1.00  0.00     0.014 C 
ATOM     26  C   UNL     1      12.592  75.777   0.043  1.00  0.00     0.016 C 
ATOM     27  C   UNL     1      13.757  78.162  -1.645  1.00  0.00     0.063 C 
ATOM     28  C   UNL     1      14.760  77.974   0.681  1.00  0.00     0.033 C 
ATOM     29  C   UNL     1      14.750  78.768  -0.642  1.00  0.00     0.118 C 
BRANCH  29  30
ATOM     30  O   UNL     1      14.410  80.110  -0.402  1.00  0.00    -0.393 OA
ATOM     31  H   UNL     1      15.166  80.508   0.106  1.00  0.00     0.210 HD
ENDBRANCH  29  30
ENDBRANCH   9  11
ENDBRANCH   1   9
TORSDOF 7
ENDMDL
