MODEL 1
REMARK VINA RESULT:    -6.085      0.000      0.000
REMARK INTER + INTRA:         -11.267
REMARK INTER:                  -8.397
REMARK INTRA:                  -2.871
REMARK UNBOUND:                -2.871
REMARK SMILES CC[C@@H](CC[C@@H](C)[C@@H]1CC[C@H]2[C@@H]3CC=C4C[C@@H](O)CC[C@@]4(C)[C@H]3CC[C@]21C)C(C)C
REMARK SMILES IDX 5 1 4 2 3 3 2 4 1 5 28 6 29 7 30 8 6 9 7 10 8 11 9 12 26 13
REMARK SMILES IDX 10 14 11 15 25 16 27 17 12 18 24 19 23 20 13 21 21 22 14 23
REMARK SMILES IDX 15 24 20 25 22 26 16 27 19 28 17 29 18 30
REMARK H PARENT 18 31
REMARK Flexibility Score: inf
ROOT
ATOM      1  C   UNL     1     174.582 165.840 153.098  1.00  0.00     0.004 C 
ENDROOT
BRANCH   1   2
ATOM      2  C   UNL     1     173.486 166.363 154.049  1.00  0.00     0.004 C 
BRANCH   2   3
ATOM      3  C   UNL     1     173.239 167.903 153.969  1.00  0.00    -0.009 C 
BRANCH   3   4
ATOM      4  C   UNL     1     174.155 168.629 155.000  1.00  0.00     0.000 C 
ATOM      5  C   UNL     1     175.466 169.163 154.425  1.00  0.00     0.004 C 
ENDBRANCH   3   4
BRANCH   3   6
ATOM      6  C   UNL     1     171.707 168.212 154.109  1.00  0.00    -0.014 C 
ATOM      7  C   UNL     1     171.271 169.504 153.397  1.00  0.00     0.007 C 
ATOM      8  C   UNL     1     170.803 167.034 153.703  1.00  0.00     0.007 C 
ENDBRANCH   3   6
ENDBRANCH   2   3
ENDBRANCH   1   2
BRANCH   1   9
ATOM      9  C   UNL     1     174.263 165.882 151.578  1.00  0.00    -0.011 C 
ATOM     10  C   UNL     1     173.578 164.551 151.198  1.00  0.00     0.008 C 
BRANCH   9  11
ATOM     11  C   UNL     1     173.474 167.108 150.967  1.00  0.00    -0.002 C 
ATOM     12  C   UNL     1     172.114 166.785 150.366  1.00  0.00     0.005 C 
ATOM     13  C   UNL     1     174.088 168.183 150.013  1.00  0.00    -0.026 C 
ATOM     14  C   UNL     1     171.597 168.133 149.869  1.00  0.00     0.005 C 
ATOM     15  C   UNL     1     172.831 169.047 149.636  1.00  0.00    -0.001 C 
ATOM     16  C   UNL     1     175.186 169.007 150.750  1.00  0.00     0.007 C 
ATOM     17  C   UNL     1     174.663 167.619 148.684  1.00  0.00     0.012 C 
ATOM     18  C   UNL     1     172.764 170.377 150.441  1.00  0.00     0.000 C 
ATOM     19  C   UNL     1     175.351 170.405 150.151  1.00  0.00     0.005 C 
ATOM     20  C   UNL     1     174.035 171.241 150.198  1.00  0.00     0.003 C 
ATOM     21  C   UNL     1     171.551 171.243 150.051  1.00  0.00     0.031 C 
ATOM     22  C   UNL     1     174.065 172.497 151.156  1.00  0.00    -0.008 C 
ATOM     23  C   UNL     1     171.537 172.515 150.850  1.00  0.00    -0.027 C 
ATOM     24  C   UNL     1     172.658 173.103 151.330  1.00  0.00    -0.065 C 
ATOM     25  C   UNL     1     174.585 172.125 152.584  1.00  0.00     0.014 C 
ATOM     26  C   UNL     1     174.991 173.563 150.512  1.00  0.00     0.016 C 
ATOM     27  C   UNL     1     172.508 174.253 152.306  1.00  0.00     0.063 C 
ATOM     28  C   UNL     1     174.442 173.269 153.613  1.00  0.00     0.033 C 
ATOM     29  C   UNL     1     173.008 173.818 153.693  1.00  0.00     0.118 C 
BRANCH  29  30
ATOM     30  O   UNL     1     172.158 172.837 154.234  1.00  0.00    -0.393 OA
ATOM     31  H   UNL     1     171.290 173.285 154.420  1.00  0.00     0.210 HD
ENDBRANCH  29  30
ENDBRANCH   9  11
ENDBRANCH   1   9
TORSDOF 7
ENDMDL
MODEL 2
REMARK VINA RESULT:    -6.060      2.541      5.818
REMARK INTER + INTRA:         -11.234
REMARK INTER:                  -8.481
REMARK INTRA:                  -2.753
REMARK UNBOUND:                -2.871
REMARK SMILES CC[C@@H](CC[C@@H](C)[C@@H]1CC[C@H]2[C@@H]3CC=C4C[C@@H](O)CC[C@@]4(C)[C@H]3CC[C@]21C)C(C)C
REMARK SMILES IDX 5 1 4 2 3 3 2 4 1 5 28 6 29 7 30 8 6 9 7 10 8 11 9 12 26 13
REMARK SMILES IDX 10 14 11 15 25 16 27 17 12 18 24 19 23 20 13 21 21 22 14 23
REMARK SMILES IDX 15 24 20 25 22 26 16 27 19 28 17 29 18 30
REMARK H PARENT 18 31
REMARK Flexibility Score: inf
ROOT
ATOM      1  C   UNL     1     175.122 170.963 149.847  1.00  0.00     0.004 C 
ENDROOT
BRANCH   1   2
ATOM      2  C   UNL     1     175.708 169.905 150.805  1.00  0.00     0.004 C 
BRANCH   2   3
ATOM      3  C   UNL     1     174.888 168.578 150.885  1.00  0.00    -0.009 C 
BRANCH   3   4
ATOM      4  C   UNL     1     173.715 168.632 149.861  1.00  0.00     0.000 C 
ATOM      5  C   UNL     1     173.758 167.552 148.782  1.00  0.00     0.004 C 
ENDBRANCH   3   4
BRANCH   3   6
ATOM      6  C   UNL     1     174.463 168.296 152.368  1.00  0.00    -0.014 C 
ATOM      7  C   UNL     1     175.043 169.300 153.378  1.00  0.00     0.007 C 
ATOM      8  C   UNL     1     172.942 168.151 152.554  1.00  0.00     0.007 C 
ENDBRANCH   3   6
ENDBRANCH   2   3
ENDBRANCH   1   2
BRANCH   1   9
ATOM      9  C   UNL     1     174.446 172.198 150.503  1.00  0.00    -0.011 C 
ATOM     10  C   UNL     1     173.758 173.014 149.386  1.00  0.00     0.008 C 
BRANCH   9  11
ATOM     11  C   UNL     1     173.472 172.009 151.734  1.00  0.00    -0.002 C 
ATOM     12  C   UNL     1     172.063 171.547 151.396  1.00  0.00     0.005 C 
ATOM     13  C   UNL     1     173.290 173.036 152.898  1.00  0.00    -0.026 C 
ATOM     14  C   UNL     1     171.368 171.451 152.753  1.00  0.00     0.005 C 
ATOM     15  C   UNL     1     172.127 172.387 153.732  1.00  0.00    -0.001 C 
ATOM     16  C   UNL     1     174.609 173.181 153.714  1.00  0.00     0.007 C 
ATOM     17  C   UNL     1     172.796 174.441 152.452  1.00  0.00     0.012 C 
ATOM     18  C   UNL     1     172.648 171.650 154.999  1.00  0.00     0.000 C 
ATOM     19  C   UNL     1     174.344 173.619 155.156  1.00  0.00     0.005 C 
ATOM     20  C   UNL     1     173.427 172.623 155.930  1.00  0.00     0.003 C 
ATOM     21  C   UNL     1     171.510 171.040 155.838  1.00  0.00     0.031 C 
ATOM     22  C   UNL     1     174.123 171.846 157.117  1.00  0.00    -0.008 C 
ATOM     23  C   UNL     1     172.065 170.347 157.050  1.00  0.00    -0.027 C 
ATOM     24  C   UNL     1     173.222 170.714 157.650  1.00  0.00    -0.065 C 
ATOM     25  C   UNL     1     175.470 171.189 156.669  1.00  0.00     0.014 C 
ATOM     26  C   UNL     1     174.379 172.860 158.264  1.00  0.00     0.016 C 
ATOM     27  C   UNL     1     173.796 169.809 158.722  1.00  0.00     0.063 C 
ATOM     28  C   UNL     1     176.085 170.251 157.732  1.00  0.00     0.033 C 
ATOM     29  C   UNL     1     175.100 169.173 158.214  1.00  0.00     0.118 C 
BRANCH  29  30
ATOM     30  O   UNL     1     174.830 168.279 157.163  1.00  0.00    -0.393 OA
ATOM     31  H   UNL     1     175.702 168.080 156.729  1.00  0.00     0.210 HD
ENDBRANCH  29  30
ENDBRANCH   9  11
ENDBRANCH   1   9
TORSDOF 7
ENDMDL
MODEL 3
REMARK VINA RESULT:    -6.032      8.332     11.238
REMARK INTER + INTRA:         -11.195
REMARK INTER:                  -8.359
REMARK INTRA:                  -2.837
REMARK UNBOUND:                -2.871
REMARK SMILES CC[C@@H](CC[C@@H](C)[C@@H]1CC[C@H]2[C@@H]3CC=C4C[C@@H](O)CC[C@@]4(C)[C@H]3CC[C@]21C)C(C)C
REMARK SMILES IDX 5 1 4 2 3 3 2 4 1 5 28 6 29 7 30 8 6 9 7 10 8 11 9 12 26 13
REMARK SMILES IDX 10 14 11 15 25 16 27 17 12 18 24 19 23 20 13 21 21 22 14 23
REMARK SMILES IDX 15 24 20 25 22 26 16 27 19 28 17 29 18 30
REMARK H PARENT 18 31
REMARK Flexibility Score: inf
ROOT
ATOM      1  C   UNL     1     173.510 158.694 149.936  1.00  0.00     0.004 C 
ENDROOT
BRANCH   1   2
ATOM      2  C   UNL     1     172.741 157.815 150.944  1.00  0.00     0.004 C 
BRANCH   2   3
ATOM      3  C   UNL     1     171.215 158.131 151.047  1.00  0.00    -0.009 C 
BRANCH   3   4
ATOM      4  C   UNL     1     170.844 159.236 150.011  1.00  0.00     0.000 C 
ATOM      5  C   UNL     1     169.851 158.796 148.936  1.00  0.00     0.004 C 
ENDBRANCH   3   4
BRANCH   3   6
ATOM      6  C   UNL     1     170.831 158.458 152.532  1.00  0.00    -0.014 C 
ATOM      7  C   UNL     1     171.976 158.224 153.531  1.00  0.00     0.007 C 
ATOM      8  C   UNL     1     170.225 159.862 152.716  1.00  0.00     0.007 C 
ENDBRANCH   3   6
ENDBRANCH   2   3
ENDBRANCH   1   2
BRANCH   1   9
ATOM      9  C   UNL     1     174.448 159.779 150.533  1.00  0.00    -0.011 C 
ATOM     10  C   UNL     1     174.898 160.706 149.382  1.00  0.00     0.008 C 
BRANCH   9  11
ATOM     11  C   UNL     1     173.983 160.630 151.782  1.00  0.00    -0.002 C 
ATOM     12  C   UNL     1     173.094 161.825 151.473  1.00  0.00     0.005 C 
ATOM     13  C   UNL     1     174.921 161.115 152.934  1.00  0.00    -0.026 C 
ATOM     14  C   UNL     1     172.807 162.439 152.841  1.00  0.00     0.005 C 
ATOM     15  C   UNL     1     173.953 162.003 153.796  1.00  0.00    -0.001 C 
ATOM     16  C   UNL     1     175.489 159.901 153.727  1.00  0.00     0.007 C 
ATOM     17  C   UNL     1     176.089 162.032 152.477  1.00  0.00     0.012 C 
ATOM     18  C   UNL     1     173.441 161.262 155.064  1.00  0.00     0.000 C 
ATOM     19  C   UNL     1     175.847 160.274 155.167  1.00  0.00     0.005 C 
ATOM     20  C   UNL     1     174.626 160.821 155.969  1.00  0.00     0.003 C 
ATOM     21  C   UNL     1     172.517 162.140 155.929  1.00  0.00     0.031 C 
ATOM     22  C   UNL     1     174.130 159.902 157.155  1.00  0.00    -0.008 C 
ATOM     23  C   UNL     1     172.057 161.381 157.142  1.00  0.00    -0.027 C 
ATOM     24  C   UNL     1     172.781 160.393 157.718  1.00  0.00    -0.065 C 
ATOM     25  C   UNL     1     173.924 158.422 156.695  1.00  0.00     0.014 C 
ATOM     26  C   UNL     1     175.194 159.967 158.284  1.00  0.00     0.016 C 
ATOM     27  C   UNL     1     172.123 159.551 158.793  1.00  0.00     0.063 C 
ATOM     28  C   UNL     1     173.248 157.530 157.760  1.00  0.00     0.033 C 
ATOM     29  C   UNL     1     171.923 158.119 158.273  1.00  0.00     0.118 C 
BRANCH  29  30
ATOM     30  O   UNL     1     170.971 158.103 157.238  1.00  0.00    -0.393 OA
ATOM     31  H   UNL     1     171.077 158.958 156.742  1.00  0.00     0.210 HD
ENDBRANCH  29  30
ENDBRANCH   9  11
ENDBRANCH   1   9
TORSDOF 7
ENDMDL
MODEL 4
REMARK VINA RESULT:    -5.889      2.193      6.125
REMARK INTER + INTRA:         -10.998
REMARK INTER:                  -8.571
REMARK INTRA:                  -2.427
REMARK UNBOUND:                -2.871
REMARK SMILES CC[C@@H](CC[C@@H](C)[C@@H]1CC[C@H]2[C@@H]3CC=C4C[C@@H](O)CC[C@@]4(C)[C@H]3CC[C@]21C)C(C)C
REMARK SMILES IDX 5 1 4 2 3 3 2 4 1 5 28 6 29 7 30 8 6 9 7 10 8 11 9 12 26 13
REMARK SMILES IDX 10 14 11 15 25 16 27 17 12 18 24 19 23 20 13 21 21 22 14 23
REMARK SMILES IDX 15 24 20 25 22 26 16 27 19 28 17 29 18 30
REMARK H PARENT 18 31
REMARK Flexibility Score: inf
ROOT
ATOM      1  C   UNL     1     174.123 172.328 154.853  1.00  0.00     0.004 C 
ENDROOT
BRANCH   1   2
ATOM      2  C   UNL     1     175.539 171.747 155.052  1.00  0.00     0.004 C 
BRANCH   2   3
ATOM      3  C   UNL     1     175.570 170.302 155.644  1.00  0.00    -0.009 C 
BRANCH   3   4
ATOM      4  C   UNL     1     174.751 169.348 154.724  1.00  0.00     0.000 C 
ATOM      5  C   UNL     1     175.561 168.676 153.617  1.00  0.00     0.004 C 
ENDBRANCH   3   4
BRANCH   3   6
ATOM      6  C   UNL     1     175.119 170.325 157.146  1.00  0.00    -0.014 C 
ATOM      7  C   UNL     1     174.738 168.941 157.697  1.00  0.00     0.007 C 
ATOM      8  C   UNL     1     176.124 171.026 158.079  1.00  0.00     0.007 C 
ENDBRANCH   3   6
ENDBRANCH   2   3
ENDBRANCH   1   2
BRANCH   1   9
ATOM      9  C   UNL     1     173.755 172.786 153.416  1.00  0.00    -0.011 C 
ATOM     10  C   UNL     1     174.430 174.153 153.164  1.00  0.00     0.008 C 
BRANCH   9  11
ATOM     11  C   UNL     1     173.988 171.817 152.189  1.00  0.00    -0.002 C 
ATOM     12  C   UNL     1     175.007 172.286 151.161  1.00  0.00     0.005 C 
ATOM     13  C   UNL     1     172.854 171.143 151.351  1.00  0.00    -0.026 C 
ATOM     14  C   UNL     1     175.024 171.171 150.118  1.00  0.00     0.005 C 
ATOM     15  C   UNL     1     173.666 170.423 150.215  1.00  0.00    -0.001 C 
ATOM     16  C   UNL     1     172.038 170.150 152.231  1.00  0.00     0.007 C 
ATOM     17  C   UNL     1     171.885 172.138 150.652  1.00  0.00     0.012 C 
ATOM     18  C   UNL     1     173.828 168.898 150.480  1.00  0.00     0.000 C 
ATOM     19  C   UNL     1     171.395 169.041 151.396  1.00  0.00     0.005 C 
ATOM     20  C   UNL     1     172.442 168.202 150.600  1.00  0.00     0.003 C 
ATOM     21  C   UNL     1     174.595 168.181 149.353  1.00  0.00     0.031 C 
ATOM     22  C   UNL     1     172.594 166.698 151.059  1.00  0.00    -0.008 C 
ATOM     23  C   UNL     1     174.717 166.714 149.653  1.00  0.00    -0.027 C 
ATOM     24  C   UNL     1     173.815 166.030 150.395  1.00  0.00    -0.065 C 
ATOM     25  C   UNL     1     172.792 166.581 152.606  1.00  0.00     0.014 C 
ATOM     26  C   UNL     1     171.312 165.937 150.626  1.00  0.00     0.016 C 
ATOM     27  C   UNL     1     174.154 164.615 150.818  1.00  0.00     0.063 C 
ATOM     28  C   UNL     1     173.148 165.154 153.079  1.00  0.00     0.033 C 
ATOM     29  C   UNL     1     174.363 164.570 152.340  1.00  0.00     0.118 C 
BRANCH  29  30
ATOM     30  O   UNL     1     175.519 165.288 152.696  1.00  0.00    -0.393 OA
ATOM     31  H   UNL     1     175.835 165.744 151.871  1.00  0.00     0.210 HD
ENDBRANCH  29  30
ENDBRANCH   9  11
ENDBRANCH   1   9
TORSDOF 7
ENDMDL
MODEL 5
REMARK VINA RESULT:    -5.840      1.762      3.757
REMARK INTER + INTRA:         -10.930
REMARK INTER:                 -10.094
REMARK INTRA:                  -0.836
REMARK UNBOUND:                -2.871
REMARK SMILES CC[C@@H](CC[C@@H](C)[C@@H]1CC[C@H]2[C@@H]3CC=C4C[C@@H](O)CC[C@@]4(C)[C@H]3CC[C@]21C)C(C)C
REMARK SMILES IDX 5 1 4 2 3 3 2 4 1 5 28 6 29 7 30 8 6 9 7 10 8 11 9 12 26 13
REMARK SMILES IDX 10 14 11 15 25 16 27 17 12 18 24 19 23 20 13 21 21 22 14 23
REMARK SMILES IDX 15 24 20 25 22 26 16 27 19 28 17 29 18 30
REMARK H PARENT 18 31
REMARK Flexibility Score: inf
ROOT
ATOM      1  C   UNL     1     174.958 164.963 150.621  1.00  0.00     0.004 C 
ENDROOT
BRANCH   1   2
ATOM      2  C   UNL     1     175.768 163.848 151.316  1.00  0.00     0.004 C 
BRANCH   2   3
ATOM      3  C   UNL     1     174.980 162.518 151.540  1.00  0.00    -0.009 C 
BRANCH   3   4
ATOM      4  C   UNL     1     175.750 161.626 152.560  1.00  0.00     0.000 C 
ATOM      5  C   UNL     1     174.871 160.957 153.615  1.00  0.00     0.004 C 
ENDBRANCH   3   4
BRANCH   3   6
ATOM      6  C   UNL     1     174.670 161.836 150.162  1.00  0.00    -0.014 C 
ATOM      7  C   UNL     1     175.705 160.776 149.752  1.00  0.00     0.007 C 
ATOM      8  C   UNL     1     173.241 161.271 150.064  1.00  0.00     0.007 C 
ENDBRANCH   3   6
ENDBRANCH   2   3
ENDBRANCH   1   2
BRANCH   1   9
ATOM      9  C   UNL     1     173.938 165.735 151.502  1.00  0.00    -0.011 C 
ATOM     10  C   UNL     1     174.625 166.065 152.847  1.00  0.00     0.008 C 
BRANCH   9  11
ATOM     11  C   UNL     1     173.199 167.010 150.929  1.00  0.00    -0.002 C 
ATOM     12  C   UNL     1     171.812 166.766 150.354  1.00  0.00     0.005 C 
ATOM     13  C   UNL     1     173.847 168.069 149.980  1.00  0.00    -0.026 C 
ATOM     14  C   UNL     1     171.353 168.147 149.891  1.00  0.00     0.005 C 
ATOM     15  C   UNL     1     172.627 169.002 149.646  1.00  0.00    -0.001 C 
ATOM     16  C   UNL     1     175.000 168.823 150.704  1.00  0.00     0.007 C 
ATOM     17  C   UNL     1     174.363 167.500 148.629  1.00  0.00     0.012 C 
ATOM     18  C   UNL     1     172.646 170.319 150.473  1.00  0.00     0.000 C 
ATOM     19  C   UNL     1     175.224 170.221 150.125  1.00  0.00     0.005 C 
ATOM     20  C   UNL     1     173.953 171.122 150.216  1.00  0.00     0.003 C 
ATOM     21  C   UNL     1     171.470 171.252 150.125  1.00  0.00     0.031 C 
ATOM     22  C   UNL     1     174.068 172.357 151.193  1.00  0.00    -0.008 C 
ATOM     23  C   UNL     1     171.538 172.509 150.945  1.00  0.00    -0.027 C 
ATOM     24  C   UNL     1     172.698 173.031 151.409  1.00  0.00    -0.065 C 
ATOM     25  C   UNL     1     174.599 171.935 152.602  1.00  0.00     0.014 C 
ATOM     26  C   UNL     1     175.033 173.387 150.546  1.00  0.00     0.016 C 
ATOM     27  C   UNL     1     172.627 174.170 152.407  1.00  0.00     0.063 C 
ATOM     28  C   UNL     1     174.537 173.066 153.653  1.00  0.00     0.033 C 
ATOM     29  C   UNL     1     173.135 173.686 153.775  1.00  0.00     0.118 C 
BRANCH  29  30
ATOM     30  O   UNL     1     172.248 172.740 154.318  1.00  0.00    -0.393 OA
ATOM     31  H   UNL     1     172.189 171.996 153.661  1.00  0.00     0.210 HD
ENDBRANCH  29  30
ENDBRANCH   9  11
ENDBRANCH   1   9
TORSDOF 7
ENDMDL
MODEL 6
REMARK VINA RESULT:    -5.816      4.877      8.828
REMARK INTER + INTRA:         -10.897
REMARK INTER:                  -8.855
REMARK INTRA:                  -2.042
REMARK UNBOUND:                -2.871
REMARK SMILES CC[C@@H](CC[C@@H](C)[C@@H]1CC[C@H]2[C@@H]3CC=C4C[C@@H](O)CC[C@@]4(C)[C@H]3CC[C@]21C)C(C)C
REMARK SMILES IDX 5 1 4 2 3 3 2 4 1 5 28 6 29 7 30 8 6 9 7 10 8 11 9 12 26 13
REMARK SMILES IDX 10 14 11 15 25 16 27 17 12 18 24 19 23 20 13 21 21 22 14 23
REMARK SMILES IDX 15 24 20 25 22 26 16 27 19 28 17 29 18 30
REMARK H PARENT 18 31
REMARK Flexibility Score: inf
ROOT
ATOM      1  C   UNL     1     171.656 158.163 151.715  1.00  0.00     0.004 C 
ENDROOT
BRANCH   1   2
ATOM      2  C   UNL     1     170.856 159.474 151.565  1.00  0.00     0.004 C 
BRANCH   2   3
ATOM      3  C   UNL     1     169.896 159.511 150.333  1.00  0.00    -0.009 C 
BRANCH   3   4
ATOM      4  C   UNL     1     169.388 158.069 150.030  1.00  0.00     0.000 C 
ATOM      5  C   UNL     1     168.136 157.656 150.802  1.00  0.00     0.004 C 
ENDBRANCH   3   4
BRANCH   3   6
ATOM      6  C   UNL     1     170.591 160.237 149.129  1.00  0.00    -0.014 C 
ATOM      7  C   UNL     1     169.620 160.635 148.005  1.00  0.00     0.007 C 
ATOM      8  C   UNL     1     171.457 161.437 149.552  1.00  0.00     0.007 C 
ENDBRANCH   3   6
ENDBRANCH   2   3
ENDBRANCH   1   2
BRANCH   1   9
ATOM      9  C   UNL     1     173.080 158.143 151.096  1.00  0.00    -0.011 C 
ATOM     10  C   UNL     1     172.994 157.436 149.725  1.00  0.00     0.008 C 
BRANCH   9  11
ATOM     11  C   UNL     1     173.915 159.481 150.980  1.00  0.00    -0.002 C 
ATOM     12  C   UNL     1     175.012 159.485 149.925  1.00  0.00     0.005 C 
ATOM     13  C   UNL     1     174.516 160.269 152.188  1.00  0.00    -0.026 C 
ATOM     14  C   UNL     1     175.630 160.877 150.039  1.00  0.00     0.005 C 
ATOM     15  C   UNL     1     175.330 161.404 151.469  1.00  0.00    -0.001 C 
ATOM     16  C   UNL     1     173.382 160.826 153.099  1.00  0.00     0.007 C 
ATOM     17  C   UNL     1     175.528 159.464 153.049  1.00  0.00     0.012 C 
ATOM     18  C   UNL     1     174.576 162.765 151.471  1.00  0.00     0.000 C 
ATOM     19  C   UNL     1     173.824 162.074 153.865  1.00  0.00     0.005 C 
ATOM     20  C   UNL     1     174.272 163.233 152.922  1.00  0.00     0.003 C 
ATOM     21  C   UNL     1     175.384 163.889 150.795  1.00  0.00     0.031 C 
ATOM     22  C   UNL     1     173.341 164.509 152.930  1.00  0.00    -0.008 C 
ATOM     23  C   UNL     1     174.616 165.180 150.830  1.00  0.00    -0.027 C 
ATOM     24  C   UNL     1     173.716 165.483 151.795  1.00  0.00    -0.065 C 
ATOM     25  C   UNL     1     171.837 164.131 152.732  1.00  0.00     0.014 C 
ATOM     26  C   UNL     1     173.536 165.232 154.290  1.00  0.00     0.016 C 
ATOM     27  C   UNL     1     172.843 166.708 151.607  1.00  0.00     0.063 C 
ATOM     28  C   UNL     1     170.912 165.352 152.529  1.00  0.00     0.033 C 
ATOM     29  C   UNL     1     171.385 166.271 151.390  1.00  0.00     0.118 C 
BRANCH  29  30
ATOM     30  O   UNL     1     171.253 165.602 150.161  1.00  0.00    -0.393 OA
ATOM     31  H   UNL     1     171.490 164.651 150.328  1.00  0.00     0.210 HD
ENDBRANCH  29  30
ENDBRANCH   9  11
ENDBRANCH   1   9
TORSDOF 7
ENDMDL
MODEL 7
REMARK VINA RESULT:    -5.816      8.514     11.173
REMARK INTER + INTRA:         -10.897
REMARK INTER:                  -8.105
REMARK INTRA:                  -2.792
REMARK UNBOUND:                -2.871
REMARK SMILES CC[C@@H](CC[C@@H](C)[C@@H]1CC[C@H]2[C@@H]3CC=C4C[C@@H](O)CC[C@@]4(C)[C@H]3CC[C@]21C)C(C)C
REMARK SMILES IDX 5 1 4 2 3 3 2 4 1 5 28 6 29 7 30 8 6 9 7 10 8 11 9 12 26 13
REMARK SMILES IDX 10 14 11 15 25 16 27 17 12 18 24 19 23 20 13 21 21 22 14 23
REMARK SMILES IDX 15 24 20 25 22 26 16 27 19 28 17 29 18 30
REMARK H PARENT 18 31
REMARK Flexibility Score: inf
ROOT
ATOM      1  C   UNL     1     173.551 161.057 156.454  1.00  0.00     0.004 C 
ENDROOT
BRANCH   1   2
ATOM      2  C   UNL     1     173.328 159.698 157.150  1.00  0.00     0.004 C 
BRANCH   2   3
ATOM      3  C   UNL     1     172.116 158.880 156.601  1.00  0.00    -0.009 C 
BRANCH   3   4
ATOM      4  C   UNL     1     172.464 157.361 156.625  1.00  0.00     0.000 C 
ATOM      5  C   UNL     1     173.954 157.044 156.503  1.00  0.00     0.004 C 
ENDBRANCH   3   4
BRANCH   3   6
ATOM      6  C   UNL     1     171.677 159.438 155.203  1.00  0.00    -0.014 C 
ATOM      7  C   UNL     1     171.649 158.373 154.094  1.00  0.00     0.007 C 
ATOM      8  C   UNL     1     170.352 160.220 155.242  1.00  0.00     0.007 C 
ENDBRANCH   3   6
ENDBRANCH   2   3
ENDBRANCH   1   2
BRANCH   1   9
ATOM      9  C   UNL     1     174.764 161.154 155.489  1.00  0.00    -0.011 C 
ATOM     10  C   UNL     1     176.024 160.703 156.262  1.00  0.00     0.008 C 
BRANCH   9  11
ATOM     11  C   UNL     1     174.706 160.461 154.068  1.00  0.00    -0.002 C 
ATOM     12  C   UNL     1     175.818 159.466 153.773  1.00  0.00     0.005 C 
ATOM     13  C   UNL     1     174.466 161.210 152.718  1.00  0.00    -0.026 C 
ATOM     14  C   UNL     1     175.505 158.967 152.364  1.00  0.00     0.005 C 
ATOM     15  C   UNL     1     174.644 160.055 151.666  1.00  0.00    -0.001 C 
ATOM     16  C   UNL     1     173.043 161.841 152.684  1.00  0.00     0.007 C 
ATOM     17  C   UNL     1     175.527 162.294 152.379  1.00  0.00     0.012 C 
ATOM     18  C   UNL     1     173.281 159.513 151.147  1.00  0.00     0.000 C 
ATOM     19  C   UNL     1     172.521 162.001 151.255  1.00  0.00     0.005 C 
ATOM     20  C   UNL     1     172.444 160.646 150.486  1.00  0.00     0.003 C 
ATOM     21  C   UNL     1     173.449 158.404 150.092  1.00  0.00     0.031 C 
ATOM     22  C   UNL     1     170.987 160.150 150.133  1.00  0.00    -0.008 C 
ATOM     23  C   UNL     1     172.107 157.922 149.620  1.00  0.00    -0.027 C 
ATOM     24  C   UNL     1     171.000 158.700 149.608  1.00  0.00    -0.065 C 
ATOM     25  C   UNL     1     170.046 160.178 151.382  1.00  0.00     0.014 C 
ATOM     26  C   UNL     1     170.426 161.077 149.021  1.00  0.00     0.016 C 
ATOM     27  C   UNL     1     169.661 158.047 149.325  1.00  0.00     0.063 C 
ATOM     28  C   UNL     1     168.672 159.514 151.138  1.00  0.00     0.033 C 
ATOM     29  C   UNL     1     168.795 158.081 150.594  1.00  0.00     0.118 C 
BRANCH  29  30
ATOM     30  O   UNL     1     169.346 157.248 151.585  1.00  0.00    -0.393 OA
ATOM     31  H   UNL     1     169.856 156.540 151.108  1.00  0.00     0.210 HD
ENDBRANCH  29  30
ENDBRANCH   9  11
ENDBRANCH   1   9
TORSDOF 7
ENDMDL
MODEL 8
REMARK VINA RESULT:    -5.751      8.485     11.429
REMARK INTER + INTRA:         -10.806
REMARK INTER:                  -8.256
REMARK INTRA:                  -2.550
REMARK UNBOUND:                -2.871
REMARK SMILES CC[C@@H](CC[C@@H](C)[C@@H]1CC[C@H]2[C@@H]3CC=C4C[C@@H](O)CC[C@@]4(C)[C@H]3CC[C@]21C)C(C)C
REMARK SMILES IDX 5 1 4 2 3 3 2 4 1 5 28 6 29 7 30 8 6 9 7 10 8 11 9 12 26 13
REMARK SMILES IDX 10 14 11 15 25 16 27 17 12 18 24 19 23 20 13 21 21 22 14 23
REMARK SMILES IDX 15 24 20 25 22 26 16 27 19 28 17 29 18 30
REMARK H PARENT 18 31
REMARK Flexibility Score: inf
ROOT
ATOM      1  C   UNL     1     175.013 160.137 154.636  1.00  0.00     0.004 C 
ENDROOT
BRANCH   1   2
ATOM      2  C   UNL     1     174.178 158.851 154.809  1.00  0.00     0.004 C 
BRANCH   2   3
ATOM      3  C   UNL     1     173.119 158.915 155.956  1.00  0.00    -0.009 C 
BRANCH   3   4
ATOM      4  C   UNL     1     173.437 157.818 157.016  1.00  0.00     0.000 C 
ATOM      5  C   UNL     1     173.859 156.470 156.434  1.00  0.00     0.004 C 
ENDBRANCH   3   4
BRANCH   3   6
ATOM      6  C   UNL     1     171.671 158.860 155.357  1.00  0.00    -0.014 C 
ATOM      7  C   UNL     1     170.946 160.217 155.368  1.00  0.00     0.007 C 
ATOM      8  C   UNL     1     171.608 158.220 153.958  1.00  0.00     0.007 C 
ENDBRANCH   3   6
ENDBRANCH   2   3
ENDBRANCH   1   2
BRANCH   1   9
ATOM      9  C   UNL     1     174.742 160.975 153.357  1.00  0.00    -0.011 C 
ATOM     10  C   UNL     1     176.097 161.514 152.844  1.00  0.00     0.008 C 
BRANCH   9  11
ATOM     11  C   UNL     1     173.903 160.359 152.166  1.00  0.00    -0.002 C 
ATOM     12  C   UNL     1     174.687 159.513 151.174  1.00  0.00     0.005 C 
ATOM     13  C   UNL     1     172.872 161.148 151.296  1.00  0.00    -0.026 C 
ATOM     14  C   UNL     1     173.637 159.060 150.162  1.00  0.00     0.005 C 
ATOM     15  C   UNL     1     172.467 160.080 150.217  1.00  0.00    -0.001 C 
ATOM     16  C   UNL     1     171.665 161.615 152.162  1.00  0.00     0.007 C 
ATOM     17  C   UNL     1     173.465 162.362 150.529  1.00  0.00     0.012 C 
ATOM     18  C   UNL     1     171.094 159.417 150.526  1.00  0.00     0.000 C 
ATOM     19  C   UNL     1     170.395 161.793 151.328  1.00  0.00     0.005 C 
ATOM     20  C   UNL     1     169.963 160.482 150.602  1.00  0.00     0.003 C 
ATOM     21  C   UNL     1     170.677 158.392 149.454  1.00  0.00     0.031 C 
ATOM     22  C   UNL     1     168.608 159.844 151.105  1.00  0.00    -0.008 C 
ATOM     23  C   UNL     1     169.345 157.788 149.797  1.00  0.00    -0.027 C 
ATOM     24  C   UNL     1     168.398 158.436 150.514  1.00  0.00    -0.065 C 
ATOM     25  C   UNL     1     168.580 159.698 152.662  1.00  0.00     0.014 C 
ATOM     26  C   UNL     1     167.448 160.761 150.634  1.00  0.00     0.016 C 
ATOM     27  C   UNL     1     167.190 157.651 150.988  1.00  0.00     0.063 C 
ATOM     28  C   UNL     1     167.368 158.897 153.187  1.00  0.00     0.033 C 
ATOM     29  C   UNL     1     167.233 157.518 152.519  1.00  0.00     0.118 C 
BRANCH  29  30
ATOM     30  O   UNL     1     168.309 156.701 152.908  1.00  0.00    -0.393 OA
ATOM     31  H   UNL     1     168.344 155.949 152.258  1.00  0.00     0.210 HD
ENDBRANCH  29  30
ENDBRANCH   9  11
ENDBRANCH   1   9
TORSDOF 7
ENDMDL
MODEL 9
REMARK VINA RESULT:    -5.744      1.857      6.367
REMARK INTER + INTRA:         -10.797
REMARK INTER:                  -8.091
REMARK INTRA:                  -2.706
REMARK UNBOUND:                -2.871
REMARK SMILES CC[C@@H](CC[C@@H](C)[C@@H]1CC[C@H]2[C@@H]3CC=C4C[C@@H](O)CC[C@@]4(C)[C@H]3CC[C@]21C)C(C)C
REMARK SMILES IDX 5 1 4 2 3 3 2 4 1 5 28 6 29 7 30 8 6 9 7 10 8 11 9 12 26 13
REMARK SMILES IDX 10 14 11 15 25 16 27 17 12 18 24 19 23 20 13 21 21 22 14 23
REMARK SMILES IDX 15 24 20 25 22 26 16 27 19 28 17 29 18 30
REMARK H PARENT 18 31
REMARK Flexibility Score: inf
ROOT
ATOM      1  C   UNL     1     174.632 173.876 153.933  1.00  0.00     0.004 C 
ENDROOT
BRANCH   1   2
ATOM      2  C   UNL     1     174.954 173.435 152.490  1.00  0.00     0.004 C 
BRANCH   2   3
ATOM      3  C   UNL     1     173.811 173.703 151.460  1.00  0.00    -0.009 C 
BRANCH   3   4
ATOM      4  C   UNL     1     172.545 174.213 152.212  1.00  0.00     0.000 C 
ATOM      5  C   UNL     1     171.531 174.945 151.334  1.00  0.00     0.004 C 
ENDBRANCH   3   4
BRANCH   3   6
ATOM      6  C   UNL     1     173.585 172.436 150.563  1.00  0.00    -0.014 C 
ATOM      7  C   UNL     1     174.885 171.706 150.186  1.00  0.00     0.007 C 
ATOM      8  C   UNL     1     172.554 171.449 151.143  1.00  0.00     0.007 C 
ENDBRANCH   3   6
ENDBRANCH   2   3
ENDBRANCH   1   2
BRANCH   1   9
ATOM      9  C   UNL     1     174.497 172.747 154.992  1.00  0.00    -0.011 C 
ATOM     10  C   UNL     1     174.219 173.408 156.360  1.00  0.00     0.008 C 
BRANCH   9  11
ATOM     11  C   UNL     1     173.504 171.541 154.745  1.00  0.00    -0.002 C 
ATOM     12  C   UNL     1     172.129 171.677 155.381  1.00  0.00     0.005 C 
ATOM     13  C   UNL     1     173.873 170.031 154.904  1.00  0.00    -0.026 C 
ATOM     14  C   UNL     1     171.405 170.395 154.978  1.00  0.00     0.005 C 
ATOM     15  C   UNL     1     172.488 169.327 154.666  1.00  0.00    -0.001 C 
ATOM     16  C   UNL     1     174.948 169.615 153.857  1.00  0.00     0.007 C 
ATOM     17  C   UNL     1     174.347 169.625 156.327  1.00  0.00     0.012 C 
ATOM     18  C   UNL     1     172.365 168.733 153.233  1.00  0.00     0.000 C 
ATOM     19  C   UNL     1     174.879 168.122 153.527  1.00  0.00     0.005 C 
ATOM     20  C   UNL     1     173.490 167.694 152.960  1.00  0.00     0.003 C 
ATOM     21  C   UNL     1     171.022 168.014 153.005  1.00  0.00     0.031 C 
ATOM     22  C   UNL     1     173.489 167.233 151.449  1.00  0.00    -0.008 C 
ATOM     23  C   UNL     1     170.957 167.455 151.612  1.00  0.00    -0.027 C 
ATOM     24  C   UNL     1     172.052 167.076 150.912  1.00  0.00    -0.065 C 
ATOM     25  C   UNL     1     174.214 168.267 150.527  1.00  0.00     0.014 C 
ATOM     26  C   UNL     1     174.202 165.857 151.372  1.00  0.00     0.016 C 
ATOM     27  C   UNL     1     171.887 166.740 149.443  1.00  0.00     0.063 C 
ATOM     28  C   UNL     1     174.064 167.965 149.019  1.00  0.00     0.033 C 
ATOM     29  C   UNL     1     172.596 167.804 148.590  1.00  0.00     0.118 C 
BRANCH  29  30
ATOM     30  O   UNL     1     171.936 169.040 148.702  1.00  0.00    -0.393 OA
ATOM     31  H   UNL     1     171.067 168.942 148.229  1.00  0.00     0.210 HD
ENDBRANCH  29  30
ENDBRANCH   9  11
ENDBRANCH   1   9
TORSDOF 7
ENDMDL
