MODEL 1
REMARK VINA RESULT:    20.816      0.000      0.000
REMARK INTER + INTRA:          24.224
REMARK INTER:                  24.466
REMARK INTRA:                  -0.242
REMARK UNBOUND:                -0.242
REMARK SMILES Oc1ccc(-c2[o+]c3cc(O)cc(O)c3cc2O)cc1
REMARK SMILES IDX 6 1 7 2 8 3 9 4 10 5 12 6 13 7 15 8 16 9 17 10 5 11 4 12
REMARK SMILES IDX 3 13 2 14 19 15 20 16 1 17 18 19 11 21 14 23
REMARK H PARENT 1 18 18 20 11 22 14 24
REMARK Flexibility Score: inf
ROOT
ATOM      1  C   UNL     1      -6.416  -7.470  15.750  1.00  0.00     0.401 A 
ATOM      2  O   UNL     1      -6.082  -8.496  16.531  1.00  0.00    -0.202 OA
ATOM      3  C   UNL     1      -6.376  -9.759  16.237  1.00  0.00     0.368 A 
ATOM      4  C   UNL     1      -5.985 -10.781  17.108  1.00  0.00     0.162 A 
ATOM      5  C   UNL     1      -6.285 -12.113  16.810  1.00  0.00     0.128 A 
ATOM      6  C   UNL     1      -6.980 -12.428  15.635  1.00  0.00     0.093 A 
ATOM      7  C   UNL     1      -7.380 -11.413  14.752  1.00  0.00     0.136 A 
ATOM      8  C   UNL     1      -7.077 -10.072  15.053  1.00  0.00     0.125 A 
ATOM      9  C   UNL     1      -7.457  -9.018  14.215  1.00  0.00     0.078 A 
ATOM     10  C   UNL     1      -7.138  -7.703  14.562  1.00  0.00     0.223 A 
ENDROOT
BRANCH   1  11
ATOM     11  C   UNL     1      -6.024  -6.107  16.180  1.00  0.00     0.084 A 
ATOM     12  C   UNL     1      -6.973  -5.193  16.675  1.00  0.00     0.022 A 
ATOM     13  C   UNL     1      -6.583  -3.905  17.052  1.00  0.00     0.047 A 
ATOM     14  C   UNL     1      -5.244  -3.510  16.928  1.00  0.00     0.115 A 
ATOM     15  C   UNL     1      -4.688  -5.696  16.039  1.00  0.00     0.022 A 
ATOM     16  C   UNL     1      -4.301  -4.407  16.418  1.00  0.00     0.047 A 
BRANCH  14  17
ATOM     17  O   UNL     1      -4.843  -2.230  17.302  1.00  0.00    -0.508 OA
ATOM     18  H   UNL     1      -3.983  -1.821  16.954  1.00  0.00     0.293 HD
ENDBRANCH  14  17
ENDBRANCH   1  11
BRANCH  10  19
ATOM     19  O   UNL     1      -7.558  -6.645  13.757  1.00  0.00    -0.500 OA
ATOM     20  H   UNL     1      -7.608  -5.696  14.110  1.00  0.00     0.294 HD
ENDBRANCH  10  19
BRANCH   5  21
ATOM     21  O   UNL     1      -5.887 -13.119  17.689  1.00  0.00    -0.507 OA
ATOM     22  H   UNL     1      -5.927 -12.992  18.693  1.00  0.00     0.293 HD
ENDBRANCH   5  21
BRANCH   7  23
ATOM     23  O   UNL     1      -8.073 -11.738  13.585  1.00  0.00    -0.507 OA
ATOM     24  H   UNL     1      -7.954 -11.204  12.732  1.00  0.00     0.293 HD
ENDBRANCH   7  23
TORSDOF 5
ENDMDL
MODEL 2
REMARK VINA RESULT:    20.931      1.106      2.687
REMARK INTER + INTRA:          24.360
REMARK INTER:                  24.623
REMARK INTRA:                  -0.264
REMARK UNBOUND:                -0.242
REMARK SMILES Oc1ccc(-c2[o+]c3cc(O)cc(O)c3cc2O)cc1
REMARK SMILES IDX 6 1 7 2 8 3 9 4 10 5 12 6 13 7 15 8 16 9 17 10 5 11 4 12
REMARK SMILES IDX 3 13 2 14 19 15 20 16 1 17 18 19 11 21 14 23
REMARK H PARENT 1 18 18 20 11 22 14 24
REMARK Flexibility Score: inf
ROOT
ATOM      1  C   UNL     1      -6.038  -7.330  16.490  1.00  0.00     0.401 A 
ATOM      2  O   UNL     1      -6.703  -7.776  15.425  1.00  0.00    -0.202 OA
ATOM      3  C   UNL     1      -7.040  -9.051  15.260  1.00  0.00     0.368 A 
ATOM      4  C   UNL     1      -7.742  -9.438  14.114  1.00  0.00     0.162 A 
ATOM      5  C   UNL     1      -8.106 -10.775  13.929  1.00  0.00     0.128 A 
ATOM      6  C   UNL     1      -7.765 -11.733  14.894  1.00  0.00     0.093 A 
ATOM      7  C   UNL     1      -7.059 -11.359  16.048  1.00  0.00     0.136 A 
ATOM      8  C   UNL     1      -6.694 -10.012  16.233  1.00  0.00     0.125 A 
ATOM      9  C   UNL     1      -5.983  -9.584  17.359  1.00  0.00     0.078 A 
ATOM     10  C   UNL     1      -5.639  -8.236  17.494  1.00  0.00     0.223 A 
ENDROOT
BRANCH   1  11
ATOM     11  C   UNL     1      -5.728  -5.883  16.566  1.00  0.00     0.084 A 
ATOM     12  C   UNL     1      -6.721  -4.936  16.877  1.00  0.00     0.022 A 
ATOM     13  C   UNL     1      -6.409  -3.574  16.919  1.00  0.00     0.047 A 
ATOM     14  C   UNL     1      -5.106  -3.141  16.640  1.00  0.00     0.115 A 
ATOM     15  C   UNL     1      -4.430  -5.439  16.266  1.00  0.00     0.022 A 
ATOM     16  C   UNL     1      -4.120  -4.076  16.310  1.00  0.00     0.047 A 
BRANCH  14  17
ATOM     17  O   UNL     1      -4.783  -1.786  16.681  1.00  0.00    -0.508 OA
ATOM     18  H   UNL     1      -5.381  -1.086  16.256  1.00  0.00     0.293 HD
ENDBRANCH  14  17
ENDBRANCH   1  11
BRANCH  10  19
ATOM     19  O   UNL     1      -4.887  -7.811  18.588  1.00  0.00    -0.500 OA
ATOM     20  H   UNL     1      -5.080  -6.934  19.057  1.00  0.00     0.294 HD
ENDBRANCH  10  19
BRANCH   5  21
ATOM     21  O   UNL     1      -8.806 -11.143  12.782  1.00  0.00    -0.507 OA
ATOM     22  H   UNL     1      -8.795 -10.569  11.947  1.00  0.00     0.293 HD
ENDBRANCH   5  21
BRANCH   7  23
ATOM     23  O   UNL     1      -6.724 -12.322  17.002  1.00  0.00    -0.507 OA
ATOM     24  H   UNL     1      -7.000 -12.226  17.972  1.00  0.00     0.293 HD
ENDBRANCH   7  23
TORSDOF 5
ENDMDL
MODEL 3
REMARK VINA RESULT:    21.552      1.844      3.157
REMARK INTER + INTRA:          25.089
REMARK INTER:                  25.398
REMARK INTRA:                  -0.308
REMARK UNBOUND:                -0.242
REMARK SMILES Oc1ccc(-c2[o+]c3cc(O)cc(O)c3cc2O)cc1
REMARK SMILES IDX 6 1 7 2 8 3 9 4 10 5 12 6 13 7 15 8 16 9 17 10 5 11 4 12
REMARK SMILES IDX 3 13 2 14 19 15 20 16 1 17 18 19 11 21 14 23
REMARK H PARENT 1 18 18 20 11 22 14 24
REMARK Flexibility Score: inf
ROOT
ATOM      1  C   UNL     1      -6.911  -7.427  16.902  1.00  0.00     0.401 A 
ATOM      2  O   UNL     1      -7.552  -8.004  15.888  1.00  0.00    -0.202 OA
ATOM      3  C   UNL     1      -7.233  -9.204  15.414  1.00  0.00     0.368 A 
ATOM      4  C   UNL     1      -7.959  -9.743  14.347  1.00  0.00     0.162 A 
ATOM      5  C   UNL     1      -7.636 -11.005  13.841  1.00  0.00     0.128 A 
ATOM      6  C   UNL     1      -6.579 -11.735  14.404  1.00  0.00     0.093 A 
ATOM      7  C   UNL     1      -5.841 -11.206  15.473  1.00  0.00     0.136 A 
ATOM      8  C   UNL     1      -6.168  -9.935  15.982  1.00  0.00     0.125 A 
ATOM      9  C   UNL     1      -5.461  -9.355  17.041  1.00  0.00     0.078 A 
ATOM     10  C   UNL     1      -5.821  -8.088  17.506  1.00  0.00     0.223 A 
ENDROOT
BRANCH   1  11
ATOM     11  C   UNL     1      -7.366  -6.089  17.348  1.00  0.00     0.084 A 
ATOM     12  C   UNL     1      -8.191  -5.934  18.477  1.00  0.00     0.022 A 
ATOM     13  C   UNL     1      -8.627  -4.663  18.864  1.00  0.00     0.047 A 
ATOM     14  C   UNL     1      -8.255  -3.535  18.121  1.00  0.00     0.115 A 
ATOM     15  C   UNL     1      -7.016  -4.955  16.596  1.00  0.00     0.022 A 
ATOM     16  C   UNL     1      -7.453  -3.685  16.986  1.00  0.00     0.047 A 
BRANCH  14  17
ATOM     17  O   UNL     1      -8.682  -2.263  18.498  1.00  0.00    -0.508 OA
ATOM     18  H   UNL     1      -8.034  -1.572  18.857  1.00  0.00     0.293 HD
ENDBRANCH  14  17
ENDBRANCH   1  11
BRANCH  10  19
ATOM     19  O   UNL     1      -5.089  -7.482  18.527  1.00  0.00    -0.500 OA
ATOM     20  H   UNL     1      -4.082  -7.582  18.590  1.00  0.00     0.294 HD
ENDBRANCH  10  19
BRANCH   5  21
ATOM     21  O   UNL     1      -8.371 -11.527  12.779  1.00  0.00    -0.507 OA
ATOM     22  H   UNL     1      -8.128 -12.412  12.350  1.00  0.00     0.293 HD
ENDBRANCH   5  21
BRANCH   7  23
ATOM     23  O   UNL     1      -4.790 -11.941  16.024  1.00  0.00    -0.507 OA
ATOM     24  H   UNL     1      -4.296 -11.624  16.850  1.00  0.00     0.293 HD
ENDBRANCH   7  23
TORSDOF 5
ENDMDL
