MODEL 1
REMARK VINA RESULT:    -4.712      0.000      0.000
REMARK INTER + INTRA:          -7.500
REMARK INTER:                  -6.502
REMARK INTRA:                  -0.998
REMARK UNBOUND:                -0.998
REMARK SMILES CC[C@@H](CC[C@H](C)[C@H]1CC[C@@H]2[C@H]3CC=C4C[C@@H](O)CC[C@]4(C)[C@@H]3CC[C@@]21C)C(C)C
REMARK SMILES IDX 5 1 4 2 3 3 2 4 1 5 28 6 29 7 30 8 6 9 7 10 8 11 9 12 26 13
REMARK SMILES IDX 10 14 11 15 25 16 27 17 12 18 24 19 23 20 13 21 21 22 14 23
REMARK SMILES IDX 15 24 20 25 22 26 16 27 19 28 17 29 18 30
REMARK H PARENT 18 31
REMARK Flexibility Score: inf
ROOT
ATOM      1  C   UNL     1     -28.360   4.403   9.453  1.00  0.00     0.004 C 
ENDROOT
BRANCH   1   2
ATOM      2  C   UNL     1     -28.948   5.651   8.766  1.00  0.00     0.004 C 
BRANCH   2   3
ATOM      3  C   UNL     1     -30.037   6.394   9.585  1.00  0.00    -0.009 C 
BRANCH   3   4
ATOM      4  C   UNL     1     -31.460   6.081   9.044  1.00  0.00     0.000 C 
ATOM      5  C   UNL     1     -32.298   5.225   9.993  1.00  0.00     0.004 C 
ENDBRANCH   3   4
BRANCH   3   6
ATOM      6  C   UNL     1     -29.688   7.916   9.781  1.00  0.00    -0.014 C 
ATOM      7  C   UNL     1     -28.400   8.378   9.077  1.00  0.00     0.007 C 
ATOM      8  C   UNL     1     -30.864   8.823   9.390  1.00  0.00     0.007 C 
ENDBRANCH   3   6
ENDBRANCH   2   3
ENDBRANCH   1   2
BRANCH   1   9
ATOM      9  C   UNL     1     -28.569   3.063   8.686  1.00  0.00    -0.011 C 
ATOM     10  C   UNL     1     -30.040   2.878   8.240  1.00  0.00     0.008 C 
BRANCH   9  11
ATOM     11  C   UNL     1     -27.902   1.827   9.417  1.00  0.00    -0.002 C 
ATOM     12  C   UNL     1     -28.890   0.888  10.124  1.00  0.00     0.005 C 
ATOM     13  C   UNL     1     -26.967   0.871   8.582  1.00  0.00    -0.026 C 
ATOM     14  C   UNL     1     -29.039  -0.345   9.252  1.00  0.00     0.005 C 
ATOM     15  C   UNL     1     -27.780  -0.445   8.374  1.00  0.00    -0.001 C 
ATOM     16  C   UNL     1     -25.696   0.578   9.424  1.00  0.00     0.007 C 
ATOM     17  C   UNL     1     -26.516   1.464   7.218  1.00  0.00     0.012 C 
ATOM     18  C   UNL     1     -27.000  -1.782   8.662  1.00  0.00     0.000 C 
ATOM     19  C   UNL     1     -24.769  -0.482   8.808  1.00  0.00     0.005 C 
ATOM     20  C   UNL     1     -25.514  -1.720   8.210  1.00  0.00     0.003 C 
ATOM     21  C   UNL     1     -27.705  -2.928   7.916  1.00  0.00     0.031 C 
ATOM     22  C   UNL     1     -24.737  -3.107   8.380  1.00  0.00    -0.008 C 
ATOM     23  C   UNL     1     -26.996  -4.228   8.078  1.00  0.00    -0.027 C 
ATOM     24  C   UNL     1     -25.659  -4.325   8.178  1.00  0.00    -0.065 C 
ATOM     25  C   UNL     1     -24.080  -3.271   9.803  1.00  0.00     0.014 C 
ATOM     26  C   UNL     1     -23.623  -3.137   7.296  1.00  0.00     0.016 C 
ATOM     27  C   UNL     1     -25.075  -5.701   8.415  1.00  0.00     0.063 C 
ATOM     28  C   UNL     1     -23.545  -4.689  10.120  1.00  0.00     0.033 C 
ATOM     29  C   UNL     1     -24.594  -5.781   9.871  1.00  0.00     0.118 C 
BRANCH  29  30
ATOM     30  O   UNL     1     -24.013  -7.033  10.111  1.00  0.00    -0.393 OA
ATOM     31  H   UNL     1     -24.000  -7.160  11.098  1.00  0.00     0.210 HD
ENDBRANCH  29  30
ENDBRANCH   9  11
ENDBRANCH   1   9
TORSDOF 7
ENDMDL
MODEL 2
REMARK VINA RESULT:    -3.907      5.290     10.908
REMARK INTER + INTRA:          -6.390
REMARK INTER:                  -6.015
REMARK INTRA:                  -0.375
REMARK UNBOUND:                -0.998
REMARK SMILES CC[C@@H](CC[C@H](C)[C@H]1CC[C@@H]2[C@H]3CC=C4C[C@@H](O)CC[C@]4(C)[C@@H]3CC[C@@]21C)C(C)C
REMARK SMILES IDX 5 1 4 2 3 3 2 4 1 5 28 6 29 7 30 8 6 9 7 10 8 11 9 12 26 13
REMARK SMILES IDX 10 14 11 15 25 16 27 17 12 18 24 19 23 20 13 21 21 22 14 23
REMARK SMILES IDX 15 24 20 25 22 26 16 27 19 28 17 29 18 30
REMARK H PARENT 18 31
REMARK Flexibility Score: inf
ROOT
ATOM      1  C   UNL     1     -28.668   2.622  10.075  1.00  0.00     0.004 C 
ENDROOT
BRANCH   1   2
ATOM      2  C   UNL     1     -28.198   1.170   9.859  1.00  0.00     0.004 C 
BRANCH   2   3
ATOM      3  C   UNL     1     -27.719   0.848   8.418  1.00  0.00    -0.009 C 
BRANCH   3   4
ATOM      4  C   UNL     1     -28.397  -0.441   7.874  1.00  0.00     0.000 C 
ATOM      5  C   UNL     1     -28.215  -1.655   8.783  1.00  0.00     0.004 C 
ENDBRANCH   3   4
BRANCH   3   6
ATOM      6  C   UNL     1     -26.152   0.914   8.291  1.00  0.00    -0.014 C 
ATOM      7  C   UNL     1     -25.402   1.046   9.629  1.00  0.00     0.007 C 
ATOM      8  C   UNL     1     -25.597  -0.268   7.484  1.00  0.00     0.007 C 
ENDBRANCH   3   6
ENDBRANCH   2   3
ENDBRANCH   1   2
BRANCH   1   9
ATOM      9  C   UNL     1     -30.212   2.818  10.125  1.00  0.00    -0.011 C 
ATOM     10  C   UNL     1     -30.966   1.466  10.123  1.00  0.00     0.008 C 
BRANCH   9  11
ATOM     11  C   UNL     1     -30.727   3.904   9.093  1.00  0.00    -0.002 C 
ATOM     12  C   UNL     1     -30.105   3.806   7.693  1.00  0.00     0.005 C 
ATOM     13  C   UNL     1     -32.278   4.027   8.836  1.00  0.00    -0.026 C 
ATOM     14  C   UNL     1     -31.144   3.175   6.784  1.00  0.00     0.005 C 
ATOM     15  C   UNL     1     -32.523   3.421   7.418  1.00  0.00    -0.001 C 
ATOM     16  C   UNL     1     -32.653   5.533   8.839  1.00  0.00     0.007 C 
ATOM     17  C   UNL     1     -33.151   3.309   9.902  1.00  0.00     0.012 C 
ATOM     18  C   UNL     1     -33.437   4.275   6.462  1.00  0.00     0.000 C 
ATOM     19  C   UNL     1     -34.107   5.815   8.428  1.00  0.00     0.005 C 
ATOM     20  C   UNL     1     -34.607   4.970   7.210  1.00  0.00     0.003 C 
ATOM     21  C   UNL     1     -34.014   3.344   5.381  1.00  0.00     0.031 C 
ATOM     22  C   UNL     1     -35.618   5.741   6.240  1.00  0.00    -0.008 C 
ATOM     23  C   UNL     1     -34.948   4.054   4.463  1.00  0.00    -0.027 C 
ATOM     24  C   UNL     1     -35.748   5.057   4.865  1.00  0.00    -0.065 C 
ATOM     25  C   UNL     1     -35.186   7.231   5.963  1.00  0.00     0.014 C 
ATOM     26  C   UNL     1     -37.008   5.733   6.936  1.00  0.00     0.016 C 
ATOM     27  C   UNL     1     -36.592   5.741   3.812  1.00  0.00     0.063 C 
ATOM     28  C   UNL     1     -35.968   7.942   4.832  1.00  0.00     0.033 C 
ATOM     29  C   UNL     1     -35.992   7.127   3.532  1.00  0.00     0.118 C 
BRANCH  29  30
ATOM     30  O   UNL     1     -36.775   7.801   2.587  1.00  0.00    -0.393 OA
ATOM     31  H   UNL     1     -37.218   7.105   2.030  1.00  0.00     0.210 HD
ENDBRANCH  29  30
ENDBRANCH   9  11
ENDBRANCH   1   9
TORSDOF 7
ENDMDL
MODEL 3
REMARK VINA RESULT:    -3.704      2.126      3.165
REMARK INTER + INTRA:          -6.109
REMARK INTER:                  -6.056
REMARK INTRA:                  -0.053
REMARK UNBOUND:                -0.998
REMARK SMILES CC[C@@H](CC[C@H](C)[C@H]1CC[C@@H]2[C@H]3CC=C4C[C@@H](O)CC[C@]4(C)[C@@H]3CC[C@@]21C)C(C)C
REMARK SMILES IDX 5 1 4 2 3 3 2 4 1 5 28 6 29 7 30 8 6 9 7 10 8 11 9 12 26 13
REMARK SMILES IDX 10 14 11 15 25 16 27 17 12 18 24 19 23 20 13 21 21 22 14 23
REMARK SMILES IDX 15 24 20 25 22 26 16 27 19 28 17 29 18 30
REMARK H PARENT 18 31
REMARK Flexibility Score: inf
ROOT
ATOM      1  C   UNL     1     -30.636   4.011   7.806  1.00  0.00     0.004 C 
ENDROOT
BRANCH   1   2
ATOM      2  C   UNL     1     -32.091   4.432   8.096  1.00  0.00     0.004 C 
BRANCH   2   3
ATOM      3  C   UNL     1     -33.126   3.967   7.037  1.00  0.00    -0.009 C 
BRANCH   3   4
ATOM      4  C   UNL     1     -32.465   3.060   5.962  1.00  0.00     0.000 C 
ATOM      5  C   UNL     1     -33.451   2.124   5.265  1.00  0.00     0.004 C 
ENDBRANCH   3   4
BRANCH   3   6
ATOM      6  C   UNL     1     -33.992   5.165   6.496  1.00  0.00    -0.014 C 
ATOM      7  C   UNL     1     -34.040   5.285   4.962  1.00  0.00     0.007 C 
ATOM      8  C   UNL     1     -35.415   5.144   7.073  1.00  0.00     0.007 C 
ENDBRANCH   3   6
ENDBRANCH   2   3
ENDBRANCH   1   2
BRANCH   1   9
ATOM      9  C   UNL     1     -29.598   4.427   8.890  1.00  0.00    -0.011 C 
ATOM     10  C   UNL     1     -28.657   5.549   8.387  1.00  0.00     0.008 C 
BRANCH   9  11
ATOM     11  C   UNL     1     -28.895   3.184   9.575  1.00  0.00    -0.002 C 
ATOM     12  C   UNL     1     -29.860   2.123  10.125  1.00  0.00     0.005 C 
ATOM     13  C   UNL     1     -27.830   2.368   8.747  1.00  0.00    -0.026 C 
ATOM     14  C   UNL     1     -29.848   0.959   9.151  1.00  0.00     0.005 C 
ATOM     15  C   UNL     1     -28.522   1.020   8.373  1.00  0.00    -0.001 C 
ATOM     16  C   UNL     1     -26.607   2.095   9.665  1.00  0.00     0.007 C 
ATOM     17  C   UNL     1     -27.324   3.102   7.474  1.00  0.00     0.012 C 
ATOM     18  C   UNL     1     -27.667  -0.278   8.620  1.00  0.00     0.000 C 
ATOM     19  C   UNL     1     -25.559   1.158   9.046  1.00  0.00     0.005 C 
ATOM     20  C   UNL     1     -26.161  -0.076   8.296  1.00  0.00     0.003 C 
ATOM     21  C   UNL     1     -28.225  -1.405   7.733  1.00  0.00     0.031 C 
ATOM     22  C   UNL     1     -25.295  -1.414   8.421  1.00  0.00    -0.008 C 
ATOM     23  C   UNL     1     -27.433  -2.662   7.851  1.00  0.00    -0.027 C 
ATOM     24  C   UNL     1     -26.104  -2.673   8.051  1.00  0.00    -0.065 C 
ATOM     25  C   UNL     1     -24.736  -1.649   9.876  1.00  0.00     0.014 C 
ATOM     26  C   UNL     1     -24.103  -1.277   7.432  1.00  0.00     0.016 C 
ATOM     27  C   UNL     1     -25.436  -4.019   8.228  1.00  0.00     0.063 C 
ATOM     28  C   UNL     1     -24.120  -3.048  10.125  1.00  0.00     0.033 C 
ATOM     29  C   UNL     1     -25.062  -4.186   9.708  1.00  0.00     0.118 C 
BRANCH  29  30
ATOM     30  O   UNL     1     -24.407  -5.410   9.897  1.00  0.00    -0.393 OA
ATOM     31  H   UNL     1     -24.770  -6.039   9.216  1.00  0.00     0.210 HD
ENDBRANCH  29  30
ENDBRANCH   9  11
ENDBRANCH   1   9
TORSDOF 7
ENDMDL
MODEL 4
REMARK VINA RESULT:    -3.651      6.811     10.544
REMARK INTER + INTRA:          -6.036
REMARK INTER:                  -5.142
REMARK INTRA:                  -0.894
REMARK UNBOUND:                -0.998
REMARK SMILES CC[C@@H](CC[C@H](C)[C@H]1CC[C@@H]2[C@H]3CC=C4C[C@@H](O)CC[C@]4(C)[C@@H]3CC[C@@]21C)C(C)C
REMARK SMILES IDX 5 1 4 2 3 3 2 4 1 5 28 6 29 7 30 8 6 9 7 10 8 11 9 12 26 13
REMARK SMILES IDX 10 14 11 15 25 16 27 17 12 18 24 19 23 20 13 21 21 22 14 23
REMARK SMILES IDX 15 24 20 25 22 26 16 27 19 28 17 29 18 30
REMARK H PARENT 18 31
REMARK Flexibility Score: inf
ROOT
ATOM      1  C   UNL     1     -16.950  -2.869   4.391  1.00  0.00     0.004 C 
ENDROOT
BRANCH   1   2
ATOM      2  C   UNL     1     -17.194  -2.012   3.133  1.00  0.00     0.004 C 
BRANCH   2   3
ATOM      3  C   UNL     1     -17.881  -0.646   3.400  1.00  0.00    -0.009 C 
BRANCH   3   4
ATOM      4  C   UNL     1     -17.232   0.486   2.554  1.00  0.00     0.000 C 
ATOM      5  C   UNL     1     -17.468   0.335   1.053  1.00  0.00     0.004 C 
ENDBRANCH   3   4
BRANCH   3   6
ATOM      6  C   UNL     1     -18.039  -0.359   4.939  1.00  0.00    -0.014 C 
ATOM      7  C   UNL     1     -16.987   0.598   5.528  1.00  0.00     0.007 C 
ATOM      8  C   UNL     1     -19.454   0.129   5.284  1.00  0.00     0.007 C 
ENDBRANCH   3   6
ENDBRANCH   2   3
ENDBRANCH   1   2
BRANCH   1   9
ATOM      9  C   UNL     1     -17.467  -4.336   4.303  1.00  0.00    -0.011 C 
ATOM     10  C   UNL     1     -16.908  -5.071   3.061  1.00  0.00     0.008 C 
BRANCH   9  11
ATOM     11  C   UNL     1     -19.029  -4.452   4.536  1.00  0.00    -0.002 C 
ATOM     12  C   UNL     1     -19.606  -5.862   4.343  1.00  0.00     0.005 C 
ATOM     13  C   UNL     1     -19.627  -3.958   5.909  1.00  0.00    -0.026 C 
ATOM     14  C   UNL     1     -19.862  -6.435   5.725  1.00  0.00     0.005 C 
ATOM     15  C   UNL     1     -20.010  -5.250   6.696  1.00  0.00    -0.001 C 
ATOM     16  C   UNL     1     -20.901  -3.123   5.612  1.00  0.00     0.007 C 
ATOM     17  C   UNL     1     -18.653  -3.075   6.738  1.00  0.00     0.012 C 
ATOM     18  C   UNL     1     -21.438  -5.246   7.360  1.00  0.00     0.000 C 
ATOM     19  C   UNL     1     -21.690  -2.719   6.868  1.00  0.00     0.005 C 
ATOM     20  C   UNL     1     -21.829  -3.856   7.934  1.00  0.00     0.003 C 
ATOM     21  C   UNL     1     -21.448  -6.280   8.499  1.00  0.00     0.031 C 
ATOM     22  C   UNL     1     -23.221  -3.859   8.721  1.00  0.00    -0.008 C 
ATOM     23  C   UNL     1     -22.745  -6.301   9.232  1.00  0.00    -0.027 C 
ATOM     24  C   UNL     1     -23.492  -5.200   9.429  1.00  0.00    -0.065 C 
ATOM     25  C   UNL     1     -24.457  -3.587   7.782  1.00  0.00     0.014 C 
ATOM     26  C   UNL     1     -23.136  -2.736   9.793  1.00  0.00     0.016 C 
ATOM     27  C   UNL     1     -24.824  -5.376  10.124  1.00  0.00     0.063 C 
ATOM     28  C   UNL     1     -25.841  -3.838   8.430  1.00  0.00     0.033 C 
ATOM     29  C   UNL     1     -25.941  -5.224   9.081  1.00  0.00     0.118 C 
BRANCH  29  30
ATOM     30  O   UNL     1     -27.190  -5.345   9.703  1.00  0.00    -0.393 OA
ATOM     31  H   UNL     1     -27.791  -4.677   9.274  1.00  0.00     0.210 HD
ENDBRANCH  29  30
ENDBRANCH   9  11
ENDBRANCH   1   9
TORSDOF 7
ENDMDL
MODEL 5
REMARK VINA RESULT:    -3.530      3.798      6.743
REMARK INTER + INTRA:          -5.869
REMARK INTER:                  -5.144
REMARK INTRA:                  -0.725
REMARK UNBOUND:                -0.998
REMARK SMILES CC[C@@H](CC[C@H](C)[C@H]1CC[C@@H]2[C@H]3CC=C4C[C@@H](O)CC[C@]4(C)[C@@H]3CC[C@@]21C)C(C)C
REMARK SMILES IDX 5 1 4 2 3 3 2 4 1 5 28 6 29 7 30 8 6 9 7 10 8 11 9 12 26 13
REMARK SMILES IDX 10 14 11 15 25 16 27 17 12 18 24 19 23 20 13 21 21 22 14 23
REMARK SMILES IDX 15 24 20 25 22 26 16 27 19 28 17 29 18 30
REMARK H PARENT 18 31
REMARK Flexibility Score: inf
ROOT
ATOM      1  C   UNL     1     -34.635   6.374   7.197  1.00  0.00     0.004 C 
ENDROOT
BRANCH   1   2
ATOM      2  C   UNL     1     -36.048   6.314   6.582  1.00  0.00     0.004 C 
BRANCH   2   3
ATOM      3  C   UNL     1     -36.086   5.951   5.074  1.00  0.00    -0.009 C 
BRANCH   3   4
ATOM      4  C   UNL     1     -35.359   4.605   4.798  1.00  0.00     0.000 C 
ATOM      5  C   UNL     1     -36.274   3.527   4.219  1.00  0.00     0.004 C 
ENDBRANCH   3   4
BRANCH   3   6
ATOM      6  C   UNL     1     -35.664   7.166   4.167  1.00  0.00    -0.014 C 
ATOM      7  C   UNL     1     -34.921   6.779   2.876  1.00  0.00     0.007 C 
ATOM      8  C   UNL     1     -36.858   8.075   3.842  1.00  0.00     0.007 C 
ENDBRANCH   3   6
ENDBRANCH   2   3
ENDBRANCH   1   2
BRANCH   1   9
ATOM      9  C   UNL     1     -34.580   6.239   8.747  1.00  0.00    -0.011 C 
ATOM     10  C   UNL     1     -34.089   7.542   9.424  1.00  0.00     0.008 C 
BRANCH   9  11
ATOM     11  C   UNL     1     -33.879   4.901   9.222  1.00  0.00    -0.002 C 
ATOM     12  C   UNL     1     -34.583   3.611   8.774  1.00  0.00     0.005 C 
ATOM     13  C   UNL     1     -32.360   4.674   8.860  1.00  0.00    -0.026 C 
ATOM     14  C   UNL     1     -33.778   3.037   7.623  1.00  0.00     0.005 C 
ATOM     15  C   UNL     1     -32.346   3.588   7.739  1.00  0.00    -0.001 C 
ATOM     16  C   UNL     1     -31.635   4.138  10.124  1.00  0.00     0.007 C 
ATOM     17  C   UNL     1     -31.626   5.962   8.392  1.00  0.00     0.012 C 
ATOM     18  C   UNL     1     -31.310   2.420   7.936  1.00  0.00     0.000 C 
ATOM     19  C   UNL     1     -30.181   3.707   9.874  1.00  0.00     0.005 C 
ATOM     20  C   UNL     1     -29.966   2.905   8.548  1.00  0.00     0.003 C 
ATOM     21  C   UNL     1     -31.033   1.779   6.564  1.00  0.00     0.031 C 
ATOM     22  C   UNL     1     -28.856   1.758   8.641  1.00  0.00    -0.008 C 
ATOM     23  C   UNL     1     -30.009   0.700   6.640  1.00  0.00    -0.027 C 
ATOM     24  C   UNL     1     -28.970   0.736   7.493  1.00  0.00    -0.065 C 
ATOM     25  C   UNL     1     -28.933   0.937   9.984  1.00  0.00     0.014 C 
ATOM     26  C   UNL     1     -27.472   2.460   8.550  1.00  0.00     0.016 C 
ATOM     27  C   UNL     1     -28.047  -0.462   7.519  1.00  0.00     0.063 C 
ATOM     28  C   UNL     1     -28.067  -0.346  10.021  1.00  0.00     0.033 C 
ATOM     29  C   UNL     1     -28.312  -1.254   8.808  1.00  0.00     0.118 C 
BRANCH  29  30
ATOM     30  O   UNL     1     -27.444  -2.351   8.878  1.00  0.00    -0.393 OA
ATOM     31  H   UNL     1     -27.157  -2.430   9.828  1.00  0.00     0.210 HD
ENDBRANCH  29  30
ENDBRANCH   9  11
ENDBRANCH   1   9
TORSDOF 7
ENDMDL
MODEL 6
REMARK VINA RESULT:    -3.462      4.301      7.969
REMARK INTER + INTRA:          -5.775
REMARK INTER:                  -4.739
REMARK INTRA:                  -1.036
REMARK UNBOUND:                -0.998
REMARK SMILES CC[C@@H](CC[C@H](C)[C@H]1CC[C@@H]2[C@H]3CC=C4C[C@@H](O)CC[C@]4(C)[C@@H]3CC[C@@]21C)C(C)C
REMARK SMILES IDX 5 1 4 2 3 3 2 4 1 5 28 6 29 7 30 8 6 9 7 10 8 11 9 12 26 13
REMARK SMILES IDX 10 14 11 15 25 16 27 17 12 18 24 19 23 20 13 21 21 22 14 23
REMARK SMILES IDX 15 24 20 25 22 26 16 27 19 28 17 29 18 30
REMARK H PARENT 18 31
REMARK Flexibility Score: inf
ROOT
ATOM      1  C   UNL     1     -36.893   5.595   6.858  1.00  0.00     0.004 C 
ENDROOT
BRANCH   1   2
ATOM      2  C   UNL     1     -36.160   6.746   6.141  1.00  0.00     0.004 C 
BRANCH   2   3
ATOM      3  C   UNL     1     -35.676   6.414   4.704  1.00  0.00    -0.009 C 
BRANCH   3   4
ATOM      4  C   UNL     1     -36.506   7.180   3.637  1.00  0.00     0.000 C 
ATOM      5  C   UNL     1     -36.834   8.618   4.038  1.00  0.00     0.004 C 
ENDBRANCH   3   4
BRANCH   3   6
ATOM      6  C   UNL     1     -35.521   4.863   4.481  1.00  0.00    -0.014 C 
ATOM      7  C   UNL     1     -36.493   4.261   3.451  1.00  0.00     0.007 C 
ATOM      8  C   UNL     1     -34.074   4.481   4.135  1.00  0.00     0.007 C 
ENDBRANCH   3   6
ENDBRANCH   2   3
ENDBRANCH   1   2
BRANCH   1   9
ATOM      9  C   UNL     1     -36.742   5.577   8.408  1.00  0.00    -0.011 C 
ATOM     10  C   UNL     1     -36.504   6.995   8.981  1.00  0.00     0.008 C 
BRANCH   9  11
ATOM     11  C   UNL     1     -35.755   4.447   8.915  1.00  0.00    -0.002 C 
ATOM     12  C   UNL     1     -36.057   3.041   8.376  1.00  0.00     0.005 C 
ATOM     13  C   UNL     1     -34.206   4.639   8.689  1.00  0.00    -0.026 C 
ATOM     14  C   UNL     1     -35.038   2.748   7.291  1.00  0.00     0.005 C 
ATOM     15  C   UNL     1     -33.815   3.646   7.550  1.00  0.00    -0.001 C 
ATOM     16  C   UNL     1     -33.472   4.252  10.001  1.00  0.00     0.007 C 
ATOM     17  C   UNL     1     -33.800   6.093   8.318  1.00  0.00     0.012 C 
ATOM     18  C   UNL     1     -32.528   2.778   7.814  1.00  0.00     0.000 C 
ATOM     19  C   UNL     1     -31.941   4.225   9.875  1.00  0.00     0.005 C 
ATOM     20  C   UNL     1     -31.414   3.567   8.557  1.00  0.00     0.003 C 
ATOM     21  C   UNL     1     -31.982   2.294   6.460  1.00  0.00     0.031 C 
ATOM     22  C   UNL     1     -30.054   2.744   8.726  1.00  0.00    -0.008 C 
ATOM     23  C   UNL     1     -30.720   1.515   6.605  1.00  0.00    -0.027 C 
ATOM     24  C   UNL     1     -29.801   1.780   7.550  1.00  0.00    -0.065 C 
ATOM     25  C   UNL     1     -30.023   1.872  10.038  1.00  0.00     0.014 C 
ATOM     26  C   UNL     1     -28.900   3.785   8.776  1.00  0.00     0.016 C 
ATOM     27  C   UNL     1     -28.601   0.863   7.633  1.00  0.00     0.063 C 
ATOM     28  C   UNL     1     -28.856   0.858  10.125  1.00  0.00     0.033 C 
ATOM     29  C   UNL     1     -28.754  -0.027   8.875  1.00  0.00     0.118 C 
BRANCH  29  30
ATOM     30  O   UNL     1     -27.637  -0.864   9.000  1.00  0.00    -0.393 OA
ATOM     31  H   UNL     1     -26.896  -0.431   8.496  1.00  0.00     0.210 HD
ENDBRANCH  29  30
ENDBRANCH   9  11
ENDBRANCH   1   9
TORSDOF 7
ENDMDL
