MODEL 1
REMARK VINA RESULT:    -6.140      0.000      0.000
REMARK INTER + INTRA:          -7.378
REMARK INTER:                  -7.217
REMARK INTRA:                  -0.161
REMARK UNBOUND:                -0.161
REMARK SMILES Oc1ccc(-c2[o+]c3cc(O)cc(O)c3cc2O)cc1
REMARK SMILES IDX 6 1 7 2 8 3 9 4 10 5 12 6 13 7 15 8 16 9 17 10 5 11 4 12
REMARK SMILES IDX 3 13 2 14 19 15 20 16 1 17 18 19 11 21 14 23
REMARK H PARENT 1 18 18 20 11 22 14 24
REMARK Flexibility Score: inf
ROOT
ATOM      1  C   UNL     1      47.813 108.832  53.670  1.00  0.00     0.401 A 
ATOM      2  O   UNL     1      47.207 107.731  53.235  1.00  0.00    -0.202 OA
ATOM      3  C   UNL     1      47.861 106.632  52.870  1.00  0.00     0.368 A 
ATOM      4  C   UNL     1      47.134 105.526  52.423  1.00  0.00     0.162 A 
ATOM      5  C   UNL     1      47.796 104.359  52.030  1.00  0.00     0.128 A 
ATOM      6  C   UNL     1      49.191 104.300  52.084  1.00  0.00     0.093 A 
ATOM      7  C   UNL     1      49.941 105.395  52.527  1.00  0.00     0.136 A 
ATOM      8  C   UNL     1      49.274 106.580  52.930  1.00  0.00     0.125 A 
ATOM      9  C   UNL     1      49.943 107.723  53.400  1.00  0.00     0.078 A 
ATOM     10  C   UNL     1      49.216 108.853  53.784  1.00  0.00     0.223 A 
ENDROOT
BRANCH   1  11
ATOM     11  C   UNL     1      46.975 109.995  54.038  1.00  0.00     0.084 A 
ATOM     12  C   UNL     1      46.916 110.469  55.361  1.00  0.00     0.022 A 
ATOM     13  C   UNL     1      46.137 111.584  55.680  1.00  0.00     0.047 A 
ATOM     14  C   UNL     1      45.419 112.249  54.682  1.00  0.00     0.115 A 
ATOM     15  C   UNL     1      46.267 110.682  53.037  1.00  0.00     0.022 A 
ATOM     16  C   UNL     1      45.488 111.797  53.357  1.00  0.00     0.047 A 
BRANCH  14  17
ATOM     17  O   UNL     1      44.644 113.359  55.014  1.00  0.00    -0.508 OA
ATOM     18  H   UNL     1      44.205 113.930  54.301  1.00  0.00     0.293 HD
ENDBRANCH  14  17
ENDBRANCH   1  11
BRANCH  10  19
ATOM     19  O   UNL     1      49.878 109.969  54.298  1.00  0.00    -0.500 OA
ATOM     20  H   UNL     1      49.374 110.794  54.602  1.00  0.00     0.294 HD
ENDBRANCH  10  19
BRANCH   5  21
ATOM     21  O   UNL     1      47.078 103.251  51.584  1.00  0.00    -0.507 OA
ATOM     22  H   UNL     1      46.079 103.172  51.733  1.00  0.00     0.293 HD
ENDBRANCH   5  21
BRANCH   7  23
ATOM     23  O   UNL     1      51.332 105.256  52.548  1.00  0.00    -0.507 OA
ATOM     24  H   UNL     1      51.818 104.439  52.889  1.00  0.00     0.293 HD
ENDBRANCH   7  23
TORSDOF 5
ENDMDL
MODEL 2
REMARK VINA RESULT:    -5.758      2.817      6.697
REMARK INTER + INTRA:          -6.928
REMARK INTER:                  -6.839
REMARK INTRA:                  -0.090
REMARK UNBOUND:                -0.161
REMARK SMILES Oc1ccc(-c2[o+]c3cc(O)cc(O)c3cc2O)cc1
REMARK SMILES IDX 6 1 7 2 8 3 9 4 10 5 12 6 13 7 15 8 16 9 17 10 5 11 4 12
REMARK SMILES IDX 3 13 2 14 19 15 20 16 1 17 18 19 11 21 14 23
REMARK H PARENT 1 18 18 20 11 22 14 24
REMARK Flexibility Score: inf
ROOT
ATOM      1  C   UNL     1      48.993 108.357  54.169  1.00  0.00     0.401 A 
ATOM      2  O   UNL     1      49.632 109.292  53.472  1.00  0.00    -0.202 OA
ATOM      3  C   UNL     1      50.055 110.437  54.001  1.00  0.00     0.368 A 
ATOM      4  C   UNL     1      50.715 111.359  53.186  1.00  0.00     0.162 A 
ATOM      5  C   UNL     1      51.167 112.572  53.715  1.00  0.00     0.128 A 
ATOM      6  C   UNL     1      50.958 112.861  55.066  1.00  0.00     0.093 A 
ATOM      7  C   UNL     1      50.299 111.953  55.903  1.00  0.00     0.136 A 
ATOM      8  C   UNL     1      49.840 110.720  55.371  1.00  0.00     0.125 A 
ATOM      9  C   UNL     1      49.182 109.744  56.138  1.00  0.00     0.078 A 
ATOM     10  C   UNL     1      48.763 108.550  55.544  1.00  0.00     0.223 A 
ENDROOT
BRANCH   1  11
ATOM     11  C   UNL     1      48.563 107.128  53.463  1.00  0.00     0.084 A 
ATOM     12  C   UNL     1      49.491 106.284  52.826  1.00  0.00     0.022 A 
ATOM     13  C   UNL     1      49.064 105.117  52.188  1.00  0.00     0.047 A 
ATOM     14  C   UNL     1      47.710 104.770  52.189  1.00  0.00     0.115 A 
ATOM     15  C   UNL     1      47.207 106.761  53.478  1.00  0.00     0.022 A 
ATOM     16  C   UNL     1      46.781 105.593  52.839  1.00  0.00     0.047 A 
BRANCH  14  17
ATOM     17  O   UNL     1      47.297 103.603  51.547  1.00  0.00    -0.508 OA
ATOM     18  H   UNL     1      46.612 103.624  50.801  1.00  0.00     0.293 HD
ENDBRANCH  14  17
ENDBRANCH   1  11
BRANCH  10  19
ATOM     19  O   UNL     1      48.154 107.561  56.316  1.00  0.00    -0.500 OA
ATOM     20  H   UNL     1      48.169 106.585  56.041  1.00  0.00     0.294 HD
ENDBRANCH  10  19
BRANCH   5  21
ATOM     21  O   UNL     1      51.826 113.497  52.909  1.00  0.00    -0.507 OA
ATOM     22  H   UNL     1      52.346 113.209  52.088  1.00  0.00     0.293 HD
ENDBRANCH   5  21
BRANCH   7  23
ATOM     23  O   UNL     1      50.126 112.320  57.241  1.00  0.00    -0.507 OA
ATOM     24  H   UNL     1      49.231 112.503  57.671  1.00  0.00     0.293 HD
ENDBRANCH   7  23
TORSDOF 5
ENDMDL
MODEL 3
REMARK VINA RESULT:    -5.628      2.297      3.530
REMARK INTER + INTRA:          -6.776
REMARK INTER:                  -6.518
REMARK INTRA:                  -0.258
REMARK UNBOUND:                -0.161
REMARK SMILES Oc1ccc(-c2[o+]c3cc(O)cc(O)c3cc2O)cc1
REMARK SMILES IDX 6 1 7 2 8 3 9 4 10 5 12 6 13 7 15 8 16 9 17 10 5 11 4 12
REMARK SMILES IDX 3 13 2 14 19 15 20 16 1 17 18 19 11 21 14 23
REMARK H PARENT 1 18 18 20 11 22 14 24
REMARK Flexibility Score: inf
ROOT
ATOM      1  C   UNL     1      47.351 107.957  55.280  1.00  0.00     0.401 A 
ATOM      2  O   UNL     1      48.427 107.726  54.532  1.00  0.00    -0.202 OA
ATOM      3  C   UNL     1      48.463 106.812  53.567  1.00  0.00     0.368 A 
ATOM      4  C   UNL     1      49.642 106.641  52.838  1.00  0.00     0.162 A 
ATOM      5  C   UNL     1      49.709 105.685  51.819  1.00  0.00     0.128 A 
ATOM      6  C   UNL     1      48.591 104.899  51.530  1.00  0.00     0.093 A 
ATOM      7  C   UNL     1      47.398 105.052  52.246  1.00  0.00     0.136 A 
ATOM      8  C   UNL     1      47.325 106.022  53.279  1.00  0.00     0.125 A 
ATOM      9  C   UNL     1      46.167 106.254  54.041  1.00  0.00     0.078 A 
ATOM     10  C   UNL     1      46.169 107.232  55.040  1.00  0.00     0.223 A 
ENDROOT
BRANCH   1  11
ATOM     11  C   UNL     1      47.438 108.995  56.332  1.00  0.00     0.084 A 
ATOM     12  C   UNL     1      47.471 108.656  57.697  1.00  0.00     0.022 A 
ATOM     13  C   UNL     1      47.578 109.653  58.670  1.00  0.00     0.047 A 
ATOM     14  C   UNL     1      47.668 110.997  58.296  1.00  0.00     0.115 A 
ATOM     15  C   UNL     1      47.550 110.346  55.962  1.00  0.00     0.022 A 
ATOM     16  C   UNL     1      47.657 111.342  56.938  1.00  0.00     0.047 A 
BRANCH  14  17
ATOM     17  O   UNL     1      47.773 111.980  59.277  1.00  0.00    -0.508 OA
ATOM     18  H   UNL     1      47.233 111.932  60.134  1.00  0.00     0.293 HD
ENDBRANCH  14  17
ENDBRANCH   1  11
BRANCH  10  19
ATOM     19  O   UNL     1      45.005 107.496  55.762  1.00  0.00    -0.500 OA
ATOM     20  H   UNL     1      44.741 108.439  56.021  1.00  0.00     0.294 HD
ENDBRANCH  10  19
BRANCH   5  21
ATOM     21  O   UNL     1      50.881 105.508  51.088  1.00  0.00    -0.507 OA
ATOM     22  H   UNL     1      51.729 106.014  51.315  1.00  0.00     0.293 HD
ENDBRANCH   5  21
BRANCH   7  23
ATOM     23  O   UNL     1      46.327 104.224  51.897  1.00  0.00    -0.507 OA
ATOM     24  H   UNL     1      46.260 103.246  52.140  1.00  0.00     0.293 HD
ENDBRANCH   7  23
TORSDOF 5
ENDMDL
MODEL 4
REMARK VINA RESULT:    -5.474      2.496      6.620
REMARK INTER + INTRA:          -6.595
REMARK INTER:                  -6.862
REMARK INTRA:                   0.266
REMARK UNBOUND:                -0.161
REMARK SMILES Oc1ccc(-c2[o+]c3cc(O)cc(O)c3cc2O)cc1
REMARK SMILES IDX 6 1 7 2 8 3 9 4 10 5 12 6 13 7 15 8 16 9 17 10 5 11 4 12
REMARK SMILES IDX 3 13 2 14 19 15 20 16 1 17 18 19 11 21 14 23
REMARK H PARENT 1 18 18 20 11 22 14 24
REMARK Flexibility Score: inf
ROOT
ATOM      1  C   UNL     1      49.406 108.126  53.616  1.00  0.00     0.401 A 
ATOM      2  O   UNL     1      50.667 108.100  54.039  1.00  0.00    -0.202 OA
ATOM      3  C   UNL     1      51.291 109.162  54.539  1.00  0.00     0.368 A 
ATOM      4  C   UNL     1      52.620 109.036  54.954  1.00  0.00     0.162 A 
ATOM      5  C   UNL     1      53.301 110.137  55.481  1.00  0.00     0.128 A 
ATOM      6  C   UNL     1      52.651 111.368  55.594  1.00  0.00     0.093 A 
ATOM      7  C   UNL     1      51.321 111.520  55.185  1.00  0.00     0.136 A 
ATOM      8  C   UNL     1      50.624 110.405  54.652  1.00  0.00     0.125 A 
ATOM      9  C   UNL     1      49.285 110.460  54.229  1.00  0.00     0.078 A 
ATOM     10  C   UNL     1      48.663 109.317  53.718  1.00  0.00     0.223 A 
ENDROOT
BRANCH   1  11
ATOM     11  C   UNL     1      48.824 106.879  53.068  1.00  0.00     0.084 A 
ATOM     12  C   UNL     1      49.615 105.940  52.382  1.00  0.00     0.022 A 
ATOM     13  C   UNL     1      49.047 104.759  51.895  1.00  0.00     0.047 A 
ATOM     14  C   UNL     1      47.690 104.494  52.099  1.00  0.00     0.115 A 
ATOM     15  C   UNL     1      47.466 106.596  53.288  1.00  0.00     0.022 A 
ATOM     16  C   UNL     1      46.900 105.414  52.800  1.00  0.00     0.047 A 
BRANCH  14  17
ATOM     17  O   UNL     1      47.137 103.313  51.607  1.00  0.00    -0.508 OA
ATOM     18  H   UNL     1      47.575 102.799  50.852  1.00  0.00     0.293 HD
ENDBRANCH  14  17
ENDBRANCH   1  11
BRANCH  10  19
ATOM     19  O   UNL     1      47.320 109.360  53.344  1.00  0.00    -0.500 OA
ATOM     20  H   UNL     1      46.582 109.061  53.972  1.00  0.00     0.294 HD
ENDBRANCH  10  19
BRANCH   5  21
ATOM     21  O   UNL     1      54.626 110.019  55.897  1.00  0.00    -0.507 OA
ATOM     22  H   UNL     1      55.279 109.410  55.418  1.00  0.00     0.293 HD
ENDBRANCH   5  21
BRANCH   7  23
ATOM     23  O   UNL     1      50.744 112.785  55.329  1.00  0.00    -0.507 OA
ATOM     24  H   UNL     1      49.838 112.955  55.740  1.00  0.00     0.293 HD
ENDBRANCH   7  23
TORSDOF 5
ENDMDL
MODEL 5
REMARK VINA RESULT:    -5.424      2.682      4.939
REMARK INTER + INTRA:          -6.536
REMARK INTER:                  -6.220
REMARK INTRA:                  -0.316
REMARK UNBOUND:                -0.161
REMARK SMILES Oc1ccc(-c2[o+]c3cc(O)cc(O)c3cc2O)cc1
REMARK SMILES IDX 6 1 7 2 8 3 9 4 10 5 12 6 13 7 15 8 16 9 17 10 5 11 4 12
REMARK SMILES IDX 3 13 2 14 19 15 20 16 1 17 18 19 11 21 14 23
REMARK H PARENT 1 18 18 20 11 22 14 24
REMARK Flexibility Score: inf
ROOT
ATOM      1  C   UNL     1      50.000 108.956  53.953  1.00  0.00     0.401 A 
ATOM      2  O   UNL     1      49.928 107.823  53.260  1.00  0.00    -0.202 OA
ATOM      3  C   UNL     1      48.824 107.087  53.177  1.00  0.00     0.368 A 
ATOM      4  C   UNL     1      48.848 105.909  52.426  1.00  0.00     0.162 A 
ATOM      5  C   UNL     1      47.702 105.114  52.323  1.00  0.00     0.128 A 
ATOM      6  C   UNL     1      46.528 105.500  52.975  1.00  0.00     0.093 A 
ATOM      7  C   UNL     1      46.479 106.675  53.733  1.00  0.00     0.136 A 
ATOM      8  C   UNL     1      47.638 107.487  53.838  1.00  0.00     0.125 A 
ATOM      9  C   UNL     1      47.678 108.689  54.565  1.00  0.00     0.078 A 
ATOM     10  C   UNL     1      48.857 109.438  54.619  1.00  0.00     0.223 A 
ENDROOT
BRANCH   1  11
ATOM     11  C   UNL     1      51.290 109.682  53.978  1.00  0.00     0.084 A 
ATOM     12  C   UNL     1      51.586 110.686  53.039  1.00  0.00     0.022 A 
ATOM     13  C   UNL     1      52.801 111.374  53.098  1.00  0.00     0.047 A 
ATOM     14  C   UNL     1      53.729 111.079  54.101  1.00  0.00     0.115 A 
ATOM     15  C   UNL     1      52.219 109.406  54.996  1.00  0.00     0.022 A 
ATOM     16  C   UNL     1      53.434 110.095  55.053  1.00  0.00     0.047 A 
BRANCH  14  17
ATOM     17  O   UNL     1      54.937 111.772  54.147  1.00  0.00    -0.508 OA
ATOM     18  H   UNL     1      55.588 111.651  54.914  1.00  0.00     0.293 HD
ENDBRANCH  14  17
ENDBRANCH   1  11
BRANCH  10  19
ATOM     19  O   UNL     1      48.882 110.655  55.300  1.00  0.00    -0.500 OA
ATOM     20  H   UNL     1      48.476 111.495  54.905  1.00  0.00     0.294 HD
ENDBRANCH  10  19
BRANCH   5  21
ATOM     21  O   UNL     1      47.718 103.938  51.577  1.00  0.00    -0.507 OA
ATOM     22  H   UNL     1      47.892 103.947  50.578  1.00  0.00     0.293 HD
ENDBRANCH   5  21
BRANCH   7  23
ATOM     23  O   UNL     1      45.267 106.989  54.357  1.00  0.00    -0.507 OA
ATOM     24  H   UNL     1      44.366 106.653  54.052  1.00  0.00     0.293 HD
ENDBRANCH   7  23
TORSDOF 5
ENDMDL
MODEL 6
REMARK VINA RESULT:    -5.276      9.261     11.710
REMARK INTER + INTRA:          -6.362
REMARK INTER:                  -6.165
REMARK INTRA:                  -0.198
REMARK UNBOUND:                -0.161
REMARK SMILES Oc1ccc(-c2[o+]c3cc(O)cc(O)c3cc2O)cc1
REMARK SMILES IDX 6 1 7 2 8 3 9 4 10 5 12 6 13 7 15 8 16 9 17 10 5 11 4 12
REMARK SMILES IDX 3 13 2 14 19 15 20 16 1 17 18 19 11 21 14 23
REMARK H PARENT 1 18 18 20 11 22 14 24
REMARK Flexibility Score: inf
ROOT
ATOM      1  C   UNL     1      54.434 112.789  47.665  1.00  0.00     0.401 A 
ATOM      2  O   UNL     1      55.457 112.994  48.490  1.00  0.00    -0.202 OA
ATOM      3  C   UNL     1      55.309 113.351  49.762  1.00  0.00     0.368 A 
ATOM      4  C   UNL     1      56.446 113.546  50.550  1.00  0.00     0.162 A 
ATOM      5  C   UNL     1      56.320 113.924  51.890  1.00  0.00     0.128 A 
ATOM      6  C   UNL     1      55.050 114.107  52.443  1.00  0.00     0.093 A 
ATOM      7  C   UNL     1      53.896 113.918  51.675  1.00  0.00     0.136 A 
ATOM      8  C   UNL     1      54.019 113.532  50.315  1.00  0.00     0.125 A 
ATOM      9  C   UNL     1      52.917 113.306  49.473  1.00  0.00     0.078 A 
ATOM     10  C   UNL     1      53.117 112.922  48.143  1.00  0.00     0.223 A 
ENDROOT
BRANCH   1  11
ATOM     11  C   UNL     1      54.728 112.404  46.265  1.00  0.00     0.084 A 
ATOM     12  C   UNL     1      54.421 111.122  45.776  1.00  0.00     0.022 A 
ATOM     13  C   UNL     1      54.686 110.791  44.445  1.00  0.00     0.047 A 
ATOM     14  C   UNL     1      55.247 111.737  43.582  1.00  0.00     0.115 A 
ATOM     15  C   UNL     1      55.273 113.357  45.387  1.00  0.00     0.022 A 
ATOM     16  C   UNL     1      55.537 113.023  44.055  1.00  0.00     0.047 A 
BRANCH  14  17
ATOM     17  O   UNL     1      55.507 111.392  42.257  1.00  0.00    -0.508 OA
ATOM     18  H   UNL     1      54.919 111.720  41.500  1.00  0.00     0.293 HD
ENDBRANCH  14  17
ENDBRANCH   1  11
BRANCH  10  19
ATOM     19  O   UNL     1      52.023 112.651  47.321  1.00  0.00    -0.500 OA
ATOM     20  H   UNL     1      51.076 112.636  47.682  1.00  0.00     0.294 HD
ENDBRANCH  10  19
BRANCH   5  21
ATOM     21  O   UNL     1      57.449 114.121  52.682  1.00  0.00    -0.507 OA
ATOM     22  H   UNL     1      58.320 113.639  52.491  1.00  0.00     0.293 HD
ENDBRANCH   5  21
BRANCH   7  23
ATOM     23  O   UNL     1      52.664 114.125  52.303  1.00  0.00    -0.507 OA
ATOM     24  H   UNL     1      52.324 115.025  52.609  1.00  0.00     0.293 HD
ENDBRANCH   7  23
TORSDOF 5
ENDMDL
MODEL 7
REMARK VINA RESULT:    -5.247      2.622      3.675
REMARK INTER + INTRA:          -6.329
REMARK INTER:                  -6.103
REMARK INTRA:                  -0.225
REMARK UNBOUND:                -0.161
REMARK SMILES Oc1ccc(-c2[o+]c3cc(O)cc(O)c3cc2O)cc1
REMARK SMILES IDX 6 1 7 2 8 3 9 4 10 5 12 6 13 7 15 8 16 9 17 10 5 11 4 12
REMARK SMILES IDX 3 13 2 14 19 15 20 16 1 17 18 19 11 21 14 23
REMARK H PARENT 1 18 18 20 11 22 14 24
REMARK Flexibility Score: inf
ROOT
ATOM      1  C   UNL     1      48.809 109.469  54.533  1.00  0.00     0.401 A 
ATOM      2  O   UNL     1      49.484 108.576  53.813  1.00  0.00    -0.202 OA
ATOM      3  C   UNL     1      48.949 107.445  53.365  1.00  0.00     0.368 A 
ATOM      4  C   UNL     1      49.740 106.568  52.619  1.00  0.00     0.162 A 
ATOM      5  C   UNL     1      49.204 105.370  52.138  1.00  0.00     0.128 A 
ATOM      6  C   UNL     1      47.871 105.049  52.404  1.00  0.00     0.093 A 
ATOM      7  C   UNL     1      47.057 105.911  53.148  1.00  0.00     0.136 A 
ATOM      8  C   UNL     1      47.596 107.129  53.637  1.00  0.00     0.125 A 
ATOM      9  C   UNL     1      46.852 108.060  54.381  1.00  0.00     0.078 A 
ATOM     10  C   UNL     1      47.451 109.243  54.825  1.00  0.00     0.223 A 
ENDROOT
BRANCH   1  11
ATOM     11  C   UNL     1      49.519 110.688  54.983  1.00  0.00     0.084 A 
ATOM     12  C   UNL     1      49.788 110.920  56.345  1.00  0.00     0.022 A 
ATOM     13  C   UNL     1      50.482 112.065  56.743  1.00  0.00     0.047 A 
ATOM     14  C   UNL     1      50.927 112.986  55.790  1.00  0.00     0.115 A 
ATOM     15  C   UNL     1      49.989 111.606  54.030  1.00  0.00     0.022 A 
ATOM     16  C   UNL     1      50.682 112.752  54.431  1.00  0.00     0.047 A 
BRANCH  14  17
ATOM     17  O   UNL     1      51.616 114.125  56.202  1.00  0.00    -0.508 OA
ATOM     18  H   UNL     1      51.225 115.052  56.082  1.00  0.00     0.293 HD
ENDBRANCH  14  17
ENDBRANCH   1  11
BRANCH  10  19
ATOM     19  O   UNL     1      46.699 110.189  55.520  1.00  0.00    -0.500 OA
ATOM     20  H   UNL     1      45.730 110.377  55.287  1.00  0.00     0.294 HD
ENDBRANCH  10  19
BRANCH   5  21
ATOM     21  O   UNL     1      49.987 104.490  51.394  1.00  0.00    -0.507 OA
ATOM     22  H   UNL     1      50.932 104.727  51.115  1.00  0.00     0.293 HD
ENDBRANCH   5  21
BRANCH   7  23
ATOM     23  O   UNL     1      45.736 105.514  53.373  1.00  0.00    -0.507 OA
ATOM     24  H   UNL     1      45.042 105.406  52.648  1.00  0.00     0.293 HD
ENDBRANCH   7  23
TORSDOF 5
ENDMDL
MODEL 8
REMARK VINA RESULT:    -5.235      3.539      5.088
REMARK INTER + INTRA:          -6.314
REMARK INTER:                  -6.019
REMARK INTRA:                  -0.295
REMARK UNBOUND:                -0.161
REMARK SMILES Oc1ccc(-c2[o+]c3cc(O)cc(O)c3cc2O)cc1
REMARK SMILES IDX 6 1 7 2 8 3 9 4 10 5 12 6 13 7 15 8 16 9 17 10 5 11 4 12
REMARK SMILES IDX 3 13 2 14 19 15 20 16 1 17 18 19 11 21 14 23
REMARK H PARENT 1 18 18 20 11 22 14 24
REMARK Flexibility Score: inf
ROOT
ATOM      1  C   UNL     1      46.826 111.606  53.516  1.00  0.00     0.401 A 
ATOM      2  O   UNL     1      47.956 110.960  53.241  1.00  0.00    -0.202 OA
ATOM      3  C   UNL     1      48.724 110.402  54.172  1.00  0.00     0.368 A 
ATOM      4  C   UNL     1      49.895 109.747  53.783  1.00  0.00     0.162 A 
ATOM      5  C   UNL     1      50.723 109.154  54.741  1.00  0.00     0.128 A 
ATOM      6  C   UNL     1      50.377 109.217  56.093  1.00  0.00     0.093 A 
ATOM      7  C   UNL     1      49.209 109.867  56.508  1.00  0.00     0.136 A 
ATOM      8  C   UNL     1      48.364 110.469  55.539  1.00  0.00     0.125 A 
ATOM      9  C   UNL     1      47.167 111.130  55.861  1.00  0.00     0.078 A 
ATOM     10  C   UNL     1      46.384 111.694  54.850  1.00  0.00     0.223 A 
ENDROOT
BRANCH   1  11
ATOM     11  C   UNL     1      46.063 112.194  52.392  1.00  0.00     0.084 A 
ATOM     12  C   UNL     1      44.957 111.532  51.830  1.00  0.00     0.022 A 
ATOM     13  C   UNL     1      44.237 112.119  50.786  1.00  0.00     0.047 A 
ATOM     14  C   UNL     1      44.602 113.377  50.299  1.00  0.00     0.115 A 
ATOM     15  C   UNL     1      46.410 113.468  51.913  1.00  0.00     0.022 A 
ATOM     16  C   UNL     1      45.689 114.053  50.867  1.00  0.00     0.047 A 
BRANCH  14  17
ATOM     17  O   UNL     1      43.876 113.950  49.257  1.00  0.00    -0.508 OA
ATOM     18  H   UNL     1      43.636 114.934  49.257  1.00  0.00     0.293 HD
ENDBRANCH  14  17
ENDBRANCH   1  11
BRANCH  10  19
ATOM     19  O   UNL     1      45.171 112.308  55.165  1.00  0.00    -0.500 OA
ATOM     20  H   UNL     1      44.813 112.325  56.112  1.00  0.00     0.294 HD
ENDBRANCH  10  19
BRANCH   5  21
ATOM     21  O   UNL     1      51.893 108.499  54.361  1.00  0.00    -0.507 OA
ATOM     22  H   UNL     1      51.886 107.528  54.073  1.00  0.00     0.293 HD
ENDBRANCH   5  21
BRANCH   7  23
ATOM     23  O   UNL     1      48.936 109.888  57.879  1.00  0.00    -0.507 OA
ATOM     24  H   UNL     1      48.451 109.155  58.375  1.00  0.00     0.293 HD
ENDBRANCH   7  23
TORSDOF 5
ENDMDL
MODEL 9
REMARK VINA RESULT:    -5.069     13.141     14.942
REMARK INTER + INTRA:          -6.118
REMARK INTER:                  -5.906
REMARK INTRA:                  -0.213
REMARK UNBOUND:                -0.161
REMARK SMILES Oc1ccc(-c2[o+]c3cc(O)cc(O)c3cc2O)cc1
REMARK SMILES IDX 6 1 7 2 8 3 9 4 10 5 12 6 13 7 15 8 16 9 17 10 5 11 4 12
REMARK SMILES IDX 3 13 2 14 19 15 20 16 1 17 18 19 11 21 14 23
REMARK H PARENT 1 18 18 20 11 22 14 24
REMARK Flexibility Score: inf
ROOT
ATOM      1  C   UNL     1      56.816  97.282  55.929  1.00  0.00     0.401 A 
ATOM      2  O   UNL     1      57.073  98.279  55.087  1.00  0.00    -0.202 OA
ATOM      3  C   UNL     1      58.266  98.481  54.536  1.00  0.00     0.368 A 
ATOM      4  C   UNL     1      58.438  99.559  53.664  1.00  0.00     0.162 A 
ATOM      5  C   UNL     1      59.683  99.796  53.072  1.00  0.00     0.128 A 
ATOM      6  C   UNL     1      60.758  98.949  53.353  1.00  0.00     0.093 A 
ATOM      7  C   UNL     1      60.611  97.863  54.223  1.00  0.00     0.136 A 
ATOM      8  C   UNL     1      59.349  97.617  54.824  1.00  0.00     0.125 A 
ATOM      9  C   UNL     1      59.105  96.543  55.698  1.00  0.00     0.078 A 
ATOM     10  C   UNL     1      57.833  96.363  56.248  1.00  0.00     0.223 A 
ENDROOT
BRANCH   1  11
ATOM     11  C   UNL     1      55.449  97.169  56.486  1.00  0.00     0.084 A 
ATOM     12  C   UNL     1      54.953  98.106  57.411  1.00  0.00     0.022 A 
ATOM     13  C   UNL     1      53.650  97.992  57.904  1.00  0.00     0.047 A 
ATOM     14  C   UNL     1      52.822  96.952  57.471  1.00  0.00     0.115 A 
ATOM     15  C   UNL     1      54.604  96.139  56.040  1.00  0.00     0.022 A 
ATOM     16  C   UNL     1      53.301  96.027  56.535  1.00  0.00     0.047 A 
BRANCH  14  17
ATOM     17  O   UNL     1      51.526  96.850  57.972  1.00  0.00    -0.508 OA
ATOM     18  H   UNL     1      51.351  96.622  58.944  1.00  0.00     0.293 HD
ENDBRANCH  14  17
ENDBRANCH   1  11
BRANCH  10  19
ATOM     19  O   UNL     1      57.578  95.269  57.077  1.00  0.00    -0.500 OA
ATOM     20  H   UNL     1      56.890  94.566  56.834  1.00  0.00     0.294 HD
ENDBRANCH  10  19
BRANCH   5  21
ATOM     21  O   UNL     1      59.862 100.869  52.203  1.00  0.00    -0.507 OA
ATOM     22  H   UNL     1      60.607 100.875  51.515  1.00  0.00     0.293 HD
ENDBRANCH   5  21
BRANCH   7  23
ATOM     23  O   UNL     1      61.736  97.066  54.454  1.00  0.00    -0.507 OA
ATOM     24  H   UNL     1      62.202  96.983  55.346  1.00  0.00     0.293 HD
ENDBRANCH   7  23
TORSDOF 5
ENDMDL
