MODEL 1
REMARK VINA RESULT:    -8.978      0.000      0.000
REMARK INTER + INTRA:          -9.765
REMARK INTER:                  -9.765
REMARK INTRA:                   0.000
REMARK UNBOUND:                 0.000
REMARK SMILES C[C@H]1CC[C@H]2[N@@H+](C1)C[C@@H]1[C@@H]3C[C@@H]4[C@H](C[C@H](O)[C@@H]5C[C@@H](O)CC[C@]45C)[C@@H]3CC[C@H]1[C@]2(C)O
REMARK SMILES IDX 5 1 6 2 8 3 7 4 4 5 29 6 3 7 28 8 30 9 2 10 27 11 9 12 1 13
REMARK SMILES IDX 26 14 10 15 25 16 11 17 13 18 12 19 14 20 23 21 15 22 17 23
REMARK SMILES IDX 22 24 24 25 18 26 21 27 19 28 31 30 16 32 20 34
REMARK H PARENT 6 29 31 31 16 33 20 35
REMARK Flexibility Score: inf
ROOT
ATOM      1  C   UNL     1      -2.503 -23.124 -27.960  1.00  0.00     0.216 C 
ATOM      2  N   UNL     1      -3.670 -23.144 -28.890  1.00  0.00    -0.330 N 
ATOM      3  C   UNL     1      -4.839 -22.414 -28.352  1.00  0.00     0.266 C 
ATOM      4  C   UNL     1      -4.032 -24.471 -29.451  1.00  0.00     0.265 C 
ATOM      5  C   UNL     1      -1.234 -23.770 -28.595  1.00  0.00     0.069 C 
ATOM      6  C   UNL     1      -2.802 -23.585 -26.481  1.00  0.00     0.117 C 
ATOM      7  C   UNL     1      -1.517 -24.531 -29.897  1.00  0.00     0.015 C 
ATOM      8  C   UNL     1      -4.041 -22.780 -25.949  1.00  0.00     0.036 C 
ATOM      9  C   UNL     1      -3.003 -25.125 -26.353  1.00  0.00     0.049 C 
ATOM     10  C   UNL     1      -2.802 -25.359 -29.786  1.00  0.00     0.041 C 
ATOM     11  C   UNL     1      -4.458 -23.110 -24.475  1.00  0.00     0.007 C 
ATOM     12  C   UNL     1      -5.237 -22.875 -26.933  1.00  0.00     0.054 C 
ATOM     13  C   UNL     1      -3.034 -26.164 -31.071  1.00  0.00     0.013 C 
ATOM     14  C   UNL     1      -5.907 -23.606 -24.352  1.00  0.00     0.004 C 
ATOM     15  C   UNL     1      -6.492 -22.127 -26.390  1.00  0.00     0.002 C 
ATOM     16  C   UNL     1      -6.931 -22.625 -24.981  1.00  0.00    -0.004 C 
ATOM     17  C   UNL     1      -6.346 -20.587 -26.300  1.00  0.00     0.009 C 
ATOM     18  C   UNL     1      -7.263 -21.337 -24.184  1.00  0.00    -0.001 C 
ATOM     19  C   UNL     1      -6.444 -20.228 -24.817  1.00  0.00    -0.001 C 
ATOM     20  C   UNL     1      -7.110 -21.334 -22.640  1.00  0.00     0.036 C 
ATOM     21  C   UNL     1      -6.974 -18.792 -24.425  1.00  0.00    -0.024 C 
ATOM     22  C   UNL     1      -6.798 -19.927 -22.072  1.00  0.00     0.118 C 
ATOM     23  C   UNL     1      -7.429 -18.769 -22.900  1.00  0.00     0.026 C 
ATOM     24  C   UNL     1      -8.148 -18.334 -25.352  1.00  0.00     0.010 C 
ATOM     25  C   UNL     1      -5.792 -17.802 -24.608  1.00  0.00     0.012 C 
ATOM     26  C   UNL     1      -8.968 -18.726 -22.724  1.00  0.00     0.038 C 
ATOM     27  C   UNL     1      -8.945 -17.161 -24.767  1.00  0.00     0.032 C 
ATOM     28  C   UNL     1      -9.595 -17.494 -23.407  1.00  0.00     0.114 C 
ATOM     29  H   UNL     1      -3.374 -22.574 -29.721  1.00  0.00     0.348 HD
ENDROOT
BRANCH   6  30
ATOM     30  O   UNL     1      -1.666 -23.212 -25.726  1.00  0.00    -0.384 OA
ATOM     31  H   UNL     1      -1.797 -22.298 -25.364  1.00  0.00     0.211 HD
ENDBRANCH   6  30
BRANCH  22  32
ATOM     32  O   UNL     1      -7.201 -19.869 -20.726  1.00  0.00    -0.393 OA
ATOM     33  H   UNL     1      -7.631 -18.983 -20.592  1.00  0.00     0.210 HD
ENDBRANCH  22  32
BRANCH  28  34
ATOM     34  O   UNL     1      -9.492 -16.376 -22.564  1.00  0.00    -0.393 OA
ATOM     35  H   UNL     1      -8.525 -16.227 -22.396  1.00  0.00     0.210 HD
ENDBRANCH  28  34
TORSDOF 3
ENDMDL
MODEL 2
REMARK VINA RESULT:    -8.829      2.908      8.780
REMARK INTER + INTRA:          -9.604
REMARK INTER:                  -9.604
REMARK INTRA:                   0.000
REMARK UNBOUND:                 0.000
REMARK SMILES C[C@H]1CC[C@H]2[N@@H+](C1)C[C@@H]1[C@@H]3C[C@@H]4[C@H](C[C@H](O)[C@@H]5C[C@@H](O)CC[C@]45C)[C@@H]3CC[C@H]1[C@]2(C)O
REMARK SMILES IDX 5 1 6 2 8 3 7 4 4 5 29 6 3 7 28 8 30 9 2 10 27 11 9 12 1 13
REMARK SMILES IDX 26 14 10 15 25 16 11 17 13 18 12 19 14 20 23 21 15 22 17 23
REMARK SMILES IDX 22 24 24 25 18 26 21 27 19 28 31 30 16 32 20 34
REMARK H PARENT 6 29 31 31 16 33 20 35
REMARK Flexibility Score: inf
ROOT
ATOM      1  C   UNL     1      -6.961 -18.187 -26.296  1.00  0.00     0.216 C 
ATOM      2  N   UNL     1      -6.366 -18.916 -25.138  1.00  0.00    -0.330 N 
ATOM      3  C   UNL     1      -5.633 -20.134 -25.550  1.00  0.00     0.266 C 
ATOM      4  C   UNL     1      -7.271 -19.155 -23.984  1.00  0.00     0.265 C 
ATOM      5  C   UNL     1      -7.607 -16.833 -25.868  1.00  0.00     0.069 C 
ATOM      6  C   UNL     1      -7.850 -19.057 -27.267  1.00  0.00     0.117 C 
ATOM      7  C   UNL     1      -7.748 -16.672 -24.349  1.00  0.00     0.015 C 
ATOM      8  C   UNL     1      -7.030 -20.330 -27.684  1.00  0.00     0.036 C 
ATOM      9  C   UNL     1      -9.236 -19.423 -26.658  1.00  0.00     0.049 C 
ATOM     10  C   UNL     1      -8.234 -17.971 -23.697  1.00  0.00     0.041 C 
ATOM     11  C   UNL     1      -7.771 -21.296 -28.670  1.00  0.00     0.007 C 
ATOM     12  C   UNL     1      -6.476 -21.073 -26.440  1.00  0.00     0.054 C 
ATOM     13  C   UNL     1      -8.434 -17.773 -22.189  1.00  0.00     0.013 C 
ATOM     14  C   UNL     1      -7.924 -22.722 -28.121  1.00  0.00     0.004 C 
ATOM     15  C   UNL     1      -5.708 -22.371 -26.837  1.00  0.00     0.002 C 
ATOM     16  C   UNL     1      -6.571 -23.347 -27.690  1.00  0.00    -0.004 C 
ATOM     17  C   UNL     1      -4.389 -22.136 -27.614  1.00  0.00     0.009 C 
ATOM     18  C   UNL     1      -5.626 -23.841 -28.815  1.00  0.00    -0.001 C 
ATOM     19  C   UNL     1      -4.586 -22.751 -29.000  1.00  0.00    -0.001 C 
ATOM     20  C   UNL     1      -6.226 -24.279 -30.179  1.00  0.00     0.036 C 
ATOM     21  C   UNL     1      -3.313 -23.263 -29.784  1.00  0.00    -0.024 C 
ATOM     22  C   UNL     1      -5.240 -24.081 -31.357  1.00  0.00     0.118 C 
ATOM     23  C   UNL     1      -3.746 -24.253 -30.952  1.00  0.00     0.026 C 
ATOM     24  C   UNL     1      -2.286 -23.959 -28.830  1.00  0.00     0.010 C 
ATOM     25  C   UNL     1      -2.630 -22.018 -30.411  1.00  0.00     0.012 C 
ATOM     26  C   UNL     1      -3.413 -25.736 -30.649  1.00  0.00     0.038 C 
ATOM     27  C   UNL     1      -1.259 -24.813 -29.584  1.00  0.00     0.032 C 
ATOM     28  C   UNL     1      -1.906 -25.952 -30.401  1.00  0.00     0.114 C 
ATOM     29  H   UNL     1      -5.617 -18.282 -24.763  1.00  0.00     0.348 HD
ENDROOT
BRANCH   6  30
ATOM     30  O   UNL     1      -8.056 -18.259 -28.415  1.00  0.00    -0.384 OA
ATOM     31  H   UNL     1      -7.594 -17.389 -28.298  1.00  0.00     0.211 HD
ENDBRANCH   6  30
BRANCH  22  32
ATOM     32  O   UNL     1      -5.586 -24.953 -32.404  1.00  0.00    -0.393 OA
ATOM     33  H   UNL     1      -6.514 -24.724 -32.676  1.00  0.00     0.210 HD
ENDBRANCH  22  32
BRANCH  28  34
ATOM     34  O   UNL     1      -1.232 -26.076 -31.627  1.00  0.00    -0.393 OA
ATOM     35  H   UNL     1      -1.925 -26.189 -32.329  1.00  0.00     0.210 HD
ENDBRANCH  28  34
TORSDOF 3
ENDMDL
MODEL 3
REMARK VINA RESULT:    -8.633      3.028      4.005
REMARK INTER + INTRA:          -9.390
REMARK INTER:                  -9.390
REMARK INTRA:                   0.000
REMARK UNBOUND:                 0.000
REMARK SMILES C[C@H]1CC[C@H]2[N@@H+](C1)C[C@@H]1[C@@H]3C[C@@H]4[C@H](C[C@H](O)[C@@H]5C[C@@H](O)CC[C@]45C)[C@@H]3CC[C@H]1[C@]2(C)O
REMARK SMILES IDX 5 1 6 2 8 3 7 4 4 5 29 6 3 7 28 8 30 9 2 10 27 11 9 12 1 13
REMARK SMILES IDX 26 14 10 15 25 16 11 17 13 18 12 19 14 20 23 21 15 22 17 23
REMARK SMILES IDX 22 24 24 25 18 26 21 27 19 28 31 30 16 32 20 34
REMARK H PARENT 6 29 31 31 16 33 20 35
REMARK Flexibility Score: inf
ROOT
ATOM      1  C   UNL     1      -2.271 -22.874 -29.954  1.00  0.00     0.216 C 
ATOM      2  N   UNL     1      -3.316 -23.423 -30.867  1.00  0.00    -0.330 N 
ATOM      3  C   UNL     1      -4.552 -22.609 -30.871  1.00  0.00     0.266 C 
ATOM      4  C   UNL     1      -3.590 -24.878 -30.744  1.00  0.00     0.265 C 
ATOM      5  C   UNL     1      -0.926 -23.655 -30.065  1.00  0.00     0.069 C 
ATOM      6  C   UNL     1      -2.741 -22.586 -28.476  1.00  0.00     0.117 C 
ATOM      7  C   UNL     1      -1.038 -24.967 -30.852  1.00  0.00     0.015 C 
ATOM      8  C   UNL     1      -4.045 -21.714 -28.529  1.00  0.00     0.036 C 
ATOM      9  C   UNL     1      -2.934 -23.883 -27.635  1.00  0.00     0.049 C 
ATOM     10  C   UNL     1      -2.316 -25.728 -30.481  1.00  0.00     0.041 C 
ATOM     11  C   UNL     1      -4.633 -21.322 -27.131  1.00  0.00     0.007 C 
ATOM     12  C   UNL     1      -5.112 -22.355 -29.455  1.00  0.00     0.054 C 
ATOM     13  C   UNL     1      -2.380 -27.067 -31.227  1.00  0.00     0.013 C 
ATOM     14  C   UNL     1      -6.079 -21.797 -26.926  1.00  0.00     0.004 C 
ATOM     15  C   UNL     1      -6.434 -21.529 -29.473  1.00  0.00     0.002 C 
ATOM     16  C   UNL     1      -7.033 -21.317 -28.051  1.00  0.00    -0.004 C 
ATOM     17  C   UNL     1      -6.320 -20.131 -30.130  1.00  0.00     0.009 C 
ATOM     18  C   UNL     1      -7.476 -19.831 -28.019  1.00  0.00    -0.001 C 
ATOM     19  C   UNL     1      -6.602 -19.109 -29.027  1.00  0.00    -0.001 C 
ATOM     20  C   UNL     1      -7.512 -19.073 -26.665  1.00  0.00     0.036 C 
ATOM     21  C   UNL     1      -7.195 -17.704 -29.439  1.00  0.00    -0.024 C 
ATOM     22  C   UNL     1      -7.289 -17.548 -26.827  1.00  0.00     0.118 C 
ATOM     23  C   UNL     1      -7.832 -16.981 -28.172  1.00  0.00     0.026 C 
ATOM     24  C   UNL     1      -8.254 -17.834 -30.583  1.00  0.00     0.010 C 
ATOM     25  C   UNL     1      -6.014 -16.844 -29.963  1.00  0.00     0.012 C 
ATOM     26  C   UNL     1      -9.381 -16.968 -28.192  1.00  0.00     0.038 C 
ATOM     27  C   UNL     1      -9.133 -16.584 -30.725  1.00  0.00     0.032 C 
ATOM     28  C   UNL     1      -9.938 -16.266 -29.447  1.00  0.00     0.114 C 
ATOM     29  H   UNL     1      -2.930 -23.305 -31.837  1.00  0.00     0.348 HD
ENDROOT
BRANCH   6  30
ATOM     30  O   UNL     1      -1.709 -21.816 -27.890  1.00  0.00    -0.384 OA
ATOM     31  H   UNL     1      -2.023 -20.883 -27.770  1.00  0.00     0.211 HD
ENDBRANCH   6  30
BRANCH  22  32
ATOM     32  O   UNL     1      -7.854 -16.878 -25.728  1.00  0.00    -0.393 OA
ATOM     33  H   UNL     1      -8.819 -16.754 -25.930  1.00  0.00     0.210 HD
ENDBRANCH  22  32
BRANCH  28  34
ATOM     34  O   UNL     1      -9.953 -14.875 -29.250  1.00  0.00    -0.393 OA
ATOM     35  H   UNL     1     -10.375 -14.472 -30.053  1.00  0.00     0.210 HD
ENDBRANCH  28  34
TORSDOF 3
ENDMDL
MODEL 4
REMARK VINA RESULT:    -8.623      2.376      4.127
REMARK INTER + INTRA:          -9.379
REMARK INTER:                  -9.379
REMARK INTRA:                   0.000
REMARK UNBOUND:                 0.000
REMARK SMILES C[C@H]1CC[C@H]2[N@@H+](C1)C[C@@H]1[C@@H]3C[C@@H]4[C@H](C[C@H](O)[C@@H]5C[C@@H](O)CC[C@]45C)[C@@H]3CC[C@H]1[C@]2(C)O
REMARK SMILES IDX 5 1 6 2 8 3 7 4 4 5 29 6 3 7 28 8 30 9 2 10 27 11 9 12 1 13
REMARK SMILES IDX 26 14 10 15 25 16 11 17 13 18 12 19 14 20 23 21 15 22 17 23
REMARK SMILES IDX 22 24 24 25 18 26 21 27 19 28 31 30 16 32 20 34
REMARK H PARENT 6 29 31 31 16 33 20 35
REMARK Flexibility Score: inf
ROOT
ATOM      1  C   UNL     1      -4.752 -24.035 -29.552  1.00  0.00     0.216 C 
ATOM      2  N   UNL     1      -3.604 -23.813 -28.626  1.00  0.00    -0.330 N 
ATOM      3  C   UNL     1      -3.828 -22.679 -27.704  1.00  0.00     0.266 C 
ATOM      4  C   UNL     1      -2.257 -23.783 -29.255  1.00  0.00     0.265 C 
ATOM      5  C   UNL     1      -4.568 -25.318 -30.421  1.00  0.00     0.069 C 
ATOM      6  C   UNL     1      -5.237 -22.766 -30.355  1.00  0.00     0.117 C 
ATOM      7  C   UNL     1      -3.154 -25.909 -30.353  1.00  0.00     0.015 C 
ATOM      8  C   UNL     1      -5.471 -21.593 -29.337  1.00  0.00     0.036 C 
ATOM      9  C   UNL     1      -4.263 -22.363 -31.502  1.00  0.00     0.049 C 
ATOM     10  C   UNL     1      -2.090 -24.807 -30.411  1.00  0.00     0.041 C 
ATOM     11  C   UNL     1      -5.977 -20.256 -29.978  1.00  0.00     0.007 C 
ATOM     12  C   UNL     1      -4.228 -21.378 -28.433  1.00  0.00     0.054 C 
ATOM     13  C   UNL     1      -0.683 -25.419 -30.409  1.00  0.00     0.013 C 
ATOM     14  C   UNL     1      -5.049 -19.063 -29.703  1.00  0.00     0.004 C 
ATOM     15  C   UNL     1      -4.425 -20.180 -27.456  1.00  0.00     0.002 C 
ATOM     16  C   UNL     1      -4.776 -18.852 -28.191  1.00  0.00    -0.004 C 
ATOM     17  C   UNL     1      -5.508 -20.396 -26.370  1.00  0.00     0.009 C 
ATOM     18  C   UNL     1      -5.910 -18.213 -27.348  1.00  0.00    -0.001 C 
ATOM     19  C   UNL     1      -6.602 -19.360 -26.635  1.00  0.00    -0.001 C 
ATOM     20  C   UNL     1      -6.941 -17.279 -28.037  1.00  0.00     0.036 C 
ATOM     21  C   UNL     1      -7.482 -18.868 -25.419  1.00  0.00    -0.024 C 
ATOM     22  C   UNL     1      -8.317 -17.278 -27.325  1.00  0.00     0.118 C 
ATOM     23  C   UNL     1      -8.221 -17.507 -25.787  1.00  0.00     0.026 C 
ATOM     24  C   UNL     1      -6.629 -18.691 -24.119  1.00  0.00     0.010 C 
ATOM     25  C   UNL     1      -8.552 -19.961 -25.155  1.00  0.00     0.012 C 
ATOM     26  C   UNL     1      -7.616 -16.272 -25.072  1.00  0.00     0.038 C 
ATOM     27  C   UNL     1      -7.336 -17.844 -23.053  1.00  0.00     0.032 C 
ATOM     28  C   UNL     1      -7.658 -16.414 -23.537  1.00  0.00     0.114 C 
ATOM     29  H   UNL     1      -3.585 -24.654 -27.997  1.00  0.00     0.348 HD
ENDROOT
BRANCH   6  30
ATOM     30  O   UNL     1      -6.481 -23.124 -30.922  1.00  0.00    -0.384 OA
ATOM     31  H   UNL     1      -6.339 -23.816 -31.619  1.00  0.00     0.211 HD
ENDBRANCH   6  30
BRANCH  22  32
ATOM     32  O   UNL     1      -8.992 -16.081 -27.619  1.00  0.00    -0.393 OA
ATOM     33  H   UNL     1      -9.964 -16.283 -27.594  1.00  0.00     0.210 HD
ENDBRANCH  22  32
BRANCH  28  34
ATOM     34  O   UNL     1      -8.924 -16.042 -23.056  1.00  0.00    -0.393 OA
ATOM     35  H   UNL     1      -8.913 -15.056 -22.940  1.00  0.00     0.210 HD
ENDBRANCH  28  34
TORSDOF 3
ENDMDL
MODEL 5
REMARK VINA RESULT:    -8.554      4.279      6.679
REMARK INTER + INTRA:          -9.304
REMARK INTER:                  -9.304
REMARK INTRA:                   0.000
REMARK UNBOUND:                 0.000
REMARK SMILES C[C@H]1CC[C@H]2[N@@H+](C1)C[C@@H]1[C@@H]3C[C@@H]4[C@H](C[C@H](O)[C@@H]5C[C@@H](O)CC[C@]45C)[C@@H]3CC[C@H]1[C@]2(C)O
REMARK SMILES IDX 5 1 6 2 8 3 7 4 4 5 29 6 3 7 28 8 30 9 2 10 27 11 9 12 1 13
REMARK SMILES IDX 26 14 10 15 25 16 11 17 13 18 12 19 14 20 23 21 15 22 17 23
REMARK SMILES IDX 22 24 24 25 18 26 21 27 19 28 31 30 16 32 20 34
REMARK H PARENT 6 29 31 31 16 33 20 35
REMARK Flexibility Score: inf
ROOT
ATOM      1  C   UNL     1      -7.785 -27.692 -25.524  1.00  0.00     0.216 C 
ATOM      2  N   UNL     1      -8.492 -26.709 -24.653  1.00  0.00    -0.330 N 
ATOM      3  C   UNL     1      -8.139 -25.309 -24.972  1.00  0.00     0.266 C 
ATOM      4  C   UNL     1      -8.458 -26.989 -23.193  1.00  0.00     0.265 C 
ATOM      5  C   UNL     1      -8.271 -29.153 -25.275  1.00  0.00     0.069 C 
ATOM      6  C   UNL     1      -6.218 -27.529 -25.605  1.00  0.00     0.117 C 
ATOM      7  C   UNL     1      -9.141 -29.308 -24.021  1.00  0.00     0.015 C 
ATOM      8  C   UNL     1      -5.891 -26.034 -25.955  1.00  0.00     0.036 C 
ATOM      9  C   UNL     1      -5.490 -28.003 -24.311  1.00  0.00     0.049 C 
ATOM     10  C   UNL     1      -8.571 -28.500 -22.850  1.00  0.00     0.041 C 
ATOM     11  C   UNL     1      -4.365 -25.708 -26.092  1.00  0.00     0.007 C 
ATOM     12  C   UNL     1      -6.615 -25.059 -24.989  1.00  0.00     0.054 C 
ATOM     13  C   UNL     1      -9.415 -28.718 -21.587  1.00  0.00     0.013 C 
ATOM     14  C   UNL     1      -3.891 -24.608 -25.129  1.00  0.00     0.004 C 
ATOM     15  C   UNL     1      -6.255 -23.573 -25.290  1.00  0.00     0.002 C 
ATOM     16  C   UNL     1      -4.721 -23.304 -25.255  1.00  0.00    -0.004 C 
ATOM     17  C   UNL     1      -6.777 -23.037 -26.646  1.00  0.00     0.009 C 
ATOM     18  C   UNL     1      -4.442 -22.401 -26.484  1.00  0.00    -0.001 C 
ATOM     19  C   UNL     1      -5.543 -22.701 -27.485  1.00  0.00    -0.001 C 
ATOM     20  C   UNL     1      -3.046 -22.440 -27.160  1.00  0.00     0.036 C 
ATOM     21  C   UNL     1      -5.669 -21.582 -28.593  1.00  0.00    -0.024 C 
ATOM     22  C   UNL     1      -3.099 -22.081 -28.666  1.00  0.00     0.118 C 
ATOM     23  C   UNL     1      -4.226 -21.066 -29.023  1.00  0.00     0.026 C 
ATOM     24  C   UNL     1      -6.555 -20.385 -28.110  1.00  0.00     0.010 C 
ATOM     25  C   UNL     1      -6.354 -22.231 -29.824  1.00  0.00     0.012 C 
ATOM     26  C   UNL     1      -3.898 -19.650 -28.483  1.00  0.00     0.038 C 
ATOM     27  C   UNL     1      -6.371 -19.126 -28.967  1.00  0.00     0.032 C 
ATOM     28  C   UNL     1      -4.921 -18.598 -28.959  1.00  0.00     0.114 C 
ATOM     29  H   UNL     1      -9.507 -26.783 -24.914  1.00  0.00     0.348 HD
ENDROOT
BRANCH   6  30
ATOM     30  O   UNL     1      -5.803 -28.344 -26.683  1.00  0.00    -0.384 OA
ATOM     31  H   UNL     1      -6.347 -28.131 -27.485  1.00  0.00     0.211 HD
ENDBRANCH   6  30
BRANCH  22  32
ATOM     32  O   UNL     1      -1.840 -21.607 -29.076  1.00  0.00    -0.393 OA
ATOM     33  H   UNL     1      -2.000 -20.966 -29.817  1.00  0.00     0.210 HD
ENDBRANCH  22  32
BRANCH  28  34
ATOM     34  O   UNL     1      -4.587 -18.157 -30.250  1.00  0.00    -0.393 OA
ATOM     35  H   UNL     1      -3.608 -17.992 -30.257  1.00  0.00     0.210 HD
ENDBRANCH  28  34
TORSDOF 3
ENDMDL
MODEL 6
REMARK VINA RESULT:    -8.387      3.476      7.695
REMARK INTER + INTRA:          -9.122
REMARK INTER:                  -9.122
REMARK INTRA:                   0.000
REMARK UNBOUND:                 0.000
REMARK SMILES C[C@H]1CC[C@H]2[N@@H+](C1)C[C@@H]1[C@@H]3C[C@@H]4[C@H](C[C@H](O)[C@@H]5C[C@@H](O)CC[C@]45C)[C@@H]3CC[C@H]1[C@]2(C)O
REMARK SMILES IDX 5 1 6 2 8 3 7 4 4 5 29 6 3 7 28 8 30 9 2 10 27 11 9 12 1 13
REMARK SMILES IDX 26 14 10 15 25 16 11 17 13 18 12 19 14 20 23 21 15 22 17 23
REMARK SMILES IDX 22 24 24 25 18 26 21 27 19 28 31 30 16 32 20 34
REMARK H PARENT 6 29 31 31 16 33 20 35
REMARK Flexibility Score: inf
ROOT
ATOM      1  C   UNL     1      -8.247 -17.616 -27.975  1.00  0.00     0.216 C 
ATOM      2  N   UNL     1      -8.648 -18.325 -29.225  1.00  0.00    -0.330 N 
ATOM      3  C   UNL     1      -8.254 -19.751 -29.222  1.00  0.00     0.266 C 
ATOM      4  C   UNL     1      -8.308 -17.640 -30.500  1.00  0.00     0.265 C 
ATOM      5  C   UNL     1      -8.791 -16.155 -27.928  1.00  0.00     0.069 C 
ATOM      6  C   UNL     1      -6.731 -17.763 -27.564  1.00  0.00     0.117 C 
ATOM      7  C   UNL     1      -9.363 -15.668 -29.266  1.00  0.00     0.015 C 
ATOM      8  C   UNL     1      -6.361 -19.289 -27.563  1.00  0.00     0.036 C 
ATOM      9  C   UNL     1      -5.773 -16.926 -28.463  1.00  0.00     0.049 C 
ATOM     10  C   UNL     1      -8.474 -16.097 -30.438  1.00  0.00     0.041 C 
ATOM     11  C   UNL     1      -4.883 -19.609 -27.154  1.00  0.00     0.007 C 
ATOM     12  C   UNL     1      -6.758 -19.963 -28.904  1.00  0.00     0.054 C 
ATOM     13  C   UNL     1      -9.024 -15.546 -31.759  1.00  0.00     0.013 C 
ATOM     14  C   UNL     1      -4.108 -20.378 -28.234  1.00  0.00     0.004 C 
ATOM     15  C   UNL     1      -6.345 -21.466 -28.939  1.00  0.00     0.002 C 
ATOM     16  C   UNL     1      -4.826 -21.681 -28.673  1.00  0.00    -0.004 C 
ATOM     17  C   UNL     1      -7.112 -22.376 -27.948  1.00  0.00     0.009 C 
ATOM     18  C   UNL     1      -4.755 -22.891 -27.705  1.00  0.00    -0.001 C 
ATOM     19  C   UNL     1      -6.076 -22.911 -26.959  1.00  0.00    -0.001 C 
ATOM     20  C   UNL     1      -3.557 -23.017 -26.726  1.00  0.00     0.036 C 
ATOM     21  C   UNL     1      -6.351 -24.302 -26.262  1.00  0.00    -0.024 C 
ATOM     22  C   UNL     1      -3.920 -23.792 -25.434  1.00  0.00     0.118 C 
ATOM     23  C   UNL     1      -5.003 -24.889 -25.651  1.00  0.00     0.026 C 
ATOM     24  C   UNL     1      -6.995 -25.330 -27.251  1.00  0.00     0.010 C 
ATOM     25  C   UNL     1      -7.353 -24.045 -25.105  1.00  0.00     0.012 C 
ATOM     26  C   UNL     1      -4.438 -26.085 -26.458  1.00  0.00     0.038 C 
ATOM     27  C   UNL     1      -6.900 -26.777 -26.750  1.00  0.00     0.032 C 
ATOM     28  C   UNL     1      -5.445 -27.250 -26.549  1.00  0.00     0.114 C 
ATOM     29  H   UNL     1      -9.698 -18.350 -29.208  1.00  0.00     0.348 HD
ENDROOT
BRANCH   6  30
ATOM     30  O   UNL     1      -6.646 -17.280 -26.238  1.00  0.00    -0.384 OA
ATOM     31  H   UNL     1      -6.894 -18.004 -25.607  1.00  0.00     0.211 HD
ENDBRANCH   6  30
BRANCH  22  32
ATOM     32  O   UNL     1      -2.750 -24.336 -24.875  1.00  0.00    -0.393 OA
ATOM     33  H   UNL     1      -2.078 -23.605 -24.845  1.00  0.00     0.210 HD
ENDBRANCH  22  32
BRANCH  28  34
ATOM     34  O   UNL     1      -5.375 -28.033 -25.385  1.00  0.00    -0.393 OA
ATOM     35  H   UNL     1      -4.601 -28.646 -25.492  1.00  0.00     0.210 HD
ENDBRANCH  28  34
TORSDOF 3
ENDMDL
MODEL 7
REMARK VINA RESULT:    -8.359      4.795      6.984
REMARK INTER + INTRA:          -9.093
REMARK INTER:                  -9.093
REMARK INTRA:                   0.000
REMARK UNBOUND:                 0.000
REMARK SMILES C[C@H]1CC[C@H]2[N@@H+](C1)C[C@@H]1[C@@H]3C[C@@H]4[C@H](C[C@H](O)[C@@H]5C[C@@H](O)CC[C@]45C)[C@@H]3CC[C@H]1[C@]2(C)O
REMARK SMILES IDX 5 1 6 2 8 3 7 4 4 5 29 6 3 7 28 8 30 9 2 10 27 11 9 12 1 13
REMARK SMILES IDX 26 14 10 15 25 16 11 17 13 18 12 19 14 20 23 21 15 22 17 23
REMARK SMILES IDX 22 24 24 25 18 26 21 27 19 28 31 30 16 32 20 34
REMARK H PARENT 6 29 31 31 16 33 20 35
REMARK Flexibility Score: inf
ROOT
ATOM      1  C   UNL     1      -4.408 -25.763 -29.066  1.00  0.00     0.216 C 
ATOM      2  N   UNL     1      -3.631 -25.450 -27.831  1.00  0.00    -0.330 N 
ATOM      3  C   UNL     1      -4.396 -25.718 -26.594  1.00  0.00     0.266 C 
ATOM      4  C   UNL     1      -2.949 -24.129 -27.808  1.00  0.00     0.265 C 
ATOM      5  C   UNL     1      -3.546 -25.613 -30.357  1.00  0.00     0.069 C 
ATOM      6  C   UNL     1      -5.840 -25.106 -29.156  1.00  0.00     0.117 C 
ATOM      7  C   UNL     1      -2.200 -24.916 -30.121  1.00  0.00     0.015 C 
ATOM      8  C   UNL     1      -6.617 -25.424 -27.829  1.00  0.00     0.036 C 
ATOM      9  C   UNL     1      -5.790 -23.577 -29.457  1.00  0.00     0.049 C 
ATOM     10  C   UNL     1      -2.356 -23.714 -29.183  1.00  0.00     0.041 C 
ATOM     11  C   UNL     1      -8.075 -24.852 -27.767  1.00  0.00     0.007 C 
ATOM     12  C   UNL     1      -5.781 -25.035 -26.581  1.00  0.00     0.054 C 
ATOM     13  C   UNL     1      -1.015 -22.990 -29.011  1.00  0.00     0.013 C 
ATOM     14  C   UNL     1      -8.307 -23.910 -26.576  1.00  0.00     0.004 C 
ATOM     15  C   UNL     1      -6.564 -25.292 -25.258  1.00  0.00     0.002 C 
ATOM     16  C   UNL     1      -7.938 -24.561 -25.217  1.00  0.00    -0.004 C 
ATOM     17  C   UNL     1      -6.834 -26.784 -24.941  1.00  0.00     0.009 C 
ATOM     18  C   UNL     1      -8.930 -25.602 -24.637  1.00  0.00    -0.001 C 
ATOM     19  C   UNL     1      -8.353 -26.966 -24.970  1.00  0.00    -0.001 C 
ATOM     20  C   UNL     1     -10.432 -25.522 -25.019  1.00  0.00     0.036 C 
ATOM     21  C   UNL     1      -8.989 -28.117 -24.095  1.00  0.00    -0.024 C 
ATOM     22  C   UNL     1     -11.136 -26.902 -24.972  1.00  0.00     0.118 C 
ATOM     23  C   UNL     1     -10.548 -27.863 -23.897  1.00  0.00     0.026 C 
ATOM     24  C   UNL     1      -8.278 -28.253 -22.708  1.00  0.00     0.010 C 
ATOM     25  C   UNL     1      -8.795 -29.445 -24.875  1.00  0.00     0.012 C 
ATOM     26  C   UNL     1     -10.912 -27.395 -22.466  1.00  0.00     0.038 C 
ATOM     27  C   UNL     1      -9.102 -29.054 -21.692  1.00  0.00     0.032 C 
ATOM     28  C   UNL     1     -10.476 -28.415 -21.394  1.00  0.00     0.114 C 
ATOM     29  H   UNL     1      -2.851 -26.152 -27.807  1.00  0.00     0.348 HD
ENDROOT
BRANCH   6  30
ATOM     30  O   UNL     1      -6.493 -25.757 -30.227  1.00  0.00    -0.384 OA
ATOM     31  H   UNL     1      -5.818 -26.067 -30.885  1.00  0.00     0.211 HD
ENDBRANCH   6  30
BRANCH  22  32
ATOM     32  O   UNL     1     -12.517 -26.713 -24.784  1.00  0.00    -0.393 OA
ATOM     33  H   UNL     1     -12.915 -26.577 -25.684  1.00  0.00     0.210 HD
ENDBRANCH  22  32
BRANCH  28  34
ATOM     34  O   UNL     1     -11.438 -29.432 -21.281  1.00  0.00    -0.393 OA
ATOM     35  H   UNL     1     -11.313 -30.038 -22.057  1.00  0.00     0.210 HD
ENDBRANCH  28  34
TORSDOF 3
ENDMDL
MODEL 8
REMARK VINA RESULT:    -8.357      4.790      6.698
REMARK INTER + INTRA:          -9.089
REMARK INTER:                  -9.089
REMARK INTRA:                   0.000
REMARK UNBOUND:                 0.000
REMARK SMILES C[C@H]1CC[C@H]2[N@@H+](C1)C[C@@H]1[C@@H]3C[C@@H]4[C@H](C[C@H](O)[C@@H]5C[C@@H](O)CC[C@]45C)[C@@H]3CC[C@H]1[C@]2(C)O
REMARK SMILES IDX 5 1 6 2 8 3 7 4 4 5 29 6 3 7 28 8 30 9 2 10 27 11 9 12 1 13
REMARK SMILES IDX 26 14 10 15 25 16 11 17 13 18 12 19 14 20 23 21 15 22 17 23
REMARK SMILES IDX 22 24 24 25 18 26 21 27 19 28 31 30 16 32 20 34
REMARK H PARENT 6 29 31 31 16 33 20 35
REMARK Flexibility Score: inf
ROOT
ATOM      1  C   UNL     1      -4.384 -23.046 -27.012  1.00  0.00     0.216 C 
ATOM      2  N   UNL     1      -5.095 -23.482 -28.249  1.00  0.00    -0.330 N 
ATOM      3  C   UNL     1      -6.186 -24.441 -27.969  1.00  0.00     0.266 C 
ATOM      4  C   UNL     1      -4.232 -23.911 -29.380  1.00  0.00     0.265 C 
ATOM      5  C   UNL     1      -3.333 -21.931 -27.301  1.00  0.00     0.069 C 
ATOM      6  C   UNL     1      -3.865 -24.208 -26.078  1.00  0.00     0.117 C 
ATOM      7  C   UNL     1      -3.051 -21.722 -28.794  1.00  0.00     0.015 C 
ATOM      8  C   UNL     1      -5.056 -25.193 -25.801  1.00  0.00     0.036 C 
ATOM      9  C   UNL     1      -2.617 -24.941 -26.656  1.00  0.00     0.049 C 
ATOM     10  C   UNL     1      -2.939 -23.063 -29.528  1.00  0.00     0.041 C 
ATOM     11  C   UNL     1      -4.707 -26.401 -24.866  1.00  0.00     0.007 C 
ATOM     12  C   UNL     1      -5.727 -25.648 -27.124  1.00  0.00     0.054 C 
ATOM     13  C   UNL     1      -2.591 -22.838 -31.006  1.00  0.00     0.013 C 
ATOM     14  C   UNL     1      -4.957 -27.767 -25.523  1.00  0.00     0.004 C 
ATOM     15  C   UNL     1      -6.875 -26.671 -26.867  1.00  0.00     0.002 C 
ATOM     16  C   UNL     1      -6.404 -27.918 -26.060  1.00  0.00    -0.004 C 
ATOM     17  C   UNL     1      -8.109 -26.095 -26.129  1.00  0.00     0.009 C 
ATOM     18  C   UNL     1      -7.525 -28.170 -25.019  1.00  0.00    -0.001 C 
ATOM     19  C   UNL     1      -8.197 -26.829 -24.790  1.00  0.00    -0.001 C 
ATOM     20  C   UNL     1      -7.176 -28.858 -23.672  1.00  0.00     0.036 C 
ATOM     21  C   UNL     1      -9.613 -26.976 -24.105  1.00  0.00    -0.024 C 
ATOM     22  C   UNL     1      -8.130 -28.445 -22.524  1.00  0.00     0.118 C 
ATOM     23  C   UNL     1      -9.577 -28.124 -23.004  1.00  0.00     0.026 C 
ATOM     24  C   UNL     1     -10.738 -27.262 -25.155  1.00  0.00     0.010 C 
ATOM     25  C   UNL     1      -9.927 -25.626 -23.408  1.00  0.00     0.012 C 
ATOM     26  C   UNL     1     -10.322 -29.412 -23.440  1.00  0.00     0.038 C 
ATOM     27  C   UNL     1     -12.023 -27.807 -24.517  1.00  0.00     0.032 C 
ATOM     28  C   UNL     1     -11.804 -29.140 -23.769  1.00  0.00     0.114 C 
ATOM     29  H   UNL     1      -5.591 -22.626 -28.602  1.00  0.00     0.348 HD
ENDROOT
BRANCH   6  30
ATOM     30  O   UNL     1      -3.502 -23.587 -24.861  1.00  0.00    -0.384 OA
ATOM     31  H   UNL     1      -3.207 -24.279 -24.214  1.00  0.00     0.211 HD
ENDBRANCH   6  30
BRANCH  22  32
ATOM     32  O   UNL     1      -8.132 -29.447 -21.538  1.00  0.00    -0.393 OA
ATOM     33  H   UNL     1      -8.335 -30.304 -21.998  1.00  0.00     0.210 HD
ENDBRANCH  22  32
BRANCH  28  34
ATOM     34  O   UNL     1     -12.562 -29.130 -22.586  1.00  0.00    -0.393 OA
ATOM     35  H   UNL     1     -12.065 -28.579 -21.927  1.00  0.00     0.210 HD
ENDBRANCH  28  34
TORSDOF 3
ENDMDL
MODEL 9
REMARK VINA RESULT:    -8.354      3.372      8.853
REMARK INTER + INTRA:          -9.086
REMARK INTER:                  -9.086
REMARK INTRA:                   0.000
REMARK UNBOUND:                 0.000
REMARK SMILES C[C@H]1CC[C@H]2[N@@H+](C1)C[C@@H]1[C@@H]3C[C@@H]4[C@H](C[C@H](O)[C@@H]5C[C@@H](O)CC[C@]45C)[C@@H]3CC[C@H]1[C@]2(C)O
REMARK SMILES IDX 5 1 6 2 8 3 7 4 4 5 29 6 3 7 28 8 30 9 2 10 27 11 9 12 1 13
REMARK SMILES IDX 26 14 10 15 25 16 11 17 13 18 12 19 14 20 23 21 15 22 17 23
REMARK SMILES IDX 22 24 24 25 18 26 21 27 19 28 31 30 16 32 20 34
REMARK H PARENT 6 29 31 31 16 33 20 35
REMARK Flexibility Score: inf
ROOT
ATOM      1  C   UNL     1      -9.652 -18.465 -27.189  1.00  0.00     0.216 C 
ATOM      2  N   UNL     1      -9.919 -18.570 -28.653  1.00  0.00    -0.330 N 
ATOM      3  C   UNL     1      -8.878 -19.340 -29.367  1.00  0.00     0.266 C 
ATOM      4  C   UNL     1     -10.268 -17.301 -29.344  1.00  0.00     0.265 C 
ATOM      5  C   UNL     1     -10.824 -17.776 -26.425  1.00  0.00     0.069 C 
ATOM      6  C   UNL     1      -8.217 -17.942 -26.793  1.00  0.00     0.117 C 
ATOM      7  C   UNL     1     -11.852 -17.108 -27.348  1.00  0.00     0.015 C 
ATOM      8  C   UNL     1      -7.147 -18.792 -27.565  1.00  0.00     0.036 C 
ATOM      9  C   UNL     1      -8.039 -16.413 -27.035  1.00  0.00     0.049 C 
ATOM     10  C   UNL     1     -11.162 -16.358 -28.493  1.00  0.00     0.041 C 
ATOM     11  C   UNL     1      -5.658 -18.407 -27.266  1.00  0.00     0.007 C 
ATOM     12  C   UNL     1      -7.449 -18.828 -29.087  1.00  0.00     0.054 C 
ATOM     13  C   UNL     1     -12.200 -15.642 -29.367  1.00  0.00     0.013 C 
ATOM     14  C   UNL     1      -4.873 -17.998 -28.521  1.00  0.00     0.004 C 
ATOM     15  C   UNL     1      -6.362 -19.622 -29.874  1.00  0.00     0.002 C 
ATOM     16  C   UNL     1      -4.924 -19.074 -29.637  1.00  0.00    -0.004 C 
ATOM     17  C   UNL     1      -6.323 -21.141 -29.577  1.00  0.00     0.009 C 
ATOM     18  C   UNL     1      -4.040 -20.334 -29.448  1.00  0.00    -0.001 C 
ATOM     19  C   UNL     1      -4.963 -21.424 -28.936  1.00  0.00    -0.001 C 
ATOM     20  C   UNL     1      -2.751 -20.242 -28.587  1.00  0.00     0.036 C 
ATOM     21  C   UNL     1      -4.340 -22.866 -29.100  1.00  0.00    -0.024 C 
ATOM     22  C   UNL     1      -2.372 -21.593 -27.930  1.00  0.00     0.118 C 
ATOM     23  C   UNL     1      -2.781 -22.833 -28.780  1.00  0.00     0.026 C 
ATOM     24  C   UNL     1      -4.592 -23.448 -30.530  1.00  0.00     0.010 C 
ATOM     25  C   UNL     1      -5.041 -23.788 -28.067  1.00  0.00     0.012 C 
ATOM     26  C   UNL     1      -1.896 -22.962 -30.046  1.00  0.00     0.038 C 
ATOM     27  C   UNL     1      -3.676 -24.634 -30.860  1.00  0.00     0.032 C 
ATOM     28  C   UNL     1      -2.178 -24.267 -30.818  1.00  0.00     0.114 C 
ATOM     29  H   UNL     1     -10.781 -19.165 -28.738  1.00  0.00     0.348 HD
ENDROOT
BRANCH   6  30
ATOM     30  O   UNL     1      -8.083 -18.200 -25.410  1.00  0.00    -0.384 OA
ATOM     31  H   UNL     1      -8.920 -18.610 -25.069  1.00  0.00     0.211 HD
ENDBRANCH   6  30
BRANCH  22  32
ATOM     32  O   UNL     1      -0.995 -21.602 -27.648  1.00  0.00    -0.393 OA
ATOM     33  H   UNL     1      -0.891 -21.976 -26.733  1.00  0.00     0.210 HD
ENDBRANCH  22  32
BRANCH  28  34
ATOM     34  O   UNL     1      -1.462 -25.329 -30.240  1.00  0.00    -0.393 OA
ATOM     35  H   UNL     1      -1.287 -25.080 -29.295  1.00  0.00     0.210 HD
ENDBRANCH  28  34
TORSDOF 3
ENDMDL
