MODEL 1
REMARK VINA RESULT:    36.928      0.000      0.000
REMARK INTER + INTRA:          55.350
REMARK INTER:                  50.960
REMARK INTRA:                   4.390
REMARK UNBOUND:                 4.390
REMARK SMILES CC[C@@H](CC[C@@H](C)[C@@H]1CC[C@H]2[C@H]3CC=C4C[C@@H](O)CC[C@]4(C)[C@H]3CC[C@]21C)C(C)C
REMARK SMILES IDX 5 1 4 2 3 3 2 4 1 5 28 6 29 7 30 8 6 9 7 10 8 11 9 12 26 13
REMARK SMILES IDX 10 14 11 15 25 16 27 17 12 18 24 19 23 20 13 21 21 22 14 23
REMARK SMILES IDX 15 24 20 25 22 26 16 27 19 28 17 29 18 30
REMARK H PARENT 18 31
REMARK Flexibility Score: inf
ROOT
ATOM      1  C   UNL     1      -2.029  59.573  -7.239  1.00  0.00     0.004 C 
ENDROOT
BRANCH   1   2
ATOM      2  C   UNL     1      -2.956  58.876  -6.223  1.00  0.00     0.004 C 
BRANCH   2   3
ATOM      3  C   UNL     1      -4.461  58.974  -6.609  1.00  0.00    -0.009 C 
BRANCH   3   4
ATOM      4  C   UNL     1      -4.613  59.548  -8.046  1.00  0.00     0.000 C 
ATOM      5  C   UNL     1      -5.531  60.770  -8.125  1.00  0.00     0.004 C 
ENDBRANCH   3   4
BRANCH   3   6
ATOM      6  C   UNL     1      -5.297  59.775  -5.554  1.00  0.00    -0.014 C 
ATOM      7  C   UNL     1      -5.044  61.292  -5.590  1.00  0.00     0.007 C 
ATOM      8  C   UNL     1      -5.091  59.238  -4.126  1.00  0.00     0.007 C 
ENDBRANCH   3   6
ENDBRANCH   2   3
ENDBRANCH   1   2
BRANCH   1   9
ATOM      9  C   UNL     1      -1.568  60.974  -6.746  1.00  0.00    -0.011 C 
ATOM     10  C   UNL     1      -2.759  61.940  -6.609  1.00  0.00     0.008 C 
BRANCH   9  11
ATOM     11  C   UNL     1      -0.652  60.999  -5.473  1.00  0.00    -0.002 C 
ATOM     12  C   UNL     1       0.762  60.483  -5.736  1.00  0.00     0.005 C 
ATOM     13  C   UNL     1      -1.103  60.373  -4.096  1.00  0.00    -0.026 C 
ATOM     14  C   UNL     1       1.364  60.314  -4.358  1.00  0.00     0.005 C 
ATOM     15  C   UNL     1       0.219  59.776  -3.495  1.00  0.00    -0.001 C 
ATOM     16  C   UNL     1      -1.714  61.483  -3.183  1.00  0.00     0.007 C 
ATOM     17  C   UNL     1      -2.137  59.229  -4.217  1.00  0.00     0.012 C 
ATOM     18  C   UNL     1       0.393  59.961  -1.952  1.00  0.00     0.000 C 
ATOM     19  C   UNL     1      -0.644  62.286  -2.439  1.00  0.00     0.005 C 
ATOM     20  C   UNL     1       0.057  61.392  -1.394  1.00  0.00     0.003 C 
ATOM     21  C   UNL     1       1.730  59.383  -1.443  1.00  0.00     0.031 C 
ATOM     22  C   UNL     1       1.203  62.105  -0.571  1.00  0.00    -0.008 C 
ATOM     23  C   UNL     1       2.035  59.808  -0.037  1.00  0.00    -0.027 C 
ATOM     24  C   UNL     1       1.835  61.074   0.379  1.00  0.00    -0.065 C 
ATOM     25  C   UNL     1       0.567  63.284   0.242  1.00  0.00     0.014 C 
ATOM     26  C   UNL     1       2.319  62.682  -1.477  1.00  0.00     0.016 C 
ATOM     27  C   UNL     1       2.477  61.502   1.685  1.00  0.00     0.063 C 
ATOM     28  C   UNL     1       1.425  63.774   1.411  1.00  0.00     0.033 C 
ATOM     29  C   UNL     1       1.695  62.620   2.380  1.00  0.00     0.118 C 
BRANCH  29  30
ATOM     30  O   UNL     1       2.387  63.076   3.517  1.00  0.00    -0.393 OA
ATOM     31  H   UNL     1       2.019  63.968   3.757  1.00  0.00     0.210 HD
ENDBRANCH  29  30
ENDBRANCH   9  11
ENDBRANCH   1   9
TORSDOF 7
ENDMDL
MODEL 2
REMARK VINA RESULT:    38.736      1.195      2.676
REMARK INTER + INTRA:          57.846
REMARK INTER:                  56.979
REMARK INTRA:                   0.868
REMARK UNBOUND:                 4.390
REMARK SMILES CC[C@@H](CC[C@@H](C)[C@@H]1CC[C@H]2[C@H]3CC=C4C[C@@H](O)CC[C@]4(C)[C@H]3CC[C@]21C)C(C)C
REMARK SMILES IDX 5 1 4 2 3 3 2 4 1 5 28 6 29 7 30 8 6 9 7 10 8 11 9 12 26 13
REMARK SMILES IDX 10 14 11 15 25 16 27 17 12 18 24 19 23 20 13 21 21 22 14 23
REMARK SMILES IDX 15 24 20 25 22 26 16 27 19 28 17 29 18 30
REMARK H PARENT 18 31
REMARK Flexibility Score: inf
ROOT
ATOM      1  C   UNL     1      -1.213  59.766  -7.494  1.00  0.00     0.004 C 
ENDROOT
BRANCH   1   2
ATOM      2  C   UNL     1      -2.407  58.875  -7.892  1.00  0.00     0.004 C 
BRANCH   2   3
ATOM      3  C   UNL     1      -3.752  59.656  -7.951  1.00  0.00    -0.009 C 
BRANCH   3   4
ATOM      4  C   UNL     1      -3.498  61.183  -7.799  1.00  0.00     0.000 C 
ATOM      5  C   UNL     1      -4.766  61.992  -7.519  1.00  0.00     0.004 C 
ENDBRANCH   3   4
BRANCH   3   6
ATOM      6  C   UNL     1      -4.800  59.120  -6.918  1.00  0.00    -0.014 C 
ATOM      7  C   UNL     1      -6.122  59.907  -6.915  1.00  0.00     0.007 C 
ATOM      8  C   UNL     1      -4.221  59.049  -5.493  1.00  0.00     0.007 C 
ENDBRANCH   3   6
ENDBRANCH   2   3
ENDBRANCH   1   2
BRANCH   1   9
ATOM      9  C   UNL     1      -0.320  59.098  -6.410  1.00  0.00    -0.011 C 
ATOM     10  C   UNL     1       1.115  58.875  -6.924  1.00  0.00     0.008 C 
BRANCH   9  11
ATOM     11  C   UNL     1      -0.329  59.764  -4.990  1.00  0.00    -0.002 C 
ATOM     12  C   UNL     1      -1.722  60.201  -4.536  1.00  0.00     0.005 C 
ATOM     13  C   UNL     1       0.651  60.940  -4.603  1.00  0.00    -0.026 C 
ATOM     14  C   UNL     1      -1.469  61.062  -3.319  1.00  0.00     0.005 C 
ATOM     15  C   UNL     1      -0.204  61.856  -3.657  1.00  0.00    -0.001 C 
ATOM     16  C   UNL     1       1.910  60.364  -3.880  1.00  0.00     0.007 C 
ATOM     17  C   UNL     1       1.134  61.796  -5.798  1.00  0.00     0.012 C 
ATOM     18  C   UNL     1       0.565  62.454  -2.435  1.00  0.00     0.000 C 
ATOM     19  C   UNL     1       1.667  60.109  -2.389  1.00  0.00     0.005 C 
ATOM     20  C   UNL     1       1.483  61.450  -1.647  1.00  0.00     0.003 C 
ATOM     21  C   UNL     1      -0.350  63.311  -1.534  1.00  0.00     0.031 C 
ATOM     22  C   UNL     1       1.202  61.318  -0.097  1.00  0.00    -0.008 C 
ATOM     23  C   UNL     1       0.295  63.645  -0.221  1.00  0.00    -0.027 C 
ATOM     24  C   UNL     1       0.987  62.726   0.481  1.00  0.00    -0.065 C 
ATOM     25  C   UNL     1       2.442  60.632   0.572  1.00  0.00     0.014 C 
ATOM     26  C   UNL     1      -0.055  60.467   0.212  1.00  0.00     0.016 C 
ATOM     27  C   UNL     1       1.309  63.036   1.931  1.00  0.00     0.063 C 
ATOM     28  C   UNL     1       2.529  60.838   2.087  1.00  0.00     0.033 C 
ATOM     29  C   UNL     1       2.584  62.334   2.407  1.00  0.00     0.118 C 
BRANCH  29  30
ATOM     30  O   UNL     1       2.779  62.541   3.785  1.00  0.00    -0.393 OA
ATOM     31  H   UNL     1       2.641  61.671   4.244  1.00  0.00     0.210 HD
ENDBRANCH  29  30
ENDBRANCH   9  11
ENDBRANCH   1   9
TORSDOF 7
ENDMDL
