MODEL 1
REMARK VINA RESULT:    -5.761      0.000      0.000
REMARK INTER + INTRA:          -6.605
REMARK INTER:                  -6.771
REMARK INTRA:                   0.165
REMARK UNBOUND:                 0.165
REMARK SMILES Oc1ccc(-c2[o+]c3cc(O)cc(O)c3cc2O)cc1
REMARK SMILES IDX 6 1 7 2 8 3 9 4 10 5 12 6 13 7 15 8 16 9 17 10 5 11 4 12
REMARK SMILES IDX 3 13 2 14 19 15 20 16 1 17 18 19 11 21 14 23
REMARK H PARENT 1 18 18 20 11 22 14 24
REMARK Flexibility Score: inf
ROOT
ATOM      1  C   UNL     1      15.541  -8.428  12.649  1.00  0.00     0.401 A 
ATOM      2  O   UNL     1      15.820  -9.729  12.658  1.00  0.00    -0.202 OA
ATOM      3  C   UNL     1      14.888 -10.676  12.633  1.00  0.00     0.368 A 
ATOM      4  C   UNL     1      15.280 -12.017  12.642  1.00  0.00     0.162 A 
ATOM      5  C   UNL     1      14.324 -13.032  12.614  1.00  0.00     0.128 A 
ATOM      6  C   UNL     1      12.963 -12.706  12.576  1.00  0.00     0.093 A 
ATOM      7  C   UNL     1      12.544 -11.370  12.566  1.00  0.00     0.136 A 
ATOM      8  C   UNL     1      13.514 -10.335  12.598  1.00  0.00     0.125 A 
ATOM      9  C   UNL     1      13.186  -8.969  12.604  1.00  0.00     0.078 A 
ATOM     10  C   UNL     1      14.199  -8.006  12.640  1.00  0.00     0.223 A 
ENDROOT
BRANCH   1  11
ATOM     11  C   UNL     1      16.669  -7.470  12.669  1.00  0.00     0.084 A 
ATOM     12  C   UNL     1      17.809  -7.728  11.889  1.00  0.00     0.022 A 
ATOM     13  C   UNL     1      18.877  -6.826  11.875  1.00  0.00     0.047 A 
ATOM     14  C   UNL     1      18.814  -5.648  12.625  1.00  0.00     0.115 A 
ATOM     15  C   UNL     1      16.603  -6.273  13.406  1.00  0.00     0.022 A 
ATOM     16  C   UNL     1      17.673  -5.373  13.390  1.00  0.00     0.047 A 
BRANCH  14  17
ATOM     17  O   UNL     1      19.886  -4.760  12.602  1.00  0.00    -0.508 OA
ATOM     18  H   UNL     1      20.257  -4.356  13.455  1.00  0.00     0.293 HD
ENDBRANCH  14  17
ENDBRANCH   1  11
BRANCH  10  19
ATOM     19  O   UNL     1      13.873  -6.650  12.697  1.00  0.00    -0.500 OA
ATOM     20  H   UNL     1      14.430  -5.949  12.223  1.00  0.00     0.294 HD
ENDBRANCH  10  19
BRANCH   5  21
ATOM     21  O   UNL     1      14.734 -14.363  12.624  1.00  0.00    -0.507 OA
ATOM     22  H   UNL     1      15.706 -14.619  12.494  1.00  0.00     0.293 HD
ENDBRANCH   5  21
BRANCH   7  23
ATOM     23  O   UNL     1      11.167 -11.128  12.524  1.00  0.00    -0.507 OA
ATOM     24  H   UNL     1      10.478 -11.668  13.026  1.00  0.00     0.293 HD
ENDBRANCH   7  23
TORSDOF 5
ENDMDL
MODEL 2
REMARK VINA RESULT:    -5.576      1.220      6.532
REMARK INTER + INTRA:          -6.389
REMARK INTER:                  -6.821
REMARK INTRA:                   0.432
REMARK UNBOUND:                 0.165
REMARK SMILES Oc1ccc(-c2[o+]c3cc(O)cc(O)c3cc2O)cc1
REMARK SMILES IDX 6 1 7 2 8 3 9 4 10 5 12 6 13 7 15 8 16 9 17 10 5 11 4 12
REMARK SMILES IDX 3 13 2 14 19 15 20 16 1 17 18 19 11 21 14 23
REMARK H PARENT 1 18 18 20 11 22 14 24
REMARK Flexibility Score: inf
ROOT
ATOM      1  C   UNL     1      15.095  -9.465  12.472  1.00  0.00     0.401 A 
ATOM      2  O   UNL     1      16.380  -9.147  12.336  1.00  0.00    -0.202 OA
ATOM      3  C   UNL     1      16.816  -7.895  12.247  1.00  0.00     0.368 A 
ATOM      4  C   UNL     1      18.187  -7.662  12.108  1.00  0.00     0.162 A 
ATOM      5  C   UNL     1      18.676  -6.359  12.015  1.00  0.00     0.128 A 
ATOM      6  C   UNL     1      17.787  -5.278  12.062  1.00  0.00     0.093 A 
ATOM      7  C   UNL     1      16.410  -5.485  12.201  1.00  0.00     0.136 A 
ATOM      8  C   UNL     1      15.910  -6.810  12.292  1.00  0.00     0.125 A 
ATOM      9  C   UNL     1      14.544  -7.112  12.421  1.00  0.00     0.078 A 
ATOM     10  C   UNL     1      14.126  -8.444  12.501  1.00  0.00     0.223 A 
ENDROOT
BRANCH   1  11
ATOM     11  C   UNL     1      14.734 -10.897  12.571  1.00  0.00     0.084 A 
ATOM     12  C   UNL     1      15.741 -11.872  12.481  1.00  0.00     0.022 A 
ATOM     13  C   UNL     1      15.426 -13.229  12.592  1.00  0.00     0.047 A 
ATOM     14  C   UNL     1      14.105 -13.630  12.813  1.00  0.00     0.115 A 
ATOM     15  C   UNL     1      13.409 -11.305  12.813  1.00  0.00     0.022 A 
ATOM     16  C   UNL     1      13.097 -12.664  12.925  1.00  0.00     0.047 A 
BRANCH  14  17
ATOM     17  O   UNL     1      13.807 -14.985  12.922  1.00  0.00    -0.508 OA
ATOM     18  H   UNL     1      13.252 -15.345  13.690  1.00  0.00     0.293 HD
ENDBRANCH  14  17
ENDBRANCH   1  11
BRANCH  10  19
ATOM     19  O   UNL     1      12.767  -8.748  12.577  1.00  0.00    -0.500 OA
ATOM     20  H   UNL     1      12.182  -8.782  11.751  1.00  0.00     0.294 HD
ENDBRANCH  10  19
BRANCH   5  21
ATOM     21  O   UNL     1      20.045  -6.146  11.876  1.00  0.00    -0.507 OA
ATOM     22  H   UNL     1      20.412  -5.456  11.231  1.00  0.00     0.293 HD
ENDBRANCH   5  21
BRANCH   7  23
ATOM     23  O   UNL     1      15.590  -4.352  12.244  1.00  0.00    -0.507 OA
ATOM     24  H   UNL     1      14.809  -4.238  12.873  1.00  0.00     0.293 HD
ENDBRANCH   7  23
TORSDOF 5
ENDMDL
MODEL 3
REMARK VINA RESULT:    -5.501      1.596      6.931
REMARK INTER + INTRA:          -6.300
REMARK INTER:                  -6.706
REMARK INTRA:                   0.406
REMARK UNBOUND:                 0.165
REMARK SMILES Oc1ccc(-c2[o+]c3cc(O)cc(O)c3cc2O)cc1
REMARK SMILES IDX 6 1 7 2 8 3 9 4 10 5 12 6 13 7 15 8 16 9 17 10 5 11 4 12
REMARK SMILES IDX 3 13 2 14 19 15 20 16 1 17 18 19 11 21 14 23
REMARK H PARENT 1 18 18 20 11 22 14 24
REMARK Flexibility Score: inf
ROOT
ATOM      1  C   UNL     1      15.845  -9.468  12.574  1.00  0.00     0.401 A 
ATOM      2  O   UNL     1      14.999  -8.455  12.406  1.00  0.00    -0.202 OA
ATOM      3  C   UNL     1      15.386  -7.186  12.326  1.00  0.00     0.368 A 
ATOM      4  C   UNL     1      14.420  -6.192  12.145  1.00  0.00     0.162 A 
ATOM      5  C   UNL     1      14.797  -4.852  12.054  1.00  0.00     0.128 A 
ATOM      6  C   UNL     1      16.149  -4.501  12.143  1.00  0.00     0.093 A 
ATOM      7  C   UNL     1      17.135  -5.478  12.324  1.00  0.00     0.136 A 
ATOM      8  C   UNL     1      16.755  -6.842  12.420  1.00  0.00     0.125 A 
ATOM      9  C   UNL     1      17.673  -7.887  12.614  1.00  0.00     0.078 A 
ATOM     10  C   UNL     1      17.223  -9.208  12.703  1.00  0.00     0.223 A 
ENDROOT
BRANCH   1  11
ATOM     11  C   UNL     1      15.293 -10.840  12.639  1.00  0.00     0.084 A 
ATOM     12  C   UNL     1      13.901 -11.023  12.671  1.00  0.00     0.022 A 
ATOM     13  C   UNL     1      13.356 -12.311  12.711  1.00  0.00     0.047 A 
ATOM     14  C   UNL     1      14.194 -13.430  12.700  1.00  0.00     0.115 A 
ATOM     15  C   UNL     1      16.130 -11.971  12.608  1.00  0.00     0.022 A 
ATOM     16  C   UNL     1      15.583 -13.257  12.647  1.00  0.00     0.047 A 
BRANCH  14  17
ATOM     17  O   UNL     1      13.638 -14.706  12.740  1.00  0.00    -0.508 OA
ATOM     18  H   UNL     1      12.689 -14.860  13.064  1.00  0.00     0.293 HD
ENDBRANCH  14  17
ENDBRANCH   1  11
BRANCH  10  19
ATOM     19  O   UNL     1      18.128 -10.241  12.946  1.00  0.00    -0.500 OA
ATOM     20  H   UNL     1      17.998 -11.166  12.553  1.00  0.00     0.294 HD
ENDBRANCH  10  19
BRANCH   5  21
ATOM     21  O   UNL     1      13.820  -3.875  11.875  1.00  0.00    -0.507 OA
ATOM     22  H   UNL     1      13.110  -3.960  11.157  1.00  0.00     0.293 HD
ENDBRANCH   5  21
BRANCH   7  23
ATOM     23  O   UNL     1      18.463  -5.046  12.399  1.00  0.00    -0.507 OA
ATOM     24  H   UNL     1      19.029  -4.804  11.600  1.00  0.00     0.293 HD
ENDBRANCH   7  23
TORSDOF 5
ENDMDL
MODEL 4
REMARK VINA RESULT:    -5.218      1.247      6.580
REMARK INTER + INTRA:          -5.968
REMARK INTER:                  -6.487
REMARK INTRA:                   0.518
REMARK UNBOUND:                 0.165
REMARK SMILES Oc1ccc(-c2[o+]c3cc(O)cc(O)c3cc2O)cc1
REMARK SMILES IDX 6 1 7 2 8 3 9 4 10 5 12 6 13 7 15 8 16 9 17 10 5 11 4 12
REMARK SMILES IDX 3 13 2 14 19 15 20 16 1 17 18 19 11 21 14 23
REMARK H PARENT 1 18 18 20 11 22 14 24
REMARK Flexibility Score: inf
ROOT
ATOM      1  C   UNL     1      14.684  -9.406  12.680  1.00  0.00     0.401 A 
ATOM      2  O   UNL     1      15.920  -8.967  12.464  1.00  0.00    -0.202 OA
ATOM      3  C   UNL     1      16.239  -7.678  12.411  1.00  0.00     0.368 A 
ATOM      4  C   UNL     1      17.569  -7.315  12.181  1.00  0.00     0.162 A 
ATOM      5  C   UNL     1      17.933  -5.970  12.124  1.00  0.00     0.128 A 
ATOM      6  C   UNL     1      16.961  -4.977  12.299  1.00  0.00     0.093 A 
ATOM      7  C   UNL     1      15.622  -5.315  12.532  1.00  0.00     0.136 A 
ATOM      8  C   UNL     1      15.248  -6.683  12.587  1.00  0.00     0.125 A 
ATOM      9  C   UNL     1      13.929  -7.114  12.802  1.00  0.00     0.078 A 
ATOM     10  C   UNL     1      13.636  -8.480  12.840  1.00  0.00     0.223 A 
ENDROOT
BRANCH   1  11
ATOM     11  C   UNL     1      14.457 -10.868  12.727  1.00  0.00     0.084 A 
ATOM     12  C   UNL     1      13.165 -11.360  12.977  1.00  0.00     0.022 A 
ATOM     13  C   UNL     1      12.923 -12.737  13.005  1.00  0.00     0.047 A 
ATOM     14  C   UNL     1      13.964 -13.639  12.765  1.00  0.00     0.115 A 
ATOM     15  C   UNL     1      15.496 -11.781  12.467  1.00  0.00     0.022 A 
ATOM     16  C   UNL     1      15.251 -13.157  12.494  1.00  0.00     0.047 A 
BRANCH  14  17
ATOM     17  O   UNL     1      13.708 -15.007  12.796  1.00  0.00    -0.508 OA
ATOM     18  H   UNL     1      13.480 -15.523  11.953  1.00  0.00     0.293 HD
ENDBRANCH  14  17
ENDBRANCH   1  11
BRANCH  10  19
ATOM     19  O   UNL     1      12.318  -8.909  13.003  1.00  0.00    -0.500 OA
ATOM     20  H   UNL     1      12.061  -9.885  12.914  1.00  0.00     0.294 HD
ENDBRANCH  10  19
BRANCH   5  21
ATOM     21  O   UNL     1      19.263  -5.627  11.893  1.00  0.00    -0.507 OA
ATOM     22  H   UNL     1      19.640  -5.572  10.954  1.00  0.00     0.293 HD
ENDBRANCH   5  21
BRANCH   7  23
ATOM     23  O   UNL     1      14.714  -4.265  12.700  1.00  0.00    -0.507 OA
ATOM     24  H   UNL     1      14.686  -3.438  12.121  1.00  0.00     0.293 HD
ENDBRANCH   7  23
TORSDOF 5
ENDMDL
MODEL 5
REMARK VINA RESULT:    -4.912      1.645      7.135
REMARK INTER + INTRA:          -5.609
REMARK INTER:                  -5.989
REMARK INTRA:                   0.380
REMARK UNBOUND:                 0.165
REMARK SMILES Oc1ccc(-c2[o+]c3cc(O)cc(O)c3cc2O)cc1
REMARK SMILES IDX 6 1 7 2 8 3 9 4 10 5 12 6 13 7 15 8 16 9 17 10 5 11 4 12
REMARK SMILES IDX 3 13 2 14 19 15 20 16 1 17 18 19 11 21 14 23
REMARK H PARENT 1 18 18 20 11 22 14 24
REMARK Flexibility Score: inf
ROOT
ATOM      1  C   UNL     1      15.029  -9.727  12.347  1.00  0.00     0.401 A 
ATOM      2  O   UNL     1      14.838  -8.420  12.188  1.00  0.00    -0.202 OA
ATOM      3  C   UNL     1      15.823  -7.529  12.215  1.00  0.00     0.368 A 
ATOM      4  C   UNL     1      15.522  -6.177  12.035  1.00  0.00     0.162 A 
ATOM      5  C   UNL     1      16.536  -5.219  12.056  1.00  0.00     0.128 A 
ATOM      6  C   UNL     1      17.863  -5.615  12.259  1.00  0.00     0.093 A 
ATOM      7  C   UNL     1      18.191  -6.964  12.441  1.00  0.00     0.136 A 
ATOM      8  C   UNL     1      17.161  -7.940  12.424  1.00  0.00     0.125 A 
ATOM      9  C   UNL     1      17.395  -9.312  12.611  1.00  0.00     0.078 A 
ATOM     10  C   UNL     1      16.327 -10.215  12.584  1.00  0.00     0.223 A 
ENDROOT
BRANCH   1  11
ATOM     11  C   UNL     1      13.851 -10.621  12.285  1.00  0.00     0.084 A 
ATOM     12  C   UNL     1      12.560 -10.065  12.292  1.00  0.00     0.022 A 
ATOM     13  C   UNL     1      11.433 -10.888  12.214  1.00  0.00     0.047 A 
ATOM     14  C   UNL     1      11.580 -12.275  12.109  1.00  0.00     0.115 A 
ATOM     15  C   UNL     1      13.992 -12.015  12.160  1.00  0.00     0.022 A 
ATOM     16  C   UNL     1      12.863 -12.836  12.081  1.00  0.00     0.047 A 
BRANCH  14  17
ATOM     17  O   UNL     1      10.448 -13.082  12.032  1.00  0.00    -0.508 OA
ATOM     18  H   UNL     1      10.518 -14.075  11.838  1.00  0.00     0.293 HD
ENDBRANCH  14  17
ENDBRANCH   1  11
BRANCH  10  19
ATOM     19  O   UNL     1      16.552 -11.571  12.820  1.00  0.00    -0.500 OA
ATOM     20  H   UNL     1      17.308 -11.890  13.415  1.00  0.00     0.294 HD
ENDBRANCH  10  19
BRANCH   5  21
ATOM     21  O   UNL     1      16.216  -3.876  11.875  1.00  0.00    -0.507 OA
ATOM     22  H   UNL     1      15.255  -3.554  11.878  1.00  0.00     0.293 HD
ENDBRANCH   5  21
BRANCH   7  23
ATOM     23  O   UNL     1      19.540  -7.278  12.634  1.00  0.00    -0.507 OA
ATOM     24  H   UNL     1      19.963  -7.444  13.536  1.00  0.00     0.293 HD
ENDBRANCH   7  23
TORSDOF 5
ENDMDL
MODEL 6
REMARK VINA RESULT:    -3.246      1.140      2.868
REMARK INTER + INTRA:          -3.650
REMARK INTER:                  -3.565
REMARK INTRA:                  -0.085
REMARK UNBOUND:                 0.165
REMARK SMILES Oc1ccc(-c2[o+]c3cc(O)cc(O)c3cc2O)cc1
REMARK SMILES IDX 6 1 7 2 8 3 9 4 10 5 12 6 13 7 15 8 16 9 17 10 5 11 4 12
REMARK SMILES IDX 3 13 2 14 19 15 20 16 1 17 18 19 11 21 14 23
REMARK H PARENT 1 18 18 20 11 22 14 24
REMARK Flexibility Score: inf
ROOT
ATOM      1  C   UNL     1      16.053  -9.316  12.688  1.00  0.00     0.401 A 
ATOM      2  O   UNL     1      14.741  -9.328  12.471  1.00  0.00    -0.202 OA
ATOM      3  C   UNL     1      14.021 -10.443  12.411  1.00  0.00     0.368 A 
ATOM      4  C   UNL     1      12.646 -10.353  12.181  1.00  0.00     0.162 A 
ATOM      5  C   UNL     1      11.864 -11.506  12.116  1.00  0.00     0.128 A 
ATOM      6  C   UNL     1      12.460 -12.762  12.283  1.00  0.00     0.093 A 
ATOM      7  C   UNL     1      13.836 -12.879  12.515  1.00  0.00     0.136 A 
ATOM      8  C   UNL     1      14.635 -11.707  12.578  1.00  0.00     0.125 A 
ATOM      9  C   UNL     1      16.022 -11.730  12.794  1.00  0.00     0.078 A 
ATOM     10  C   UNL     1      16.743 -10.533  12.840  1.00  0.00     0.223 A 
ENDROOT
BRANCH   1  11
ATOM     11  C   UNL     1      16.743  -8.007  12.743  1.00  0.00     0.084 A 
ATOM     12  C   UNL     1      16.369  -7.070  13.720  1.00  0.00     0.022 A 
ATOM     13  C   UNL     1      17.021  -5.835  13.804  1.00  0.00     0.047 A 
ATOM     14  C   UNL     1      18.064  -5.529  12.926  1.00  0.00     0.115 A 
ATOM     15  C   UNL     1      17.807  -7.700  11.875  1.00  0.00     0.022 A 
ATOM     16  C   UNL     1      18.458  -6.466  11.962  1.00  0.00     0.047 A 
BRANCH  14  17
ATOM     17  O   UNL     1      18.704  -4.296  13.022  1.00  0.00    -0.508 OA
ATOM     18  H   UNL     1      18.183  -3.439  13.176  1.00  0.00     0.293 HD
ENDBRANCH  14  17
ENDBRANCH   1  11
BRANCH  10  19
ATOM     19  O   UNL     1      18.129 -10.557  13.003  1.00  0.00    -0.500 OA
ATOM     20  H   UNL     1      18.584 -10.060  13.760  1.00  0.00     0.294 HD
ENDBRANCH  10  19
BRANCH   5  21
ATOM     21  O   UNL     1      10.495 -11.396  11.885  1.00  0.00    -0.507 OA
ATOM     22  H   UNL     1      10.121 -11.306  10.947  1.00  0.00     0.293 HD
ENDBRANCH   5  21
BRANCH   7  23
ATOM     23  O   UNL     1      14.354 -14.168  12.675  1.00  0.00    -0.507 OA
ATOM     24  H   UNL     1      13.850 -15.015  12.457  1.00  0.00     0.293 HD
ENDBRANCH   7  23
TORSDOF 5
ENDMDL
