MODEL 1
REMARK VINA RESULT:    -4.932      0.000      0.000
REMARK INTER + INTRA:          -6.114
REMARK INTER:                  -5.797
REMARK INTRA:                  -0.318
REMARK UNBOUND:                -0.318
REMARK SMILES Oc1ccc(-c2[o+]c3cc(O)cc(O)c3cc2O)cc1
REMARK SMILES IDX 6 1 7 2 8 3 9 4 10 5 12 6 13 7 15 8 16 9 17 10 5 11 4 12
REMARK SMILES IDX 3 13 2 14 19 15 20 16 1 17 18 19 11 21 14 23
REMARK H PARENT 1 18 18 20 11 22 14 24
REMARK Flexibility Score: inf
ROOT
ATOM      1  C   UNL     1      44.724  30.348  25.252  1.00  0.00     0.401 A 
ATOM      2  O   UNL     1      45.894  30.064  25.818  1.00  0.00    -0.202 OA
ATOM      3  C   UNL     1      46.007  29.477  27.005  1.00  0.00     0.368 A 
ATOM      4  C   UNL     1      47.281  29.216  27.516  1.00  0.00     0.162 A 
ATOM      5  C   UNL     1      47.428  28.596  28.761  1.00  0.00     0.128 A 
ATOM      6  C   UNL     1      46.297  28.237  29.497  1.00  0.00     0.093 A 
ATOM      7  C   UNL     1      45.009  28.487  29.006  1.00  0.00     0.136 A 
ATOM      8  C   UNL     1      44.854  29.119  27.744  1.00  0.00     0.125 A 
ATOM      9  C   UNL     1      43.604  29.421  27.181  1.00  0.00     0.078 A 
ATOM     10  C   UNL     1      43.531  30.049  25.933  1.00  0.00     0.223 A 
ENDROOT
BRANCH   1  11
ATOM     11  C   UNL     1      44.731  30.995  23.919  1.00  0.00     0.084 A 
ATOM     12  C   UNL     1      44.646  30.198  22.764  1.00  0.00     0.022 A 
ATOM     13  C   UNL     1      44.629  30.789  21.497  1.00  0.00     0.047 A 
ATOM     14  C   UNL     1      44.681  32.180  21.367  1.00  0.00     0.115 A 
ATOM     15  C   UNL     1      44.763  32.394  23.783  1.00  0.00     0.022 A 
ATOM     16  C   UNL     1      44.745  32.982  22.514  1.00  0.00     0.047 A 
BRANCH  14  17
ATOM     17  O   UNL     1      44.664  32.754  20.098  1.00  0.00    -0.508 OA
ATOM     18  H   UNL     1      44.441  32.208  19.274  1.00  0.00     0.293 HD
ENDBRANCH  14  17
ENDBRANCH   1  11
BRANCH  10  19
ATOM     19  O   UNL     1      42.291  30.394  25.396  1.00  0.00    -0.500 OA
ATOM     20  H   UNL     1      41.453  30.423  25.965  1.00  0.00     0.294 HD
ENDBRANCH  10  19
BRANCH   5  21
ATOM     21  O   UNL     1      48.695  28.332  29.276  1.00  0.00    -0.507 OA
ATOM     22  H   UNL     1      49.534  28.505  28.735  1.00  0.00     0.293 HD
ENDBRANCH   5  21
BRANCH   7  23
ATOM     23  O   UNL     1      43.929  28.094  29.802  1.00  0.00    -0.507 OA
ATOM     24  H   UNL     1      43.839  28.303  30.785  1.00  0.00     0.293 HD
ENDBRANCH   7  23
TORSDOF 5
ENDMDL
MODEL 2
REMARK VINA RESULT:    -4.811     12.586     14.390
REMARK INTER + INTRA:          -5.973
REMARK INTER:                  -5.697
REMARK INTRA:                  -0.276
REMARK UNBOUND:                -0.318
REMARK SMILES Oc1ccc(-c2[o+]c3cc(O)cc(O)c3cc2O)cc1
REMARK SMILES IDX 6 1 7 2 8 3 9 4 10 5 12 6 13 7 15 8 16 9 17 10 5 11 4 12
REMARK SMILES IDX 3 13 2 14 19 15 20 16 1 17 18 19 11 21 14 23
REMARK H PARENT 1 18 18 20 11 22 14 24
REMARK Flexibility Score: inf
ROOT
ATOM      1  C   UNL     1      31.432  28.820  27.143  1.00  0.00     0.401 A 
ATOM      2  O   UNL     1      30.668  27.819  27.572  1.00  0.00    -0.202 OA
ATOM      3  C   UNL     1      31.114  26.848  28.362  1.00  0.00     0.368 A 
ATOM      4  C   UNL     1      30.233  25.840  28.764  1.00  0.00     0.162 A 
ATOM      5  C   UNL     1      30.675  24.808  29.598  1.00  0.00     0.128 A 
ATOM      6  C   UNL     1      32.002  24.785  30.032  1.00  0.00     0.093 A 
ATOM      7  C   UNL     1      32.904  25.784  29.644  1.00  0.00     0.136 A 
ATOM      8  C   UNL     1      32.461  26.832  28.795  1.00  0.00     0.125 A 
ATOM      9  C   UNL     1      33.297  27.866  28.345  1.00  0.00     0.078 A 
ATOM     10  C   UNL     1      32.790  28.863  27.506  1.00  0.00     0.223 A 
ENDROOT
BRANCH   1  11
ATOM     11  C   UNL     1      30.814  29.848  26.274  1.00  0.00     0.084 A 
ATOM     12  C   UNL     1      31.012  29.787  24.884  1.00  0.00     0.022 A 
ATOM     13  C   UNL     1      30.421  30.734  24.043  1.00  0.00     0.047 A 
ATOM     14  C   UNL     1      29.615  31.745  24.576  1.00  0.00     0.115 A 
ATOM     15  C   UNL     1      29.987  30.855  26.803  1.00  0.00     0.022 A 
ATOM     16  C   UNL     1      29.396  31.801  25.958  1.00  0.00     0.047 A 
BRANCH  14  17
ATOM     17  O   UNL     1      29.033  32.683  23.725  1.00  0.00    -0.508 OA
ATOM     18  H   UNL     1      28.754  33.597  24.059  1.00  0.00     0.293 HD
ENDBRANCH  14  17
ENDBRANCH   1  11
BRANCH  10  19
ATOM     19  O   UNL     1      33.632  29.863  27.019  1.00  0.00    -0.500 OA
ATOM     20  H   UNL     1      33.515  30.252  26.091  1.00  0.00     0.294 HD
ENDBRANCH  10  19
BRANCH   5  21
ATOM     21  O   UNL     1      29.803  23.800  30.002  1.00  0.00    -0.507 OA
ATOM     22  H   UNL     1      29.725  22.929  29.490  1.00  0.00     0.293 HD
ENDBRANCH   5  21
BRANCH   7  23
ATOM     23  O   UNL     1      34.213  25.691  30.124  1.00  0.00    -0.507 OA
ATOM     24  H   UNL     1      35.019  26.091  29.666  1.00  0.00     0.293 HD
ENDBRANCH   7  23
TORSDOF 5
ENDMDL
MODEL 3
REMARK VINA RESULT:    -4.681      1.878      6.990
REMARK INTER + INTRA:          -5.820
REMARK INTER:                  -5.548
REMARK INTRA:                  -0.272
REMARK UNBOUND:                -0.318
REMARK SMILES Oc1ccc(-c2[o+]c3cc(O)cc(O)c3cc2O)cc1
REMARK SMILES IDX 6 1 7 2 8 3 9 4 10 5 12 6 13 7 15 8 16 9 17 10 5 11 4 12
REMARK SMILES IDX 3 13 2 14 19 15 20 16 1 17 18 19 11 21 14 23
REMARK H PARENT 1 18 18 20 11 22 14 24
REMARK Flexibility Score: inf
ROOT
ATOM      1  C   UNL     1      44.874  30.149  25.717  1.00  0.00     0.401 A 
ATOM      2  O   UNL     1      44.014  30.386  24.730  1.00  0.00    -0.202 OA
ATOM      3  C   UNL     1      44.308  31.129  23.669  1.00  0.00     0.368 A 
ATOM      4  C   UNL     1      43.339  31.318  22.680  1.00  0.00     0.162 A 
ATOM      5  C   UNL     1      43.623  32.093  21.551  1.00  0.00     0.128 A 
ATOM      6  C   UNL     1      44.882  32.681  21.411  1.00  0.00     0.093 A 
ATOM      7  C   UNL     1      45.871  32.506  22.387  1.00  0.00     0.136 A 
ATOM      8  C   UNL     1      45.587  31.723  23.536  1.00  0.00     0.125 A 
ATOM      9  C   UNL     1      46.511  31.506  24.570  1.00  0.00     0.078 A 
ATOM     10  C   UNL     1      46.157  30.724  25.675  1.00  0.00     0.223 A 
ENDROOT
BRANCH   1  11
ATOM     11  C   UNL     1      44.430  29.294  26.842  1.00  0.00     0.084 A 
ATOM     12  C   UNL     1      44.440  27.897  26.695  1.00  0.00     0.022 A 
ATOM     13  C   UNL     1      44.045  27.071  27.751  1.00  0.00     0.047 A 
ATOM     14  C   UNL     1      43.649  27.628  28.971  1.00  0.00     0.115 A 
ATOM     15  C   UNL     1      44.050  29.848  28.078  1.00  0.00     0.022 A 
ATOM     16  C   UNL     1      43.656  29.019  29.133  1.00  0.00     0.047 A 
BRANCH  14  17
ATOM     17  O   UNL     1      43.258  26.792  30.015  1.00  0.00    -0.508 OA
ATOM     18  H   UNL     1      42.357  26.327  30.010  1.00  0.00     0.293 HD
ENDBRANCH  14  17
ENDBRANCH   1  11
BRANCH  10  19
ATOM     19  O   UNL     1      47.057  30.550  26.725  1.00  0.00    -0.500 OA
ATOM     20  H   UNL     1      47.313  29.628  27.061  1.00  0.00     0.294 HD
ENDBRANCH  10  19
BRANCH   5  21
ATOM     21  O   UNL     1      42.661  32.285  20.563  1.00  0.00    -0.507 OA
ATOM     22  H   UNL     1      42.483  33.200  20.166  1.00  0.00     0.293 HD
ENDBRANCH   5  21
BRANCH   7  23
ATOM     23  O   UNL     1      47.105  33.125  22.170  1.00  0.00    -0.507 OA
ATOM     24  H   UNL     1      47.680  32.982  21.352  1.00  0.00     0.293 HD
ENDBRANCH   7  23
TORSDOF 5
ENDMDL
MODEL 4
REMARK VINA RESULT:    -4.611      4.858      6.970
REMARK INTER + INTRA:          -5.737
REMARK INTER:                  -5.599
REMARK INTRA:                  -0.139
REMARK UNBOUND:                -0.318
REMARK SMILES Oc1ccc(-c2[o+]c3cc(O)cc(O)c3cc2O)cc1
REMARK SMILES IDX 6 1 7 2 8 3 9 4 10 5 12 6 13 7 15 8 16 9 17 10 5 11 4 12
REMARK SMILES IDX 3 13 2 14 19 15 20 16 1 17 18 19 11 21 14 23
REMARK H PARENT 1 18 18 20 11 22 14 24
REMARK Flexibility Score: inf
ROOT
ATOM      1  C   UNL     1      42.254  26.629  29.160  1.00  0.00     0.401 A 
ATOM      2  O   UNL     1      42.955  27.754  29.053  1.00  0.00    -0.202 OA
ATOM      3  C   UNL     1      44.279  27.801  29.151  1.00  0.00     0.368 A 
ATOM      4  C   UNL     1      44.928  29.032  29.021  1.00  0.00     0.162 A 
ATOM      5  C   UNL     1      46.321  29.108  29.116  1.00  0.00     0.128 A 
ATOM      6  C   UNL     1      47.068  27.950  29.340  1.00  0.00     0.093 A 
ATOM      7  C   UNL     1      46.442  26.704  29.473  1.00  0.00     0.136 A 
ATOM      8  C   UNL     1      45.028  26.621  29.381  1.00  0.00     0.125 A 
ATOM      9  C   UNL     1      44.315  25.419  29.515  1.00  0.00     0.078 A 
ATOM     10  C   UNL     1      42.920  25.416  29.416  1.00  0.00     0.223 A 
ENDROOT
BRANCH   1  11
ATOM     11  C   UNL     1      40.781  26.706  29.022  1.00  0.00     0.084 A 
ATOM     12  C   UNL     1      39.967  26.395  30.125  1.00  0.00     0.022 A 
ATOM     13  C   UNL     1      38.576  26.482  30.024  1.00  0.00     0.047 A 
ATOM     14  C   UNL     1      37.980  26.894  28.828  1.00  0.00     0.115 A 
ATOM     15  C   UNL     1      40.178  27.139  27.828  1.00  0.00     0.022 A 
ATOM     16  C   UNL     1      38.785  27.226  27.730  1.00  0.00     0.047 A 
BRANCH  14  17
ATOM     17  O   UNL     1      36.592  26.975  28.742  1.00  0.00    -0.508 OA
ATOM     18  H   UNL     1      35.993  26.335  29.249  1.00  0.00     0.293 HD
ENDBRANCH  14  17
ENDBRANCH   1  11
BRANCH  10  19
ATOM     19  O   UNL     1      42.208  24.231  29.598  1.00  0.00    -0.500 OA
ATOM     20  H   UNL     1      41.626  23.840  28.866  1.00  0.00     0.294 HD
ENDBRANCH  10  19
BRANCH   5  21
ATOM     21  O   UNL     1      46.974  30.332  28.987  1.00  0.00    -0.507 OA
ATOM     22  H   UNL     1      47.641  30.653  29.679  1.00  0.00     0.293 HD
ENDBRANCH   5  21
BRANCH   7  23
ATOM     23  O   UNL     1      47.260  25.593  29.693  1.00  0.00    -0.507 OA
ATOM     24  H   UNL     1      46.923  24.683  29.971  1.00  0.00     0.293 HD
ENDBRANCH   7  23
TORSDOF 5
ENDMDL
MODEL 5
REMARK VINA RESULT:    -4.520      1.362      2.836
REMARK INTER + INTRA:          -5.631
REMARK INTER:                  -5.345
REMARK INTRA:                  -0.286
REMARK UNBOUND:                -0.318
REMARK SMILES Oc1ccc(-c2[o+]c3cc(O)cc(O)c3cc2O)cc1
REMARK SMILES IDX 6 1 7 2 8 3 9 4 10 5 12 6 13 7 15 8 16 9 17 10 5 11 4 12
REMARK SMILES IDX 3 13 2 14 19 15 20 16 1 17 18 19 11 21 14 23
REMARK H PARENT 1 18 18 20 11 22 14 24
REMARK Flexibility Score: inf
ROOT
ATOM      1  C   UNL     1      44.897  30.698  24.777  1.00  0.00     0.401 A 
ATOM      2  O   UNL     1      43.852  30.087  25.328  1.00  0.00    -0.202 OA
ATOM      3  C   UNL     1      43.893  29.503  26.521  1.00  0.00     0.368 A 
ATOM      4  C   UNL     1      42.741  28.889  27.018  1.00  0.00     0.162 A 
ATOM      5  C   UNL     1      42.756  28.270  28.272  1.00  0.00     0.128 A 
ATOM      6  C   UNL     1      43.928  28.267  29.032  1.00  0.00     0.093 A 
ATOM      7  C   UNL     1      45.096  28.876  28.556  1.00  0.00     0.136 A 
ATOM      8  C   UNL     1      45.087  29.503  27.282  1.00  0.00     0.125 A 
ATOM      9  C   UNL     1      46.213  30.126  26.720  1.00  0.00     0.078 A 
ATOM     10  C   UNL     1      46.128  30.719  25.457  1.00  0.00     0.223 A 
ENDROOT
BRANCH   1  11
ATOM     11  C   UNL     1      44.721  31.321  23.444  1.00  0.00     0.084 A 
ATOM     12  C   UNL     1      45.143  30.628  22.297  1.00  0.00     0.022 A 
ATOM     13  C   UNL     1      44.967  31.187  21.028  1.00  0.00     0.047 A 
ATOM     14  C   UNL     1      44.356  32.437  20.887  1.00  0.00     0.115 A 
ATOM     15  C   UNL     1      44.089  32.568  23.295  1.00  0.00     0.022 A 
ATOM     16  C   UNL     1      43.914  33.125  22.024  1.00  0.00     0.047 A 
BRANCH  14  17
ATOM     17  O   UNL     1      44.188  32.982  19.616  1.00  0.00    -0.508 OA
ATOM     18  H   UNL     1      44.425  33.947  19.419  1.00  0.00     0.293 HD
ENDBRANCH  14  17
ENDBRANCH   1  11
BRANCH  10  19
ATOM     19  O   UNL     1      47.259  31.294  24.877  1.00  0.00    -0.500 OA
ATOM     20  H   UNL     1      48.189  31.129  25.244  1.00  0.00     0.294 HD
ENDBRANCH  10  19
BRANCH   5  21
ATOM     21  O   UNL     1      41.611  27.656  28.774  1.00  0.00    -0.507 OA
ATOM     22  H   UNL     1      41.314  27.791  29.733  1.00  0.00     0.293 HD
ENDBRANCH   5  21
BRANCH   7  23
ATOM     23  O   UNL     1      46.225  28.832  29.378  1.00  0.00    -0.507 OA
ATOM     24  H   UNL     1      47.063  28.309  29.169  1.00  0.00     0.293 HD
ENDBRANCH   7  23
TORSDOF 5
ENDMDL
MODEL 6
REMARK VINA RESULT:    -4.508      1.864      6.978
REMARK INTER + INTRA:          -5.616
REMARK INTER:                  -5.414
REMARK INTRA:                  -0.202
REMARK UNBOUND:                -0.318
REMARK SMILES Oc1ccc(-c2[o+]c3cc(O)cc(O)c3cc2O)cc1
REMARK SMILES IDX 6 1 7 2 8 3 9 4 10 5 12 6 13 7 15 8 16 9 17 10 5 11 4 12
REMARK SMILES IDX 3 13 2 14 19 15 20 16 1 17 18 19 11 21 14 23
REMARK H PARENT 1 18 18 20 11 22 14 24
REMARK Flexibility Score: inf
ROOT
ATOM      1  C   UNL     1      45.217  30.196  25.577  1.00  0.00     0.401 A 
ATOM      2  O   UNL     1      43.924  29.987  25.346  1.00  0.00    -0.202 OA
ATOM      3  C   UNL     1      43.246  30.607  24.385  1.00  0.00     0.368 A 
ATOM      4  C   UNL     1      41.889  30.318  24.216  1.00  0.00     0.162 A 
ATOM      5  C   UNL     1      41.153  30.953  23.211  1.00  0.00     0.128 A 
ATOM      6  C   UNL     1      41.775  31.880  22.373  1.00  0.00     0.093 A 
ATOM      7  C   UNL     1      43.134  32.186  22.521  1.00  0.00     0.136 A 
ATOM      8  C   UNL     1      43.886  31.546  23.542  1.00  0.00     0.125 A 
ATOM      9  C   UNL     1      45.247  31.801  23.773  1.00  0.00     0.078 A 
ATOM     10  C   UNL     1      45.920  31.134  24.801  1.00  0.00     0.223 A 
ENDROOT
BRANCH   1  11
ATOM     11  C   UNL     1      45.863  29.435  26.672  1.00  0.00     0.084 A 
ATOM     12  C   UNL     1      45.413  29.605  27.992  1.00  0.00     0.022 A 
ATOM     13  C   UNL     1      45.993  28.882  29.037  1.00  0.00     0.047 A 
ATOM     14  C   UNL     1      47.020  27.969  28.777  1.00  0.00     0.115 A 
ATOM     15  C   UNL     1      46.882  28.501  26.413  1.00  0.00     0.022 A 
ATOM     16  C   UNL     1      47.461  27.777  27.461  1.00  0.00     0.047 A 
BRANCH  14  17
ATOM     17  O   UNL     1      47.590  27.255  29.829  1.00  0.00    -0.508 OA
ATOM     18  H   UNL     1      47.853  27.710  30.695  1.00  0.00     0.293 HD
ENDBRANCH  14  17
ENDBRANCH   1  11
BRANCH  10  19
ATOM     19  O   UNL     1      47.259  31.423  25.063  1.00  0.00    -0.500 OA
ATOM     20  H   UNL     1      47.536  32.006  25.845  1.00  0.00     0.294 HD
ENDBRANCH  10  19
BRANCH   5  21
ATOM     21  O   UNL     1      39.800  30.670  23.037  1.00  0.00    -0.507 OA
ATOM     22  H   UNL     1      39.489  29.920  22.432  1.00  0.00     0.293 HD
ENDBRANCH   5  21
BRANCH   7  23
ATOM     23  O   UNL     1      43.683  33.122  21.640  1.00  0.00    -0.507 OA
ATOM     24  H   UNL     1      44.096  32.892  20.748  1.00  0.00     0.293 HD
ENDBRANCH   7  23
TORSDOF 5
ENDMDL
MODEL 7
REMARK VINA RESULT:    -4.495     12.486     15.546
REMARK INTER + INTRA:          -5.601
REMARK INTER:                  -5.279
REMARK INTRA:                  -0.322
REMARK UNBOUND:                -0.318
REMARK SMILES Oc1ccc(-c2[o+]c3cc(O)cc(O)c3cc2O)cc1
REMARK SMILES IDX 6 1 7 2 8 3 9 4 10 5 12 6 13 7 15 8 16 9 17 10 5 11 4 12
REMARK SMILES IDX 3 13 2 14 19 15 20 16 1 17 18 19 11 21 14 23
REMARK H PARENT 1 18 18 20 11 22 14 24
REMARK Flexibility Score: inf
ROOT
ATOM      1  C   UNL     1      31.544  28.453  27.264  1.00  0.00     0.401 A 
ATOM      2  O   UNL     1      30.583  29.144  26.658  1.00  0.00    -0.202 OA
ATOM      3  C   UNL     1      30.809  30.256  25.967  1.00  0.00     0.368 A 
ATOM      4  C   UNL     1      29.733  30.910  25.360  1.00  0.00     0.162 A 
ATOM      5  C   UNL     1      29.943  32.081  24.624  1.00  0.00     0.128 A 
ATOM      6  C   UNL     1      31.234  32.598  24.494  1.00  0.00     0.093 A 
ATOM      7  C   UNL     1      32.329  31.960  25.091  1.00  0.00     0.136 A 
ATOM      8  C   UNL     1      32.121  30.773  25.842  1.00  0.00     0.125 A 
ATOM      9  C   UNL     1      33.155  30.076  26.485  1.00  0.00     0.078 A 
ATOM     10  C   UNL     1      32.872  28.914  27.211  1.00  0.00     0.223 A 
ENDROOT
BRANCH   1  11
ATOM     11  C   UNL     1      31.166  27.222  27.996  1.00  0.00     0.084 A 
ATOM     12  C   UNL     1      30.735  27.316  29.330  1.00  0.00     0.022 A 
ATOM     13  C   UNL     1      30.353  26.169  30.033  1.00  0.00     0.047 A 
ATOM     14  C   UNL     1      30.382  24.918  29.410  1.00  0.00     0.115 A 
ATOM     15  C   UNL     1      31.175  25.963  27.368  1.00  0.00     0.022 A 
ATOM     16  C   UNL     1      30.791  24.818  28.074  1.00  0.00     0.047 A 
BRANCH  14  17
ATOM     17  O   UNL     1      29.999  23.784  30.123  1.00  0.00    -0.508 OA
ATOM     18  H   UNL     1      29.047  23.439  30.095  1.00  0.00     0.293 HD
ENDBRANCH  14  17
ENDBRANCH   1  11
BRANCH  10  19
ATOM     19  O   UNL     1      33.891  28.249  27.892  1.00  0.00    -0.500 OA
ATOM     20  H   UNL     1      34.145  27.293  27.671  1.00  0.00     0.294 HD
ENDBRANCH  10  19
BRANCH   5  21
ATOM     21  O   UNL     1      28.875  32.738  24.018  1.00  0.00    -0.507 OA
ATOM     22  H   UNL     1      27.939  32.696  24.402  1.00  0.00     0.293 HD
ENDBRANCH   5  21
BRANCH   7  23
ATOM     23  O   UNL     1      33.588  32.539  24.910  1.00  0.00    -0.507 OA
ATOM     24  H   UNL     1      33.976  32.792  24.013  1.00  0.00     0.293 HD
ENDBRANCH   7  23
TORSDOF 5
ENDMDL
MODEL 8
REMARK VINA RESULT:    -4.483     10.270     12.472
REMARK INTER + INTRA:          -5.587
REMARK INTER:                  -5.298
REMARK INTRA:                  -0.289
REMARK UNBOUND:                -0.318
REMARK SMILES Oc1ccc(-c2[o+]c3cc(O)cc(O)c3cc2O)cc1
REMARK SMILES IDX 6 1 7 2 8 3 9 4 10 5 12 6 13 7 15 8 16 9 17 10 5 11 4 12
REMARK SMILES IDX 3 13 2 14 19 15 20 16 1 17 18 19 11 21 14 23
REMARK H PARENT 1 18 18 20 11 22 14 24
REMARK Flexibility Score: inf
ROOT
ATOM      1  C   UNL     1      34.319  31.909  24.105  1.00  0.00     0.401 A 
ATOM      2  O   UNL     1      33.739  31.377  25.177  1.00  0.00    -0.202 OA
ATOM      3  C   UNL     1      32.423  31.344  25.355  1.00  0.00     0.368 A 
ATOM      4  C   UNL     1      31.907  30.758  26.514  1.00  0.00     0.162 A 
ATOM      5  C   UNL     1      30.525  30.708  26.724  1.00  0.00     0.128 A 
ATOM      6  C   UNL     1      29.657  31.245  25.771  1.00  0.00     0.093 A 
ATOM      7  C   UNL     1      30.149  31.836  24.601  1.00  0.00     0.136 A 
ATOM      8  C   UNL     1      31.551  31.893  24.384  1.00  0.00     0.125 A 
ATOM      9  C   UNL     1      32.133  32.478  23.248  1.00  0.00     0.078 A 
ATOM     10  C   UNL     1      33.524  32.500  23.106  1.00  0.00     0.223 A 
ENDROOT
BRANCH   1  11
ATOM     11  C   UNL     1      35.797  31.875  24.019  1.00  0.00     0.084 A 
ATOM     12  C   UNL     1      36.420  30.922  23.195  1.00  0.00     0.022 A 
ATOM     13  C   UNL     1      37.812  30.885  23.083  1.00  0.00     0.047 A 
ATOM     14  C   UNL     1      38.600  31.808  23.778  1.00  0.00     0.115 A 
ATOM     15  C   UNL     1      36.593  32.813  24.701  1.00  0.00     0.022 A 
ATOM     16  C   UNL     1      37.987  32.775  24.585  1.00  0.00     0.047 A 
BRANCH  14  17
ATOM     17  O   UNL     1      39.987  31.759  23.657  1.00  0.00    -0.508 OA
ATOM     18  H   UNL     1      40.594  32.167  24.358  1.00  0.00     0.293 HD
ENDBRANCH  14  17
ENDBRANCH   1  11
BRANCH  10  19
ATOM     19  O   UNL     1      34.105  33.125  22.003  1.00  0.00    -0.500 OA
ATOM     20  H   UNL     1      33.552  33.653  21.337  1.00  0.00     0.294 HD
ENDBRANCH  10  19
BRANCH   5  21
ATOM     21  O   UNL     1      30.004  30.126  27.877  1.00  0.00    -0.507 OA
ATOM     22  H   UNL     1      30.552  29.489  28.444  1.00  0.00     0.293 HD
ENDBRANCH   5  21
BRANCH   7  23
ATOM     23  O   UNL     1      29.214  32.346  23.696  1.00  0.00    -0.507 OA
ATOM     24  H   UNL     1      28.850  33.287  23.721  1.00  0.00     0.293 HD
ENDBRANCH   7  23
TORSDOF 5
ENDMDL
MODEL 9
REMARK VINA RESULT:    -3.891      2.071      6.812
REMARK INTER + INTRA:          -4.891
REMARK INTER:                  -4.629
REMARK INTRA:                  -0.262
REMARK UNBOUND:                -0.318
REMARK SMILES Oc1ccc(-c2[o+]c3cc(O)cc(O)c3cc2O)cc1
REMARK SMILES IDX 6 1 7 2 8 3 9 4 10 5 12 6 13 7 15 8 16 9 17 10 5 11 4 12
REMARK SMILES IDX 3 13 2 14 19 15 20 16 1 17 18 19 11 21 14 23
REMARK H PARENT 1 18 18 20 11 22 14 24
REMARK Flexibility Score: inf
ROOT
ATOM      1  C   UNL     1      46.323  29.684  25.597  1.00  0.00     0.401 A 
ATOM      2  O   UNL     1      46.998  29.423  24.481  1.00  0.00    -0.202 OA
ATOM      3  C   UNL     1      46.881  30.145  23.371  1.00  0.00     0.368 A 
ATOM      4  C   UNL     1      47.636  29.795  22.249  1.00  0.00     0.162 A 
ATOM      5  C   UNL     1      47.534  30.540  21.070  1.00  0.00     0.128 A 
ATOM      6  C   UNL     1      46.674  31.639  21.013  1.00  0.00     0.093 A 
ATOM      7  C   UNL     1      45.907  32.011  22.125  1.00  0.00     0.136 A 
ATOM      8  C   UNL     1      46.005  31.257  23.324  1.00  0.00     0.125 A 
ATOM      9  C   UNL     1      45.265  31.548  24.481  1.00  0.00     0.078 A 
ATOM     10  C   UNL     1      45.412  30.755  25.624  1.00  0.00     0.223 A 
ENDROOT
BRANCH   1  11
ATOM     11  C   UNL     1      46.549  28.811  26.772  1.00  0.00     0.084 A 
ATOM     12  C   UNL     1      46.093  27.482  26.743  1.00  0.00     0.022 A 
ATOM     13  C   UNL     1      46.314  26.634  27.832  1.00  0.00     0.047 A 
ATOM     14  C   UNL     1      47.006  27.096  28.956  1.00  0.00     0.115 A 
ATOM     15  C   UNL     1      47.261  29.264  27.896  1.00  0.00     0.022 A 
ATOM     16  C   UNL     1      47.482  28.413  28.984  1.00  0.00     0.047 A 
BRANCH  14  17
ATOM     17  O   UNL     1      47.218  26.239  30.034  1.00  0.00    -0.508 OA
ATOM     18  H   UNL     1      48.010  25.608  30.059  1.00  0.00     0.293 HD
ENDBRANCH  14  17
ENDBRANCH   1  11
BRANCH  10  19
ATOM     19  O   UNL     1      44.641  31.013  26.757  1.00  0.00    -0.500 OA
ATOM     20  H   UNL     1      43.759  30.542  26.920  1.00  0.00     0.294 HD
ENDBRANCH  10  19
BRANCH   5  21
ATOM     21  O   UNL     1      48.283  30.197  19.947  1.00  0.00    -0.507 OA
ATOM     22  H   UNL     1      49.033  30.788  19.609  1.00  0.00     0.293 HD
ENDBRANCH   5  21
BRANCH   7  23
ATOM     23  O   UNL     1      45.074  33.125  21.989  1.00  0.00    -0.507 OA
ATOM     24  H   UNL     1      44.181  33.115  21.519  1.00  0.00     0.293 HD
ENDBRANCH   7  23
TORSDOF 5
ENDMDL
