MODEL 1
REMARK VINA RESULT:    62.092      0.000      0.000
REMARK INTER + INTRA:         141.770
REMARK INTER:                 131.061
REMARK INTRA:                  10.710
REMARK UNBOUND:                10.710
REMARK SMILES CCC(=O)CCCCC[C@@H]1NC(=O)[C@H]2CCCCN2C(=O)[C@@H]([C@@H](C)CC)NC(=O)[C@@H](Cc2cn(OC)c3ccccc23)NC1=O
REMARK SMILES IDX 9 1 10 2 44 3 43 4 45 6 30 7 28 8 27 9 29 11 22 12 23 14
REMARK SMILES IDX 24 15 25 16 26 17 31 18 32 19 33 20 42 21 34 22 37 23 41 24
REMARK SMILES IDX 38 25 40 26 39 27 35 28 36 29 11 30 12 31 13 33 14 34 19 35
REMARK SMILES IDX 15 36 18 37 16 38 17 39 20 40 21 41 8 43 7 44 6 45 5 46 3 47
REMARK SMILES IDX 4 48 2 49 1 50
REMARK H PARENT 43 5 27 10 11 32
REMARK Flexibility Score: 80.00
ROOT
ATOM      1  C   UNL     1     -30.498  12.759  17.539  1.00  0.00     0.035 C 
ENDROOT
BRANCH   1   2
ATOM      2  C   UNL     1     -31.946  12.758  17.005  1.00  0.00     0.171 C 
BRANCH   2   3
ATOM      3  C   UNL     1     -32.878  12.086  17.978  1.00  0.00     0.243 C 
ATOM      4  N   UNL     1     -32.447  11.795  19.321  1.00  0.00    -0.342 N 
ATOM      5  H   UNL     1     -31.430  11.909  19.533  1.00  0.00     0.164 HD
ATOM      6  O   UNL     1     -34.036  11.776  17.594  1.00  0.00    -0.273 OA
BRANCH   4   7
ATOM      7  C   UNL     1     -33.317  11.630  20.493  1.00  0.00     0.175 C 
BRANCH   7   8
ATOM      8  C   UNL     1     -34.384  12.694  20.503  1.00  0.00     0.243 C 
ATOM      9  N   UNL     1     -34.763  13.378  19.298  1.00  0.00    -0.342 N 
ATOM     10  H   UNL     1     -34.522  12.951  18.374  1.00  0.00     0.164 HD
ATOM     11  O   UNL     1     -34.931  12.997  21.599  1.00  0.00    -0.273 OA
BRANCH   9  12
ATOM     12  C   UNL     1     -35.485  14.653  19.313  1.00  0.00     0.174 CG0
ATOM     13  G   UNL     1     -34.463  15.765  19.287  1.00  0.00     0.000 G0
BRANCH  12  14
ATOM     14  C   UNL     1     -36.475  14.738  18.114  1.00  0.00     0.018 C 
ATOM     15  C   UNL     1     -37.091  13.368  17.783  1.00  0.00     0.010 C 
BRANCH  14  16
ATOM     16  C   UNL     1     -37.574  15.817  18.310  1.00  0.00     0.002 C 
ATOM     17  C   UNL     1     -38.819  15.337  19.064  1.00  0.00     0.004 C 
ENDBRANCH  14  16
ENDBRANCH  12  14
ENDBRANCH   9  12
ENDBRANCH   7   8
BRANCH   7  18
ATOM     18  C   UNL     1     -33.886  10.201  20.629  1.00  0.00     0.073 C 
BRANCH  18  19
ATOM     19  C   UNL     1     -34.096   9.829  22.069  1.00  0.00    -0.016 A 
ATOM     20  C   UNL     1     -33.987  10.681  23.166  1.00  0.00     0.134 A 
ATOM     21  C   UNL     1     -34.342   8.569  22.593  1.00  0.00     0.006 A 
ATOM     22  N   UNL     1     -34.152   9.977  24.311  1.00  0.00    -0.191 N 
ATOM     23  C   UNL     1     -34.367   8.700  23.959  1.00  0.00     0.087 A 
ATOM     24  C   UNL     1     -34.535   7.336  21.972  1.00  0.00     0.011 A 
ATOM     25  C   UNL     1     -34.573   7.604  24.799  1.00  0.00     0.030 A 
ATOM     26  C   UNL     1     -34.747   6.212  22.793  1.00  0.00     0.001 A 
ATOM     27  C   UNL     1     -34.764   6.346  24.199  1.00  0.00     0.002 A 
BRANCH  22  28
ATOM     28  O   UNL     1     -34.090  10.452  25.608  1.00  0.00    -0.417 OA
ATOM     29  C   UNL     1     -32.864  10.539  26.329  1.00  0.00     0.313 C 
ENDBRANCH  22  28
ENDBRANCH  18  19
ENDBRANCH   7  18
ENDBRANCH   4   7
ENDBRANCH   2   3
BRANCH   2  30
ATOM     30  N   UNL     1     -32.414  14.125  16.755  1.00  0.00    -0.343 N 
ATOM     31  C   UNL     1     -33.802  14.487  16.808  1.00  0.00     0.243 C 
ATOM     32  H   UNL     1     -31.704  14.891  16.712  1.00  0.00     0.164 HD
ATOM     33  O   UNL     1     -34.688  13.592  16.875  1.00  0.00    -0.273 OA
BRANCH  31  34
ATOM     34  C   UNL     1     -34.195  15.948  16.821  1.00  0.00     0.174 C 
ATOM     35  N   UNL     1     -34.176  16.533  18.175  1.00  0.00    -0.329 N 
ATOM     36  C   UNL     1     -35.572  16.208  16.183  1.00  0.00     0.035 C 
ATOM     37  C   UNL     1     -34.396  17.981  18.227  1.00  0.00     0.120 C 
ATOM     38  C   UNL     1     -35.889  17.714  16.199  1.00  0.00     0.004 C 
ATOM     39  C   UNL     1     -35.764  18.305  17.615  1.00  0.00     0.022 C 
BRANCH  35  40
ATOM     40  C   UNL     1     -34.513  15.757  19.343  1.00  0.00     0.246 CG0
ATOM     41  O   UNL     1     -34.063  16.097  20.471  1.00  0.00    -0.272 OA
ATOM     42  G   UNL     1     -35.464  14.588  19.240  1.00  0.00     0.000 G0
ENDBRANCH  35  40
ENDBRANCH  31  34
ENDBRANCH   2  30
ENDBRANCH   1   2
BRANCH   1  43
ATOM     43  C   UNL     1     -29.466  13.295  16.528  1.00  0.00     0.003 C 
BRANCH  43  44
ATOM     44  C   UNL     1     -28.037  13.468  17.078  1.00  0.00     0.001 C 
BRANCH  44  45
ATOM     45  C   UNL     1     -27.624  14.919  17.384  1.00  0.00     0.008 C 
BRANCH  45  46
ATOM     46  C   UNL     1     -26.219  15.026  17.995  1.00  0.00     0.075 C 
BRANCH  46  47
ATOM     47  C   UNL     1     -26.232  15.921  19.207  1.00  0.00     0.132 C 
ATOM     48  O   UNL     1     -26.346  17.131  19.060  1.00  0.00    -0.300 OA
BRANCH  47  49
ATOM     49  C   UNL     1     -26.095  15.353  20.594  1.00  0.00     0.072 C 
ATOM     50  C   UNL     1     -27.256  15.799  21.475  1.00  0.00     0.012 C 
ENDBRANCH  47  49
ENDBRANCH  46  47
ENDBRANCH  45  46
ENDBRANCH  44  45
ENDBRANCH  43  44
ENDBRANCH   1  43
TORSDOF 12
ENDMDL
MODEL 2
REMARK VINA RESULT:    62.618      1.044      1.811
REMARK INTER + INTRA:         142.881
REMARK INTER:                 134.597
REMARK INTRA:                   8.284
REMARK UNBOUND:                10.710
REMARK SMILES CCC(=O)CCCCC[C@@H]1NC(=O)[C@H]2CCCCN2C(=O)[C@@H]([C@@H](C)CC)NC(=O)[C@@H](Cc2cn(OC)c3ccccc23)NC1=O
REMARK SMILES IDX 9 1 10 2 44 3 43 4 45 6 30 7 28 8 27 9 29 11 22 12 23 14
REMARK SMILES IDX 24 15 25 16 26 17 31 18 32 19 33 20 42 21 34 22 37 23 41 24
REMARK SMILES IDX 38 25 40 26 39 27 35 28 36 29 11 30 12 31 13 33 14 34 19 35
REMARK SMILES IDX 15 36 18 37 16 38 17 39 20 40 21 41 8 43 7 44 6 45 5 46 3 47
REMARK SMILES IDX 4 48 2 49 1 50
REMARK H PARENT 43 5 27 10 11 32
REMARK Flexibility Score: 80.00
ROOT
ATOM      1  C   UNL     1     -30.526  13.123  17.704  1.00  0.00     0.035 C 
ENDROOT
BRANCH   1   2
ATOM      2  C   UNL     1     -31.895  12.900  17.027  1.00  0.00     0.171 C 
BRANCH   2   3
ATOM      3  C   UNL     1     -32.821  12.128  17.928  1.00  0.00     0.243 C 
ATOM      4  N   UNL     1     -32.525  11.984  19.330  1.00  0.00    -0.342 N 
ATOM      5  H   UNL     1     -31.578  12.283  19.653  1.00  0.00     0.164 HD
ATOM      6  O   UNL     1     -33.852  11.602  17.432  1.00  0.00    -0.273 OA
BRANCH   4   7
ATOM      7  C   UNL     1     -33.501  11.730  20.399  1.00  0.00     0.175 C 
BRANCH   7   8
ATOM      8  C   UNL     1     -34.426  12.910  20.549  1.00  0.00     0.243 C 
ATOM      9  N   UNL     1     -34.955  13.591  19.401  1.00  0.00    -0.342 N 
ATOM     10  H   UNL     1     -34.943  13.108  18.473  1.00  0.00     0.164 HD
ATOM     11  O   UNL     1     -34.716  13.312  21.710  1.00  0.00    -0.273 OA
BRANCH   9  12
ATOM     12  C   UNL     1     -35.520  14.941  19.479  1.00  0.00     0.174 CG0
ATOM     13  G   UNL     1     -34.413  15.925  19.185  1.00  0.00     0.000 G0
BRANCH  12  14
ATOM     14  C   UNL     1     -36.719  15.093  18.496  1.00  0.00     0.018 C 
ATOM     15  C   UNL     1     -37.272  13.728  18.055  1.00  0.00     0.010 C 
BRANCH  14  16
ATOM     16  C   UNL     1     -37.846  16.005  19.051  1.00  0.00     0.002 C 
ATOM     17  C   UNL     1     -39.245  15.704  18.502  1.00  0.00     0.004 C 
ENDBRANCH  14  16
ENDBRANCH  12  14
ENDBRANCH   9  12
ENDBRANCH   7   8
BRANCH   7  18
ATOM     18  C   UNL     1     -34.250  10.391  20.230  1.00  0.00     0.073 C 
BRANCH  18  19
ATOM     19  C   UNL     1     -34.158   9.551  21.473  1.00  0.00    -0.016 A 
ATOM     20  C   UNL     1     -34.181   8.160  21.532  1.00  0.00     0.134 A 
ATOM     21  C   UNL     1     -34.127   9.984  22.790  1.00  0.00     0.006 A 
ATOM     22  N   UNL     1     -34.172   7.755  22.824  1.00  0.00    -0.191 N 
ATOM     23  C   UNL     1     -34.139   8.863  23.581  1.00  0.00     0.087 A 
ATOM     24  C   UNL     1     -34.098  11.266  23.336  1.00  0.00     0.011 A 
ATOM     25  C   UNL     1     -34.135   8.947  24.975  1.00  0.00     0.030 A 
ATOM     26  C   UNL     1     -34.093  11.382  24.739  1.00  0.00     0.001 A 
ATOM     27  C   UNL     1     -34.113  10.228  25.554  1.00  0.00     0.002 A 
BRANCH  22  28
ATOM     28  O   UNL     1     -34.214   6.458  23.301  1.00  0.00    -0.417 OA
ATOM     29  C   UNL     1     -35.303   5.968  24.078  1.00  0.00     0.313 C 
ENDBRANCH  22  28
ENDBRANCH  18  19
ENDBRANCH   7  18
ENDBRANCH   4   7
ENDBRANCH   2   3
BRANCH   2  30
ATOM     30  N   UNL     1     -32.520  14.179  16.675  1.00  0.00    -0.343 N 
ATOM     31  C   UNL     1     -33.939  14.385  16.733  1.00  0.00     0.243 C 
ATOM     32  H   UNL     1     -31.904  15.013  16.550  1.00  0.00     0.164 HD
ATOM     33  O   UNL     1     -34.716  13.404  16.897  1.00  0.00    -0.273 OA
BRANCH  31  34
ATOM     34  C   UNL     1     -34.497  15.788  16.633  1.00  0.00     0.174 C 
ATOM     35  N   UNL     1     -34.366  16.545  17.891  1.00  0.00    -0.329 N 
ATOM     36  C   UNL     1     -35.969  15.821  16.180  1.00  0.00     0.035 C 
ATOM     37  C   UNL     1     -34.747  17.959  17.806  1.00  0.00     0.120 C 
ATOM     38  C   UNL     1     -36.457  17.276  16.067  1.00  0.00     0.004 C 
ATOM     39  C   UNL     1     -36.213  18.059  17.370  1.00  0.00     0.022 C 
BRANCH  35  40
ATOM     40  C   UNL     1     -34.449  15.902  19.179  1.00  0.00     0.246 CG0
ATOM     41  O   UNL     1     -33.665  16.250  20.104  1.00  0.00    -0.272 OA
ATOM     42  G   UNL     1     -35.517  14.870  19.455  1.00  0.00     0.000 G0
ENDBRANCH  35  40
ENDBRANCH  31  34
ENDBRANCH   2  30
ENDBRANCH   1   2
BRANCH   1  43
ATOM     43  C   UNL     1     -29.326  12.745  16.814  1.00  0.00     0.003 C 
BRANCH  43  44
ATOM     44  C   UNL     1     -28.757  13.891  15.956  1.00  0.00     0.001 C 
BRANCH  44  45
ATOM     45  C   UNL     1     -27.694  14.762  16.648  1.00  0.00     0.008 C 
BRANCH  45  46
ATOM     46  C   UNL     1     -27.486  14.397  18.125  1.00  0.00     0.075 C 
BRANCH  46  47
ATOM     47  C   UNL     1     -26.508  15.339  18.775  1.00  0.00     0.132 C 
ATOM     48  O   UNL     1     -25.990  16.224  18.106  1.00  0.00    -0.300 OA
BRANCH  47  49
ATOM     49  C   UNL     1     -26.147  15.203  20.230  1.00  0.00     0.072 C 
ATOM     50  C   UNL     1     -26.497  16.476  20.993  1.00  0.00     0.012 C 
ENDBRANCH  47  49
ENDBRANCH  46  47
ENDBRANCH  45  46
ENDBRANCH  44  45
ENDBRANCH  43  44
ENDBRANCH   1  43
TORSDOF 12
ENDMDL
MODEL 3
REMARK VINA RESULT:    65.014      3.072      8.863
REMARK INTER + INTRA:         147.938
REMARK INTER:                 147.793
REMARK INTRA:                   0.144
REMARK UNBOUND:                10.710
REMARK SMILES CCC(=O)CCCCC[C@@H]1NC(=O)[C@H]2CCCCN2C(=O)[C@@H]([C@@H](C)CC)NC(=O)[C@@H](Cc2cn(OC)c3ccccc23)NC1=O
REMARK SMILES IDX 9 1 10 2 44 3 43 4 45 6 30 7 28 8 27 9 29 11 22 12 23 14
REMARK SMILES IDX 24 15 25 16 26 17 31 18 32 19 33 20 42 21 34 22 37 23 41 24
REMARK SMILES IDX 38 25 40 26 39 27 35 28 36 29 11 30 12 31 13 33 14 34 19 35
REMARK SMILES IDX 15 36 18 37 16 38 17 39 20 40 21 41 8 43 7 44 6 45 5 46 3 47
REMARK SMILES IDX 4 48 2 49 1 50
REMARK H PARENT 43 5 27 10 11 32
REMARK Flexibility Score: 80.00
ROOT
ATOM      1  C   UNL     1     -34.407  13.848  21.810  1.00  0.00     0.035 C 
ENDROOT
BRANCH   1   2
ATOM      2  C   UNL     1     -34.708  12.388  22.208  1.00  0.00     0.171 C 
BRANCH   2   3
ATOM      3  C   UNL     1     -34.285  11.435  21.122  1.00  0.00     0.243 C 
ATOM      4  N   UNL     1     -32.919  10.988  21.035  1.00  0.00    -0.342 N 
ATOM      5  H   UNL     1     -32.216  11.474  21.635  1.00  0.00     0.164 HD
ATOM      6  O   UNL     1     -35.143  11.045  20.287  1.00  0.00    -0.273 OA
BRANCH   4   7
ATOM      7  C   UNL     1     -32.454   9.742  20.409  1.00  0.00     0.175 C 
BRANCH   7   8
ATOM      8  C   UNL     1     -32.867   8.556  21.241  1.00  0.00     0.243 C 
ATOM      9  N   UNL     1     -33.810   8.694  22.316  1.00  0.00    -0.342 N 
ATOM     10  H   UNL     1     -34.429   9.537  22.344  1.00  0.00     0.164 HD
ATOM     11  O   UNL     1     -32.351   7.431  20.996  1.00  0.00    -0.273 OA
BRANCH   9  12
ATOM     12  C   UNL     1     -33.944   7.693  23.377  1.00  0.00     0.174 CG0
ATOM     13  G   UNL     1     -34.312   8.414  24.652  1.00  0.00     0.000 G0
BRANCH  12  14
ATOM     14  C   UNL     1     -34.998   6.616  22.987  1.00  0.00     0.018 C 
ATOM     15  C   UNL     1     -35.293   5.655  24.151  1.00  0.00     0.010 C 
BRANCH  14  16
ATOM     16  C   UNL     1     -36.306   7.227  22.415  1.00  0.00     0.002 C 
ATOM     17  C   UNL     1     -37.037   6.345  21.397  1.00  0.00     0.004 C 
ENDBRANCH  14  16
ENDBRANCH  12  14
ENDBRANCH   9  12
ENDBRANCH   7   8
BRANCH   7  18
ATOM     18  C   UNL     1     -32.871   9.616  18.927  1.00  0.00     0.073 C 
BRANCH  18  19
ATOM     19  C   UNL     1     -32.534  10.860  18.155  1.00  0.00    -0.016 A 
ATOM     20  C   UNL     1     -31.280  11.459  18.062  1.00  0.00     0.134 A 
ATOM     21  C   UNL     1     -33.403  11.696  17.473  1.00  0.00     0.006 A 
ATOM     22  N   UNL     1     -31.374  12.613  17.360  1.00  0.00    -0.191 N 
ATOM     23  C   UNL     1     -32.662  12.752  17.005  1.00  0.00     0.087 A 
ATOM     24  C   UNL     1     -34.776  11.606  17.241  1.00  0.00     0.011 A 
ATOM     25  C   UNL     1     -33.243  13.798  16.285  1.00  0.00     0.030 A 
ATOM     26  C   UNL     1     -35.389  12.645  16.516  1.00  0.00     0.001 A 
ATOM     27  C   UNL     1     -34.627  13.736  16.043  1.00  0.00     0.002 A 
BRANCH  22  28
ATOM     28  O   UNL     1     -30.362  13.509  17.072  1.00  0.00    -0.417 OA
ATOM     29  C   UNL     1     -29.095  13.092  16.573  1.00  0.00     0.313 C 
ENDBRANCH  22  28
ENDBRANCH  18  19
ENDBRANCH   7  18
ENDBRANCH   4   7
ENDBRANCH   2   3
BRANCH   2  30
ATOM     30  N   UNL     1     -34.022  12.033  23.455  1.00  0.00    -0.343 N 
ATOM     31  C   UNL     1     -34.642  11.236  24.476  1.00  0.00     0.243 C 
ATOM     32  H   UNL     1     -32.996  12.215  23.524  1.00  0.00     0.164 HD
ATOM     33  O   UNL     1     -35.876  10.983  24.420  1.00  0.00    -0.273 OA
BRANCH  31  34
ATOM     34  C   UNL     1     -33.800  10.672  25.599  1.00  0.00     0.174 C 
ATOM     35  N   UNL     1     -33.439   9.258  25.388  1.00  0.00    -0.329 N 
ATOM     36  C   UNL     1     -34.463  10.818  26.982  1.00  0.00     0.035 C 
ATOM     37  C   UNL     1     -32.496   8.706  26.366  1.00  0.00     0.120 C 
ATOM     38  C   UNL     1     -33.537  10.257  28.076  1.00  0.00     0.004 C 
ATOM     39  C   UNL     1     -33.106   8.812  27.768  1.00  0.00     0.022 C 
BRANCH  35  40
ATOM     40  C   UNL     1     -34.323   8.341  24.712  1.00  0.00     0.246 CG0
ATOM     41  O   UNL     1     -35.456   8.085  25.205  1.00  0.00    -0.272 OA
ATOM     42  G   UNL     1     -33.938   7.746  23.378  1.00  0.00     0.000 G0
ENDBRANCH  35  40
ENDBRANCH  31  34
ENDBRANCH   2  30
ENDBRANCH   1   2
BRANCH   1  43
ATOM     43  C   UNL     1     -34.655  14.147  20.318  1.00  0.00     0.003 C 
BRANCH  43  44
ATOM     44  C   UNL     1     -35.453  15.432  20.029  1.00  0.00     0.001 C 
BRANCH  44  45
ATOM     45  C   UNL     1     -35.002  16.217  18.785  1.00  0.00     0.008 C 
BRANCH  45  46
ATOM     46  C   UNL     1     -36.164  16.913  18.061  1.00  0.00     0.075 C 
BRANCH  46  47
ATOM     47  C   UNL     1     -37.279  15.939  17.783  1.00  0.00     0.132 C 
ATOM     48  O   UNL     1     -37.312  15.352  16.710  1.00  0.00    -0.300 OA
BRANCH  47  49
ATOM     49  C   UNL     1     -38.361  15.686  18.799  1.00  0.00     0.072 C 
ATOM     50  C   UNL     1     -39.694  16.245  18.315  1.00  0.00     0.012 C 
ENDBRANCH  47  49
ENDBRANCH  46  47
ENDBRANCH  45  46
ENDBRANCH  44  45
ENDBRANCH  43  44
ENDBRANCH   1  43
TORSDOF 12
ENDMDL
