MODEL 1
REMARK VINA RESULT:    -7.305      0.000      0.000
REMARK INTER + INTRA:         -12.206
REMARK INTER:                 -10.080
REMARK INTRA:                  -2.126
REMARK UNBOUND:                -2.126
REMARK SMILES CC[C@@H](CC[C@H](C)[C@H]1CC[C@H]2[C@H]3CC=C4C[C@@H](O)CC[C@]4(C)[C@H]3CC[C@@]12C)C(C)C
REMARK SMILES IDX 5 1 4 2 3 3 2 4 1 5 28 6 29 7 30 8 6 9 7 10 8 11 9 12 26 13
REMARK SMILES IDX 10 14 11 15 25 16 27 17 12 18 24 19 23 20 13 21 21 22 14 23
REMARK SMILES IDX 15 24 20 25 22 26 16 27 19 28 17 29 18 30
REMARK H PARENT 18 31
REMARK Flexibility Score: inf
ROOT
ATOM      1  C   UNL     1      55.140 -33.805  -6.406  1.00  0.00     0.004 C 
ENDROOT
BRANCH   1   2
ATOM      2  C   UNL     1      55.841 -32.459  -6.697  1.00  0.00     0.004 C 
BRANCH   2   3
ATOM      3  C   UNL     1      55.101 -31.583  -7.748  1.00  0.00    -0.009 C 
BRANCH   3   4
ATOM      4  C   UNL     1      54.621 -30.229  -7.139  1.00  0.00     0.000 C 
ATOM      5  C   UNL     1      55.667 -29.450  -6.330  1.00  0.00     0.004 C 
ENDBRANCH   3   4
BRANCH   3   6
ATOM      6  C   UNL     1      54.005 -32.352  -8.566  1.00  0.00    -0.014 C 
ATOM      7  C   UNL     1      54.487 -32.715  -9.982  1.00  0.00     0.007 C 
ATOM      8  C   UNL     1      52.651 -31.633  -8.641  1.00  0.00     0.007 C 
ENDBRANCH   3   6
ENDBRANCH   2   3
ENDBRANCH   1   2
BRANCH   1   9
ATOM      9  C   UNL     1      54.580 -33.915  -4.958  1.00  0.00    -0.011 C 
ATOM     10  C   UNL     1      53.446 -34.965  -4.906  1.00  0.00     0.008 C 
BRANCH   9  11
ATOM     11  C   UNL     1      54.159 -32.492  -4.423  1.00  0.00    -0.002 C 
ATOM     12  C   UNL     1      52.670 -32.165  -4.464  1.00  0.00     0.005 C 
ATOM     13  C   UNL     1      54.633 -32.066  -2.996  1.00  0.00    -0.026 C 
ATOM     14  C   UNL     1      52.568 -30.847  -3.717  1.00  0.00     0.005 C 
ATOM     15  C   UNL     1      53.670 -30.879  -2.635  1.00  0.00    -0.001 C 
ATOM     16  C   UNL     1      54.519 -33.210  -1.954  1.00  0.00     0.007 C 
ATOM     17  C   UNL     1      56.112 -31.601  -3.073  1.00  0.00     0.012 C 
ATOM     18  C   UNL     1      53.151 -30.835  -1.154  1.00  0.00     0.000 C 
ATOM     19  C   UNL     1      54.681 -32.758  -0.487  1.00  0.00     0.005 C 
ATOM     20  C   UNL     1      54.272 -31.281  -0.189  1.00  0.00     0.003 C 
ATOM     21  C   UNL     1      51.848 -31.609  -0.839  1.00  0.00     0.031 C 
ATOM     22  C   UNL     1      53.891 -31.019   1.323  1.00  0.00    -0.008 C 
ATOM     23  C   UNL     1      51.532 -31.628   0.634  1.00  0.00    -0.027 C 
ATOM     24  C   UNL     1      52.436 -31.400   1.612  1.00  0.00    -0.065 C 
ATOM     25  C   UNL     1      54.045 -29.499   1.661  1.00  0.00     0.014 C 
ATOM     26  C   UNL     1      54.851 -31.818   2.253  1.00  0.00     0.016 C 
ATOM     27  C   UNL     1      51.927 -31.119   3.009  1.00  0.00     0.063 C 
ATOM     28  C   UNL     1      53.495 -29.105   3.054  1.00  0.00     0.033 C 
ATOM     29  C   UNL     1      52.052 -29.607   3.275  1.00  0.00     0.118 C 
BRANCH  29  30
ATOM     30  O   UNL     1      51.609 -29.290   4.571  1.00  0.00    -0.393 OA
ATOM     31  H   UNL     1      52.352 -28.822   5.035  1.00  0.00     0.210 HD
ENDBRANCH  29  30
ENDBRANCH   9  11
ENDBRANCH   1   9
TORSDOF 7
ENDMDL
MODEL 2
REMARK VINA RESULT:    -7.219      3.757      7.244
REMARK INTER + INTRA:         -12.087
REMARK INTER:                 -10.160
REMARK INTRA:                  -1.927
REMARK UNBOUND:                -2.126
REMARK SMILES CC[C@@H](CC[C@H](C)[C@H]1CC[C@H]2[C@H]3CC=C4C[C@@H](O)CC[C@]4(C)[C@H]3CC[C@@]12C)C(C)C
REMARK SMILES IDX 5 1 4 2 3 3 2 4 1 5 28 6 29 7 30 8 6 9 7 10 8 11 9 12 26 13
REMARK SMILES IDX 10 14 11 15 25 16 27 17 12 18 24 19 23 20 13 21 21 22 14 23
REMARK SMILES IDX 15 24 20 25 22 26 16 27 19 28 17 29 18 30
REMARK H PARENT 18 31
REMARK Flexibility Score: inf
ROOT
ATOM      1  C   UNL     1      54.402 -29.758  -0.855  1.00  0.00     0.004 C 
ENDROOT
BRANCH   1   2
ATOM      2  C   UNL     1      55.064 -31.144  -1.017  1.00  0.00     0.004 C 
BRANCH   2   3
ATOM      3  C   UNL     1      54.045 -32.313  -1.129  1.00  0.00    -0.009 C 
BRANCH   3   4
ATOM      4  C   UNL     1      52.576 -31.796  -1.223  1.00  0.00     0.000 C 
ATOM      5  C   UNL     1      51.918 -31.895  -2.606  1.00  0.00     0.004 C 
ENDBRANCH   3   4
BRANCH   3   6
ATOM      6  C   UNL     1      54.263 -33.456  -0.077  1.00  0.00    -0.014 C 
ATOM      7  C   UNL     1      54.537 -34.816  -0.746  1.00  0.00     0.007 C 
ATOM      8  C   UNL     1      53.132 -33.597   0.950  1.00  0.00     0.007 C 
ENDBRANCH   3   6
ENDBRANCH   2   3
ENDBRANCH   1   2
BRANCH   1   9
ATOM      9  C   UNL     1      54.567 -29.152   0.570  1.00  0.00    -0.011 C 
ATOM     10  C   UNL     1      56.053 -29.195   0.995  1.00  0.00     0.008 C 
BRANCH   9  11
ATOM     11  C   UNL     1      53.591 -29.863   1.585  1.00  0.00    -0.002 C 
ATOM     12  C   UNL     1      54.241 -30.557   2.777  1.00  0.00     0.005 C 
ATOM     13  C   UNL     1      52.413 -29.032   2.186  1.00  0.00    -0.026 C 
ATOM     14  C   UNL     1      53.064 -30.958   3.648  1.00  0.00     0.005 C 
ATOM     15  C   UNL     1      51.988 -29.867   3.446  1.00  0.00    -0.001 C 
ATOM     16  C   UNL     1      52.830 -27.593   2.588  1.00  0.00     0.007 C 
ATOM     17  C   UNL     1      51.268 -28.950   1.141  1.00  0.00     0.012 C 
ATOM     18  C   UNL     1      51.624 -29.043   4.732  1.00  0.00     0.000 C 
ATOM     19  C   UNL     1      51.797 -26.846   3.457  1.00  0.00     0.005 C 
ATOM     20  C   UNL     1      50.877 -27.750   4.337  1.00  0.00     0.003 C 
ATOM     21  C   UNL     1      52.782 -28.703   5.703  1.00  0.00     0.031 C 
ATOM     22  C   UNL     1      50.269 -27.009   5.594  1.00  0.00    -0.008 C 
ATOM     23  C   UNL     1      52.348 -27.782   6.814  1.00  0.00    -0.027 C 
ATOM     24  C   UNL     1      51.251 -26.995   6.769  1.00  0.00    -0.065 C 
ATOM     25  C   UNL     1      48.977 -27.747   6.081  1.00  0.00     0.014 C 
ATOM     26  C   UNL     1      49.874 -25.553   5.206  1.00  0.00     0.016 C 
ATOM     27  C   UNL     1      50.753 -26.384   8.061  1.00  0.00     0.063 C 
ATOM     28  C   UNL     1      48.426 -27.225   7.430  1.00  0.00     0.033 C 
ATOM     29  C   UNL     1      49.515 -27.174   8.524  1.00  0.00     0.118 C 
BRANCH  29  30
ATOM     30  O   UNL     1      48.996 -26.634   9.715  1.00  0.00    -0.393 OA
ATOM     31  H   UNL     1      48.116 -27.064   9.880  1.00  0.00     0.210 HD
ENDBRANCH  29  30
ENDBRANCH   9  11
ENDBRANCH   1   9
TORSDOF 7
ENDMDL
MODEL 3
REMARK VINA RESULT:    -7.117      6.017     12.784
REMARK INTER + INTRA:         -11.947
REMARK INTER:                 -11.516
REMARK INTRA:                  -0.431
REMARK UNBOUND:                -2.126
REMARK SMILES CC[C@@H](CC[C@H](C)[C@H]1CC[C@H]2[C@H]3CC=C4C[C@@H](O)CC[C@]4(C)[C@H]3CC[C@@]12C)C(C)C
REMARK SMILES IDX 5 1 4 2 3 3 2 4 1 5 28 6 29 7 30 8 6 9 7 10 8 11 9 12 26 13
REMARK SMILES IDX 10 14 11 15 25 16 27 17 12 18 24 19 23 20 13 21 21 22 14 23
REMARK SMILES IDX 15 24 20 25 22 26 16 27 19 28 17 29 18 30
REMARK H PARENT 18 31
REMARK Flexibility Score: inf
ROOT
ATOM      1  C   UNL     1      48.690 -27.139   8.433  1.00  0.00     0.004 C 
ENDROOT
BRANCH   1   2
ATOM      2  C   UNL     1      47.269 -27.087   9.036  1.00  0.00     0.004 C 
BRANCH   2   3
ATOM      3  C   UNL     1      46.278 -28.095   8.387  1.00  0.00    -0.009 C 
BRANCH   3   4
ATOM      4  C   UNL     1      46.088 -27.822   6.863  1.00  0.00     0.000 C 
ATOM      5  C   UNL     1      46.380 -29.004   5.929  1.00  0.00     0.004 C 
ENDBRANCH   3   4
BRANCH   3   6
ATOM      6  C   UNL     1      44.939 -28.282   9.184  1.00  0.00    -0.014 C 
ATOM      7  C   UNL     1      43.748 -28.576   8.254  1.00  0.00     0.007 C 
ATOM      8  C   UNL     1      44.595 -27.120  10.125  1.00  0.00     0.007 C 
ENDBRANCH   3   6
ENDBRANCH   2   3
ENDBRANCH   1   2
BRANCH   1   9
ATOM      9  C   UNL     1      49.538 -25.868   8.731  1.00  0.00    -0.011 C 
ATOM     10  C   UNL     1      48.638 -24.611   8.707  1.00  0.00     0.008 C 
BRANCH   9  11
ATOM     11  C   UNL     1      50.772 -25.789   7.751  1.00  0.00    -0.002 C 
ATOM     12  C   UNL     1      51.789 -26.921   7.849  1.00  0.00     0.005 C 
ATOM     13  C   UNL     1      50.496 -25.616   6.223  1.00  0.00    -0.026 C 
ATOM     14  C   UNL     1      52.721 -26.673   6.676  1.00  0.00     0.005 C 
ATOM     15  C   UNL     1      51.851 -26.051   5.560  1.00  0.00    -0.001 C 
ATOM     16  C   UNL     1      49.322 -26.495   5.717  1.00  0.00     0.007 C 
ATOM     17  C   UNL     1      50.170 -24.126   5.935  1.00  0.00     0.012 C 
ATOM     18  C   UNL     1      51.736 -26.908   4.249  1.00  0.00     0.000 C 
ATOM     19  C   UNL     1      49.211 -26.591   4.181  1.00  0.00     0.005 C 
ATOM     20  C   UNL     1      50.548 -26.410   3.396  1.00  0.00     0.003 C 
ATOM     21  C   UNL     1      51.655 -28.445   4.416  1.00  0.00     0.031 C 
ATOM     22  C   UNL     1      50.537 -27.065   1.957  1.00  0.00    -0.008 C 
ATOM     23  C   UNL     1      51.391 -29.151   3.111  1.00  0.00    -0.027 C 
ATOM     24  C   UNL     1      50.862 -28.561   2.016  1.00  0.00    -0.065 C 
ATOM     25  C   UNL     1      51.621 -26.394   1.051  1.00  0.00     0.014 C 
ATOM     26  C   UNL     1      49.147 -26.843   1.290  1.00  0.00     0.016 C 
ATOM     27  C   UNL     1      50.961 -29.286   0.692  1.00  0.00     0.063 C 
ATOM     28  C   UNL     1      51.834 -27.104  -0.308  1.00  0.00     0.033 C 
ATOM     29  C   UNL     1      52.072 -28.621  -0.142  1.00  0.00     0.118 C 
BRANCH  29  30
ATOM     30  O   UNL     1      52.196 -29.244  -1.396  1.00  0.00    -0.393 OA
ATOM     31  H   UNL     1      52.117 -30.224  -1.252  1.00  0.00     0.210 HD
ENDBRANCH  29  30
ENDBRANCH   9  11
ENDBRANCH   1   9
TORSDOF 7
ENDMDL
MODEL 4
REMARK VINA RESULT:    -7.063      4.869     11.469
REMARK INTER + INTRA:         -11.872
REMARK INTER:                 -11.814
REMARK INTRA:                  -0.058
REMARK UNBOUND:                -2.126
REMARK SMILES CC[C@@H](CC[C@H](C)[C@H]1CC[C@H]2[C@H]3CC=C4C[C@@H](O)CC[C@]4(C)[C@H]3CC[C@@]12C)C(C)C
REMARK SMILES IDX 5 1 4 2 3 3 2 4 1 5 28 6 29 7 30 8 6 9 7 10 8 11 9 12 26 13
REMARK SMILES IDX 10 14 11 15 25 16 27 17 12 18 24 19 23 20 13 21 21 22 14 23
REMARK SMILES IDX 15 24 20 25 22 26 16 27 19 28 17 29 18 30
REMARK H PARENT 18 31
REMARK Flexibility Score: inf
ROOT
ATOM      1  C   UNL     1      48.499 -27.902   6.368  1.00  0.00     0.004 C 
ENDROOT
BRANCH   1   2
ATOM      2  C   UNL     1      47.394 -27.543   7.386  1.00  0.00     0.004 C 
BRANCH   2   3
ATOM      3  C   UNL     1      46.115 -28.418   7.255  1.00  0.00    -0.009 C 
BRANCH   3   4
ATOM      4  C   UNL     1      45.248 -27.996   6.028  1.00  0.00     0.000 C 
ATOM      5  C   UNL     1      45.292 -28.942   4.820  1.00  0.00     0.004 C 
ENDBRANCH   3   4
BRANCH   3   6
ATOM      6  C   UNL     1      45.311 -28.583   8.591  1.00  0.00    -0.014 C 
ATOM      7  C   UNL     1      43.903 -27.966   8.501  1.00  0.00     0.007 C 
ATOM      8  C   UNL     1      46.036 -28.055   9.836  1.00  0.00     0.007 C 
ENDBRANCH   3   6
ENDBRANCH   2   3
ENDBRANCH   1   2
BRANCH   1   9
ATOM      9  C   UNL     1      49.612 -26.820   6.252  1.00  0.00    -0.011 C 
ATOM     10  C   UNL     1      49.271 -25.827   5.116  1.00  0.00     0.008 C 
BRANCH   9  11
ATOM     11  C   UNL     1      51.027 -27.502   6.101  1.00  0.00    -0.002 C 
ATOM     12  C   UNL     1      51.163 -28.913   6.665  1.00  0.00     0.005 C 
ATOM     13  C   UNL     1      51.672 -27.565   4.679  1.00  0.00    -0.026 C 
ATOM     14  C   UNL     1      52.538 -29.357   6.198  1.00  0.00     0.005 C 
ATOM     15  C   UNL     1      52.768 -28.680   4.829  1.00  0.00    -0.001 C 
ATOM     16  C   UNL     1      50.654 -27.932   3.568  1.00  0.00     0.007 C 
ATOM     17  C   UNL     1      52.301 -26.184   4.349  1.00  0.00     0.012 C 
ATOM     18  C   UNL     1      52.924 -29.664   3.616  1.00  0.00     0.000 C 
ATOM     19  C   UNL     1      51.292 -28.304   2.212  1.00  0.00     0.005 C 
ATOM     20  C   UNL     1      52.733 -28.899   2.287  1.00  0.00     0.003 C 
ATOM     21  C   UNL     1      52.039 -30.935   3.620  1.00  0.00     0.031 C 
ATOM     22  C   UNL     1      53.125 -29.780   1.034  1.00  0.00    -0.008 C 
ATOM     23  C   UNL     1      52.157 -31.721   2.341  1.00  0.00    -0.027 C 
ATOM     24  C   UNL     1      52.606 -31.215   1.171  1.00  0.00    -0.065 C 
ATOM     25  C   UNL     1      54.681 -29.864   0.899  1.00  0.00     0.014 C 
ATOM     26  C   UNL     1      52.563 -29.127  -0.263  1.00  0.00     0.016 C 
ATOM     27  C   UNL     1      52.987 -32.181   0.070  1.00  0.00     0.063 C 
ATOM     28  C   UNL     1      55.167 -30.874  -0.168  1.00  0.00     0.033 C 
ATOM     29  C   UNL     1      54.523 -32.266   0.010  1.00  0.00     0.118 C 
BRANCH  29  30
ATOM     30  O   UNL     1      54.935 -33.138  -1.013  1.00  0.00    -0.393 OA
ATOM     31  H   UNL     1      54.417 -33.980  -0.915  1.00  0.00     0.210 HD
ENDBRANCH  29  30
ENDBRANCH   9  11
ENDBRANCH   1   9
TORSDOF 7
ENDMDL
MODEL 5
REMARK VINA RESULT:    -7.040      2.207      4.231
REMARK INTER + INTRA:         -11.841
REMARK INTER:                 -10.249
REMARK INTRA:                  -1.592
REMARK UNBOUND:                -2.126
REMARK SMILES CC[C@@H](CC[C@H](C)[C@H]1CC[C@H]2[C@H]3CC=C4C[C@@H](O)CC[C@]4(C)[C@H]3CC[C@@]12C)C(C)C
REMARK SMILES IDX 5 1 4 2 3 3 2 4 1 5 28 6 29 7 30 8 6 9 7 10 8 11 9 12 26 13
REMARK SMILES IDX 10 14 11 15 25 16 27 17 12 18 24 19 23 20 13 21 21 22 14 23
REMARK SMILES IDX 15 24 20 25 22 26 16 27 19 28 17 29 18 30
REMARK H PARENT 18 31
REMARK Flexibility Score: inf
ROOT
ATOM      1  C   UNL     1      52.027 -31.899  -8.062  1.00  0.00     0.004 C 
ENDROOT
BRANCH   1   2
ATOM      2  C   UNL     1      52.157 -33.426  -8.259  1.00  0.00     0.004 C 
BRANCH   2   3
ATOM      3  C   UNL     1      50.833 -34.203  -8.011  1.00  0.00    -0.009 C 
BRANCH   3   4
ATOM      4  C   UNL     1      49.855 -33.404  -7.096  1.00  0.00     0.000 C 
ATOM      5  C   UNL     1      48.671 -32.732  -7.805  1.00  0.00     0.004 C 
ENDBRANCH   3   4
BRANCH   3   6
ATOM      6  C   UNL     1      51.038 -35.700  -7.591  1.00  0.00    -0.014 C 
ATOM      7  C   UNL     1      49.834 -36.251  -6.804  1.00  0.00     0.007 C 
ATOM      8  C   UNL     1      52.336 -35.970  -6.820  1.00  0.00     0.007 C 
ENDBRANCH   3   6
ENDBRANCH   2   3
ENDBRANCH   1   2
BRANCH   1   9
ATOM      9  C   UNL     1      52.925 -31.341  -6.919  1.00  0.00    -0.011 C 
ATOM     10  C   UNL     1      54.079 -30.500  -7.513  1.00  0.00     0.008 C 
BRANCH   9  11
ATOM     11  C   UNL     1      53.406 -32.511  -5.977  1.00  0.00    -0.002 C 
ATOM     12  C   UNL     1      54.914 -32.694  -5.840  1.00  0.00     0.005 C 
ATOM     13  C   UNL     1      52.851 -32.564  -4.518  1.00  0.00    -0.026 C 
ATOM     14  C   UNL     1      55.053 -33.736  -4.743  1.00  0.00     0.005 C 
ATOM     15  C   UNL     1      53.867 -33.507  -3.779  1.00  0.00    -0.001 C 
ATOM     16  C   UNL     1      52.794 -31.170  -3.841  1.00  0.00     0.007 C 
ATOM     17  C   UNL     1      51.422 -33.170  -4.543  1.00  0.00     0.012 C 
ATOM     18  C   UNL     1      54.266 -33.087  -2.320  1.00  0.00     0.000 C 
ATOM     19  C   UNL     1      52.549 -31.207  -2.317  1.00  0.00     0.005 C 
ATOM     20  C   UNL     1      53.041 -32.496  -1.588  1.00  0.00     0.003 C 
ATOM     21  C   UNL     1      55.478 -32.135  -2.166  1.00  0.00     0.031 C 
ATOM     22  C   UNL     1      53.316 -32.289  -0.044  1.00  0.00    -0.008 C 
ATOM     23  C   UNL     1      55.671 -31.677  -0.744  1.00  0.00    -0.027 C 
ATOM     24  C   UNL     1      54.710 -31.706   0.206  1.00  0.00    -0.065 C 
ATOM     25  C   UNL     1      53.249 -33.662   0.704  1.00  0.00     0.014 C 
ATOM     26  C   UNL     1      52.227 -31.356   0.563  1.00  0.00     0.016 C 
ATOM     27  C   UNL     1      55.124 -31.537   1.651  1.00  0.00     0.063 C 
ATOM     28  C   UNL     1      53.712 -33.597   2.179  1.00  0.00     0.033 C 
ATOM     29  C   UNL     1      55.091 -32.919   2.329  1.00  0.00     0.118 C 
BRANCH  29  30
ATOM     30  O   UNL     1      55.450 -32.818   3.685  1.00  0.00    -0.393 OA
ATOM     31  H   UNL     1      55.158 -31.924   4.006  1.00  0.00     0.210 HD
ENDBRANCH  29  30
ENDBRANCH   9  11
ENDBRANCH   1   9
TORSDOF 7
ENDMDL
MODEL 6
REMARK VINA RESULT:    -7.022      3.711      7.001
REMARK INTER + INTRA:         -11.816
REMARK INTER:                 -10.015
REMARK INTRA:                  -1.801
REMARK UNBOUND:                -2.126
REMARK SMILES CC[C@@H](CC[C@H](C)[C@H]1CC[C@H]2[C@H]3CC=C4C[C@@H](O)CC[C@]4(C)[C@H]3CC[C@@]12C)C(C)C
REMARK SMILES IDX 5 1 4 2 3 3 2 4 1 5 28 6 29 7 30 8 6 9 7 10 8 11 9 12 26 13
REMARK SMILES IDX 10 14 11 15 25 16 27 17 12 18 24 19 23 20 13 21 21 22 14 23
REMARK SMILES IDX 15 24 20 25 22 26 16 27 19 28 17 29 18 30
REMARK H PARENT 18 31
REMARK Flexibility Score: inf
ROOT
ATOM      1  C   UNL     1      54.970 -30.457  -0.532  1.00  0.00     0.004 C 
ENDROOT
BRANCH   1   2
ATOM      2  C   UNL     1      54.650 -29.855  -1.918  1.00  0.00     0.004 C 
BRANCH   2   3
ATOM      3  C   UNL     1      53.146 -29.518  -2.121  1.00  0.00    -0.009 C 
BRANCH   3   4
ATOM      4  C   UNL     1      52.393 -30.659  -2.874  1.00  0.00     0.000 C 
ATOM      5  C   UNL     1      51.711 -31.709  -1.987  1.00  0.00     0.004 C 
ENDBRANCH   3   4
BRANCH   3   6
ATOM      6  C   UNL     1      52.882 -28.081  -2.692  1.00  0.00    -0.014 C 
ATOM      7  C   UNL     1      52.723 -27.034  -1.574  1.00  0.00     0.007 C 
ATOM      8  C   UNL     1      51.699 -27.993  -3.665  1.00  0.00     0.007 C 
ENDBRANCH   3   6
ENDBRANCH   2   3
ENDBRANCH   1   2
BRANCH   1   9
ATOM      9  C   UNL     1      54.685 -29.484   0.650  1.00  0.00    -0.011 C 
ATOM     10  C   UNL     1      56.016 -29.008   1.277  1.00  0.00     0.008 C 
BRANCH   9  11
ATOM     11  C   UNL     1      53.694 -30.148   1.681  1.00  0.00    -0.002 C 
ATOM     12  C   UNL     1      54.322 -30.756   2.931  1.00  0.00     0.005 C 
ATOM     13  C   UNL     1      52.486 -29.303   2.199  1.00  0.00    -0.026 C 
ATOM     14  C   UNL     1      53.128 -31.123   3.795  1.00  0.00     0.005 C 
ATOM     15  C   UNL     1      52.041 -30.066   3.498  1.00  0.00    -0.001 C 
ATOM     16  C   UNL     1      52.870 -27.835   2.523  1.00  0.00     0.007 C 
ATOM     17  C   UNL     1      51.369 -29.305   1.122  1.00  0.00     0.012 C 
ATOM     18  C   UNL     1      51.630 -29.171   4.721  1.00  0.00     0.000 C 
ATOM     19  C   UNL     1      51.801 -27.054   3.317  1.00  0.00     0.005 C 
ATOM     20  C   UNL     1      50.873 -27.919   4.226  1.00  0.00     0.003 C 
ATOM     21  C   UNL     1      52.755 -28.752   5.698  1.00  0.00     0.031 C 
ATOM     22  C   UNL     1      50.220 -27.112   5.420  1.00  0.00    -0.008 C 
ATOM     23  C   UNL     1      52.278 -27.772   6.738  1.00  0.00    -0.027 C 
ATOM     24  C   UNL     1      51.169 -27.009   6.617  1.00  0.00    -0.065 C 
ATOM     25  C   UNL     1      48.928 -27.841   5.918  1.00  0.00     0.014 C 
ATOM     26  C   UNL     1      49.812 -25.690   4.932  1.00  0.00     0.016 C 
ATOM     27  C   UNL     1      50.628 -26.329   7.854  1.00  0.00     0.063 C 
ATOM     28  C   UNL     1      48.332 -27.248   7.218  1.00  0.00     0.033 C 
ATOM     29  C   UNL     1      49.390 -27.110   8.334  1.00  0.00     0.118 C 
BRANCH  29  30
ATOM     30  O   UNL     1      48.832 -26.508   9.475  1.00  0.00    -0.393 OA
ATOM     31  H   UNL     1      49.023 -27.100  10.250  1.00  0.00     0.210 HD
ENDBRANCH  29  30
ENDBRANCH   9  11
ENDBRANCH   1   9
TORSDOF 7
ENDMDL
MODEL 7
REMARK VINA RESULT:    -6.997      5.076     11.825
REMARK INTER + INTRA:         -11.782
REMARK INTER:                  -9.950
REMARK INTRA:                  -1.832
REMARK UNBOUND:                -2.126
REMARK SMILES CC[C@@H](CC[C@H](C)[C@H]1CC[C@H]2[C@H]3CC=C4C[C@@H](O)CC[C@]4(C)[C@H]3CC[C@@]12C)C(C)C
REMARK SMILES IDX 5 1 4 2 3 3 2 4 1 5 28 6 29 7 30 8 6 9 7 10 8 11 9 12 26 13
REMARK SMILES IDX 10 14 11 15 25 16 27 17 12 18 24 19 23 20 13 21 21 22 14 23
REMARK SMILES IDX 15 24 20 25 22 26 16 27 19 28 17 29 18 30
REMARK H PARENT 18 31
REMARK Flexibility Score: inf
ROOT
ATOM      1  C   UNL     1      49.438 -27.020   8.613  1.00  0.00     0.004 C 
ENDROOT
BRANCH   1   2
ATOM      2  C   UNL     1      47.993 -26.739   8.146  1.00  0.00     0.004 C 
BRANCH   2   3
ATOM      3  C   UNL     1      47.093 -28.006   8.099  1.00  0.00    -0.009 C 
BRANCH   3   4
ATOM      4  C   UNL     1      46.593 -28.310   6.653  1.00  0.00     0.000 C 
ATOM      5  C   UNL     1      46.698 -27.152   5.651  1.00  0.00     0.004 C 
ENDBRANCH   3   4
BRANCH   3   6
ATOM      6  C   UNL     1      45.969 -28.035   9.193  1.00  0.00    -0.014 C 
ATOM      7  C   UNL     1      44.572 -28.253   8.583  1.00  0.00     0.007 C 
ATOM      8  C   UNL     1      45.952 -26.810  10.117  1.00  0.00     0.007 C 
ENDBRANCH   3   6
ENDBRANCH   2   3
ENDBRANCH   1   2
BRANCH   1   9
ATOM      9  C   UNL     1      50.517 -26.652   7.553  1.00  0.00    -0.011 C 
ATOM     10  C   UNL     1      50.768 -25.126   7.558  1.00  0.00     0.008 C 
BRANCH   9  11
ATOM     11  C   UNL     1      50.118 -27.229   6.140  1.00  0.00    -0.002 C 
ATOM     12  C   UNL     1      50.234 -26.271   4.959  1.00  0.00     0.005 C 
ATOM     13  C   UNL     1      50.795 -28.553   5.662  1.00  0.00    -0.026 C 
ATOM     14  C   UNL     1      49.982 -27.154   3.750  1.00  0.00     0.005 C 
ATOM     15  C   UNL     1      50.543 -28.548   4.111  1.00  0.00    -0.001 C 
ATOM     16  C   UNL     1      52.313 -28.606   5.978  1.00  0.00     0.007 C 
ATOM     17  C   UNL     1      50.096 -29.756   6.351  1.00  0.00     0.012 C 
ATOM     18  C   UNL     1      51.735 -29.040   3.215  1.00  0.00     0.000 C 
ATOM     19  C   UNL     1      53.077 -29.740   5.262  1.00  0.00     0.005 C 
ATOM     20  C   UNL     1      52.466 -30.212   3.906  1.00  0.00     0.003 C 
ATOM     21  C   UNL     1      52.763 -27.974   2.762  1.00  0.00     0.031 C 
ATOM     22  C   UNL     1      53.510 -30.908   2.944  1.00  0.00    -0.008 C 
ATOM     23  C   UNL     1      53.940 -28.581   2.044  1.00  0.00    -0.027 C 
ATOM     24  C   UNL     1      54.308 -29.878   2.139  1.00  0.00    -0.065 C 
ATOM     25  C   UNL     1      52.768 -31.823   1.914  1.00  0.00     0.014 C 
ATOM     26  C   UNL     1      54.475 -31.804   3.776  1.00  0.00     0.016 C 
ATOM     27  C   UNL     1      55.286 -30.423   1.121  1.00  0.00     0.063 C 
ATOM     28  C   UNL     1      53.681 -32.382   0.797  1.00  0.00     0.033 C 
ATOM     29  C   UNL     1      54.502 -31.273   0.104  1.00  0.00     0.118 C 
BRANCH  29  30
ATOM     30  O   UNL     1      55.368 -31.823  -0.858  1.00  0.00    -0.393 OA
ATOM     31  H   UNL     1      56.253 -31.385  -0.750  1.00  0.00     0.210 HD
ENDBRANCH  29  30
ENDBRANCH   9  11
ENDBRANCH   1   9
TORSDOF 7
ENDMDL
MODEL 8
REMARK VINA RESULT:    -6.954      3.107      8.366
REMARK INTER + INTRA:         -11.723
REMARK INTER:                  -9.423
REMARK INTRA:                  -2.299
REMARK UNBOUND:                -2.126
REMARK SMILES CC[C@@H](CC[C@H](C)[C@H]1CC[C@H]2[C@H]3CC=C4C[C@@H](O)CC[C@]4(C)[C@H]3CC[C@@]12C)C(C)C
REMARK SMILES IDX 5 1 4 2 3 3 2 4 1 5 28 6 29 7 30 8 6 9 7 10 8 11 9 12 26 13
REMARK SMILES IDX 10 14 11 15 25 16 27 17 12 18 24 19 23 20 13 21 21 22 14 23
REMARK SMILES IDX 15 24 20 25 22 26 16 27 19 28 17 29 18 30
REMARK H PARENT 18 31
REMARK Flexibility Score: inf
ROOT
ATOM      1  C   UNL     1      56.069 -30.768   1.230  1.00  0.00     0.004 C 
ENDROOT
BRANCH   1   2
ATOM      2  C   UNL     1      54.980 -30.394   2.259  1.00  0.00     0.004 C 
BRANCH   2   3
ATOM      3  C   UNL     1      54.305 -31.625   2.929  1.00  0.00    -0.009 C 
BRANCH   3   4
ATOM      4  C   UNL     1      55.110 -32.937   2.676  1.00  0.00     0.000 C 
ATOM      5  C   UNL     1      55.961 -33.438   3.850  1.00  0.00     0.004 C 
ENDBRANCH   3   4
BRANCH   3   6
ATOM      6  C   UNL     1      52.766 -31.744   2.647  1.00  0.00    -0.014 C 
ATOM      7  C   UNL     1      52.452 -32.809   1.581  1.00  0.00     0.007 C 
ATOM      8  C   UNL     1      52.085 -30.418   2.281  1.00  0.00     0.007 C 
ENDBRANCH   3   6
ENDBRANCH   2   3
ENDBRANCH   1   2
BRANCH   1   9
ATOM      9  C   UNL     1      55.744 -30.298  -0.218  1.00  0.00    -0.011 C 
ATOM     10  C   UNL     1      55.776 -28.753  -0.295  1.00  0.00     0.008 C 
BRANCH   9  11
ATOM     11  C   UNL     1      54.387 -30.934  -0.710  1.00  0.00    -0.002 C 
ATOM     12  C   UNL     1      53.301 -29.958  -1.151  1.00  0.00     0.005 C 
ATOM     13  C   UNL     1      54.441 -32.021  -1.831  1.00  0.00    -0.026 C 
ATOM     14  C   UNL     1      52.227 -30.854  -1.741  1.00  0.00     0.005 C 
ATOM     15  C   UNL     1      52.967 -32.054  -2.373  1.00  0.00    -0.001 C 
ATOM     16  C   UNL     1      55.441 -31.673  -2.964  1.00  0.00     0.007 C 
ATOM     17  C   UNL     1      54.849 -33.379  -1.198  1.00  0.00     0.012 C 
ATOM     18  C   UNL     1      52.805 -32.195  -3.928  1.00  0.00     0.000 C 
ATOM     19  C   UNL     1      55.308 -32.550  -4.228  1.00  0.00     0.005 C 
ATOM     20  C   UNL     1      53.888 -33.143  -4.488  1.00  0.00     0.003 C 
ATOM     21  C   UNL     1      52.775 -30.886  -4.755  1.00  0.00     0.031 C 
ATOM     22  C   UNL     1      53.622 -33.518  -6.002  1.00  0.00    -0.008 C 
ATOM     23  C   UNL     1      52.774 -31.144  -6.240  1.00  0.00    -0.027 C 
ATOM     24  C   UNL     1      53.180 -32.298  -6.815  1.00  0.00    -0.065 C 
ATOM     25  C   UNL     1      52.475 -34.578  -6.100  1.00  0.00     0.014 C 
ATOM     26  C   UNL     1      54.908 -34.140  -6.622  1.00  0.00     0.016 C 
ATOM     27  C   UNL     1      52.816 -32.544  -8.262  1.00  0.00     0.063 C 
ATOM     28  C   UNL     1      51.996 -34.854  -7.546  1.00  0.00     0.033 C 
ATOM     29  C   UNL     1      51.653 -33.553  -8.305  1.00  0.00     0.118 C 
BRANCH  29  30
ATOM     30  O   UNL     1      51.286 -33.835  -9.632  1.00  0.00    -0.393 OA
ATOM     31  H   UNL     1      50.309 -34.015  -9.641  1.00  0.00     0.210 HD
ENDBRANCH  29  30
ENDBRANCH   9  11
ENDBRANCH   1   9
TORSDOF 7
ENDMDL
MODEL 9
REMARK VINA RESULT:    -6.900      3.780     10.418
REMARK INTER + INTRA:         -11.647
REMARK INTER:                  -9.740
REMARK INTRA:                  -1.907
REMARK UNBOUND:                -2.126
REMARK SMILES CC[C@@H](CC[C@H](C)[C@H]1CC[C@H]2[C@H]3CC=C4C[C@@H](O)CC[C@]4(C)[C@H]3CC[C@@]12C)C(C)C
REMARK SMILES IDX 5 1 4 2 3 3 2 4 1 5 28 6 29 7 30 8 6 9 7 10 8 11 9 12 26 13
REMARK SMILES IDX 10 14 11 15 25 16 27 17 12 18 24 19 23 20 13 21 21 22 14 23
REMARK SMILES IDX 15 24 20 25 22 26 16 27 19 28 17 29 18 30
REMARK H PARENT 18 31
REMARK Flexibility Score: inf
ROOT
ATOM      1  C   UNL     1      51.951 -28.180   6.070  1.00  0.00     0.004 C 
ENDROOT
BRANCH   1   2
ATOM      2  C   UNL     1      50.531 -28.784   6.104  1.00  0.00     0.004 C 
BRANCH   2   3
ATOM      3  C   UNL     1      49.478 -27.869   6.792  1.00  0.00    -0.009 C 
BRANCH   3   4
ATOM      4  C   UNL     1      48.510 -27.219   5.755  1.00  0.00     0.000 C 
ATOM      5  C   UNL     1      47.015 -27.492   5.972  1.00  0.00     0.004 C 
ENDBRANCH   3   4
BRANCH   3   6
ATOM      6  C   UNL     1      50.084 -26.863   7.831  1.00  0.00    -0.014 C 
ATOM      7  C   UNL     1      49.577 -27.131   9.261  1.00  0.00     0.007 C 
ATOM      8  C   UNL     1      49.885 -25.384   7.473  1.00  0.00     0.007 C 
ENDBRANCH   3   6
ENDBRANCH   2   3
ENDBRANCH   1   2
BRANCH   1   9
ATOM      9  C   UNL     1      52.330 -27.557   4.695  1.00  0.00    -0.011 C 
ATOM     10  C   UNL     1      52.353 -26.014   4.799  1.00  0.00     0.008 C 
BRANCH   9  11
ATOM     11  C   UNL     1      51.379 -28.107   3.563  1.00  0.00    -0.002 C 
ATOM     12  C   UNL     1      50.669 -27.063   2.707  1.00  0.00     0.005 C 
ATOM     13  C   UNL     1      51.957 -29.145   2.548  1.00  0.00    -0.026 C 
ATOM     14  C   UNL     1      50.008 -27.882   1.612  1.00  0.00     0.005 C 
ATOM     15  C   UNL     1      50.941 -29.086   1.352  1.00  0.00    -0.001 C 
ATOM     16  C   UNL     1      53.392 -28.794   2.075  1.00  0.00     0.007 C 
ATOM     17  C   UNL     1      51.976 -30.547   3.215  1.00  0.00     0.012 C 
ATOM     18  C   UNL     1      51.562 -29.149  -0.088  1.00  0.00     0.000 C 
ATOM     19  C   UNL     1      53.882 -29.607   0.857  1.00  0.00     0.005 C 
ATOM     20  C   UNL     1      52.763 -30.121  -0.102  1.00  0.00     0.003 C 
ATOM     21  C   UNL     1      51.967 -27.806  -0.741  1.00  0.00     0.031 C 
ATOM     22  C   UNL     1      53.269 -30.416  -1.571  1.00  0.00    -0.008 C 
ATOM     23  C   UNL     1      52.692 -27.998  -2.048  1.00  0.00    -0.027 C 
ATOM     24  C   UNL     1      53.307 -29.142  -2.420  1.00  0.00    -0.065 C 
ATOM     25  C   UNL     1      52.300 -31.417  -2.284  1.00  0.00     0.014 C 
ATOM     26  C   UNL     1      54.682 -31.069  -1.518  1.00  0.00     0.016 C 
ATOM     27  C   UNL     1      53.698 -29.307  -3.872  1.00  0.00     0.063 C 
ATOM     28  C   UNL     1      52.589 -31.605  -3.793  1.00  0.00     0.033 C 
ATOM     29  C   UNL     1      52.688 -30.258  -4.541  1.00  0.00     0.118 C 
BRANCH  29  30
ATOM     30  O   UNL     1      53.016 -30.464  -5.893  1.00  0.00    -0.393 OA
ATOM     31  H   UNL     1      52.647 -31.347  -6.159  1.00  0.00     0.210 HD
ENDBRANCH  29  30
ENDBRANCH   9  11
ENDBRANCH   1   9
TORSDOF 7
ENDMDL
