MODEL 1
REMARK VINA RESULT:    66.229      0.000      0.000
REMARK INTER + INTRA:         147.334
REMARK INTER:                 139.792
REMARK INTRA:                   7.542
REMARK UNBOUND:                 7.542
REMARK SMILES CCC(=O)CCCCC[C@H]1NC(=O)[C@H]2CCCCN2C(=O)[C@@H]([C@@H](C)CC)NC(=O)[C@@H](Cc2cn(OC)c3ccccc23)NC1=O
REMARK SMILES IDX 9 1 10 2 44 3 43 4 45 6 30 7 28 8 27 9 29 11 22 12 23 14
REMARK SMILES IDX 24 15 25 16 26 17 31 18 32 19 33 20 42 21 34 22 37 23 41 24
REMARK SMILES IDX 38 25 40 26 39 27 35 28 36 29 11 30 12 31 13 33 14 34 19 35
REMARK SMILES IDX 15 36 18 37 16 38 17 39 20 40 21 41 8 43 7 44 6 45 5 46 3 47
REMARK SMILES IDX 4 48 2 49 1 50
REMARK H PARENT 43 5 27 10 11 32
REMARK Flexibility Score: 80.00
ROOT
ATOM      1  C   UNL     1      15.192  18.405  18.534  1.00  0.00     0.035 C 
ENDROOT
BRANCH   1   2
ATOM      2  C   UNL     1      15.344  17.247  17.520  1.00  0.00     0.171 C 
BRANCH   2   3
ATOM      3  C   UNL     1      14.132  17.030  16.644  1.00  0.00     0.243 C 
ATOM      4  N   UNL     1      13.153  16.035  16.959  1.00  0.00    -0.342 N 
ATOM      5  H   UNL     1      12.949  15.811  17.958  1.00  0.00     0.164 HD
ATOM      6  O   UNL     1      13.998  17.727  15.599  1.00  0.00    -0.273 OA
BRANCH   4   7
ATOM      7  C   UNL     1      12.563  15.183  15.924  1.00  0.00     0.175 C 
BRANCH   7   8
ATOM      8  C   UNL     1      13.078  13.775  16.082  1.00  0.00     0.243 C 
ATOM      9  N   UNL     1      14.493  13.523  16.136  1.00  0.00    -0.342 N 
ATOM     10  H   UNL     1      15.135  14.329  15.952  1.00  0.00     0.164 HD
ATOM     11  O   UNL     1      12.261  12.819  16.123  1.00  0.00    -0.273 OA
BRANCH   9  12
ATOM     12  C   UNL     1      15.127  12.223  16.424  1.00  0.00     0.174 CG0
ATOM     13  G   UNL     1      14.458  11.565  17.624  1.00  0.00     0.000 G0
BRANCH  12  14
ATOM     14  C   UNL     1      15.293  11.315  15.154  1.00  0.00     0.018 C 
ATOM     15  C   UNL     1      15.910  12.119  13.993  1.00  0.00     0.010 C 
BRANCH  14  16
ATOM     16  C   UNL     1      16.218  10.084  15.412  1.00  0.00     0.002 C 
ATOM     17  C   UNL     1      16.363   9.124  14.233  1.00  0.00     0.004 C 
ENDBRANCH  14  16
ENDBRANCH  12  14
ENDBRANCH   9  12
ENDBRANCH   7   8
BRANCH   7  18
ATOM     18  C   UNL     1      11.029  15.232  16.017  1.00  0.00     0.073 C 
BRANCH  18  19
ATOM     19  C   UNL     1      10.392  13.983  15.470  1.00  0.00    -0.016 A 
ATOM     20  C   UNL     1       9.997  13.772  14.150  1.00  0.00     0.134 A 
ATOM     21  C   UNL     1      10.057  12.824  16.155  1.00  0.00     0.006 A 
ATOM     22  N   UNL     1       9.473  12.533  14.020  1.00  0.00    -0.191 N 
ATOM     23  C   UNL     1       9.508  11.964  15.237  1.00  0.00     0.087 A 
ATOM     24  C   UNL     1      10.220  12.457  17.492  1.00  0.00     0.011 A 
ATOM     25  C   UNL     1       9.089  10.682  15.590  1.00  0.00     0.030 A 
ATOM     26  C   UNL     1       9.798  11.173  17.881  1.00  0.00     0.001 A 
ATOM     27  C   UNL     1       9.237  10.289  16.933  1.00  0.00     0.002 A 
BRANCH  22  28
ATOM     28  O   UNL     1       9.000  11.936  12.866  1.00  0.00    -0.417 OA
ATOM     29  C   UNL     1       9.738  10.939  12.167  1.00  0.00     0.313 C 
ENDBRANCH  22  28
ENDBRANCH  18  19
ENDBRANCH   7  18
ENDBRANCH   4   7
ENDBRANCH   2   3
BRANCH   2  30
ATOM     30  N   UNL     1      15.715  15.989  18.177  1.00  0.00    -0.343 N 
ATOM     31  C   UNL     1      14.831  15.186  18.980  1.00  0.00     0.243 C 
ATOM     32  H   UNL     1      16.638  15.572  17.924  1.00  0.00     0.164 HD
ATOM     33  O   UNL     1      13.875  15.723  19.591  1.00  0.00    -0.273 OA
BRANCH  31  34
ATOM     34  C   UNL     1      15.104  13.709  19.143  1.00  0.00     0.174 C 
ATOM     35  N   UNL     1      14.017  12.874  18.588  1.00  0.00    -0.329 N 
ATOM     36  C   UNL     1      15.353  13.362  20.619  1.00  0.00     0.035 C 
ATOM     37  C   UNL     1      12.757  12.758  19.337  1.00  0.00     0.120 C 
ATOM     38  C   UNL     1      14.048  13.328  21.429  1.00  0.00     0.004 C 
ATOM     39  C   UNL     1      13.028  12.379  20.796  1.00  0.00     0.022 C 
BRANCH  35  40
ATOM     40  C   UNL     1      14.366  11.867  17.614  1.00  0.00     0.246 CG0
ATOM     41  O   UNL     1      14.110  10.662  17.876  1.00  0.00    -0.272 OA
ATOM     42  G   UNL     1      15.160  12.186  16.354  1.00  0.00     0.000 G0
ENDBRANCH  35  40
ENDBRANCH  31  34
ENDBRANCH   2  30
ENDBRANCH   1   2
BRANCH   1  43
ATOM     43  C   UNL     1      16.468  18.708  19.338  1.00  0.00     0.003 C 
BRANCH  43  44
ATOM     44  C   UNL     1      17.194  19.972  18.855  1.00  0.00     0.001 C 
BRANCH  44  45
ATOM     45  C   UNL     1      16.595  21.236  19.484  1.00  0.00     0.008 C 
BRANCH  45  46
ATOM     46  C   UNL     1      15.206  21.582  18.927  1.00  0.00     0.075 C 
BRANCH  46  47
ATOM     47  C   UNL     1      15.262  21.974  17.473  1.00  0.00     0.132 C 
ATOM     48  O   UNL     1      14.248  22.393  16.926  1.00  0.00    -0.300 OA
BRANCH  47  49
ATOM     49  C   UNL     1      16.568  21.907  16.718  1.00  0.00     0.072 C 
ATOM     50  C   UNL     1      16.365  21.688  15.214  1.00  0.00     0.012 C 
ENDBRANCH  47  49
ENDBRANCH  46  47
ENDBRANCH  45  46
ENDBRANCH  44  45
ENDBRANCH  43  44
ENDBRANCH   1  43
TORSDOF 12
ENDMDL
