MODEL 1
REMARK VINA RESULT:    -4.814      0.000      0.000
REMARK INTER + INTRA:          -8.992
REMARK INTER:                  -6.643
REMARK INTRA:                  -2.349
REMARK UNBOUND:                -2.349
REMARK SMILES CC[C@H](CC[C@@H](C)[C@H]1CC[C@H]2[C@H]3CC=C4C[C@H](O)CC[C@]4(C)[C@H]3CC[C@@]12C)C(C)C
REMARK SMILES IDX 5 1 4 2 3 3 2 4 1 5 28 6 29 7 30 8 6 9 7 10 8 11 9 12 26 13
REMARK SMILES IDX 10 14 11 15 25 16 27 17 12 18 24 19 23 20 13 21 21 22 14 23
REMARK SMILES IDX 15 24 20 25 22 26 16 27 19 28 17 29 18 30
REMARK H PARENT 18 31
REMARK Flexibility Score: inf
ROOT
ATOM      1  C   UNL     1      10.944   4.693  37.358  1.00  0.00     0.004 C 
ENDROOT
BRANCH   1   2
ATOM      2  C   UNL     1      10.591   5.461  36.061  1.00  0.00     0.004 C 
BRANCH   2   3
ATOM      3  C   UNL     1      11.845   5.925  35.263  1.00  0.00    -0.009 C 
BRANCH   3   4
ATOM      4  C   UNL     1      11.946   5.148  33.920  1.00  0.00     0.000 C 
ATOM      5  C   UNL     1      12.990   4.027  33.965  1.00  0.00     0.004 C 
ENDBRANCH   3   4
BRANCH   3   6
ATOM      6  C   UNL     1      11.917   7.484  34.997  1.00  0.00    -0.014 C 
ATOM      7  C   UNL     1      11.515   8.271  36.254  1.00  0.00     0.007 C 
ATOM      8  C   UNL     1      11.116   8.006  33.788  1.00  0.00     0.007 C 
ENDBRANCH   3   6
ENDBRANCH   2   3
ENDBRANCH   1   2
BRANCH   1   9
ATOM      9  C   UNL     1      11.850   5.515  38.318  1.00  0.00    -0.011 C 
ATOM     10  C   UNL     1      11.076   5.787  39.624  1.00  0.00     0.008 C 
BRANCH   9  11
ATOM     11  C   UNL     1      13.214   4.769  38.566  1.00  0.00    -0.002 C 
ATOM     12  C   UNL     1      13.384   3.565  37.622  1.00  0.00     0.005 C 
ATOM     13  C   UNL     1      14.572   5.543  38.455  1.00  0.00    -0.026 C 
ATOM     14  C   UNL     1      14.875   3.260  37.543  1.00  0.00     0.005 C 
ATOM     15  C   UNL     1      15.594   4.378  38.311  1.00  0.00    -0.001 C 
ATOM     16  C   UNL     1      14.630   6.538  37.236  1.00  0.00     0.007 C 
ATOM     17  C   UNL     1      14.896   6.310  39.768  1.00  0.00     0.012 C 
ATOM     18  C   UNL     1      16.986   4.796  37.749  1.00  0.00     0.000 C 
ATOM     19  C   UNL     1      15.501   6.078  36.062  1.00  0.00     0.005 C 
ATOM     20  C   UNL     1      16.944   5.788  36.529  1.00  0.00     0.003 C 
ATOM     21  C   UNL     1      17.922   3.585  37.548  1.00  0.00     0.031 C 
ATOM     22  C   UNL     1      17.945   5.448  35.350  1.00  0.00    -0.008 C 
ATOM     23  C   UNL     1      19.224   4.036  36.965  1.00  0.00    -0.027 C 
ATOM     24  C   UNL     1      19.252   4.906  35.941  1.00  0.00    -0.065 C 
ATOM     25  C   UNL     1      18.268   6.748  34.548  1.00  0.00     0.014 C 
ATOM     26  C   UNL     1      17.356   4.398  34.372  1.00  0.00     0.016 C 
ATOM     27  C   UNL     1      20.582   5.475  35.490  1.00  0.00     0.063 C 
ATOM     28  C   UNL     1      19.385   6.571  33.498  1.00  0.00     0.033 C 
ATOM     29  C   UNL     1      20.584   5.710  33.977  1.00  0.00     0.118 C 
BRANCH  29  30
ATOM     30  O   UNL     1      21.795   6.326  33.617  1.00  0.00    -0.393 OA
ATOM     31  H   UNL     1      22.224   6.627  34.461  1.00  0.00     0.210 HD
ENDBRANCH  29  30
ENDBRANCH   9  11
ENDBRANCH   1   9
TORSDOF 7
ENDMDL
MODEL 2
REMARK VINA RESULT:    -4.716      9.994     12.118
REMARK INTER + INTRA:          -8.856
REMARK INTER:                  -7.372
REMARK INTRA:                  -1.484
REMARK UNBOUND:                -2.349
REMARK SMILES CC[C@H](CC[C@@H](C)[C@H]1CC[C@H]2[C@H]3CC=C4C[C@H](O)CC[C@]4(C)[C@H]3CC[C@@]12C)C(C)C
REMARK SMILES IDX 5 1 4 2 3 3 2 4 1 5 28 6 29 7 30 8 6 9 7 10 8 11 9 12 26 13
REMARK SMILES IDX 10 14 11 15 25 16 27 17 12 18 24 19 23 20 13 21 21 22 14 23
REMARK SMILES IDX 15 24 20 25 22 26 16 27 19 28 17 29 18 30
REMARK H PARENT 18 31
REMARK Flexibility Score: inf
ROOT
ATOM      1  C   UNL     1       6.130   6.037  28.677  1.00  0.00     0.004 C 
ENDROOT
BRANCH   1   2
ATOM      2  C   UNL     1       4.823   6.836  28.907  1.00  0.00     0.004 C 
BRANCH   2   3
ATOM      3  C   UNL     1       5.069   8.350  29.172  1.00  0.00    -0.009 C 
BRANCH   3   4
ATOM      4  C   UNL     1       4.701   9.184  27.912  1.00  0.00     0.000 C 
ATOM      5  C   UNL     1       3.767   8.431  26.959  1.00  0.00     0.004 C 
ENDBRANCH   3   4
BRANCH   3   6
ATOM      6  C   UNL     1       4.322   8.926  30.443  1.00  0.00    -0.014 C 
ATOM      7  C   UNL     1       3.611   7.802  31.213  1.00  0.00     0.007 C 
ATOM      8  C   UNL     1       3.331  10.078  30.187  1.00  0.00     0.007 C 
ENDBRANCH   3   6
ENDBRANCH   2   3
ENDBRANCH   1   2
BRANCH   1   9
ATOM      9  C   UNL     1       6.023   5.038  27.489  1.00  0.00    -0.011 C 
ATOM     10  C   UNL     1       4.534   4.806  27.163  1.00  0.00     0.008 C 
BRANCH   9  11
ATOM     11  C   UNL     1       6.841   5.564  26.250  1.00  0.00    -0.002 C 
ATOM     12  C   UNL     1       7.360   6.995  26.475  1.00  0.00     0.005 C 
ATOM     13  C   UNL     1       8.093   4.774  25.735  1.00  0.00    -0.026 C 
ATOM     14  C   UNL     1       8.538   7.203  25.531  1.00  0.00     0.005 C 
ATOM     15  C   UNL     1       8.812   5.847  24.866  1.00  0.00    -0.001 C 
ATOM     16  C   UNL     1       9.014   4.232  26.892  1.00  0.00     0.007 C 
ATOM     17  C   UNL     1       7.679   3.598  24.806  1.00  0.00     0.012 C 
ATOM     18  C   UNL     1      10.307   5.539  24.554  1.00  0.00     0.000 C 
ATOM     19  C   UNL     1      10.333   4.989  27.081  1.00  0.00     0.005 C 
ATOM     20  C   UNL     1      11.149   5.007  25.771  1.00  0.00     0.003 C 
ATOM     21  C   UNL     1      10.985   6.679  23.764  1.00  0.00     0.031 C 
ATOM     22  C   UNL     1      12.592   5.644  25.921  1.00  0.00    -0.008 C 
ATOM     23  C   UNL     1      12.427   6.354  23.532  1.00  0.00    -0.027 C 
ATOM     24  C   UNL     1      13.190   5.867  24.527  1.00  0.00    -0.065 C 
ATOM     25  C   UNL     1      13.518   4.659  26.703  1.00  0.00     0.014 C 
ATOM     26  C   UNL     1      12.555   6.995  26.681  1.00  0.00     0.016 C 
ATOM     27  C   UNL     1      14.592   5.385  24.217  1.00  0.00     0.063 C 
ATOM     28  C   UNL     1      14.999   5.090  26.736  1.00  0.00     0.033 C 
ATOM     29  C   UNL     1      15.531   5.659  25.393  1.00  0.00     0.118 C 
BRANCH  29  30
ATOM     30  O   UNL     1      16.792   5.112  25.104  1.00  0.00    -0.393 OA
ATOM     31  H   UNL     1      16.634   4.326  24.516  1.00  0.00     0.210 HD
ENDBRANCH  29  30
ENDBRANCH   9  11
ENDBRANCH   1   9
TORSDOF 7
ENDMDL
MODEL 3
REMARK VINA RESULT:    -4.694     13.047     16.480
REMARK INTER + INTRA:          -8.826
REMARK INTER:                  -6.746
REMARK INTRA:                  -2.080
REMARK UNBOUND:                -2.349
REMARK SMILES CC[C@H](CC[C@@H](C)[C@H]1CC[C@H]2[C@H]3CC=C4C[C@H](O)CC[C@]4(C)[C@H]3CC[C@@]12C)C(C)C
REMARK SMILES IDX 5 1 4 2 3 3 2 4 1 5 28 6 29 7 30 8 6 9 7 10 8 11 9 12 26 13
REMARK SMILES IDX 10 14 11 15 25 16 27 17 12 18 24 19 23 20 13 21 21 22 14 23
REMARK SMILES IDX 15 24 20 25 22 26 16 27 19 28 17 29 18 30
REMARK H PARENT 18 31
REMARK Flexibility Score: inf
ROOT
ATOM      1  C   UNL     1      17.516  -4.681  27.449  1.00  0.00     0.004 C 
ENDROOT
BRANCH   1   2
ATOM      2  C   UNL     1      17.181  -6.192  27.448  1.00  0.00     0.004 C 
BRANCH   2   3
ATOM      3  C   UNL     1      15.737  -6.500  27.945  1.00  0.00    -0.009 C 
BRANCH   3   4
ATOM      4  C   UNL     1      14.868  -7.039  26.774  1.00  0.00     0.000 C 
ATOM      5  C   UNL     1      15.663  -7.195  25.474  1.00  0.00     0.004 C 
ENDBRANCH   3   4
BRANCH   3   6
ATOM      6  C   UNL     1      15.663  -7.489  29.180  1.00  0.00    -0.014 C 
ATOM      7  C   UNL     1      14.963  -6.821  30.373  1.00  0.00     0.007 C 
ATOM      8  C   UNL     1      17.000  -8.099  29.645  1.00  0.00     0.007 C 
ENDBRANCH   3   6
ENDBRANCH   2   3
ENDBRANCH   1   2
BRANCH   1   9
ATOM      9  C   UNL     1      16.278  -3.789  27.747  1.00  0.00    -0.011 C 
ATOM     10  C   UNL     1      16.599  -2.873  28.946  1.00  0.00     0.008 C 
BRANCH   9  11
ATOM     11  C   UNL     1      15.855  -2.981  26.463  1.00  0.00    -0.002 C 
ATOM     12  C   UNL     1      16.312  -3.684  25.173  1.00  0.00     0.005 C 
ATOM     13  C   UNL     1      14.348  -2.636  26.204  1.00  0.00    -0.026 C 
ATOM     14  C   UNL     1      15.432  -3.167  24.041  1.00  0.00     0.005 C 
ATOM     15  C   UNL     1      14.357  -2.283  24.688  1.00  0.00    -0.001 C 
ATOM     16  C   UNL     1      13.367  -3.824  26.532  1.00  0.00     0.007 C 
ATOM     17  C   UNL     1      13.913  -1.369  26.993  1.00  0.00     0.012 C 
ATOM     18  C   UNL     1      12.958  -2.312  24.003  1.00  0.00     0.000 C 
ATOM     19  C   UNL     1      12.780  -4.537  25.310  1.00  0.00     0.005 C 
ATOM     20  C   UNL     1      12.050  -3.538  24.388  1.00  0.00     0.003 C 
ATOM     21  C   UNL     1      13.046  -2.039  22.486  1.00  0.00     0.031 C 
ATOM     22  C   UNL     1      11.289  -4.217  23.176  1.00  0.00    -0.008 C 
ATOM     23  C   UNL     1      11.684  -2.124  21.872  1.00  0.00    -0.027 C 
ATOM     24  C   UNL     1      10.851  -3.132  22.185  1.00  0.00    -0.065 C 
ATOM     25  C   UNL     1      10.013  -4.946  23.704  1.00  0.00     0.014 C 
ATOM     26  C   UNL     1      12.178  -5.251  22.438  1.00  0.00     0.016 C 
ATOM     27  C   UNL     1       9.422  -3.094  21.684  1.00  0.00     0.063 C 
ATOM     28  C   UNL     1       9.091  -5.476  22.587  1.00  0.00     0.033 C 
ATOM     29  C   UNL     1       8.915  -4.508  21.387  1.00  0.00     0.118 C 
BRANCH  29  30
ATOM     30  O   UNL     1       7.561  -4.436  21.019  1.00  0.00    -0.393 OA
ATOM     31  H   UNL     1       7.472  -3.654  20.412  1.00  0.00     0.210 HD
ENDBRANCH  29  30
ENDBRANCH   9  11
ENDBRANCH   1   9
TORSDOF 7
ENDMDL
MODEL 4
REMARK VINA RESULT:    -4.663     11.055     13.027
REMARK INTER + INTRA:          -8.784
REMARK INTER:                  -7.609
REMARK INTRA:                  -1.175
REMARK UNBOUND:                -2.349
REMARK SMILES CC[C@H](CC[C@@H](C)[C@H]1CC[C@H]2[C@H]3CC=C4C[C@H](O)CC[C@]4(C)[C@H]3CC[C@@]12C)C(C)C
REMARK SMILES IDX 5 1 4 2 3 3 2 4 1 5 28 6 29 7 30 8 6 9 7 10 8 11 9 12 26 13
REMARK SMILES IDX 10 14 11 15 25 16 27 17 12 18 24 19 23 20 13 21 21 22 14 23
REMARK SMILES IDX 15 24 20 25 22 26 16 27 19 28 17 29 18 30
REMARK H PARENT 18 31
REMARK Flexibility Score: inf
ROOT
ATOM      1  C   UNL     1       7.505   6.539  26.927  1.00  0.00     0.004 C 
ENDROOT
BRANCH   1   2
ATOM      2  C   UNL     1       6.338   6.251  27.903  1.00  0.00     0.004 C 
BRANCH   2   3
ATOM      3  C   UNL     1       4.937   6.359  27.231  1.00  0.00    -0.009 C 
BRANCH   3   4
ATOM      4  C   UNL     1       4.226   4.976  27.244  1.00  0.00     0.000 C 
ATOM      5  C   UNL     1       4.447   4.212  28.553  1.00  0.00     0.004 C 
ENDBRANCH   3   4
BRANCH   3   6
ATOM      6  C   UNL     1       3.991   7.464  27.857  1.00  0.00    -0.014 C 
ATOM      7  C   UNL     1       3.865   8.671  26.915  1.00  0.00     0.007 C 
ATOM      8  C   UNL     1       4.358   7.953  29.271  1.00  0.00     0.007 C 
ENDBRANCH   3   6
ENDBRANCH   2   3
ENDBRANCH   1   2
BRANCH   1   9
ATOM      9  C   UNL     1       8.747   5.641  27.192  1.00  0.00    -0.011 C 
ATOM     10  C   UNL     1       8.325   4.455  28.083  1.00  0.00     0.008 C 
BRANCH   9  11
ATOM     11  C   UNL     1       9.395   5.178  25.833  1.00  0.00    -0.002 C 
ATOM     12  C   UNL     1       8.750   5.881  24.627  1.00  0.00     0.005 C 
ATOM     13  C   UNL     1      10.936   5.336  25.596  1.00  0.00    -0.026 C 
ATOM     14  C   UNL     1       9.746   5.809  23.476  1.00  0.00     0.005 C 
ATOM     15  C   UNL     1      11.036   5.206  24.048  1.00  0.00    -0.001 C 
ATOM     16  C   UNL     1      11.514   6.706  26.116  1.00  0.00     0.007 C 
ATOM     17  C   UNL     1      11.732   4.162  26.232  1.00  0.00     0.012 C 
ATOM     18  C   UNL     1      12.363   5.743  23.433  1.00  0.00     0.000 C 
ATOM     19  C   UNL     1      11.861   7.721  25.022  1.00  0.00     0.005 C 
ATOM     20  C   UNL     1      12.860   7.120  24.011  1.00  0.00     0.003 C 
ATOM     21  C   UNL     1      12.364   5.666  21.891  1.00  0.00     0.031 C 
ATOM     22  C   UNL     1      13.383   8.153  22.930  1.00  0.00    -0.008 C 
ATOM     23  C   UNL     1      13.638   6.235  21.351  1.00  0.00    -0.027 C 
ATOM     24  C   UNL     1      14.129   7.393  21.827  1.00  0.00    -0.065 C 
ATOM     25  C   UNL     1      14.380   9.150  23.602  1.00  0.00     0.014 C 
ATOM     26  C   UNL     1      12.226   8.965  22.295  1.00  0.00     0.016 C 
ATOM     27  C   UNL     1      15.504   7.851  21.387  1.00  0.00     0.063 C 
ATOM     28  C   UNL     1      15.102  10.078  22.602  1.00  0.00     0.033 C 
ATOM     29  C   UNL     1      15.562   9.378  21.296  1.00  0.00     0.118 C 
BRANCH  29  30
ATOM     30  O   UNL     1      16.876   9.763  20.980  1.00  0.00    -0.393 OA
ATOM     31  H   UNL     1      16.899   9.919  19.998  1.00  0.00     0.210 HD
ENDBRANCH  29  30
ENDBRANCH   9  11
ENDBRANCH   1   9
TORSDOF 7
ENDMDL
MODEL 5
REMARK VINA RESULT:    -4.659     12.488     15.115
REMARK INTER + INTRA:          -8.778
REMARK INTER:                  -7.450
REMARK INTRA:                  -1.328
REMARK UNBOUND:                -2.349
REMARK SMILES CC[C@H](CC[C@@H](C)[C@H]1CC[C@H]2[C@H]3CC=C4C[C@H](O)CC[C@]4(C)[C@H]3CC[C@@]12C)C(C)C
REMARK SMILES IDX 5 1 4 2 3 3 2 4 1 5 28 6 29 7 30 8 6 9 7 10 8 11 9 12 26 13
REMARK SMILES IDX 10 14 11 15 25 16 27 17 12 18 24 19 23 20 13 21 21 22 14 23
REMARK SMILES IDX 15 24 20 25 22 26 16 27 19 28 17 29 18 30
REMARK H PARENT 18 31
REMARK Flexibility Score: inf
ROOT
ATOM      1  C   UNL     1      11.893   5.594  21.910  1.00  0.00     0.004 C 
ENDROOT
BRANCH   1   2
ATOM      2  C   UNL     1      12.344   7.057  21.681  1.00  0.00     0.004 C 
BRANCH   2   3
ATOM      3  C   UNL     1      12.149   7.962  22.932  1.00  0.00    -0.009 C 
BRANCH   3   4
ATOM      4  C   UNL     1      12.761   7.282  24.190  1.00  0.00     0.000 C 
ATOM      5  C   UNL     1      11.737   7.087  25.312  1.00  0.00     0.004 C 
ENDBRANCH   3   4
BRANCH   3   6
ATOM      6  C   UNL     1      12.719   9.432  22.777  1.00  0.00    -0.014 C 
ATOM      7  C   UNL     1      13.054   9.734  21.309  1.00  0.00     0.007 C 
ATOM      8  C   UNL     1      13.926   9.792  23.664  1.00  0.00     0.007 C 
ENDBRANCH   3   6
ENDBRANCH   2   3
ENDBRANCH   1   2
BRANCH   1   9
ATOM      9  C   UNL     1      13.017   4.562  21.607  1.00  0.00    -0.011 C 
ATOM     10  C   UNL     1      14.266   5.317  21.107  1.00  0.00     0.008 C 
BRANCH   9  11
ATOM     11  C   UNL     1      13.310   3.675  22.874  1.00  0.00    -0.002 C 
ATOM     12  C   UNL     1      12.022   3.340  23.646  1.00  0.00     0.005 C 
ATOM     13  C   UNL     1      14.042   2.297  22.725  1.00  0.00    -0.026 C 
ATOM     14  C   UNL     1      12.304   2.095  24.478  1.00  0.00     0.005 C 
ATOM     15  C   UNL     1      13.702   1.607  24.078  1.00  0.00    -0.001 C 
ATOM     16  C   UNL     1      13.549   1.455  21.488  1.00  0.00     0.007 C 
ATOM     17  C   UNL     1      15.584   2.479  22.649  1.00  0.00     0.012 C 
ATOM     18  C   UNL     1      13.907   0.062  24.092  1.00  0.00     0.000 C 
ATOM     19  C   UNL     1      12.662   0.254  21.832  1.00  0.00     0.005 C 
ATOM     20  C   UNL     1      13.379  -0.694  22.817  1.00  0.00     0.003 C 
ATOM     21  C   UNL     1      13.472  -0.572  25.430  1.00  0.00     0.031 C 
ATOM     22  C   UNL     1      12.589  -2.035  23.110  1.00  0.00    -0.008 C 
ATOM     23  C   UNL     1      13.645  -2.057  25.373  1.00  0.00    -0.027 C 
ATOM     24  C   UNL     1      13.241  -2.754  24.296  1.00  0.00    -0.065 C 
ATOM     25  C   UNL     1      12.669  -2.971  21.862  1.00  0.00     0.014 C 
ATOM     26  C   UNL     1      11.096  -1.771  23.433  1.00  0.00     0.016 C 
ATOM     27  C   UNL     1      13.588  -4.225  24.194  1.00  0.00     0.063 C 
ATOM     28  C   UNL     1      12.101  -4.385  22.106  1.00  0.00     0.033 C 
ATOM     29  C   UNL     1      12.473  -4.996  23.483  1.00  0.00     0.118 C 
BRANCH  29  30
ATOM     30  O   UNL     1      12.876  -6.332  23.324  1.00  0.00    -0.393 OA
ATOM     31  H   UNL     1      12.053  -6.860  23.147  1.00  0.00     0.210 HD
ENDBRANCH  29  30
ENDBRANCH   9  11
ENDBRANCH   1   9
TORSDOF 7
ENDMDL
MODEL 6
REMARK VINA RESULT:    -4.627     11.093     13.489
REMARK INTER + INTRA:          -8.734
REMARK INTER:                  -6.995
REMARK INTRA:                  -1.738
REMARK UNBOUND:                -2.349
REMARK SMILES CC[C@H](CC[C@@H](C)[C@H]1CC[C@H]2[C@H]3CC=C4C[C@H](O)CC[C@]4(C)[C@H]3CC[C@@]12C)C(C)C
REMARK SMILES IDX 5 1 4 2 3 3 2 4 1 5 28 6 29 7 30 8 6 9 7 10 8 11 9 12 26 13
REMARK SMILES IDX 10 14 11 15 25 16 27 17 12 18 24 19 23 20 13 21 21 22 14 23
REMARK SMILES IDX 15 24 20 25 22 26 16 27 19 28 17 29 18 30
REMARK H PARENT 18 31
REMARK Flexibility Score: inf
ROOT
ATOM      1  C   UNL     1       6.993   1.680  26.544  1.00  0.00     0.004 C 
ENDROOT
BRANCH   1   2
ATOM      2  C   UNL     1       5.993   1.037  25.553  1.00  0.00     0.004 C 
BRANCH   2   3
ATOM      3  C   UNL     1       5.575   1.993  24.397  1.00  0.00    -0.009 C 
BRANCH   3   4
ATOM      4  C   UNL     1       6.037   1.417  23.028  1.00  0.00     0.000 C 
ATOM      5  C   UNL     1       6.576  -0.012  23.142  1.00  0.00     0.004 C 
ENDBRANCH   3   4
BRANCH   3   6
ATOM      6  C   UNL     1       4.029   2.333  24.351  1.00  0.00    -0.014 C 
ATOM      7  C   UNL     1       3.453   2.064  22.952  1.00  0.00     0.007 C 
ATOM      8  C   UNL     1       3.630   3.750  24.806  1.00  0.00     0.007 C 
ENDBRANCH   3   6
ENDBRANCH   2   3
ENDBRANCH   1   2
BRANCH   1   9
ATOM      9  C   UNL     1       6.474   3.019  27.140  1.00  0.00    -0.011 C 
ATOM     10  C   UNL     1       5.589   2.711  28.365  1.00  0.00     0.008 C 
BRANCH   9  11
ATOM     11  C   UNL     1       7.677   3.974  27.485  1.00  0.00    -0.002 C 
ATOM     12  C   UNL     1       9.011   3.210  27.545  1.00  0.00     0.005 C 
ATOM     13  C   UNL     1       7.984   5.220  26.584  1.00  0.00    -0.026 C 
ATOM     14  C   UNL     1      10.126   4.229  27.338  1.00  0.00     0.005 C 
ATOM     15  C   UNL     1       9.445   5.562  26.999  1.00  0.00    -0.001 C 
ATOM     16  C   UNL     1       7.857   4.926  25.043  1.00  0.00     0.007 C 
ATOM     17  C   UNL     1       7.080   6.428  26.960  1.00  0.00     0.012 C 
ATOM     18  C   UNL     1      10.211   6.475  25.995  1.00  0.00     0.000 C 
ATOM     19  C   UNL     1       9.188   4.821  24.290  1.00  0.00     0.005 C 
ATOM     20  C   UNL     1      10.028   6.102  24.478  1.00  0.00     0.003 C 
ATOM     21  C   UNL     1      11.677   6.706  26.419  1.00  0.00     0.031 C 
ATOM     22  C   UNL     1      11.354   6.135  23.613  1.00  0.00    -0.008 C 
ATOM     23  C   UNL     1      12.378   7.548  25.400  1.00  0.00    -0.027 C 
ATOM     24  C   UNL     1      12.235   7.297  24.087  1.00  0.00    -0.065 C 
ATOM     25  C   UNL     1      10.993   6.370  22.112  1.00  0.00     0.014 C 
ATOM     26  C   UNL     1      12.154   4.811  23.726  1.00  0.00     0.016 C 
ATOM     27  C   UNL     1      12.813   8.270  23.080  1.00  0.00     0.063 C 
ATOM     28  C   UNL     1      12.218   6.616  21.207  1.00  0.00     0.033 C 
ATOM     29  C   UNL     1      13.304   7.531  21.833  1.00  0.00     0.118 C 
BRANCH  29  30
ATOM     30  O   UNL     1      13.742   8.475  20.890  1.00  0.00    -0.393 OA
ATOM     31  H   UNL     1      13.728   8.023  20.005  1.00  0.00     0.210 HD
ENDBRANCH  29  30
ENDBRANCH   9  11
ENDBRANCH   1   9
TORSDOF 7
ENDMDL
MODEL 7
REMARK VINA RESULT:    -4.600      0.685      1.722
REMARK INTER + INTRA:          -8.697
REMARK INTER:                  -6.272
REMARK INTRA:                  -2.425
REMARK UNBOUND:                -2.349
REMARK SMILES CC[C@H](CC[C@@H](C)[C@H]1CC[C@H]2[C@H]3CC=C4C[C@H](O)CC[C@]4(C)[C@H]3CC[C@@]12C)C(C)C
REMARK SMILES IDX 5 1 4 2 3 3 2 4 1 5 28 6 29 7 30 8 6 9 7 10 8 11 9 12 26 13
REMARK SMILES IDX 10 14 11 15 25 16 27 17 12 18 24 19 23 20 13 21 21 22 14 23
REMARK SMILES IDX 15 24 20 25 22 26 16 27 19 28 17 29 18 30
REMARK H PARENT 18 31
REMARK Flexibility Score: inf
ROOT
ATOM      1  C   UNL     1      10.714   4.824  37.036  1.00  0.00     0.004 C 
ENDROOT
BRANCH   1   2
ATOM      2  C   UNL     1      10.121   5.626  35.852  1.00  0.00     0.004 C 
BRANCH   2   3
ATOM      3  C   UNL     1      10.858   5.367  34.505  1.00  0.00    -0.009 C 
BRANCH   3   4
ATOM      4  C   UNL     1      11.904   6.487  34.240  1.00  0.00     0.000 C 
ATOM      5  C   UNL     1      11.549   7.803  34.939  1.00  0.00     0.004 C 
ENDBRANCH   3   4
BRANCH   3   6
ATOM      6  C   UNL     1      11.542   3.944  34.393  1.00  0.00    -0.014 C 
ATOM      7  C   UNL     1      12.957   4.064  33.806  1.00  0.00     0.007 C 
ATOM      8  C   UNL     1      10.755   2.869  33.618  1.00  0.00     0.007 C 
ENDBRANCH   3   6
ENDBRANCH   2   3
ENDBRANCH   1   2
BRANCH   1   9
ATOM      9  C   UNL     1      11.604   5.695  37.967  1.00  0.00    -0.011 C 
ATOM     10  C   UNL     1      10.794   6.068  39.226  1.00  0.00     0.008 C 
BRANCH   9  11
ATOM     11  C   UNL     1      12.946   4.944  38.310  1.00  0.00    -0.002 C 
ATOM     12  C   UNL     1      13.134   3.690  37.440  1.00  0.00     0.005 C 
ATOM     13  C   UNL     1      14.319   5.693  38.213  1.00  0.00    -0.026 C 
ATOM     14  C   UNL     1      14.622   3.360  37.437  1.00  0.00     0.005 C 
ATOM     15  C   UNL     1      15.327   4.508  38.173  1.00  0.00    -0.001 C 
ATOM     16  C   UNL     1      14.441   6.620  36.946  1.00  0.00     0.007 C 
ATOM     17  C   UNL     1      14.603   6.526  39.495  1.00  0.00     0.012 C 
ATOM     18  C   UNL     1      16.747   4.876  37.647  1.00  0.00     0.000 C 
ATOM     19  C   UNL     1      15.351   6.085  35.835  1.00  0.00     0.005 C 
ATOM     20  C   UNL     1      16.769   5.802  36.374  1.00  0.00     0.003 C 
ATOM     21  C   UNL     1      17.671   3.643  37.550  1.00  0.00     0.031 C 
ATOM     22  C   UNL     1      17.811   5.384  35.257  1.00  0.00    -0.008 C 
ATOM     23  C   UNL     1      19.002   4.044  36.996  1.00  0.00    -0.027 C 
ATOM     24  C   UNL     1      19.085   4.858  35.929  1.00  0.00    -0.065 C 
ATOM     25  C   UNL     1      18.186   6.635  34.400  1.00  0.00     0.014 C 
ATOM     26  C   UNL     1      17.245   4.291  34.314  1.00  0.00     0.016 C 
ATOM     27  C   UNL     1      20.440   5.384  35.503  1.00  0.00     0.063 C 
ATOM     28  C   UNL     1      19.341   6.386  33.408  1.00  0.00     0.033 C 
ATOM     29  C   UNL     1      20.507   5.536  33.981  1.00  0.00     0.118 C 
BRANCH  29  30
ATOM     30  O   UNL     1      21.740   6.115  33.638  1.00  0.00    -0.393 OA
ATOM     31  H   UNL     1      22.405   5.780  34.296  1.00  0.00     0.210 HD
ENDBRANCH  29  30
ENDBRANCH   9  11
ENDBRANCH   1   9
TORSDOF 7
ENDMDL
MODEL 8
REMARK VINA RESULT:    -4.569     11.585     14.522
REMARK INTER + INTRA:          -8.654
REMARK INTER:                  -6.239
REMARK INTRA:                  -2.414
REMARK UNBOUND:                -2.349
REMARK SMILES CC[C@H](CC[C@@H](C)[C@H]1CC[C@H]2[C@H]3CC=C4C[C@H](O)CC[C@]4(C)[C@H]3CC[C@@]12C)C(C)C
REMARK SMILES IDX 5 1 4 2 3 3 2 4 1 5 28 6 29 7 30 8 6 9 7 10 8 11 9 12 26 13
REMARK SMILES IDX 10 14 11 15 25 16 27 17 12 18 24 19 23 20 13 21 21 22 14 23
REMARK SMILES IDX 15 24 20 25 22 26 16 27 19 28 17 29 18 30
REMARK H PARENT 18 31
REMARK Flexibility Score: inf
ROOT
ATOM      1  C   UNL     1      15.924   7.371  23.050  1.00  0.00     0.004 C 
ENDROOT
BRANCH   1   2
ATOM      2  C   UNL     1      15.302   8.771  23.271  1.00  0.00     0.004 C 
BRANCH   2   3
ATOM      3  C   UNL     1      13.750   8.779  23.145  1.00  0.00    -0.009 C 
BRANCH   3   4
ATOM      4  C   UNL     1      13.108   9.361  24.436  1.00  0.00     0.000 C 
ATOM      5  C   UNL     1      12.663   8.270  25.416  1.00  0.00     0.004 C 
ENDBRANCH   3   4
BRANCH   3   6
ATOM      6  C   UNL     1      13.197   9.539  21.871  1.00  0.00    -0.014 C 
ATOM      7  C   UNL     1      12.231   8.645  21.079  1.00  0.00     0.007 C 
ATOM      8  C   UNL     1      14.254  10.125  20.915  1.00  0.00     0.007 C 
ENDBRANCH   3   6
ENDBRANCH   2   3
ENDBRANCH   1   2
BRANCH   1   9
ATOM      9  C   UNL     1      15.004   6.426  22.226  1.00  0.00    -0.011 C 
ATOM     10  C   UNL     1      15.702   6.086  20.893  1.00  0.00     0.008 C 
BRANCH   9  11
ATOM     11  C   UNL     1      14.637   5.143  23.063  1.00  0.00    -0.002 C 
ATOM     12  C   UNL     1      14.674   5.421  24.576  1.00  0.00     0.005 C 
ATOM     13  C   UNL     1      13.268   4.414  22.836  1.00  0.00    -0.026 C 
ATOM     14  C   UNL     1      13.814   4.360  25.251  1.00  0.00     0.005 C 
ATOM     15  C   UNL     1      13.146   3.555  24.128  1.00  0.00    -0.001 C 
ATOM     16  C   UNL     1      12.053   5.400  22.660  1.00  0.00     0.007 C 
ATOM     17  C   UNL     1      13.335   3.449  21.619  1.00  0.00     0.012 C 
ATOM     18  C   UNL     1      11.708   3.037  24.433  1.00  0.00     0.000 C 
ATOM     19  C   UNL     1      11.109   5.488  23.863  1.00  0.00     0.005 C 
ATOM     20  C   UNL     1      10.560   4.094  24.234  1.00  0.00     0.003 C 
ATOM     21  C   UNL     1      11.637   2.267  25.769  1.00  0.00     0.031 C 
ATOM     22  C   UNL     1       9.462   4.117  25.376  1.00  0.00    -0.008 C 
ATOM     23  C   UNL     1      10.230   1.834  26.035  1.00  0.00    -0.027 C 
ATOM     24  C   UNL     1       9.204   2.683  25.854  1.00  0.00    -0.065 C 
ATOM     25  C   UNL     1       8.128   4.694  24.805  1.00  0.00     0.014 C 
ATOM     26  C   UNL     1       9.899   4.985  26.584  1.00  0.00     0.016 C 
ATOM     27  C   UNL     1       7.785   2.163  25.962  1.00  0.00     0.063 C 
ATOM     28  C   UNL     1       6.934   4.580  25.776  1.00  0.00     0.033 C 
ATOM     29  C   UNL     1       6.860   3.234  26.545  1.00  0.00     0.118 C 
BRANCH  29  30
ATOM     30  O   UNL     1       5.542   2.747  26.538  1.00  0.00    -0.393 OA
ATOM     31  H   UNL     1       5.083   3.153  27.321  1.00  0.00     0.210 HD
ENDBRANCH  29  30
ENDBRANCH   9  11
ENDBRANCH   1   9
TORSDOF 7
ENDMDL
MODEL 9
REMARK VINA RESULT:    -4.547      3.029      7.886
REMARK INTER + INTRA:          -8.624
REMARK INTER:                  -6.804
REMARK INTRA:                  -1.820
REMARK UNBOUND:                -2.349
REMARK SMILES CC[C@H](CC[C@@H](C)[C@H]1CC[C@H]2[C@H]3CC=C4C[C@H](O)CC[C@]4(C)[C@H]3CC[C@@]12C)C(C)C
REMARK SMILES IDX 5 1 4 2 3 3 2 4 1 5 28 6 29 7 30 8 6 9 7 10 8 11 9 12 26 13
REMARK SMILES IDX 10 14 11 15 25 16 27 17 12 18 24 19 23 20 13 21 21 22 14 23
REMARK SMILES IDX 15 24 20 25 22 26 16 27 19 28 17 29 18 30
REMARK H PARENT 18 31
REMARK Flexibility Score: inf
ROOT
ATOM      1  C   UNL     1      19.020   5.972  32.924  1.00  0.00     0.004 C 
ENDROOT
BRANCH   1   2
ATOM      2  C   UNL     1      20.567   5.939  32.886  1.00  0.00     0.004 C 
BRANCH   2   3
ATOM      3  C   UNL     1      21.218   7.326  33.161  1.00  0.00    -0.009 C 
BRANCH   3   4
ATOM      4  C   UNL     1      20.267   8.467  32.699  1.00  0.00     0.000 C 
ATOM      5  C   UNL     1      20.863   9.309  31.567  1.00  0.00     0.004 C 
ENDBRANCH   3   4
BRANCH   3   6
ATOM      6  C   UNL     1      21.660   7.560  34.663  1.00  0.00    -0.014 C 
ATOM      7  C   UNL     1      21.671   6.235  35.441  1.00  0.00     0.007 C 
ATOM      8  C   UNL     1      20.857   8.611  35.454  1.00  0.00     0.007 C 
ENDBRANCH   3   6
ENDBRANCH   2   3
ENDBRANCH   1   2
BRANCH   1   9
ATOM      9  C   UNL     1      18.410   4.764  33.691  1.00  0.00    -0.011 C 
ATOM     10  C   UNL     1      19.402   3.584  33.633  1.00  0.00     0.008 C 
BRANCH   9  11
ATOM     11  C   UNL     1      18.042   5.174  35.167  1.00  0.00    -0.002 C 
ATOM     12  C   UNL     1      17.768   6.684  35.286  1.00  0.00     0.005 C 
ATOM     13  C   UNL     1      16.829   4.501  35.897  1.00  0.00    -0.026 C 
ATOM     14  C   UNL     1      16.923   6.892  36.537  1.00  0.00     0.005 C 
ATOM     15  C   UNL     1      16.568   5.495  37.065  1.00  0.00    -0.001 C 
ATOM     16  C   UNL     1      15.564   4.320  34.977  1.00  0.00     0.007 C 
ATOM     17  C   UNL     1      17.227   3.129  36.510  1.00  0.00     0.012 C 
ATOM     18  C   UNL     1      15.167   5.363  37.733  1.00  0.00     0.000 C 
ATOM     19  C   UNL     1      14.411   5.287  35.261  1.00  0.00     0.005 C 
ATOM     20  C   UNL     1      13.963   5.190  36.735  1.00  0.00     0.003 C 
ATOM     21  C   UNL     1      14.937   6.431  38.824  1.00  0.00     0.031 C 
ATOM     22  C   UNL     1      12.678   6.052  37.075  1.00  0.00    -0.008 C 
ATOM     23  C   UNL     1      13.563   6.288  39.399  1.00  0.00    -0.027 C 
ATOM     24  C   UNL     1      12.499   6.108  38.597  1.00  0.00    -0.065 C 
ATOM     25  C   UNL     1      11.416   5.373  36.455  1.00  0.00     0.014 C 
ATOM     26  C   UNL     1      12.784   7.497  36.522  1.00  0.00     0.016 C 
ATOM     27  C   UNL     1      11.152   5.793  39.214  1.00  0.00     0.063 C 
ATOM     28  C   UNL     1      10.084   6.020  36.889  1.00  0.00     0.033 C 
ATOM     29  C   UNL     1      10.021   6.411  38.390  1.00  0.00     0.118 C 
BRANCH  29  30
ATOM     30  O   UNL     1       8.790   6.016  38.940  1.00  0.00    -0.393 OA
ATOM     31  H   UNL     1       8.879   6.098  39.927  1.00  0.00     0.210 HD
ENDBRANCH  29  30
ENDBRANCH   9  11
ENDBRANCH   1   9
TORSDOF 7
ENDMDL
