MODEL 1
REMARK VINA RESULT:    86.227      0.000      0.000
REMARK INTER + INTRA:         188.673
REMARK INTER:                 182.003
REMARK INTRA:                   6.670
REMARK UNBOUND:                 6.670
REMARK SMILES CCC(=O)CCCCC[C@H]1NC(=O)[C@H]2CCCCN2C(=O)[C@@H]([C@@H](C)CC)NC(=O)[C@@H](Cc2cn(OC)c3ccccc23)NC1=O
REMARK SMILES IDX 9 1 10 2 44 3 43 4 45 6 30 7 28 8 27 9 29 11 22 12 23 14
REMARK SMILES IDX 24 15 25 16 26 17 31 18 32 19 33 20 42 21 34 22 37 23 41 24
REMARK SMILES IDX 38 25 40 26 39 27 35 28 36 29 11 30 12 31 13 33 14 34 19 35
REMARK SMILES IDX 15 36 18 37 16 38 17 39 20 40 21 41 8 43 7 44 6 45 5 46 3 47
REMARK SMILES IDX 4 48 2 49 1 50
REMARK H PARENT 43 5 27 10 11 32
REMARK Flexibility Score: 80.00
ROOT
ATOM      1  C   UNL     1      -8.646  14.980 -17.052  1.00  0.00     0.035 C 
ENDROOT
BRANCH   1   2
ATOM      2  C   UNL     1      -7.376  14.753 -16.196  1.00  0.00     0.171 C 
BRANCH   2   3
ATOM      3  C   UNL     1      -7.706  14.102 -14.864  1.00  0.00     0.243 C 
ATOM      4  N   UNL     1      -7.245  14.661 -13.630  1.00  0.00    -0.342 N 
ATOM      5  H   UNL     1      -6.217  14.651 -13.452  1.00  0.00     0.164 HD
ATOM      6  O   UNL     1      -8.307  12.996 -14.836  1.00  0.00    -0.273 OA
BRANCH   4   7
ATOM      7  C   UNL     1      -8.104  15.199 -12.571  1.00  0.00     0.175 C 
BRANCH   7   8
ATOM      8  C   UNL     1      -7.914  16.686 -12.552  1.00  0.00     0.243 C 
ATOM      9  N   UNL     1      -8.995  17.528 -12.145  1.00  0.00    -0.342 N 
ATOM     10  H   UNL     1      -9.714  17.137 -11.498  1.00  0.00     0.164 HD
ATOM     11  O   UNL     1      -6.821  17.190 -12.926  1.00  0.00    -0.273 OA
BRANCH   9  12
ATOM     12  C   UNL     1      -9.181  18.876 -12.679  1.00  0.00     0.174 CG0
ATOM     13  G   UNL     1      -8.715  18.903 -14.116  1.00  0.00     0.000 G0
BRANCH  12  14
ATOM     14  C   UNL     1     -10.650  19.354 -12.465  1.00  0.00     0.018 C 
ATOM     15  C   UNL     1     -11.183  18.893 -11.099  1.00  0.00     0.010 C 
BRANCH  14  16
ATOM     16  C   UNL     1     -10.839  20.882 -12.648  1.00  0.00     0.002 C 
ATOM     17  C   UNL     1     -11.008  21.289 -14.114  1.00  0.00     0.004 C 
ENDBRANCH  14  16
ENDBRANCH  12  14
ENDBRANCH   9  12
ENDBRANCH   7   8
BRANCH   7  18
ATOM     18  C   UNL     1      -9.596  14.821 -12.738  1.00  0.00     0.073 C 
BRANCH  18  19
ATOM     19  C   UNL     1      -9.832  13.379 -12.382  1.00  0.00    -0.016 A 
ATOM     20  C   UNL     1      -9.303  12.278 -13.039  1.00  0.00     0.134 A 
ATOM     21  C   UNL     1     -10.761  12.876 -11.493  1.00  0.00     0.006 A 
ATOM     22  N   UNL     1      -9.864  11.137 -12.578  1.00  0.00    -0.191 N 
ATOM     23  C   UNL     1     -10.756  11.504 -11.622  1.00  0.00     0.087 A 
ATOM     24  C   UNL     1     -11.617  13.538 -10.611  1.00  0.00     0.011 A 
ATOM     25  C   UNL     1     -11.596  10.712 -10.824  1.00  0.00     0.030 A 
ATOM     26  C   UNL     1     -12.478  12.763  -9.821  1.00  0.00     0.001 A 
ATOM     27  C   UNL     1     -12.461  11.355  -9.921  1.00  0.00     0.002 A 
BRANCH  22  28
ATOM     28  O   UNL     1      -9.576   9.895 -13.125  1.00  0.00    -0.417 OA
ATOM     29  C   UNL     1     -10.488   9.127 -13.898  1.00  0.00     0.313 C 
ENDBRANCH  22  28
ENDBRANCH  18  19
ENDBRANCH   7  18
ENDBRANCH   4   7
ENDBRANCH   2   3
BRANCH   2  30
ATOM     30  N   UNL     1      -6.674  16.037 -16.019  1.00  0.00    -0.343 N 
ATOM     31  C   UNL     1      -7.319  17.300 -16.260  1.00  0.00     0.243 C 
ATOM     32  H   UNL     1      -5.741  16.041 -15.561  1.00  0.00     0.164 HD
ATOM     33  O   UNL     1      -8.421  17.323 -16.873  1.00  0.00    -0.273 OA
BRANCH  31  34
ATOM     34  C   UNL     1      -6.767  18.610 -15.729  1.00  0.00     0.174 C 
ATOM     35  N   UNL     1      -7.297  19.024 -14.414  1.00  0.00    -0.329 N 
ATOM     36  C   UNL     1      -6.900  19.781 -16.715  1.00  0.00     0.035 C 
ATOM     37  C   UNL     1      -6.540  20.120 -13.798  1.00  0.00     0.120 C 
ATOM     38  C   UNL     1      -6.166  21.016 -16.154  1.00  0.00     0.004 C 
ATOM     39  C   UNL     1      -6.596  21.356 -14.710  1.00  0.00     0.022 C 
BRANCH  35  40
ATOM     40  C   UNL     1      -8.705  18.986 -14.127  1.00  0.00     0.246 CG0
ATOM     41  O   UNL     1      -9.532  19.101 -15.070  1.00  0.00    -0.272 OA
ATOM     42  G   UNL     1      -9.193  18.799 -12.710  1.00  0.00     0.000 G0
ENDBRANCH  35  40
ENDBRANCH  31  34
ENDBRANCH   2  30
ENDBRANCH   1   2
BRANCH   1  43
ATOM     43  C   UNL     1      -8.759  14.016 -18.247  1.00  0.00     0.003 C 
BRANCH  43  44
ATOM     44  C   UNL     1      -9.220  14.751 -19.518  1.00  0.00     0.001 C 
BRANCH  44  45
ATOM     45  C   UNL     1      -8.297  14.487 -20.721  1.00  0.00     0.008 C 
BRANCH  45  46
ATOM     46  C   UNL     1      -8.736  13.276 -21.559  1.00  0.00     0.075 C 
BRANCH  46  47
ATOM     47  C   UNL     1      -7.607  12.303 -21.839  1.00  0.00     0.132 C 
ATOM     48  O   UNL     1      -7.512  11.276 -21.183  1.00  0.00    -0.300 OA
BRANCH  47  49
ATOM     49  C   UNL     1      -6.581  12.548 -22.923  1.00  0.00     0.072 C 
ATOM     50  C   UNL     1      -7.084  12.314 -24.349  1.00  0.00     0.012 C 
ENDBRANCH  47  49
ENDBRANCH  46  47
ENDBRANCH  45  46
ENDBRANCH  44  45
ENDBRANCH  43  44
ENDBRANCH   1  43
TORSDOF 12
ENDMDL
MODEL 2
REMARK VINA RESULT:    87.249      2.249      3.660
REMARK INTER + INTRA:         190.830
REMARK INTER:                 186.074
REMARK INTRA:                   4.755
REMARK UNBOUND:                 6.670
REMARK SMILES CCC(=O)CCCCC[C@H]1NC(=O)[C@H]2CCCCN2C(=O)[C@@H]([C@@H](C)CC)NC(=O)[C@@H](Cc2cn(OC)c3ccccc23)NC1=O
REMARK SMILES IDX 9 1 10 2 44 3 43 4 45 6 30 7 28 8 27 9 29 11 22 12 23 14
REMARK SMILES IDX 24 15 25 16 26 17 31 18 32 19 33 20 42 21 34 22 37 23 41 24
REMARK SMILES IDX 38 25 40 26 39 27 35 28 36 29 11 30 12 31 13 33 14 34 19 35
REMARK SMILES IDX 15 36 18 37 16 38 17 39 20 40 21 41 8 43 7 44 6 45 5 46 3 47
REMARK SMILES IDX 4 48 2 49 1 50
REMARK H PARENT 43 5 27 10 11 32
REMARK Flexibility Score: 80.00
ROOT
ATOM      1  C   UNL     1      -9.493  13.607 -20.741  1.00  0.00     0.035 C 
ENDROOT
BRANCH   1   2
ATOM      2  C   UNL     1      -8.898  14.400 -19.552  1.00  0.00     0.171 C 
BRANCH   2   3
ATOM      3  C   UNL     1      -8.897  13.578 -18.275  1.00  0.00     0.243 C 
ATOM      4  N   UNL     1      -7.757  13.552 -17.410  1.00  0.00    -0.342 N 
ATOM      5  H   UNL     1      -6.887  13.105 -17.773  1.00  0.00     0.164 HD
ATOM      6  O   UNL     1      -9.868  12.821 -18.013  1.00  0.00    -0.273 OA
BRANCH   4   7
ATOM      7  C   UNL     1      -7.727  14.056 -16.034  1.00  0.00     0.175 C 
BRANCH   7   8
ATOM      8  C   UNL     1      -6.979  15.355 -16.048  1.00  0.00     0.243 C 
ATOM      9  N   UNL     1      -7.552  16.504 -15.419  1.00  0.00    -0.342 N 
ATOM     10  H   UNL     1      -8.226  16.357 -14.636  1.00  0.00     0.164 HD
ATOM     11  O   UNL     1      -5.871  15.442 -16.642  1.00  0.00    -0.273 OA
BRANCH   9  12
ATOM     12  C   UNL     1      -7.303  17.863 -15.894  1.00  0.00     0.174 CG0
ATOM     13  G   UNL     1      -8.628  18.538 -16.163  1.00  0.00     0.000 G0
BRANCH  12  14
ATOM     14  C   UNL     1      -6.376  18.631 -14.904  1.00  0.00     0.018 C 
ATOM     15  C   UNL     1      -6.187  20.091 -15.348  1.00  0.00     0.010 C 
BRANCH  14  16
ATOM     16  C   UNL     1      -6.846  18.556 -13.427  1.00  0.00     0.002 C 
ATOM     17  C   UNL     1      -5.726  18.866 -12.431  1.00  0.00     0.004 C 
ENDBRANCH  14  16
ENDBRANCH  12  14
ENDBRANCH   9  12
ENDBRANCH   7   8
BRANCH   7  18
ATOM     18  C   UNL     1      -9.133  14.219 -15.408  1.00  0.00     0.073 C 
BRANCH  18  19
ATOM     19  C   UNL     1      -9.386  13.168 -14.363  1.00  0.00    -0.016 A 
ATOM     20  C   UNL     1      -9.054  11.825 -14.457  1.00  0.00     0.134 A 
ATOM     21  C   UNL     1     -10.163  13.284 -13.226  1.00  0.00     0.006 A 
ATOM     22  N   UNL     1      -9.588  11.132 -13.426  1.00  0.00    -0.191 N 
ATOM     23  C   UNL     1     -10.264  12.030 -12.665  1.00  0.00     0.087 A 
ATOM     24  C   UNL     1     -10.800  14.400 -12.679  1.00  0.00     0.011 A 
ATOM     25  C   UNL     1     -10.988  11.839 -11.478  1.00  0.00     0.030 A 
ATOM     26  C   UNL     1     -11.545  14.222 -11.505  1.00  0.00     0.001 A 
ATOM     27  C   UNL     1     -11.631  12.949 -10.902  1.00  0.00     0.002 A 
BRANCH  22  28
ATOM     28  O   UNL     1      -9.481   9.752 -13.326  1.00  0.00    -0.417 OA
ATOM     29  C   UNL     1     -10.501   8.838 -13.702  1.00  0.00     0.313 C 
ENDBRANCH  22  28
ENDBRANCH  18  19
ENDBRANCH   7  18
ENDBRANCH   4   7
ENDBRANCH   2   3
BRANCH   2  30
ATOM     30  N   UNL     1      -9.641  15.663 -19.390  1.00  0.00    -0.343 N 
ATOM     31  C   UNL     1      -9.458  16.515 -18.246  1.00  0.00     0.243 C 
ATOM     32  H   UNL     1     -10.195  16.026 -20.191  1.00  0.00     0.164 HD
ATOM     33  O   UNL     1      -8.846  16.071 -17.238  1.00  0.00    -0.273 OA
BRANCH  31  34
ATOM     34  C   UNL     1      -9.900  17.967 -18.235  1.00  0.00     0.174 C 
ATOM     35  N   UNL     1      -9.040  18.876 -17.451  1.00  0.00    -0.329 N 
ATOM     36  C   UNL     1     -11.362  18.164 -17.803  1.00  0.00     0.035 C 
ATOM     37  C   UNL     1      -9.314  20.296 -17.697  1.00  0.00     0.120 C 
ATOM     38  C   UNL     1     -11.761  19.642 -17.984  1.00  0.00     0.004 C 
ATOM     39  C   UNL     1     -10.768  20.611 -17.305  1.00  0.00     0.022 C 
BRANCH  35  40
ATOM     40  C   UNL     1      -8.599  18.535 -16.126  1.00  0.00     0.246 CG0
ATOM     41  O   UNL     1      -9.314  18.846 -15.137  1.00  0.00    -0.272 OA
ATOM     42  G   UNL     1      -7.296  17.800 -15.918  1.00  0.00     0.000 G0
ENDBRANCH  35  40
ENDBRANCH  31  34
ENDBRANCH   2  30
ENDBRANCH   1   2
BRANCH   1  43
ATOM     43  C   UNL     1      -8.551  13.527 -21.956  1.00  0.00     0.003 C 
BRANCH  43  44
ATOM     44  C   UNL     1      -7.875  12.148 -22.052  1.00  0.00     0.001 C 
BRANCH  44  45
ATOM     45  C   UNL     1      -7.046  11.984 -23.338  1.00  0.00     0.008 C 
BRANCH  45  46
ATOM     46  C   UNL     1      -5.990  13.086 -23.515  1.00  0.00     0.075 C 
BRANCH  46  47
ATOM     47  C   UNL     1      -5.845  13.548 -24.952  1.00  0.00     0.132 C 
ATOM     48  O   UNL     1      -6.434  12.954 -25.844  1.00  0.00    -0.300 OA
BRANCH  47  49
ATOM     49  C   UNL     1      -4.997  14.740 -25.335  1.00  0.00     0.072 C 
ATOM     50  C   UNL     1      -5.460  15.483 -26.590  1.00  0.00     0.012 C 
ENDBRANCH  47  49
ENDBRANCH  46  47
ENDBRANCH  45  46
ENDBRANCH  44  45
ENDBRANCH  43  44
ENDBRANCH   1  43
TORSDOF 12
ENDMDL
MODEL 3
REMARK VINA RESULT:    87.839      3.206      9.438
REMARK INTER + INTRA:         192.076
REMARK INTER:                 189.739
REMARK INTRA:                   2.337
REMARK UNBOUND:                 6.670
REMARK SMILES CCC(=O)CCCCC[C@H]1NC(=O)[C@H]2CCCCN2C(=O)[C@@H]([C@@H](C)CC)NC(=O)[C@@H](Cc2cn(OC)c3ccccc23)NC1=O
REMARK SMILES IDX 9 1 10 2 44 3 43 4 45 6 30 7 28 8 27 9 29 11 22 12 23 14
REMARK SMILES IDX 24 15 25 16 26 17 31 18 32 19 33 20 42 21 34 22 37 23 41 24
REMARK SMILES IDX 38 25 40 26 39 27 35 28 36 29 11 30 12 31 13 33 14 34 19 35
REMARK SMILES IDX 15 36 18 37 16 38 17 39 20 40 21 41 8 43 7 44 6 45 5 46 3 47
REMARK SMILES IDX 4 48 2 49 1 50
REMARK H PARENT 43 5 27 10 11 32
REMARK Flexibility Score: 80.00
ROOT
ATOM      1  C   UNL     1      -9.781  17.437 -17.625  1.00  0.00     0.035 C 
ENDROOT
BRANCH   1   2
ATOM      2  C   UNL     1      -8.805  16.269 -17.906  1.00  0.00     0.171 C 
BRANCH   2   3
ATOM      3  C   UNL     1      -8.998  15.700 -19.301  1.00  0.00     0.243 C 
ATOM      4  N   UNL     1      -8.123  14.694 -19.819  1.00  0.00    -0.342 N 
ATOM      5  H   UNL     1      -7.130  14.964 -19.998  1.00  0.00     0.164 HD
ATOM      6  O   UNL     1      -9.874  16.185 -20.062  1.00  0.00    -0.273 OA
BRANCH   4   7
ATOM      7  C   UNL     1      -8.517  13.327 -20.170  1.00  0.00     0.175 C 
BRANCH   7   8
ATOM      8  C   UNL     1      -9.714  12.977 -19.337  1.00  0.00     0.243 C 
ATOM      9  N   UNL     1      -9.659  13.153 -17.919  1.00  0.00    -0.342 N 
ATOM     10  H   UNL     1      -9.009  13.870 -17.532  1.00  0.00     0.164 HD
ATOM     11  O   UNL     1     -10.746  12.499 -19.879  1.00  0.00    -0.273 OA
BRANCH   9  12
ATOM     12  C   UNL     1     -10.404  12.299 -16.995  1.00  0.00     0.174 CG0
ATOM     13  G   UNL     1     -10.242  12.837 -15.593  1.00  0.00     0.000 G0
BRANCH  12  14
ATOM     14  C   UNL     1     -11.884  12.145 -17.462  1.00  0.00     0.018 C 
ATOM     15  C   UNL     1     -12.467  10.800 -16.998  1.00  0.00     0.010 C 
BRANCH  14  16
ATOM     16  C   UNL     1     -12.797  13.323 -17.033  1.00  0.00     0.002 C 
ATOM     17  C   UNL     1     -14.189  12.865 -16.590  1.00  0.00     0.004 C 
ENDBRANCH  14  16
ENDBRANCH  12  14
ENDBRANCH   9  12
ENDBRANCH   7   8
BRANCH   7  18
ATOM     18  C   UNL     1      -8.805  13.139 -21.680  1.00  0.00     0.073 C 
BRANCH  18  19
ATOM     19  C   UNL     1      -7.531  13.136 -22.478  1.00  0.00    -0.016 A 
ATOM     20  C   UNL     1      -6.885  14.251 -22.992  1.00  0.00     0.134 A 
ATOM     21  C   UNL     1      -6.883  12.044 -23.020  1.00  0.00     0.006 A 
ATOM     22  N   UNL     1      -5.875  13.878 -23.810  1.00  0.00    -0.191 N 
ATOM     23  C   UNL     1      -5.869  12.521 -23.823  1.00  0.00     0.087 A 
ATOM     24  C   UNL     1      -7.142  10.679 -22.879  1.00  0.00     0.011 A 
ATOM     25  C   UNL     1      -5.021  11.631 -24.500  1.00  0.00     0.030 A 
ATOM     26  C   UNL     1      -6.317   9.777 -23.566  1.00  0.00     0.001 A 
ATOM     27  C   UNL     1      -5.255  10.251 -24.365  1.00  0.00     0.002 A 
BRANCH  22  28
ATOM     28  O   UNL     1      -5.122  14.798 -24.525  1.00  0.00    -0.417 OA
ATOM     29  C   UNL     1      -4.776  14.662 -25.896  1.00  0.00     0.313 C 
ENDBRANCH  22  28
ENDBRANCH  18  19
ENDBRANCH   7  18
ENDBRANCH   4   7
ENDBRANCH   2   3
BRANCH   2  30
ATOM     30  N   UNL     1      -8.970  15.237 -16.865  1.00  0.00    -0.343 N 
ATOM     31  C   UNL     1      -7.850  14.683 -16.153  1.00  0.00     0.243 C 
ATOM     32  H   UNL     1      -9.928  15.014 -16.528  1.00  0.00     0.164 HD
ATOM     33  O   UNL     1      -6.683  14.888 -16.585  1.00  0.00    -0.273 OA
BRANCH  31  34
ATOM     34  C   UNL     1      -8.010  13.930 -14.846  1.00  0.00     0.174 C 
ATOM     35  N   UNL     1      -8.922  12.770 -14.901  1.00  0.00    -0.329 N 
ATOM     36  C   UNL     1      -8.407  14.825 -13.662  1.00  0.00     0.035 C 
ATOM     37  C   UNL     1      -8.828  11.897 -13.724  1.00  0.00     0.120 C 
ATOM     38  C   UNL     1      -8.380  14.002 -12.358  1.00  0.00     0.004 C 
ATOM     39  C   UNL     1      -9.200  12.696 -12.464  1.00  0.00     0.022 C 
BRANCH  35  40
ATOM     40  C   UNL     1     -10.215  12.861 -15.521  1.00  0.00     0.246 CG0
ATOM     41  O   UNL     1     -11.160  13.420 -14.905  1.00  0.00    -0.272 OA
ATOM     42  G   UNL     1     -10.441  12.302 -16.907  1.00  0.00     0.000 G0
ENDBRANCH  35  40
ENDBRANCH  31  34
ENDBRANCH   2  30
ENDBRANCH   1   2
BRANCH   1  43
ATOM     43  C   UNL     1      -9.074  18.736 -17.197  1.00  0.00     0.003 C 
BRANCH  43  44
ATOM     44  C   UNL     1      -9.848  19.453 -16.076  1.00  0.00     0.001 C 
BRANCH  44  45
ATOM     45  C   UNL     1      -9.031  19.573 -14.778  1.00  0.00     0.008 C 
BRANCH  45  46
ATOM     46  C   UNL     1      -7.613  18.994 -14.907  1.00  0.00     0.075 C 
BRANCH  46  47
ATOM     47  C   UNL     1      -6.525  20.017 -14.645  1.00  0.00     0.132 C 
ATOM     48  O   UNL     1      -6.226  20.823 -15.515  1.00  0.00    -0.300 OA
BRANCH  47  49
ATOM     49  C   UNL     1      -5.787  20.092 -13.327  1.00  0.00     0.072 C 
ATOM     50  C   UNL     1      -5.255  21.481 -12.966  1.00  0.00     0.012 C 
ENDBRANCH  47  49
ENDBRANCH  46  47
ENDBRANCH  45  46
ENDBRANCH  44  45
ENDBRANCH  43  44
ENDBRANCH   1  43
TORSDOF 12
ENDMDL
MODEL 4
REMARK VINA RESULT:    87.957      2.515      8.321
REMARK INTER + INTRA:         192.325
REMARK INTER:                 186.173
REMARK INTRA:                   6.152
REMARK UNBOUND:                 6.670
REMARK SMILES CCC(=O)CCCCC[C@H]1NC(=O)[C@H]2CCCCN2C(=O)[C@@H]([C@@H](C)CC)NC(=O)[C@@H](Cc2cn(OC)c3ccccc23)NC1=O
REMARK SMILES IDX 9 1 10 2 44 3 43 4 45 6 30 7 28 8 27 9 29 11 22 12 23 14
REMARK SMILES IDX 24 15 25 16 26 17 31 18 32 19 33 20 42 21 34 22 37 23 41 24
REMARK SMILES IDX 38 25 40 26 39 27 35 28 36 29 11 30 12 31 13 33 14 34 19 35
REMARK SMILES IDX 15 36 18 37 16 38 17 39 20 40 21 41 8 43 7 44 6 45 5 46 3 47
REMARK SMILES IDX 4 48 2 49 1 50
REMARK H PARENT 43 5 27 10 11 32
REMARK Flexibility Score: 80.00
ROOT
ATOM      1  C   UNL     1     -10.905  13.437 -12.629  1.00  0.00     0.035 C 
ENDROOT
BRANCH   1   2
ATOM      2  C   UNL     1      -9.573  12.690 -12.883  1.00  0.00     0.171 C 
BRANCH   2   3
ATOM      3  C   UNL     1      -8.379  13.496 -12.401  1.00  0.00     0.243 C 
ATOM      4  N   UNL     1      -7.381  13.963 -13.314  1.00  0.00    -0.342 N 
ATOM      5  H   UNL     1      -6.787  13.246 -13.785  1.00  0.00     0.164 HD
ATOM      6  O   UNL     1      -8.198  13.675 -11.168  1.00  0.00    -0.273 OA
BRANCH   4   7
ATOM      7  C   UNL     1      -7.088  15.369 -13.602  1.00  0.00     0.175 C 
BRANCH   7   8
ATOM      8  C   UNL     1      -7.195  15.555 -15.086  1.00  0.00     0.243 C 
ATOM      9  N   UNL     1      -7.791  16.747 -15.604  1.00  0.00    -0.342 N 
ATOM     10  H   UNL     1      -7.759  17.612 -15.023  1.00  0.00     0.164 HD
ATOM     11  O   UNL     1      -6.796  14.651 -15.868  1.00  0.00    -0.273 OA
BRANCH   9  12
ATOM     12  C   UNL     1      -8.523  16.770 -16.869  1.00  0.00     0.174 CG0
ATOM     13  G   UNL     1      -9.395  15.539 -16.952  1.00  0.00     0.000 G0
BRANCH  12  14
ATOM     14  C   UNL     1      -9.289  18.117 -17.036  1.00  0.00     0.018 C 
ATOM     15  C   UNL     1      -8.396  19.307 -16.647  1.00  0.00     0.010 C 
BRANCH  14  16
ATOM     16  C   UNL     1      -9.895  18.317 -18.450  1.00  0.00     0.002 C 
ATOM     17  C   UNL     1     -10.370  17.007 -19.084  1.00  0.00     0.004 C 
ENDBRANCH  14  16
ENDBRANCH  12  14
ENDBRANCH   9  12
ENDBRANCH   7   8
BRANCH   7  18
ATOM     18  C   UNL     1      -8.006  16.357 -12.840  1.00  0.00     0.073 C 
BRANCH  18  19
ATOM     19  C   UNL     1      -7.718  17.779 -13.236  1.00  0.00    -0.016 A 
ATOM     20  C   UNL     1      -6.467  18.314 -13.508  1.00  0.00     0.134 A 
ATOM     21  C   UNL     1      -8.587  18.851 -13.204  1.00  0.00     0.006 A 
ATOM     22  N   UNL     1      -6.548  19.656 -13.649  1.00  0.00    -0.191 N 
ATOM     23  C   UNL     1      -7.852  19.987 -13.469  1.00  0.00     0.087 A 
ATOM     24  C   UNL     1      -9.956  18.896 -12.933  1.00  0.00     0.011 A 
ATOM     25  C   UNL     1      -8.477  21.242 -13.519  1.00  0.00     0.030 A 
ATOM     26  C   UNL     1     -10.592  20.145 -12.958  1.00  0.00     0.001 A 
ATOM     27  C   UNL     1      -9.857  21.312 -13.259  1.00  0.00     0.002 A 
BRANCH  22  28
ATOM     28  O   UNL     1      -5.426  20.451 -13.840  1.00  0.00    -0.417 OA
ATOM     29  C   UNL     1      -5.033  21.507 -12.976  1.00  0.00     0.313 C 
ENDBRANCH  22  28
ENDBRANCH  18  19
ENDBRANCH   7  18
ENDBRANCH   4   7
ENDBRANCH   2   3
BRANCH   2  30
ATOM     30  N   UNL     1      -9.467  12.358 -14.316  1.00  0.00    -0.343 N 
ATOM     31  C   UNL     1     -10.123  13.137 -15.331  1.00  0.00     0.243 C 
ATOM     32  H   UNL     1      -8.779  11.639 -14.615  1.00  0.00     0.164 HD
ATOM     33  O   UNL     1     -11.009  13.969 -14.994  1.00  0.00    -0.273 OA
BRANCH  31  34
ATOM     34  C   UNL     1      -9.731  13.061 -16.795  1.00  0.00     0.174 C 
ATOM     35  N   UNL     1      -9.008  14.241 -17.310  1.00  0.00    -0.329 N 
ATOM     36  C   UNL     1     -10.906  12.745 -17.733  1.00  0.00     0.035 C 
ATOM     37  C   UNL     1      -8.389  14.020 -18.622  1.00  0.00     0.120 C 
ATOM     38  C   UNL     1     -10.381  12.525 -19.166  1.00  0.00     0.004 C 
ATOM     39  C   UNL     1      -9.481  13.683 -19.652  1.00  0.00     0.022 C 
BRANCH  35  40
ATOM     40  C   UNL     1      -9.464  15.577 -17.041  1.00  0.00     0.246 CG0
ATOM     41  O   UNL     1     -10.699  15.804 -16.957  1.00  0.00    -0.272 OA
ATOM     42  G   UNL     1      -8.472  16.701 -16.849  1.00  0.00     0.000 G0
ENDBRANCH  35  40
ENDBRANCH  31  34
ENDBRANCH   2  30
ENDBRANCH   1   2
BRANCH   1  43
ATOM     43  C   UNL     1     -11.825  12.721 -11.623  1.00  0.00     0.003 C 
BRANCH  43  44
ATOM     44  C   UNL     1     -11.011  12.008 -10.528  1.00  0.00     0.001 C 
BRANCH  44  45
ATOM     45  C   UNL     1     -11.780  11.894  -9.201  1.00  0.00     0.008 C 
BRANCH  45  46
ATOM     46  C   UNL     1     -11.864  13.227  -8.440  1.00  0.00     0.075 C 
BRANCH  46  47
ATOM     47  C   UNL     1     -13.142  13.993  -8.718  1.00  0.00     0.132 C 
ATOM     48  O   UNL     1     -13.719  13.847  -9.786  1.00  0.00    -0.300 OA
BRANCH  47  49
ATOM     49  C   UNL     1     -13.750  14.941  -7.709  1.00  0.00     0.072 C 
ATOM     50  C   UNL     1     -13.033  16.287  -7.576  1.00  0.00     0.012 C 
ENDBRANCH  47  49
ENDBRANCH  46  47
ENDBRANCH  45  46
ENDBRANCH  44  45
ENDBRANCH  43  44
ENDBRANCH   1  43
TORSDOF 12
ENDMDL
MODEL 5
REMARK VINA RESULT:    88.493      1.193      1.945
REMARK INTER + INTRA:         193.455
REMARK INTER:                 190.056
REMARK INTRA:                   3.399
REMARK UNBOUND:                 6.670
REMARK SMILES CCC(=O)CCCCC[C@H]1NC(=O)[C@H]2CCCCN2C(=O)[C@@H]([C@@H](C)CC)NC(=O)[C@@H](Cc2cn(OC)c3ccccc23)NC1=O
REMARK SMILES IDX 9 1 10 2 44 3 43 4 45 6 30 7 28 8 27 9 29 11 22 12 23 14
REMARK SMILES IDX 24 15 25 16 26 17 31 18 32 19 33 20 42 21 34 22 37 23 41 24
REMARK SMILES IDX 38 25 40 26 39 27 35 28 36 29 11 30 12 31 13 33 14 34 19 35
REMARK SMILES IDX 15 36 18 37 16 38 17 39 20 40 21 41 8 43 7 44 6 45 5 46 3 47
REMARK SMILES IDX 4 48 2 49 1 50
REMARK H PARENT 43 5 27 10 11 32
REMARK Flexibility Score: 80.00
ROOT
ATOM      1  C   UNL     1      -8.730  15.294 -17.078  1.00  0.00     0.035 C 
ENDROOT
BRANCH   1   2
ATOM      2  C   UNL     1      -7.505  14.933 -16.203  1.00  0.00     0.171 C 
BRANCH   2   3
ATOM      3  C   UNL     1      -7.909  14.137 -14.974  1.00  0.00     0.243 C 
ATOM      4  N   UNL     1      -7.556  14.574 -13.658  1.00  0.00    -0.342 N 
ATOM      5  H   UNL     1      -6.543  14.570 -13.405  1.00  0.00     0.164 HD
ATOM      6  O   UNL     1      -8.474  13.020 -15.105  1.00  0.00    -0.273 OA
BRANCH   4   7
ATOM      7  C   UNL     1      -8.504  14.976 -12.616  1.00  0.00     0.175 C 
BRANCH   7   8
ATOM      8  C   UNL     1      -8.254  16.424 -12.317  1.00  0.00     0.243 C 
ATOM      9  N   UNL     1      -9.364  17.309 -12.147  1.00  0.00    -0.342 N 
ATOM     10  H   UNL     1     -10.272  16.911 -11.822  1.00  0.00     0.164 HD
ATOM     11  O   UNL     1      -7.076  16.863 -12.252  1.00  0.00    -0.273 OA
BRANCH   9  12
ATOM     12  C   UNL     1      -9.299  18.725 -12.504  1.00  0.00     0.174 CG0
ATOM     13  G   UNL     1      -8.812  18.849 -13.929  1.00  0.00     0.000 G0
BRANCH  12  14
ATOM     14  C   UNL     1     -10.664  19.425 -12.224  1.00  0.00     0.018 C 
ATOM     15  C   UNL     1     -11.185  19.070 -10.821  1.00  0.00     0.010 C 
BRANCH  14  16
ATOM     16  C   UNL     1     -10.627  20.962 -12.429  1.00  0.00     0.002 C 
ATOM     17  C   UNL     1     -11.081  21.386 -13.828  1.00  0.00     0.004 C 
ENDBRANCH  14  16
ENDBRANCH  12  14
ENDBRANCH   9  12
ENDBRANCH   7   8
BRANCH   7  18
ATOM     18  C   UNL     1      -9.983  14.725 -13.000  1.00  0.00     0.073 C 
BRANCH  18  19
ATOM     19  C   UNL     1     -10.535  13.529 -12.274  1.00  0.00    -0.016 A 
ATOM     20  C   UNL     1     -11.199  13.548 -11.057  1.00  0.00     0.134 A 
ATOM     21  C   UNL     1     -10.314  12.197 -12.562  1.00  0.00     0.006 A 
ATOM     22  N   UNL     1     -11.394  12.288 -10.605  1.00  0.00    -0.191 N 
ATOM     23  C   UNL     1     -10.856  11.456 -11.533  1.00  0.00     0.087 A 
ATOM     24  C   UNL     1      -9.651  11.604 -13.638  1.00  0.00     0.011 A 
ATOM     25  C   UNL     1     -10.797  10.055 -11.559  1.00  0.00     0.030 A 
ATOM     26  C   UNL     1      -9.565  10.205 -13.669  1.00  0.00     0.001 A 
ATOM     27  C   UNL     1     -10.143   9.433 -12.638  1.00  0.00     0.002 A 
BRANCH  22  28
ATOM     28  O   UNL     1     -11.959  12.024  -9.366  1.00  0.00    -0.417 OA
ATOM     29  C   UNL     1     -11.377  12.388  -8.123  1.00  0.00     0.313 C 
ENDBRANCH  22  28
ENDBRANCH  18  19
ENDBRANCH   7  18
ENDBRANCH   4   7
ENDBRANCH   2   3
BRANCH   2  30
ATOM     30  N   UNL     1      -6.784  16.167 -15.844  1.00  0.00    -0.343 N 
ATOM     31  C   UNL     1      -7.282  17.472 -16.188  1.00  0.00     0.243 C 
ATOM     32  H   UNL     1      -5.976  16.106 -15.193  1.00  0.00     0.164 HD
ATOM     33  O   UNL     1      -8.219  17.572 -17.027  1.00  0.00    -0.273 OA
BRANCH  31  34
ATOM     34  C   UNL     1      -6.784  18.737 -15.516  1.00  0.00     0.174 C 
ATOM     35  N   UNL     1      -7.370  19.012 -14.188  1.00  0.00    -0.329 N 
ATOM     36  C   UNL     1      -6.915  19.993 -16.391  1.00  0.00     0.035 C 
ATOM     37  C   UNL     1      -6.663  20.061 -13.444  1.00  0.00     0.120 C 
ATOM     38  C   UNL     1      -6.233  21.186 -15.690  1.00  0.00     0.004 C 
ATOM     39  C   UNL     1      -6.721  21.377 -14.237  1.00  0.00     0.022 C 
BRANCH  35  40
ATOM     40  C   UNL     1      -8.785  18.914 -13.958  1.00  0.00     0.246 CG0
ATOM     41  O   UNL     1      -9.578  19.008 -14.930  1.00  0.00    -0.272 OA
ATOM     42  G   UNL     1      -9.320  18.689 -12.563  1.00  0.00     0.000 G0
ENDBRANCH  35  40
ENDBRANCH  31  34
ENDBRANCH   2  30
ENDBRANCH   1   2
BRANCH   1  43
ATOM     43  C   UNL     1      -9.180  14.148 -18.003  1.00  0.00     0.003 C 
BRANCH  43  44
ATOM     44  C   UNL     1      -9.519  14.666 -19.412  1.00  0.00     0.001 C 
BRANCH  44  45
ATOM     45  C   UNL     1      -9.811  13.528 -20.405  1.00  0.00     0.008 C 
BRANCH  45  46
ATOM     46  C   UNL     1      -8.543  12.793 -20.865  1.00  0.00     0.075 C 
BRANCH  46  47
ATOM     47  C   UNL     1      -7.619  13.660 -21.698  1.00  0.00     0.132 C 
ATOM     48  O   UNL     1      -7.275  14.757 -21.281  1.00  0.00    -0.300 OA
BRANCH  47  49
ATOM     49  C   UNL     1      -7.086  13.215 -23.041  1.00  0.00     0.072 C 
ATOM     50  C   UNL     1      -6.500  11.801 -23.064  1.00  0.00     0.012 C 
ENDBRANCH  47  49
ENDBRANCH  46  47
ENDBRANCH  45  46
ENDBRANCH  44  45
ENDBRANCH  43  44
ENDBRANCH   1  43
TORSDOF 12
ENDMDL
MODEL 6
REMARK VINA RESULT:    88.523      3.275      5.354
REMARK INTER + INTRA:         193.519
REMARK INTER:                 192.545
REMARK INTRA:                   0.974
REMARK UNBOUND:                 6.670
REMARK SMILES CCC(=O)CCCCC[C@H]1NC(=O)[C@H]2CCCCN2C(=O)[C@@H]([C@@H](C)CC)NC(=O)[C@@H](Cc2cn(OC)c3ccccc23)NC1=O
REMARK SMILES IDX 9 1 10 2 44 3 43 4 45 6 30 7 28 8 27 9 29 11 22 12 23 14
REMARK SMILES IDX 24 15 25 16 26 17 31 18 32 19 33 20 42 21 34 22 37 23 41 24
REMARK SMILES IDX 38 25 40 26 39 27 35 28 36 29 11 30 12 31 13 33 14 34 19 35
REMARK SMILES IDX 15 36 18 37 16 38 17 39 20 40 21 41 8 43 7 44 6 45 5 46 3 47
REMARK SMILES IDX 4 48 2 49 1 50
REMARK H PARENT 43 5 27 10 11 32
REMARK Flexibility Score: 80.00
ROOT
ATOM      1  C   UNL     1     -10.047  19.817 -14.774  1.00  0.00     0.035 C 
ENDROOT
BRANCH   1   2
ATOM      2  C   UNL     1      -8.684  20.035 -14.073  1.00  0.00     0.171 C 
BRANCH   2   3
ATOM      3  C   UNL     1      -8.372  18.915 -13.095  1.00  0.00     0.243 C 
ATOM      4  N   UNL     1      -8.942  18.895 -11.783  1.00  0.00    -0.342 N 
ATOM      5  H   UNL     1      -8.645  19.644 -11.118  1.00  0.00     0.164 HD
ATOM      6  O   UNL     1      -7.519  18.039 -13.394  1.00  0.00    -0.273 OA
BRANCH   4   7
ATOM      7  C   UNL     1      -9.868  17.879 -11.277  1.00  0.00     0.175 C 
BRANCH   7   8
ATOM      8  C   UNL     1     -10.670  18.510 -10.179  1.00  0.00     0.243 C 
ATOM      9  N   UNL     1     -11.353  19.741 -10.425  1.00  0.00    -0.342 N 
ATOM     10  H   UNL     1     -11.637  19.966 -11.403  1.00  0.00     0.164 HD
ATOM     11  O   UNL     1     -10.711  17.977  -9.038  1.00  0.00    -0.273 OA
BRANCH   9  12
ATOM     12  C   UNL     1     -11.580  20.734  -9.376  1.00  0.00     0.174 CG0
ATOM     13  G   UNL     1     -11.370  22.114  -9.956  1.00  0.00     0.000 G0
BRANCH  12  14
ATOM     14  C   UNL     1     -12.971  20.518  -8.706  1.00  0.00     0.018 C 
ATOM     15  C   UNL     1     -12.913  20.845  -7.205  1.00  0.00     0.010 C 
BRANCH  14  16
ATOM     16  C   UNL     1     -14.121  21.294  -9.399  1.00  0.00     0.002 C 
ATOM     17  C   UNL     1     -15.113  21.901  -8.402  1.00  0.00     0.004 C 
ENDBRANCH  14  16
ENDBRANCH  12  14
ENDBRANCH   9  12
ENDBRANCH   7   8
BRANCH   7  18
ATOM     18  C   UNL     1     -10.782  17.280 -12.373  1.00  0.00     0.073 C 
BRANCH  18  19
ATOM     19  C   UNL     1     -11.118  15.845 -12.074  1.00  0.00    -0.016 A 
ATOM     20  C   UNL     1     -12.229  15.393 -11.378  1.00  0.00     0.134 A 
ATOM     21  C   UNL     1     -10.306  14.740 -12.244  1.00  0.00     0.006 A 
ATOM     22  N   UNL     1     -12.126  14.068 -11.130  1.00  0.00    -0.191 N 
ATOM     23  C   UNL     1     -10.947  13.664 -11.668  1.00  0.00     0.087 A 
ATOM     24  C   UNL     1      -9.047  14.628 -12.838  1.00  0.00     0.011 A 
ATOM     25  C   UNL     1     -10.362  12.389 -11.701  1.00  0.00     0.030 A 
ATOM     26  C   UNL     1      -8.440  13.365 -12.860  1.00  0.00     0.001 A 
ATOM     27  C   UNL     1      -9.098  12.249 -12.302  1.00  0.00     0.002 A 
BRANCH  22  28
ATOM     28  O   UNL     1     -13.062  13.380 -10.372  1.00  0.00    -0.417 OA
ATOM     29  C   UNL     1     -14.433  13.244 -10.718  1.00  0.00     0.313 C 
ENDBRANCH  22  28
ENDBRANCH  18  19
ENDBRANCH   7  18
ENDBRANCH   4   7
ENDBRANCH   2   3
BRANCH   2  30
ATOM     30  N   UNL     1      -8.682  21.354 -13.414  1.00  0.00    -0.343 N 
ATOM     31  C   UNL     1      -9.663  21.717 -12.427  1.00  0.00     0.243 C 
ATOM     32  H   UNL     1      -7.864  21.981 -13.549  1.00  0.00     0.164 HD
ATOM     33  O   UNL     1     -10.695  21.005 -12.293  1.00  0.00    -0.273 OA
BRANCH  31  34
ATOM     34  C   UNL     1      -9.466  22.881 -11.474  1.00  0.00     0.174 C 
ATOM     35  N   UNL     1     -10.018  22.680 -10.119  1.00  0.00    -0.329 N 
ATOM     36  C   UNL     1      -9.970  24.223 -12.027  1.00  0.00     0.035 C 
ATOM     37  C   UNL     1      -9.560  23.680  -9.148  1.00  0.00     0.120 C 
ATOM     38  C   UNL     1      -9.576  25.361 -11.063  1.00  0.00     0.004 C 
ATOM     39  C   UNL     1     -10.005  25.079  -9.606  1.00  0.00     0.022 C 
BRANCH  35  40
ATOM     40  C   UNL     1     -11.343  22.161  -9.919  1.00  0.00     0.246 CG0
ATOM     41  O   UNL     1     -12.338  22.891 -10.167  1.00  0.00    -0.272 OA
ATOM     42  G   UNL     1     -11.545  20.747  -9.424  1.00  0.00     0.000 G0
ENDBRANCH  35  40
ENDBRANCH  31  34
ENDBRANCH   2  30
ENDBRANCH   1   2
BRANCH   1  43
ATOM     43  C   UNL     1     -10.064  18.597 -15.713  1.00  0.00     0.003 C 
BRANCH  43  44
ATOM     44  C   UNL     1      -9.305  18.886 -17.021  1.00  0.00     0.001 C 
BRANCH  44  45
ATOM     45  C   UNL     1      -9.819  18.043 -18.201  1.00  0.00     0.008 C 
BRANCH  45  46
ATOM     46  C   UNL     1     -10.275  16.637 -17.779  1.00  0.00     0.075 C 
BRANCH  46  47
ATOM     47  C   UNL     1      -9.356  15.538 -18.274  1.00  0.00     0.132 C 
ATOM     48  O   UNL     1      -9.172  15.393 -19.474  1.00  0.00    -0.300 OA
BRANCH  47  49
ATOM     49  C   UNL     1      -8.636  14.601 -17.330  1.00  0.00     0.072 C 
ATOM     50  C   UNL     1      -7.458  15.226 -16.579  1.00  0.00     0.012 C 
ENDBRANCH  47  49
ENDBRANCH  46  47
ENDBRANCH  45  46
ENDBRANCH  44  45
ENDBRANCH  43  44
ENDBRANCH   1  43
TORSDOF 12
ENDMDL
MODEL 7
REMARK VINA RESULT:    88.541      1.595      2.349
REMARK INTER + INTRA:         193.558
REMARK INTER:                 193.895
REMARK INTRA:                  -0.337
REMARK UNBOUND:                 6.670
REMARK SMILES CCC(=O)CCCCC[C@H]1NC(=O)[C@H]2CCCCN2C(=O)[C@@H]([C@@H](C)CC)NC(=O)[C@@H](Cc2cn(OC)c3ccccc23)NC1=O
REMARK SMILES IDX 9 1 10 2 44 3 43 4 45 6 30 7 28 8 27 9 29 11 22 12 23 14
REMARK SMILES IDX 24 15 25 16 26 17 31 18 32 19 33 20 42 21 34 22 37 23 41 24
REMARK SMILES IDX 38 25 40 26 39 27 35 28 36 29 11 30 12 31 13 33 14 34 19 35
REMARK SMILES IDX 15 36 18 37 16 38 17 39 20 40 21 41 8 43 7 44 6 45 5 46 3 47
REMARK SMILES IDX 4 48 2 49 1 50
REMARK H PARENT 43 5 27 10 11 32
REMARK Flexibility Score: 80.00
ROOT
ATOM      1  C   UNL     1      -8.989  15.863 -16.942  1.00  0.00     0.035 C 
ENDROOT
BRANCH   1   2
ATOM      2  C   UNL     1      -7.498  15.475 -16.783  1.00  0.00     0.171 C 
BRANCH   2   3
ATOM      3  C   UNL     1      -7.317  14.341 -15.790  1.00  0.00     0.243 C 
ATOM      4  N   UNL     1      -7.192  14.595 -14.387  1.00  0.00    -0.342 N 
ATOM      5  H   UNL     1      -6.336  15.099 -14.064  1.00  0.00     0.164 HD
ATOM      6  O   UNL     1      -7.171  13.161 -16.202  1.00  0.00    -0.273 OA
BRANCH   4   7
ATOM      7  C   UNL     1      -8.141  14.160 -13.359  1.00  0.00     0.175 C 
BRANCH   7   8
ATOM      8  C   UNL     1      -8.364  15.320 -12.435  1.00  0.00     0.243 C 
ATOM      9  N   UNL     1      -8.807  16.570 -12.969  1.00  0.00    -0.342 N 
ATOM     10  H   UNL     1      -9.352  16.565 -13.858  1.00  0.00     0.164 HD
ATOM     11  O   UNL     1      -8.127  15.203 -11.203  1.00  0.00    -0.273 OA
BRANCH   9  12
ATOM     12  C   UNL     1      -8.442  17.851 -12.368  1.00  0.00     0.174 CG0
ATOM     13  G   UNL     1      -8.185  18.853 -13.470  1.00  0.00     0.000 G0
BRANCH  12  14
ATOM     14  C   UNL     1      -9.514  18.295 -11.326  1.00  0.00     0.018 C 
ATOM     15  C   UNL     1     -10.874  17.647 -11.629  1.00  0.00     0.010 C 
BRANCH  14  16
ATOM     16  C   UNL     1      -9.093  18.041  -9.855  1.00  0.00     0.002 C 
ATOM     17  C   UNL     1     -10.017  18.728  -8.846  1.00  0.00     0.004 C 
ENDBRANCH  14  16
ENDBRANCH  12  14
ENDBRANCH   9  12
ENDBRANCH   7   8
BRANCH   7  18
ATOM     18  C   UNL     1      -9.477  13.634 -13.939  1.00  0.00     0.073 C 
BRANCH  18  19
ATOM     19  C   UNL     1     -10.230  12.828 -12.916  1.00  0.00    -0.016 A 
ATOM     20  C   UNL     1     -10.856  13.326 -11.783  1.00  0.00     0.134 A 
ATOM     21  C   UNL     1     -10.270  11.453 -12.794  1.00  0.00     0.006 A 
ATOM     22  N   UNL     1     -11.276  12.314 -10.991  1.00  0.00    -0.191 N 
ATOM     23  C   UNL     1     -10.922  11.162 -11.615  1.00  0.00     0.087 A 
ATOM     24  C   UNL     1      -9.751  10.459 -13.626  1.00  0.00     0.011 A 
ATOM     25  C   UNL     1     -11.128   9.829 -11.229  1.00  0.00     0.030 A 
ATOM     26  C   UNL     1      -9.931   9.121 -13.243  1.00  0.00     0.001 A 
ATOM     27  C   UNL     1     -10.624   8.808 -12.055  1.00  0.00     0.002 A 
BRANCH  22  28
ATOM     28  O   UNL     1     -11.856  12.534  -9.750  1.00  0.00    -0.417 OA
ATOM     29  C   UNL     1     -11.402  11.955  -8.536  1.00  0.00     0.313 C 
ENDBRANCH  22  28
ENDBRANCH  18  19
ENDBRANCH   7  18
ENDBRANCH   4   7
ENDBRANCH   2   3
BRANCH   2  30
ATOM     30  N   UNL     1      -6.724  16.669 -16.399  1.00  0.00    -0.343 N 
ATOM     31  C   UNL     1      -7.339  17.959 -16.235  1.00  0.00     0.243 C 
ATOM     32  H   UNL     1      -5.739  16.550 -16.087  1.00  0.00     0.164 HD
ATOM     33  O   UNL     1      -8.510  18.142 -16.666  1.00  0.00    -0.273 OA
BRANCH  31  34
ATOM     34  C   UNL     1      -6.666  19.092 -15.483  1.00  0.00     0.174 C 
ATOM     35  N   UNL     1      -6.890  19.093 -14.023  1.00  0.00    -0.329 N 
ATOM     36  C   UNL     1      -6.995  20.485 -16.042  1.00  0.00     0.035 C 
ATOM     37  C   UNL     1      -6.000  20.007 -13.297  1.00  0.00     0.120 C 
ATOM     38  C   UNL     1      -6.139  21.547 -15.323  1.00  0.00     0.004 C 
ATOM     39  C   UNL     1      -6.238  21.446 -13.785  1.00  0.00     0.022 C 
BRANCH  35  40
ATOM     40  C   UNL     1      -8.201  18.907 -13.465  1.00  0.00     0.246 CG0
ATOM     41  O   UNL     1      -9.148  19.642 -13.851  1.00  0.00    -0.272 OA
ATOM     42  G   UNL     1      -8.448  17.833 -12.432  1.00  0.00     0.000 G0
ENDBRANCH  35  40
ENDBRANCH  31  34
ENDBRANCH   2  30
ENDBRANCH   1   2
BRANCH   1  43
ATOM     43  C   UNL     1      -9.655  15.235 -18.180  1.00  0.00     0.003 C 
BRANCH  43  44
ATOM     44  C   UNL     1      -8.738  14.192 -18.843  1.00  0.00     0.001 C 
BRANCH  44  45
ATOM     45  C   UNL     1      -8.817  14.226 -20.379  1.00  0.00     0.008 C 
BRANCH  45  46
ATOM     46  C   UNL     1      -8.377  12.905 -21.031  1.00  0.00     0.075 C 
BRANCH  46  47
ATOM     47  C   UNL     1      -7.473  13.104 -22.231  1.00  0.00     0.132 C 
ATOM     48  O   UNL     1      -6.835  14.141 -22.347  1.00  0.00    -0.300 OA
BRANCH  47  49
ATOM     49  C   UNL     1      -7.316  12.052 -23.306  1.00  0.00     0.072 C 
ATOM     50  C   UNL     1      -5.937  12.012 -23.970  1.00  0.00     0.012 C 
ENDBRANCH  47  49
ENDBRANCH  46  47
ENDBRANCH  45  46
ENDBRANCH  44  45
ENDBRANCH  43  44
ENDBRANCH   1  43
TORSDOF 12
ENDMDL
MODEL 8
REMARK VINA RESULT:    88.895      1.586      2.432
REMARK INTER + INTRA:         194.305
REMARK INTER:                 190.508
REMARK INTRA:                   3.797
REMARK UNBOUND:                 6.670
REMARK SMILES CCC(=O)CCCCC[C@H]1NC(=O)[C@H]2CCCCN2C(=O)[C@@H]([C@@H](C)CC)NC(=O)[C@@H](Cc2cn(OC)c3ccccc23)NC1=O
REMARK SMILES IDX 9 1 10 2 44 3 43 4 45 6 30 7 28 8 27 9 29 11 22 12 23 14
REMARK SMILES IDX 24 15 25 16 26 17 31 18 32 19 33 20 42 21 34 22 37 23 41 24
REMARK SMILES IDX 38 25 40 26 39 27 35 28 36 29 11 30 12 31 13 33 14 34 19 35
REMARK SMILES IDX 15 36 18 37 16 38 17 39 20 40 21 41 8 43 7 44 6 45 5 46 3 47
REMARK SMILES IDX 4 48 2 49 1 50
REMARK H PARENT 43 5 27 10 11 32
REMARK Flexibility Score: 80.00
ROOT
ATOM      1  C   UNL     1      -9.403  16.010 -17.126  1.00  0.00     0.035 C 
ENDROOT
BRANCH   1   2
ATOM      2  C   UNL     1      -7.999  15.544 -16.671  1.00  0.00     0.171 C 
BRANCH   2   3
ATOM      3  C   UNL     1      -8.078  14.616 -15.471  1.00  0.00     0.243 C 
ATOM      4  N   UNL     1      -7.328  14.878 -14.281  1.00  0.00    -0.342 N 
ATOM      5  H   UNL     1      -6.288  14.812 -14.343  1.00  0.00     0.164 HD
ATOM      6  O   UNL     1      -8.729  13.542 -15.548  1.00  0.00    -0.273 OA
BRANCH   4   7
ATOM      7  C   UNL     1      -7.902  15.178 -12.967  1.00  0.00     0.175 C 
BRANCH   7   8
ATOM      8  C   UNL     1      -7.566  16.604 -12.646  1.00  0.00     0.243 C 
ATOM      9  N   UNL     1      -8.582  17.467 -12.132  1.00  0.00    -0.342 N 
ATOM     10  H   UNL     1      -9.378  17.042 -11.609  1.00  0.00     0.164 HD
ATOM     11  O   UNL     1      -6.406  17.045 -12.862  1.00  0.00    -0.273 OA
BRANCH   9  12
ATOM     12  C   UNL     1      -8.596  18.905 -12.397  1.00  0.00     0.174 CG0
ATOM     13  G   UNL     1      -8.411  19.132 -13.879  1.00  0.00     0.000 G0
BRANCH  12  14
ATOM     14  C   UNL     1      -9.876  19.562 -11.796  1.00  0.00     0.018 C 
ATOM     15  C   UNL     1     -10.629  20.373 -12.864  1.00  0.00     0.010 C 
BRANCH  14  16
ATOM     16  C   UNL     1     -10.824  18.552 -11.097  1.00  0.00     0.002 C 
ATOM     17  C   UNL     1     -10.783  18.658  -9.570  1.00  0.00     0.004 C 
ENDBRANCH  14  16
ENDBRANCH  12  14
ENDBRANCH   9  12
ENDBRANCH   7   8
BRANCH   7  18
ATOM     18  C   UNL     1      -9.427  14.926 -12.890  1.00  0.00     0.073 C 
BRANCH  18  19
ATOM     19  C   UNL     1      -9.722  13.497 -12.524  1.00  0.00    -0.016 A 
ATOM     20  C   UNL     1      -9.198  12.371 -13.142  1.00  0.00     0.134 A 
ATOM     21  C   UNL     1     -10.702  13.035 -11.668  1.00  0.00     0.006 A 
ATOM     22  N   UNL     1      -9.813  11.254 -12.688  1.00  0.00    -0.191 N 
ATOM     23  C   UNL     1     -10.733  11.661 -11.778  1.00  0.00     0.087 A 
ATOM     24  C   UNL     1     -11.575  13.736 -10.833  1.00  0.00     0.011 A 
ATOM     25  C   UNL     1     -11.629  10.907 -11.005  1.00  0.00     0.030 A 
ATOM     26  C   UNL     1     -12.491  12.999 -10.070  1.00  0.00     0.001 A 
ATOM     27  C   UNL     1     -12.512  11.590 -10.149  1.00  0.00     0.002 A 
BRANCH  22  28
ATOM     28  O   UNL     1      -9.539   9.996 -13.205  1.00  0.00    -0.417 OA
ATOM     29  C   UNL     1     -10.523   9.101 -13.703  1.00  0.00     0.313 C 
ENDBRANCH  22  28
ENDBRANCH  18  19
ENDBRANCH   7  18
ENDBRANCH   4   7
ENDBRANCH   2   3
BRANCH   2  30
ATOM     30  N   UNL     1      -7.160  16.725 -16.397  1.00  0.00    -0.343 N 
ATOM     31  C   UNL     1      -7.644  18.066 -16.586  1.00  0.00     0.243 C 
ATOM     32  H   UNL     1      -6.252  16.594 -15.909  1.00  0.00     0.164 HD
ATOM     33  O   UNL     1      -8.711  18.251 -17.233  1.00  0.00    -0.273 OA
BRANCH  31  34
ATOM     34  C   UNL     1      -6.966  19.272 -15.961  1.00  0.00     0.174 C 
ATOM     35  N   UNL     1      -7.138  19.398 -14.500  1.00  0.00    -0.329 N 
ATOM     36  C   UNL     1      -7.341  20.604 -16.628  1.00  0.00     0.035 C 
ATOM     37  C   UNL     1      -6.240  20.386 -13.890  1.00  0.00     0.120 C 
ATOM     38  C   UNL     1      -6.479  21.739 -16.037  1.00  0.00     0.004 C 
ATOM     39  C   UNL     1      -6.521  21.772 -14.493  1.00  0.00     0.022 C 
BRANCH  35  40
ATOM     40  C   UNL     1      -8.425  19.242 -13.880  1.00  0.00     0.246 CG0
ATOM     41  O   UNL     1      -9.467  19.392 -14.570  1.00  0.00    -0.272 OA
ATOM     42  G   UNL     1      -8.530  18.889 -12.415  1.00  0.00     0.000 G0
ENDBRANCH  35  40
ENDBRANCH  31  34
ENDBRANCH   2  30
ENDBRANCH   1   2
BRANCH   1  43
ATOM     43  C   UNL     1      -9.727  15.642 -18.586  1.00  0.00     0.003 C 
BRANCH  43  44
ATOM     44  C   UNL     1      -8.756  14.576 -19.124  1.00  0.00     0.001 C 
BRANCH  44  45
ATOM     45  C   UNL     1      -9.441  13.220 -19.363  1.00  0.00     0.008 C 
BRANCH  45  46
ATOM     46  C   UNL     1      -9.471  12.335 -18.106  1.00  0.00     0.075 C 
BRANCH  46  47
ATOM     47  C   UNL     1     -10.862  11.845 -17.755  1.00  0.00     0.132 C 
ATOM     48  O   UNL     1     -11.000  10.810 -17.119  1.00  0.00    -0.300 OA
BRANCH  47  49
ATOM     49  C   UNL     1     -12.109  12.601 -18.155  1.00  0.00     0.072 C 
ATOM     50  C   UNL     1     -13.112  12.832 -17.023  1.00  0.00     0.012 C 
ENDBRANCH  47  49
ENDBRANCH  46  47
ENDBRANCH  45  46
ENDBRANCH  44  45
ENDBRANCH  43  44
ENDBRANCH   1  43
TORSDOF 12
ENDMDL
