MODEL 1
REMARK VINA RESULT:    -6.732      0.000      0.000
REMARK INTER + INTRA:         -11.110
REMARK INTER:                  -9.290
REMARK INTRA:                  -1.820
REMARK UNBOUND:                -1.820
REMARK SMILES CC[C@@H](CC[C@@H](C)[C@H]1CC[C@H]2[C@H]3CC=C4C[C@H](O)CC[C@@]4(C)[C@@H]3CC[C@@]12C)C(C)C
REMARK SMILES IDX 5 1 4 2 3 3 2 4 1 5 28 6 29 7 30 8 6 9 7 10 8 11 9 12 26 13
REMARK SMILES IDX 10 14 11 15 25 16 27 17 12 18 24 19 23 20 13 21 21 22 14 23
REMARK SMILES IDX 15 24 20 25 22 26 16 27 19 28 17 29 18 30
REMARK H PARENT 18 31
REMARK Flexibility Score: inf
ROOT
ATOM      1  C   UNL     1     112.735 119.498 125.868  1.00  0.00     0.004 C 
ENDROOT
BRANCH   1   2
ATOM      2  C   UNL     1     113.673 118.439 126.487  1.00  0.00     0.004 C 
BRANCH   2   3
ATOM      3  C   UNL     1     115.052 119.008 126.931  1.00  0.00    -0.009 C 
BRANCH   3   4
ATOM      4  C   UNL     1     116.017 119.091 125.713  1.00  0.00     0.000 C 
ATOM      5  C   UNL     1     117.001 120.260 125.804  1.00  0.00     0.004 C 
ENDBRANCH   3   4
BRANCH   3   6
ATOM      6  C   UNL     1     115.679 118.221 128.134  1.00  0.00    -0.014 C 
ATOM      7  C   UNL     1     116.602 117.070 127.700  1.00  0.00     0.007 C 
ATOM      8  C   UNL     1     116.409 119.144 129.124  1.00  0.00     0.007 C 
ENDBRANCH   3   6
ENDBRANCH   2   3
ENDBRANCH   1   2
BRANCH   1   9
ATOM      9  C   UNL     1     112.671 119.468 124.312  1.00  0.00    -0.011 C 
ATOM     10  C   UNL     1     111.300 118.935 123.850  1.00  0.00     0.008 C 
BRANCH   9  11
ATOM     11  C   UNL     1     113.041 120.850 123.663  1.00  0.00    -0.002 C 
ATOM     12  C   UNL     1     113.714 121.800 124.671  1.00  0.00     0.005 C 
ATOM     13  C   UNL     1     113.995 120.854 122.423  1.00  0.00    -0.026 C 
ATOM     14  C   UNL     1     114.668 122.694 123.887  1.00  0.00     0.005 C 
ATOM     15  C   UNL     1     114.505 122.315 122.410  1.00  0.00    -0.001 C 
ATOM     16  C   UNL     1     115.187 119.872 122.619  1.00  0.00     0.007 C 
ATOM     17  C   UNL     1     113.230 120.553 121.107  1.00  0.00     0.012 C 
ATOM     18  C   UNL     1     115.757 122.571 121.508  1.00  0.00     0.000 C 
ATOM     19  C   UNL     1     116.317 120.101 121.614  1.00  0.00     0.005 C 
ATOM     20  C   UNL     1     116.889 121.536 121.715  1.00  0.00     0.003 C 
ATOM     21  C   UNL     1     116.294 124.000 121.700  1.00  0.00     0.031 C 
ATOM     22  C   UNL     1     118.110 121.789 120.738  1.00  0.00    -0.008 C 
ATOM     23  C   UNL     1     117.573 124.252 120.962  1.00  0.00    -0.027 C 
ATOM     24  C   UNL     1     118.466 123.284 120.670  1.00  0.00    -0.065 C 
ATOM     25  C   UNL     1     119.350 121.005 121.275  1.00  0.00     0.014 C 
ATOM     26  C   UNL     1     117.788 121.313 119.294  1.00  0.00     0.016 C 
ATOM     27  C   UNL     1     119.798 123.693 120.068  1.00  0.00     0.063 C 
ATOM     28  C   UNL     1     120.667 121.369 120.571  1.00  0.00     0.033 C 
ATOM     29  C   UNL     1     120.945 122.874 120.676  1.00  0.00     0.118 C 
BRANCH  29  30
ATOM     30  O   UNL     1     122.167 123.198 120.061  1.00  0.00    -0.393 OA
ATOM     31  H   UNL     1     122.766 122.410 120.148  1.00  0.00     0.210 HD
ENDBRANCH  29  30
ENDBRANCH   9  11
ENDBRANCH   1   9
TORSDOF 7
ENDMDL
MODEL 2
REMARK VINA RESULT:    -6.359      4.833     10.095
REMARK INTER + INTRA:         -10.595
REMARK INTER:                  -9.157
REMARK INTRA:                  -1.438
REMARK UNBOUND:                -1.820
REMARK SMILES CC[C@@H](CC[C@@H](C)[C@H]1CC[C@H]2[C@H]3CC=C4C[C@H](O)CC[C@@]4(C)[C@@H]3CC[C@@]12C)C(C)C
REMARK SMILES IDX 5 1 4 2 3 3 2 4 1 5 28 6 29 7 30 8 6 9 7 10 8 11 9 12 26 13
REMARK SMILES IDX 10 14 11 15 25 16 27 17 12 18 24 19 23 20 13 21 21 22 14 23
REMARK SMILES IDX 15 24 20 25 22 26 16 27 19 28 17 29 18 30
REMARK H PARENT 18 31
REMARK Flexibility Score: inf
ROOT
ATOM      1  C   UNL     1     121.499 119.496 115.146  1.00  0.00     0.004 C 
ENDROOT
BRANCH   1   2
ATOM      2  C   UNL     1     122.099 119.070 113.788  1.00  0.00     0.004 C 
BRANCH   2   3
ATOM      3  C   UNL     1     123.556 119.569 113.563  1.00  0.00    -0.009 C 
BRANCH   3   4
ATOM      4  C   UNL     1     124.052 120.355 114.810  1.00  0.00     0.000 C 
ATOM      5  C   UNL     1     125.160 119.628 115.578  1.00  0.00     0.004 C 
ENDBRANCH   3   4
BRANCH   3   6
ATOM      6  C   UNL     1     123.722 120.389 112.237  1.00  0.00    -0.014 C 
ATOM      7  C   UNL     1     122.405 120.590 111.469  1.00  0.00     0.007 C 
ATOM      8  C   UNL     1     124.415 121.744 112.466  1.00  0.00     0.007 C 
ENDBRANCH   3   6
ENDBRANCH   2   3
ENDBRANCH   1   2
BRANCH   1   9
ATOM      9  C   UNL     1     121.089 118.310 116.067  1.00  0.00    -0.011 C 
ATOM     10  C   UNL     1     121.808 117.022 115.620  1.00  0.00     0.008 C 
BRANCH   9  11
ATOM     11  C   UNL     1     121.295 118.627 117.592  1.00  0.00    -0.002 C 
ATOM     12  C   UNL     1     122.130 119.903 117.810  1.00  0.00     0.005 C 
ATOM     13  C   UNL     1     120.025 118.833 118.483  1.00  0.00    -0.026 C 
ATOM     14  C   UNL     1     121.663 120.535 119.116  1.00  0.00     0.005 C 
ATOM     15  C   UNL     1     120.602 119.595 119.700  1.00  0.00    -0.001 C 
ATOM     16  C   UNL     1     118.958 119.708 117.760  1.00  0.00     0.007 C 
ATOM     17  C   UNL     1     119.421 117.481 118.947  1.00  0.00     0.012 C 
ATOM     18  C   UNL     1     119.537 120.274 120.622  1.00  0.00     0.000 C 
ATOM     19  C   UNL     1     117.876 120.227 118.707  1.00  0.00     0.005 C 
ATOM     20  C   UNL     1     118.477 121.090 119.843  1.00  0.00     0.003 C 
ATOM     21  C   UNL     1     120.210 121.150 121.693  1.00  0.00     0.031 C 
ATOM     22  C   UNL     1     117.379 121.707 120.804  1.00  0.00    -0.008 C 
ATOM     23  C   UNL     1     119.231 121.931 122.515  1.00  0.00    -0.027 C 
ATOM     24  C   UNL     1     118.021 122.320 122.061  1.00  0.00    -0.065 C 
ATOM     25  C   UNL     1     116.616 122.833 120.035  1.00  0.00     0.014 C 
ATOM     26  C   UNL     1     116.364 120.626 121.271  1.00  0.00     0.016 C 
ATOM     27  C   UNL     1     117.192 123.247 122.930  1.00  0.00     0.063 C 
ATOM     28  C   UNL     1     115.704 123.687 120.929  1.00  0.00     0.033 C 
ATOM     29  C   UNL     1     116.502 124.321 122.077  1.00  0.00     0.118 C 
BRANCH  29  30
ATOM     30  O   UNL     1     115.671 125.129 122.873  1.00  0.00    -0.393 OA
ATOM     31  H   UNL     1     114.929 124.559 123.208  1.00  0.00     0.210 HD
ENDBRANCH  29  30
ENDBRANCH   9  11
ENDBRANCH   1   9
TORSDOF 7
ENDMDL
MODEL 3
REMARK VINA RESULT:    -6.271      2.856      7.337
REMARK INTER + INTRA:         -10.474
REMARK INTER:                  -8.656
REMARK INTRA:                  -1.818
REMARK UNBOUND:                -1.820
REMARK SMILES CC[C@@H](CC[C@@H](C)[C@H]1CC[C@H]2[C@H]3CC=C4C[C@H](O)CC[C@@]4(C)[C@@H]3CC[C@@]12C)C(C)C
REMARK SMILES IDX 5 1 4 2 3 3 2 4 1 5 28 6 29 7 30 8 6 9 7 10 8 11 9 12 26 13
REMARK SMILES IDX 10 14 11 15 25 16 27 17 12 18 24 19 23 20 13 21 21 22 14 23
REMARK SMILES IDX 15 24 20 25 22 26 16 27 19 28 17 29 18 30
REMARK H PARENT 18 31
REMARK Flexibility Score: inf
ROOT
ATOM      1  C   UNL     1     117.078 122.187 119.550  1.00  0.00     0.004 C 
ENDROOT
BRANCH   1   2
ATOM      2  C   UNL     1     118.201 121.160 119.810  1.00  0.00     0.004 C 
BRANCH   2   3
ATOM      3  C   UNL     1     117.833 119.708 119.389  1.00  0.00    -0.009 C 
BRANCH   3   4
ATOM      4  C   UNL     1     117.844 118.770 120.629  1.00  0.00     0.000 C 
ATOM      5  C   UNL     1     116.556 117.956 120.781  1.00  0.00     0.004 C 
ENDBRANCH   3   4
BRANCH   3   6
ATOM      6  C   UNL     1     118.731 119.164 118.223  1.00  0.00    -0.014 C 
ATOM      7  C   UNL     1     118.208 119.531 116.824  1.00  0.00     0.007 C 
ATOM      8  C   UNL     1     120.203 119.587 118.368  1.00  0.00     0.007 C 
ENDBRANCH   3   6
ENDBRANCH   2   3
ENDBRANCH   1   2
BRANCH   1   9
ATOM      9  C   UNL     1     116.846 123.194 120.714  1.00  0.00    -0.011 C 
ATOM     10  C   UNL     1     116.487 124.582 120.148  1.00  0.00     0.008 C 
BRANCH   9  11
ATOM     11  C   UNL     1     115.802 122.675 121.767  1.00  0.00    -0.002 C 
ATOM     12  C   UNL     1     115.087 121.397 121.290  1.00  0.00     0.005 C 
ATOM     13  C   UNL     1     116.313 122.325 123.204  1.00  0.00    -0.026 C 
ATOM     14  C   UNL     1     114.734 120.583 122.530  1.00  0.00     0.005 C 
ATOM     15  C   UNL     1     115.181 121.414 123.738  1.00  0.00    -0.001 C 
ATOM     16  C   UNL     1     117.656 121.538 123.156  1.00  0.00     0.007 C 
ATOM     17  C   UNL     1     116.435 123.588 124.096  1.00  0.00     0.012 C 
ATOM     18  C   UNL     1     115.541 120.594 125.021  1.00  0.00     0.000 C 
ATOM     19  C   UNL     1     118.003 120.873 124.488  1.00  0.00     0.005 C 
ATOM     20  C   UNL     1     116.907 119.873 124.931  1.00  0.00     0.003 C 
ATOM     21  C   UNL     1     114.426 119.593 125.368  1.00  0.00     0.031 C 
ATOM     22  C   UNL     1     117.266 119.110 126.271  1.00  0.00    -0.008 C 
ATOM     23  C   UNL     1     114.781 118.688 126.508  1.00  0.00    -0.027 C 
ATOM     24  C   UNL     1     116.048 118.343 126.817  1.00  0.00    -0.065 C 
ATOM     25  C   UNL     1     118.407 118.087 125.975  1.00  0.00     0.014 C 
ATOM     26  C   UNL     1     117.735 120.097 127.377  1.00  0.00     0.016 C 
ATOM     27  C   UNL     1     116.265 117.290 127.888  1.00  0.00     0.063 C 
ATOM     28  C   UNL     1     118.672 117.100 127.123  1.00  0.00     0.033 C 
ATOM     29  C   UNL     1     117.395 116.331 127.487  1.00  0.00     0.118 C 
BRANCH  29  30
ATOM     30  O   UNL     1     117.648 115.405 128.515  1.00  0.00    -0.393 OA
ATOM     31  H   UNL     1     116.771 115.115 128.882  1.00  0.00     0.210 HD
ENDBRANCH  29  30
ENDBRANCH   9  11
ENDBRANCH   1   9
TORSDOF 7
ENDMDL
MODEL 4
REMARK VINA RESULT:    -6.264      2.322      4.336
REMARK INTER + INTRA:         -10.465
REMARK INTER:                  -8.666
REMARK INTRA:                  -1.799
REMARK UNBOUND:                -1.820
REMARK SMILES CC[C@@H](CC[C@@H](C)[C@H]1CC[C@H]2[C@H]3CC=C4C[C@H](O)CC[C@@]4(C)[C@@H]3CC[C@@]12C)C(C)C
REMARK SMILES IDX 5 1 4 2 3 3 2 4 1 5 28 6 29 7 30 8 6 9 7 10 8 11 9 12 26 13
REMARK SMILES IDX 10 14 11 15 25 16 27 17 12 18 24 19 23 20 13 21 21 22 14 23
REMARK SMILES IDX 15 24 20 25 22 26 16 27 19 28 17 29 18 30
REMARK H PARENT 18 31
REMARK Flexibility Score: inf
ROOT
ATOM      1  C   UNL     1     114.644 123.172 124.262  1.00  0.00     0.004 C 
ENDROOT
BRANCH   1   2
ATOM      2  C   UNL     1     113.685 121.977 124.073  1.00  0.00     0.004 C 
BRANCH   2   3
ATOM      3  C   UNL     1     114.113 120.701 124.854  1.00  0.00    -0.009 C 
BRANCH   3   4
ATOM      4  C   UNL     1     115.150 119.888 124.027  1.00  0.00     0.000 C 
ATOM      5  C   UNL     1     116.584 120.040 124.543  1.00  0.00     0.004 C 
ENDBRANCH   3   4
BRANCH   3   6
ATOM      6  C   UNL     1     112.894 119.824 125.306  1.00  0.00    -0.014 C 
ATOM      7  C   UNL     1     112.037 119.313 124.136  1.00  0.00     0.007 C 
ATOM      8  C   UNL     1     113.316 118.650 126.208  1.00  0.00     0.007 C 
ENDBRANCH   3   6
ENDBRANCH   2   3
ENDBRANCH   1   2
BRANCH   1   9
ATOM      9  C   UNL     1     114.805 124.072 123.002  1.00  0.00    -0.011 C 
ATOM     10  C   UNL     1     114.231 125.476 123.279  1.00  0.00     0.008 C 
BRANCH   9  11
ATOM     11  C   UNL     1     116.281 124.110 122.466  1.00  0.00    -0.002 C 
ATOM     12  C   UNL     1     117.290 123.615 123.520  1.00  0.00     0.005 C 
ATOM     13  C   UNL     1     116.623 123.289 121.180  1.00  0.00    -0.026 C 
ATOM     14  C   UNL     1     118.454 122.978 122.770  1.00  0.00     0.005 C 
ATOM     15  C   UNL     1     118.162 123.159 121.276  1.00  0.00    -0.001 C 
ATOM     16  C   UNL     1     115.963 121.878 121.212  1.00  0.00     0.007 C 
ATOM     17  C   UNL     1     116.240 124.056 119.887  1.00  0.00     0.012 C 
ATOM     18  C   UNL     1     118.797 122.085 120.332  1.00  0.00     0.000 C 
ATOM     19  C   UNL     1     116.549 120.924 120.170  1.00  0.00     0.005 C 
ATOM     20  C   UNL     1     118.070 120.720 120.373  1.00  0.00     0.003 C 
ATOM     21  C   UNL     1     120.295 121.906 120.627  1.00  0.00     0.031 C 
ATOM     22  C   UNL     1     118.699 119.681 119.356  1.00  0.00    -0.008 C 
ATOM     23  C   UNL     1     120.921 120.793 119.843  1.00  0.00    -0.027 C 
ATOM     24  C   UNL     1     120.237 119.713 119.410  1.00  0.00    -0.065 C 
ATOM     25  C   UNL     1     118.218 118.247 119.744  1.00  0.00     0.014 C 
ATOM     26  C   UNL     1     118.271 119.989 117.894  1.00  0.00     0.016 C 
ATOM     27  C   UNL     1     121.016 118.577 118.773  1.00  0.00     0.063 C 
ATOM     28  C   UNL     1     118.957 117.122 119.003  1.00  0.00     0.033 C 
ATOM     29  C   UNL     1     120.471 117.218 119.234  1.00  0.00     0.118 C 
BRANCH  29  30
ATOM     30  O   UNL     1     121.141 116.168 118.583  1.00  0.00    -0.393 OA
ATOM     31  H   UNL     1     122.089 116.183 118.883  1.00  0.00     0.210 HD
ENDBRANCH  29  30
ENDBRANCH   9  11
ENDBRANCH   1   9
TORSDOF 7
ENDMDL
MODEL 5
REMARK VINA RESULT:    -6.238      4.236      5.974
REMARK INTER + INTRA:         -10.429
REMARK INTER:                  -9.505
REMARK INTRA:                  -0.924
REMARK UNBOUND:                -1.820
REMARK SMILES CC[C@@H](CC[C@@H](C)[C@H]1CC[C@H]2[C@H]3CC=C4C[C@H](O)CC[C@@]4(C)[C@@H]3CC[C@@]12C)C(C)C
REMARK SMILES IDX 5 1 4 2 3 3 2 4 1 5 28 6 29 7 30 8 6 9 7 10 8 11 9 12 26 13
REMARK SMILES IDX 10 14 11 15 25 16 27 17 12 18 24 19 23 20 13 21 21 22 14 23
REMARK SMILES IDX 15 24 20 25 22 26 16 27 19 28 17 29 18 30
REMARK H PARENT 18 31
REMARK Flexibility Score: inf
ROOT
ATOM      1  C   UNL     1     114.291 125.313 124.219  1.00  0.00     0.004 C 
ENDROOT
BRANCH   1   2
ATOM      2  C   UNL     1     113.890 126.805 124.225  1.00  0.00     0.004 C 
BRANCH   2   3
ATOM      3  C   UNL     1     113.810 127.427 125.649  1.00  0.00    -0.009 C 
BRANCH   3   4
ATOM      4  C   UNL     1     114.687 126.610 126.642  1.00  0.00     0.000 C 
ATOM      5  C   UNL     1     115.939 127.363 127.099  1.00  0.00     0.004 C 
ENDBRANCH   3   4
BRANCH   3   6
ATOM      6  C   UNL     1     112.337 127.598 126.159  1.00  0.00    -0.014 C 
ATOM      7  C   UNL     1     112.244 128.131 127.598  1.00  0.00     0.007 C 
ATOM      8  C   UNL     1     111.486 128.465 125.215  1.00  0.00     0.007 C 
ENDBRANCH   3   6
ENDBRANCH   2   3
ENDBRANCH   1   2
BRANCH   1   9
ATOM      9  C   UNL     1     114.468 124.701 122.799  1.00  0.00    -0.011 C 
ATOM     10  C   UNL     1     113.502 125.380 121.808  1.00  0.00     0.008 C 
BRANCH   9  11
ATOM     11  C   UNL     1     115.961 124.723 122.310  1.00  0.00    -0.002 C 
ATOM     12  C   UNL     1     116.948 124.427 123.454  1.00  0.00     0.005 C 
ATOM     13  C   UNL     1     116.379 123.740 121.167  1.00  0.00    -0.026 C 
ATOM     14  C   UNL     1     118.162 123.738 122.842  1.00  0.00     0.005 C 
ATOM     15  C   UNL     1     117.918 123.689 121.329  1.00  0.00    -0.001 C 
ATOM     16  C   UNL     1     115.772 122.322 121.383  1.00  0.00     0.007 C 
ATOM     17  C   UNL     1     116.016 124.297 119.765  1.00  0.00     0.012 C 
ATOM     18  C   UNL     1     118.626 122.519 120.571  1.00  0.00     0.000 C 
ATOM     19  C   UNL     1     116.429 121.254 120.510  1.00  0.00     0.005 C 
ATOM     20  C   UNL     1     117.949 121.144 120.788  1.00  0.00     0.003 C 
ATOM     21  C   UNL     1     120.118 122.447 120.936  1.00  0.00     0.031 C 
ATOM     22  C   UNL     1     118.653 119.997 119.953  1.00  0.00    -0.008 C 
ATOM     23  C   UNL     1     120.812 121.259 120.342  1.00  0.00    -0.027 C 
ATOM     24  C   UNL     1     120.185 120.101 120.049  1.00  0.00    -0.065 C 
ATOM     25  C   UNL     1     118.210 118.615 120.529  1.00  0.00     0.014 C 
ATOM     26  C   UNL     1     118.267 120.073 118.449  1.00  0.00     0.016 C 
ATOM     27  C   UNL     1     121.028 118.918 119.609  1.00  0.00     0.063 C 
ATOM     28  C   UNL     1     119.017 117.426 119.983  1.00  0.00     0.033 C 
ATOM     29  C   UNL     1     120.517 117.618 120.245  1.00  0.00     0.118 C 
BRANCH  29  30
ATOM     30  O   UNL     1     121.249 116.514 119.774  1.00  0.00    -0.393 OA
ATOM     31  H   UNL     1     122.026 116.864 119.263  1.00  0.00     0.210 HD
ENDBRANCH  29  30
ENDBRANCH   9  11
ENDBRANCH   1   9
TORSDOF 7
ENDMDL
MODEL 6
REMARK VINA RESULT:    -6.179      3.591      5.678
REMARK INTER + INTRA:         -10.347
REMARK INTER:                  -8.583
REMARK INTRA:                  -1.764
REMARK UNBOUND:                -1.820
REMARK SMILES CC[C@@H](CC[C@@H](C)[C@H]1CC[C@H]2[C@H]3CC=C4C[C@H](O)CC[C@@]4(C)[C@@H]3CC[C@@]12C)C(C)C
REMARK SMILES IDX 5 1 4 2 3 3 2 4 1 5 28 6 29 7 30 8 6 9 7 10 8 11 9 12 26 13
REMARK SMILES IDX 10 14 11 15 25 16 27 17 12 18 24 19 23 20 13 21 21 22 14 23
REMARK SMILES IDX 15 24 20 25 22 26 16 27 19 28 17 29 18 30
REMARK H PARENT 18 31
REMARK Flexibility Score: inf
ROOT
ATOM      1  C   UNL     1     113.980 124.539 121.953  1.00  0.00     0.004 C 
ENDROOT
BRANCH   1   2
ATOM      2  C   UNL     1     114.361 124.847 123.417  1.00  0.00     0.004 C 
BRANCH   2   3
ATOM      3  C   UNL     1     115.175 126.161 123.590  1.00  0.00    -0.009 C 
BRANCH   3   4
ATOM      4  C   UNL     1     116.680 125.836 123.812  1.00  0.00     0.000 C 
ATOM      5  C   UNL     1     117.574 127.079 123.797  1.00  0.00     0.004 C 
ENDBRANCH   3   4
BRANCH   3   6
ATOM      6  C   UNL     1     114.598 127.095 124.709  1.00  0.00    -0.014 C 
ATOM      7  C   UNL     1     113.266 127.762 124.326  1.00  0.00     0.007 C 
ATOM      8  C   UNL     1     114.461 126.376 126.063  1.00  0.00     0.007 C 
ENDBRANCH   3   6
ENDBRANCH   2   3
ENDBRANCH   1   2
BRANCH   1   9
ATOM      9  C   UNL     1     114.279 123.078 121.505  1.00  0.00    -0.011 C 
ATOM     10  C   UNL     1     113.072 122.504 120.737  1.00  0.00     0.008 C 
BRANCH   9  11
ATOM     11  C   UNL     1     115.627 122.951 120.708  1.00  0.00    -0.002 C 
ATOM     12  C   UNL     1     116.322 124.314 120.527  1.00  0.00     0.005 C 
ATOM     13  C   UNL     1     116.742 122.017 121.283  1.00  0.00    -0.026 C 
ATOM     14  C   UNL     1     117.823 124.056 120.477  1.00  0.00     0.005 C 
ATOM     15  C   UNL     1     118.008 122.537 120.560  1.00  0.00    -0.001 C 
ATOM     16  C   UNL     1     116.895 122.193 122.823  1.00  0.00     0.007 C 
ATOM     17  C   UNL     1     116.497 120.530 120.911  1.00  0.00     0.012 C 
ATOM     18  C   UNL     1     119.365 122.057 121.172  1.00  0.00     0.000 C 
ATOM     19  C   UNL     1     118.187 121.581 123.366  1.00  0.00     0.005 C 
ATOM     20  C   UNL     1     119.438 122.214 122.710  1.00  0.00     0.003 C 
ATOM     21  C   UNL     1     120.554 122.764 120.502  1.00  0.00     0.031 C 
ATOM     22  C   UNL     1     120.798 121.657 123.299  1.00  0.00    -0.008 C 
ATOM     23  C   UNL     1     121.869 122.442 121.144  1.00  0.00    -0.027 C 
ATOM     24  C   UNL     1     121.998 122.099 122.443  1.00  0.00    -0.065 C 
ATOM     25  C   UNL     1     120.985 122.218 124.745  1.00  0.00     0.014 C 
ATOM     26  C   UNL     1     120.801 120.103 123.348  1.00  0.00     0.016 C 
ATOM     27  C   UNL     1     123.397 121.961 123.014  1.00  0.00     0.063 C 
ATOM     28  C   UNL     1     122.382 121.968 125.334  1.00  0.00     0.033 C 
ATOM     29  C   UNL     1     123.470 122.557 124.427  1.00  0.00     0.118 C 
BRANCH  29  30
ATOM     30  O   UNL     1     124.745 122.356 124.985  1.00  0.00    -0.393 OA
ATOM     31  H   UNL     1     124.724 122.701 125.916  1.00  0.00     0.210 HD
ENDBRANCH  29  30
ENDBRANCH   9  11
ENDBRANCH   1   9
TORSDOF 7
ENDMDL
MODEL 7
REMARK VINA RESULT:    -6.041      5.319      8.627
REMARK INTER + INTRA:         -10.156
REMARK INTER:                  -9.058
REMARK INTRA:                  -1.099
REMARK UNBOUND:                -1.820
REMARK SMILES CC[C@@H](CC[C@@H](C)[C@H]1CC[C@H]2[C@H]3CC=C4C[C@H](O)CC[C@@]4(C)[C@@H]3CC[C@@]12C)C(C)C
REMARK SMILES IDX 5 1 4 2 3 3 2 4 1 5 28 6 29 7 30 8 6 9 7 10 8 11 9 12 26 13
REMARK SMILES IDX 10 14 11 15 25 16 27 17 12 18 24 19 23 20 13 21 21 22 14 23
REMARK SMILES IDX 15 24 20 25 22 26 16 27 19 28 17 29 18 30
REMARK H PARENT 18 31
REMARK Flexibility Score: inf
ROOT
ATOM      1  C   UNL     1     118.049 121.334 119.352  1.00  0.00     0.004 C 
ENDROOT
BRANCH   1   2
ATOM      2  C   UNL     1     117.408 121.968 120.606  1.00  0.00     0.004 C 
BRANCH   2   3
ATOM      3  C   UNL     1     115.995 122.568 120.353  1.00  0.00    -0.009 C 
BRANCH   3   4
ATOM      4  C   UNL     1     116.114 124.057 119.918  1.00  0.00     0.000 C 
ATOM      5  C   UNL     1     117.332 124.764 120.519  1.00  0.00     0.004 C 
ENDBRANCH   3   4
BRANCH   3   6
ATOM      6  C   UNL     1     115.025 122.380 121.571  1.00  0.00    -0.014 C 
ATOM      7  C   UNL     1     113.962 123.486 121.685  1.00  0.00     0.007 C 
ATOM      8  C   UNL     1     114.354 120.996 121.580  1.00  0.00     0.007 C 
ENDBRANCH   3   6
ENDBRANCH   2   3
ENDBRANCH   1   2
BRANCH   1   9
ATOM      9  C   UNL     1     118.564 119.880 119.559  1.00  0.00    -0.011 C 
ATOM     10  C   UNL     1     117.661 119.138 120.565  1.00  0.00     0.008 C 
BRANCH   9  11
ATOM     11  C   UNL     1     118.742 119.100 118.207  1.00  0.00    -0.002 C 
ATOM     12  C   UNL     1     118.150 119.872 117.013  1.00  0.00     0.005 C 
ATOM     13  C   UNL     1     120.192 118.729 117.753  1.00  0.00    -0.026 C 
ATOM     14  C   UNL     1     118.971 119.506 115.782  1.00  0.00     0.005 C 
ATOM     15  C   UNL     1     120.002 118.468 116.239  1.00  0.00    -0.001 C 
ATOM     16  C   UNL     1     121.180 119.913 117.972  1.00  0.00     0.007 C 
ATOM     17  C   UNL     1     120.702 117.439 118.449  1.00  0.00     0.012 C 
ATOM     18  C   UNL     1     121.324 118.420 115.404  1.00  0.00     0.000 C 
ATOM     19  C   UNL     1     122.502 119.731 117.227  1.00  0.00     0.005 C 
ATOM     20  C   UNL     1     122.284 119.598 115.700  1.00  0.00     0.003 C 
ATOM     21  C   UNL     1     121.023 118.336 113.898  1.00  0.00     0.031 C 
ATOM     22  C   UNL     1     123.637 119.479 114.886  1.00  0.00    -0.008 C 
ATOM     23  C   UNL     1     122.253 118.426 113.047  1.00  0.00    -0.027 C 
ATOM     24  C   UNL     1     123.373 119.077 113.424  1.00  0.00    -0.065 C 
ATOM     25  C   UNL     1     124.352 120.868 114.899  1.00  0.00     0.014 C 
ATOM     26  C   UNL     1     124.580 118.411 115.507  1.00  0.00     0.016 C 
ATOM     27  C   UNL     1     124.488 119.238 112.407  1.00  0.00     0.063 C 
ATOM     28  C   UNL     1     125.543 120.963 113.931  1.00  0.00     0.033 C 
ATOM     29  C   UNL     1     125.107 120.640 112.496  1.00  0.00     0.118 C 
BRANCH  29  30
ATOM     30  O   UNL     1     126.191 120.761 111.609  1.00  0.00    -0.393 OA
ATOM     31  H   UNL     1     125.840 121.122 110.752  1.00  0.00     0.210 HD
ENDBRANCH  29  30
ENDBRANCH   9  11
ENDBRANCH   1   9
TORSDOF 7
ENDMDL
MODEL 8
REMARK VINA RESULT:    -6.021      6.944     13.013
REMARK INTER + INTRA:         -10.129
REMARK INTER:                  -8.090
REMARK INTRA:                  -2.039
REMARK UNBOUND:                -1.820
REMARK SMILES CC[C@@H](CC[C@@H](C)[C@H]1CC[C@H]2[C@H]3CC=C4C[C@H](O)CC[C@@]4(C)[C@@H]3CC[C@@]12C)C(C)C
REMARK SMILES IDX 5 1 4 2 3 3 2 4 1 5 28 6 29 7 30 8 6 9 7 10 8 11 9 12 26 13
REMARK SMILES IDX 10 14 11 15 25 16 27 17 12 18 24 19 23 20 13 21 21 22 14 23
REMARK SMILES IDX 15 24 20 25 22 26 16 27 19 28 17 29 18 30
REMARK H PARENT 18 31
REMARK Flexibility Score: inf
ROOT
ATOM      1  C   UNL     1     126.793 119.121 112.924  1.00  0.00     0.004 C 
ENDROOT
BRANCH   1   2
ATOM      2  C   UNL     1     125.616 119.026 111.929  1.00  0.00     0.004 C 
BRANCH   2   3
ATOM      3  C   UNL     1     124.711 120.291 111.907  1.00  0.00    -0.009 C 
BRANCH   3   4
ATOM      4  C   UNL     1     125.465 121.502 112.529  1.00  0.00     0.000 C 
ATOM      5  C   UNL     1     124.779 122.061 113.778  1.00  0.00     0.004 C 
ENDBRANCH   3   4
BRANCH   3   6
ATOM      6  C   UNL     1     123.312 120.054 112.576  1.00  0.00    -0.014 C 
ATOM      7  C   UNL     1     122.134 120.580 111.739  1.00  0.00     0.007 C 
ATOM      8  C   UNL     1     123.082 118.580 112.951  1.00  0.00     0.007 C 
ENDBRANCH   3   6
ENDBRANCH   2   3
ENDBRANCH   1   2
BRANCH   1   9
ATOM      9  C   UNL     1     126.759 118.061 114.063  1.00  0.00    -0.011 C 
ATOM     10  C   UNL     1     127.640 116.853 113.687  1.00  0.00     0.008 C 
BRANCH   9  11
ATOM     11  C   UNL     1     127.118 118.666 115.468  1.00  0.00    -0.002 C 
ATOM     12  C   UNL     1     127.311 120.193 115.406  1.00  0.00     0.005 C 
ATOM     13  C   UNL     1     126.114 118.446 116.647  1.00  0.00    -0.026 C 
ATOM     14  C   UNL     1     126.899 120.759 116.760  1.00  0.00     0.005 C 
ATOM     15  C   UNL     1     126.528 119.559 117.639  1.00  0.00    -0.001 C 
ATOM     16  C   UNL     1     124.640 118.658 116.189  1.00  0.00     0.007 C 
ATOM     17  C   UNL     1     126.299 117.055 117.310  1.00  0.00     0.012 C 
ATOM     18  C   UNL     1     125.494 119.853 118.775  1.00  0.00     0.000 C 
ATOM     19  C   UNL     1     123.669 118.806 117.360  1.00  0.00     0.005 C 
ATOM     20  C   UNL     1     124.042 120.007 118.263  1.00  0.00     0.003 C 
ATOM     21  C   UNL     1     125.909 121.085 119.596  1.00  0.00     0.031 C 
ATOM     22  C   UNL     1     123.016 120.237 119.448  1.00  0.00    -0.008 C 
ATOM     23  C   UNL     1     124.883 121.491 120.609  1.00  0.00    -0.027 C 
ATOM     24  C   UNL     1     123.563 121.251 120.468  1.00  0.00    -0.065 C 
ATOM     25  C   UNL     1     121.683 120.796 118.855  1.00  0.00     0.014 C 
ATOM     26  C   UNL     1     122.723 118.913 120.209  1.00  0.00     0.016 C 
ATOM     27  C   UNL     1     122.610 121.858 121.481  1.00  0.00     0.063 C 
ATOM     28  C   UNL     1     120.697 121.307 119.917  1.00  0.00     0.033 C 
ATOM     29  C   UNL     1     121.346 122.388 120.790  1.00  0.00     0.118 C 
BRANCH  29  30
ATOM     30  O   UNL     1     120.430 122.877 121.738  1.00  0.00    -0.393 OA
ATOM     31  H   UNL     1     120.867 122.832 122.630  1.00  0.00     0.210 HD
ENDBRANCH  29  30
ENDBRANCH   9  11
ENDBRANCH   1   9
TORSDOF 7
ENDMDL
MODEL 9
REMARK VINA RESULT:    -5.768      3.318      6.188
REMARK INTER + INTRA:          -9.780
REMARK INTER:                  -8.239
REMARK INTRA:                  -1.542
REMARK UNBOUND:                -1.820
REMARK SMILES CC[C@@H](CC[C@@H](C)[C@H]1CC[C@H]2[C@H]3CC=C4C[C@H](O)CC[C@@]4(C)[C@@H]3CC[C@@]12C)C(C)C
REMARK SMILES IDX 5 1 4 2 3 3 2 4 1 5 28 6 29 7 30 8 6 9 7 10 8 11 9 12 26 13
REMARK SMILES IDX 10 14 11 15 25 16 27 17 12 18 24 19 23 20 13 21 21 22 14 23
REMARK SMILES IDX 15 24 20 25 22 26 16 27 19 28 17 29 18 30
REMARK H PARENT 18 31
REMARK Flexibility Score: inf
ROOT
ATOM      1  C   UNL     1     117.600 123.255 123.409  1.00  0.00     0.004 C 
ENDROOT
BRANCH   1   2
ATOM      2  C   UNL     1     116.349 123.498 124.282  1.00  0.00     0.004 C 
BRANCH   2   3
ATOM      3  C   UNL     1     115.404 124.603 123.728  1.00  0.00    -0.009 C 
BRANCH   3   4
ATOM      4  C   UNL     1     114.879 125.493 124.892  1.00  0.00     0.000 C 
ATOM      5  C   UNL     1     114.790 126.976 124.522  1.00  0.00     0.004 C 
ENDBRANCH   3   4
BRANCH   3   6
ATOM      6  C   UNL     1     114.240 124.027 122.849  1.00  0.00    -0.014 C 
ATOM      7  C   UNL     1     114.341 124.417 121.365  1.00  0.00     0.007 C 
ATOM      8  C   UNL     1     114.096 122.501 122.989  1.00  0.00     0.007 C 
ENDBRANCH   3   6
ENDBRANCH   2   3
ENDBRANCH   1   2
BRANCH   1   9
ATOM      9  C   UNL     1     117.970 121.755 123.220  1.00  0.00    -0.011 C 
ATOM     10  C   UNL     1     117.518 120.941 124.449  1.00  0.00     0.008 C 
BRANCH   9  11
ATOM     11  C   UNL     1     117.439 121.164 121.865  1.00  0.00    -0.002 C 
ATOM     12  C   UNL     1     117.179 122.263 120.818  1.00  0.00     0.005 C 
ATOM     13  C   UNL     1     118.324 120.112 121.119  1.00  0.00    -0.026 C 
ATOM     14  C   UNL     1     117.421 121.648 119.444  1.00  0.00     0.005 C 
ATOM     15  C   UNL     1     117.756 120.171 119.680  1.00  0.00    -0.001 C 
ATOM     16  C   UNL     1     119.825 120.528 121.119  1.00  0.00     0.007 C 
ATOM     17  C   UNL     1     118.138 118.685 121.699  1.00  0.00     0.012 C 
ATOM     18  C   UNL     1     118.651 119.502 118.586  1.00  0.00     0.000 C 
ATOM     19  C   UNL     1     120.661 119.736 120.113  1.00  0.00     0.005 C 
ATOM     20  C   UNL     1     120.139 119.918 118.667  1.00  0.00     0.003 C 
ATOM     21  C   UNL     1     118.094 119.767 117.178  1.00  0.00     0.031 C 
ATOM     22  C   UNL     1     121.024 119.170 117.588  1.00  0.00    -0.008 C 
ATOM     23  C   UNL     1     118.989 119.264 116.087  1.00  0.00    -0.027 C 
ATOM     24  C   UNL     1     120.326 119.146 116.216  1.00  0.00    -0.065 C 
ATOM     25  C   UNL     1     122.383 119.927 117.442  1.00  0.00     0.014 C 
ATOM     26  C   UNL     1     121.300 117.697 118.003  1.00  0.00     0.016 C 
ATOM     27  C   UNL     1     121.139 118.784 114.987  1.00  0.00     0.063 C 
ATOM     28  C   UNL     1     123.228 119.463 116.246  1.00  0.00     0.033 C 
ATOM     29  C   UNL     1     122.441 119.597 114.936  1.00  0.00     0.118 C 
BRANCH  29  30
ATOM     30  O   UNL     1     123.228 119.203 113.840  1.00  0.00    -0.393 OA
ATOM     31  H   UNL     1     122.637 119.166 113.041  1.00  0.00     0.210 HD
ENDBRANCH  29  30
ENDBRANCH   9  11
ENDBRANCH   1   9
TORSDOF 7
ENDMDL
