MODEL 1
REMARK VINA RESULT:    -4.215      0.000      0.000
REMARK INTER + INTRA:          -5.050
REMARK INTER:                  -4.954
REMARK INTRA:                  -0.096
REMARK UNBOUND:                -0.096
REMARK SMILES Oc1ccc(-c2[o+]c3cc(O)cc(O)c3cc2O)cc1
REMARK SMILES IDX 6 1 7 2 8 3 9 4 10 5 12 6 13 7 15 8 16 9 17 10 5 11 4 12
REMARK SMILES IDX 3 13 2 14 19 15 20 16 1 17 18 19 11 21 14 23
REMARK H PARENT 1 18 18 20 11 22 14 24
REMARK Flexibility Score: inf
ROOT
ATOM      1  C   UNL     1       8.318 -31.694  15.511  1.00  0.00     0.401 A 
ATOM      2  O   UNL     1       9.433 -32.232  15.022  1.00  0.00    -0.202 OA
ATOM      3  C   UNL     1       9.439 -33.152  14.064  1.00  0.00     0.368 A 
ATOM      4  C   UNL     1      10.663 -33.659  13.618  1.00  0.00     0.162 A 
ATOM      5  C   UNL     1      10.701 -34.628  12.615  1.00  0.00     0.128 A 
ATOM      6  C   UNL     1       9.507 -35.097  12.053  1.00  0.00     0.093 A 
ATOM      7  C   UNL     1       8.269 -34.605  12.483  1.00  0.00     0.136 A 
ATOM      8  C   UNL     1       8.227 -33.617  13.501  1.00  0.00     0.125 A 
ATOM      9  C   UNL     1       7.033 -33.057  13.985  1.00  0.00     0.078 A 
ATOM     10  C   UNL     1       7.071 -32.084  14.987  1.00  0.00     0.223 A 
ENDROOT
BRANCH   1  11
ATOM     11  C   UNL     1       8.440 -30.684  16.587  1.00  0.00     0.084 A 
ATOM     12  C   UNL     1       7.763 -30.829  17.812  1.00  0.00     0.022 A 
ATOM     13  C   UNL     1       7.914 -29.874  18.821  1.00  0.00     0.047 A 
ATOM     14  C   UNL     1       8.749 -28.770  18.626  1.00  0.00     0.115 A 
ATOM     15  C   UNL     1       9.295 -29.584  16.407  1.00  0.00     0.022 A 
ATOM     16  C   UNL     1       9.443 -28.628  17.418  1.00  0.00     0.047 A 
BRANCH  14  17
ATOM     17  O   UNL     1       8.889 -27.825  19.640  1.00  0.00    -0.508 OA
ATOM     18  H   UNL     1       8.566 -26.871  19.523  1.00  0.00     0.293 HD
ENDBRANCH  14  17
ENDBRANCH   1  11
BRANCH  10  19
ATOM     19  O   UNL     1       5.889 -31.491  15.433  1.00  0.00    -0.500 OA
ATOM     20  H   UNL     1       5.472 -31.738  16.323  1.00  0.00     0.294 HD
ENDBRANCH  10  19
BRANCH   5  21
ATOM     21  O   UNL     1      11.930 -35.121  12.183  1.00  0.00    -0.507 OA
ATOM     22  H   UNL     1      12.026 -36.064  11.822  1.00  0.00     0.293 HD
ENDBRANCH   5  21
BRANCH   7  23
ATOM     23  O   UNL     1       7.123 -35.125  11.875  1.00  0.00    -0.507 OA
ATOM     24  H   UNL     1       6.490 -34.591  11.298  1.00  0.00     0.293 HD
ENDBRANCH   7  23
TORSDOF 5
ENDMDL
MODEL 2
REMARK VINA RESULT:    -3.565      2.205      6.733
REMARK INTER + INTRA:          -4.285
REMARK INTER:                  -4.143
REMARK INTRA:                  -0.142
REMARK UNBOUND:                -0.096
REMARK SMILES Oc1ccc(-c2[o+]c3cc(O)cc(O)c3cc2O)cc1
REMARK SMILES IDX 6 1 7 2 8 3 9 4 10 5 12 6 13 7 15 8 16 9 17 10 5 11 4 12
REMARK SMILES IDX 3 13 2 14 19 15 20 16 1 17 18 19 11 21 14 23
REMARK H PARENT 1 18 18 20 11 22 14 24
REMARK Flexibility Score: inf
ROOT
ATOM      1  C   UNL     1       7.840 -31.813  16.074  1.00  0.00     0.401 A 
ATOM      2  O   UNL     1       8.485 -30.693  15.759  1.00  0.00    -0.202 OA
ATOM      3  C   UNL     1       8.949 -29.839  16.665  1.00  0.00     0.368 A 
ATOM      4  C   UNL     1       9.612 -28.686  16.234  1.00  0.00     0.162 A 
ATOM      5  C   UNL     1      10.107 -27.770  17.163  1.00  0.00     0.128 A 
ATOM      6  C   UNL     1       9.940 -28.006  18.532  1.00  0.00     0.093 A 
ATOM      7  C   UNL     1       9.280 -29.154  18.988  1.00  0.00     0.136 A 
ATOM      8  C   UNL     1       8.776 -30.089  18.047  1.00  0.00     0.125 A 
ATOM      9  C   UNL     1       8.114 -31.273  18.413  1.00  0.00     0.078 A 
ATOM     10  C   UNL     1       7.650 -32.148  17.428  1.00  0.00     0.223 A 
ENDROOT
BRANCH   1  11
ATOM     11  C   UNL     1       7.361 -32.679  14.973  1.00  0.00     0.084 A 
ATOM     12  C   UNL     1       7.845 -33.990  14.804  1.00  0.00     0.022 A 
ATOM     13  C   UNL     1       7.358 -34.796  13.771  1.00  0.00     0.047 A 
ATOM     14  C   UNL     1       6.377 -34.311  12.901  1.00  0.00     0.115 A 
ATOM     15  C   UNL     1       6.359 -32.206  14.108  1.00  0.00     0.022 A 
ATOM     16  C   UNL     1       5.875 -33.015  13.074  1.00  0.00     0.047 A 
BRANCH  14  17
ATOM     17  O   UNL     1       5.903 -35.125  11.875  1.00  0.00    -0.508 OA
ATOM     18  H   UNL     1       5.174 -35.810  12.036  1.00  0.00     0.293 HD
ENDBRANCH  14  17
ENDBRANCH   1  11
BRANCH  10  19
ATOM     19  O   UNL     1       7.036 -33.348  17.790  1.00  0.00    -0.500 OA
ATOM     20  H   UNL     1       6.787 -34.048  17.101  1.00  0.00     0.294 HD
ENDBRANCH  10  19
BRANCH   5  21
ATOM     21  O   UNL     1      10.764 -26.627  16.715  1.00  0.00    -0.507 OA
ATOM     22  H   UNL     1      10.425 -25.698  16.938  1.00  0.00     0.293 HD
ENDBRANCH   5  21
BRANCH   7  23
ATOM     23  O   UNL     1       9.150 -29.316  20.371  1.00  0.00    -0.507 OA
ATOM     24  H   UNL     1       9.236 -28.568  21.043  1.00  0.00     0.293 HD
ENDBRANCH   7  23
TORSDOF 5
ENDMDL
MODEL 3
REMARK VINA RESULT:    -2.856      2.303      6.592
REMARK INTER + INTRA:          -3.452
REMARK INTER:                  -3.446
REMARK INTRA:                  -0.007
REMARK UNBOUND:                -0.096
REMARK SMILES Oc1ccc(-c2[o+]c3cc(O)cc(O)c3cc2O)cc1
REMARK SMILES IDX 6 1 7 2 8 3 9 4 10 5 12 6 13 7 15 8 16 9 17 10 5 11 4 12
REMARK SMILES IDX 3 13 2 14 19 15 20 16 1 17 18 19 11 21 14 23
REMARK H PARENT 1 18 18 20 11 22 14 24
REMARK Flexibility Score: inf
ROOT
ATOM      1  C   UNL     1       9.337 -31.466  14.585  1.00  0.00     0.401 A 
ATOM      2  O   UNL     1       9.140 -31.707  15.878  1.00  0.00    -0.202 OA
ATOM      3  C   UNL     1       8.295 -31.009  16.630  1.00  0.00     0.368 A 
ATOM      4  C   UNL     1       8.159 -31.336  17.982  1.00  0.00     0.162 A 
ATOM      5  C   UNL     1       7.281 -30.619  18.796  1.00  0.00     0.128 A 
ATOM      6  C   UNL     1       6.534 -29.566  18.256  1.00  0.00     0.093 A 
ATOM      7  C   UNL     1       6.653 -29.218  16.905  1.00  0.00     0.136 A 
ATOM      8  C   UNL     1       7.542 -29.947  16.074  1.00  0.00     0.125 A 
ATOM      9  C   UNL     1       7.716 -29.678  14.706  1.00  0.00     0.078 A 
ATOM     10  C   UNL     1       8.608 -30.443  13.950  1.00  0.00     0.223 A 
ENDROOT
BRANCH   1  11
ATOM     11  C   UNL     1      10.314 -32.306  13.857  1.00  0.00     0.084 A 
ATOM     12  C   UNL     1      11.288 -31.739  13.015  1.00  0.00     0.022 A 
ATOM     13  C   UNL     1      12.215 -32.553  12.357  1.00  0.00     0.047 A 
ATOM     14  C   UNL     1      12.190 -33.938  12.539  1.00  0.00     0.115 A 
ATOM     15  C   UNL     1      10.309 -33.698  14.052  1.00  0.00     0.022 A 
ATOM     16  C   UNL     1      11.237 -34.510  13.391  1.00  0.00     0.047 A 
BRANCH  14  17
ATOM     17  O   UNL     1      13.119 -34.737  11.875  1.00  0.00    -0.508 OA
ATOM     18  H   UNL     1      13.995 -35.003  12.310  1.00  0.00     0.293 HD
ENDBRANCH  14  17
ENDBRANCH   1  11
BRANCH  10  19
ATOM     19  O   UNL     1       8.744 -30.210  12.580  1.00  0.00    -0.500 OA
ATOM     20  H   UNL     1       9.492 -30.630  12.040  1.00  0.00     0.294 HD
ENDBRANCH  10  19
BRANCH   5  21
ATOM     21  O   UNL     1       7.159 -30.960  20.140  1.00  0.00    -0.507 OA
ATOM     22  H   UNL     1       7.786 -31.627  20.577  1.00  0.00     0.293 HD
ENDBRANCH   5  21
BRANCH   7  23
ATOM     23  O   UNL     1       5.875 -28.152  16.444  1.00  0.00    -0.507 OA
ATOM     24  H   UNL     1       5.131 -28.240  15.767  1.00  0.00     0.293 HD
ENDBRANCH   7  23
TORSDOF 5
ENDMDL
MODEL 4
REMARK VINA RESULT:    -2.506      2.039      3.054
REMARK INTER + INTRA:          -3.041
REMARK INTER:                  -3.203
REMARK INTRA:                   0.162
REMARK UNBOUND:                -0.096
REMARK SMILES Oc1ccc(-c2[o+]c3cc(O)cc(O)c3cc2O)cc1
REMARK SMILES IDX 6 1 7 2 8 3 9 4 10 5 12 6 13 7 15 8 16 9 17 10 5 11 4 12
REMARK SMILES IDX 3 13 2 14 19 15 20 16 1 17 18 19 11 21 14 23
REMARK H PARENT 1 18 18 20 11 22 14 24
REMARK Flexibility Score: inf
ROOT
ATOM      1  C   UNL     1       8.899 -30.157  15.546  1.00  0.00     0.401 A 
ATOM      2  O   UNL     1       8.478 -31.321  15.061  1.00  0.00    -0.202 OA
ATOM      3  C   UNL     1       9.112 -31.982  14.098  1.00  0.00     0.368 A 
ATOM      4  C   UNL     1       8.589 -33.200  13.652  1.00  0.00     0.162 A 
ATOM      5  C   UNL     1       9.232 -33.914  12.641  1.00  0.00     0.128 A 
ATOM      6  C   UNL     1      10.405 -33.409  12.069  1.00  0.00     0.093 A 
ATOM      7  C   UNL     1      10.948 -32.192  12.498  1.00  0.00     0.136 A 
ATOM      8  C   UNL     1      10.299 -31.464  13.528  1.00  0.00     0.125 A 
ATOM      9  C   UNL     1      10.778 -30.243  14.031  1.00  0.00     0.078 A 
ATOM     10  C   UNL     1      10.086 -29.586  15.052  1.00  0.00     0.223 A 
ENDROOT
BRANCH   1  11
ATOM     11  C   UNL     1       8.099 -29.512  16.613  1.00  0.00     0.084 A 
ATOM     12  C   UNL     1       6.692 -29.519  16.583  1.00  0.00     0.022 A 
ATOM     13  C   UNL     1       5.959 -28.924  17.614  1.00  0.00     0.047 A 
ATOM     14  C   UNL     1       6.618 -28.325  18.691  1.00  0.00     0.115 A 
ATOM     15  C   UNL     1       8.754 -28.927  17.709  1.00  0.00     0.022 A 
ATOM     16  C   UNL     1       8.018 -28.331  18.739  1.00  0.00     0.047 A 
BRANCH  14  17
ATOM     17  O   UNL     1       5.875 -27.735  19.710  1.00  0.00    -0.508 OA
ATOM     18  H   UNL     1       5.021 -27.224  19.516  1.00  0.00     0.293 HD
ENDBRANCH  14  17
ENDBRANCH   1  11
BRANCH  10  19
ATOM     19  O   UNL     1      10.588 -28.398  15.586  1.00  0.00    -0.500 OA
ATOM     20  H   UNL     1      11.046 -27.705  15.006  1.00  0.00     0.294 HD
ENDBRANCH  10  19
BRANCH   5  21
ATOM     21  O   UNL     1       8.696 -35.125  12.210  1.00  0.00    -0.507 OA
ATOM     22  H   UNL     1       8.936 -36.001  12.659  1.00  0.00     0.293 HD
ENDBRANCH   5  21
BRANCH   7  23
ATOM     23  O   UNL     1      12.121 -31.755  11.875  1.00  0.00    -0.507 OA
ATOM     24  H   UNL     1      12.959 -31.481  12.365  1.00  0.00     0.293 HD
ENDBRANCH   7  23
TORSDOF 5
ENDMDL
MODEL 5
REMARK VINA RESULT:    -1.880      2.348      6.947
REMARK INTER + INTRA:          -2.305
REMARK INTER:                  -2.054
REMARK INTRA:                  -0.251
REMARK UNBOUND:                -0.096
REMARK SMILES Oc1ccc(-c2[o+]c3cc(O)cc(O)c3cc2O)cc1
REMARK SMILES IDX 6 1 7 2 8 3 9 4 10 5 12 6 13 7 15 8 16 9 17 10 5 11 4 12
REMARK SMILES IDX 3 13 2 14 19 15 20 16 1 17 18 19 11 21 14 23
REMARK H PARENT 1 18 18 20 11 22 14 24
REMARK Flexibility Score: inf
ROOT
ATOM      1  C   UNL     1       9.293 -31.014  13.820  1.00  0.00     0.401 A 
ATOM      2  O   UNL     1       8.941 -30.416  14.955  1.00  0.00    -0.202 OA
ATOM      3  C   UNL     1       9.652 -29.445  15.518  1.00  0.00     0.368 A 
ATOM      4  C   UNL     1       9.202 -28.880  16.715  1.00  0.00     0.162 A 
ATOM      5  C   UNL     1       9.929 -27.861  17.330  1.00  0.00     0.128 A 
ATOM      6  C   UNL     1      11.116 -27.402  16.748  1.00  0.00     0.093 A 
ATOM      7  C   UNL     1      11.588 -27.951  15.550  1.00  0.00     0.136 A 
ATOM      8  C   UNL     1      10.850 -28.987  14.919  1.00  0.00     0.125 A 
ATOM      9  C   UNL     1      11.239 -29.587  13.710  1.00  0.00     0.078 A 
ATOM     10  C   UNL     1      10.457 -30.599  13.147  1.00  0.00     0.223 A 
ENDROOT
BRANCH   1  11
ATOM     11  C   UNL     1       8.423 -32.092  13.298  1.00  0.00     0.084 A 
ATOM     12  C   UNL     1       8.829 -33.439  13.317  1.00  0.00     0.022 A 
ATOM     13  C   UNL     1       7.979 -34.442  12.840  1.00  0.00     0.047 A 
ATOM     14  C   UNL     1       6.712 -34.116  12.349  1.00  0.00     0.115 A 
ATOM     15  C   UNL     1       7.139 -31.775  12.822  1.00  0.00     0.022 A 
ATOM     16  C   UNL     1       6.291 -32.780  12.344  1.00  0.00     0.047 A 
BRANCH  14  17
ATOM     17  O   UNL     1       5.877 -35.125  11.875  1.00  0.00    -0.508 OA
ATOM     18  H   UNL     1       5.453 -35.799  12.502  1.00  0.00     0.293 HD
ENDBRANCH  14  17
ENDBRANCH   1  11
BRANCH  10  19
ATOM     19  O   UNL     1      10.816 -31.161  11.921  1.00  0.00    -0.500 OA
ATOM     20  H   UNL     1      11.133 -32.121  11.848  1.00  0.00     0.294 HD
ENDBRANCH  10  19
BRANCH   5  21
ATOM     21  O   UNL     1       9.465 -27.311  18.522  1.00  0.00    -0.507 OA
ATOM     22  H   UNL     1       8.488 -27.369  18.789  1.00  0.00     0.293 HD
ENDBRANCH   5  21
BRANCH   7  23
ATOM     23  O   UNL     1      12.782 -27.441  15.033  1.00  0.00    -0.507 OA
ATOM     24  H   UNL     1      13.687 -27.870  15.156  1.00  0.00     0.293 HD
ENDBRANCH   7  23
TORSDOF 5
ENDMDL
MODEL 6
REMARK VINA RESULT:    -1.780      1.567      6.823
REMARK INTER + INTRA:          -2.187
REMARK INTER:                  -1.941
REMARK INTRA:                  -0.247
REMARK UNBOUND:                -0.096
REMARK SMILES Oc1ccc(-c2[o+]c3cc(O)cc(O)c3cc2O)cc1
REMARK SMILES IDX 6 1 7 2 8 3 9 4 10 5 12 6 13 7 15 8 16 9 17 10 5 11 4 12
REMARK SMILES IDX 3 13 2 14 19 15 20 16 1 17 18 19 11 21 14 23
REMARK H PARENT 1 18 18 20 11 22 14 24
REMARK Flexibility Score: inf
ROOT
ATOM      1  C   UNL     1       8.302 -31.174  15.434  1.00  0.00     0.401 A 
ATOM      2  O   UNL     1       9.031 -30.873  16.506  1.00  0.00    -0.202 OA
ATOM      3  C   UNL     1       8.657 -29.978  17.414  1.00  0.00     0.368 A 
ATOM      4  C   UNL     1       9.493 -29.728  18.506  1.00  0.00     0.162 A 
ATOM      5  C   UNL     1       9.127 -28.792  19.473  1.00  0.00     0.128 A 
ATOM      6  C   UNL     1       7.918 -28.098  19.350  1.00  0.00     0.093 A 
ATOM      7  C   UNL     1       7.063 -28.331  18.266  1.00  0.00     0.136 A 
ATOM      8  C   UNL     1       7.430 -29.284  17.281  1.00  0.00     0.125 A 
ATOM      9  C   UNL     1       6.630 -29.592  16.167  1.00  0.00     0.078 A 
ATOM     10  C   UNL     1       7.057 -30.547  15.241  1.00  0.00     0.223 A 
ENDROOT
BRANCH   1  11
ATOM     11  C   UNL     1       8.832 -32.182  14.487  1.00  0.00     0.084 A 
ATOM     12  C   UNL     1       9.904 -31.888  13.625  1.00  0.00     0.022 A 
ATOM     13  C   UNL     1      10.402 -32.865  12.757  1.00  0.00     0.047 A 
ATOM     14  C   UNL     1       9.846 -34.147  12.746  1.00  0.00     0.115 A 
ATOM     15  C   UNL     1       8.292 -33.480  14.486  1.00  0.00     0.022 A 
ATOM     16  C   UNL     1       8.792 -34.454  13.616  1.00  0.00     0.047 A 
BRANCH  14  17
ATOM     17  O   UNL     1      10.351 -35.109  11.875  1.00  0.00    -0.508 OA
ATOM     18  H   UNL     1       9.792 -35.482  11.116  1.00  0.00     0.293 HD
ENDBRANCH  14  17
ENDBRANCH   1  11
BRANCH  10  19
ATOM     19  O   UNL     1       6.241 -30.890  14.162  1.00  0.00    -0.500 OA
ATOM     20  H   UNL     1       5.513 -30.269  13.827  1.00  0.00     0.294 HD
ENDBRANCH  10  19
BRANCH   5  21
ATOM     21  O   UNL     1       9.973 -28.556  20.554  1.00  0.00    -0.507 OA
ATOM     22  H   UNL     1       9.685 -27.983  21.339  1.00  0.00     0.293 HD
ENDBRANCH   5  21
BRANCH   7  23
ATOM     23  O   UNL     1       5.875 -27.596  18.213  1.00  0.00    -0.507 OA
ATOM     24  H   UNL     1       5.701 -26.839  17.569  1.00  0.00     0.293 HD
ENDBRANCH   7  23
TORSDOF 5
ENDMDL
