MODEL 1
REMARK VINA RESULT:    -5.018      0.000      0.000
REMARK INTER + INTRA:          -8.402
REMARK INTER:                  -6.925
REMARK INTRA:                  -1.477
REMARK UNBOUND:                -1.477
REMARK SMILES CC[C@H](CC[C@H](C)[C@H]1CC[C@@H]2[C@H]3CC=C4C[C@@H](O)CC[C@@]4(C)[C@H]3CC[C@@]21C)C(C)C
REMARK SMILES IDX 5 1 4 2 3 3 2 4 1 5 28 6 29 7 30 8 6 9 7 10 8 11 9 12 26 13
REMARK SMILES IDX 10 14 11 15 25 16 27 17 12 18 24 19 23 20 13 21 21 22 14 23
REMARK SMILES IDX 15 24 20 25 22 26 16 27 19 28 17 29 18 30
REMARK H PARENT 18 31
REMARK Flexibility Score: inf
ROOT
ATOM      1  C   UNL     1       9.654   0.777   4.606  1.00  0.00     0.004 C 
ENDROOT
BRANCH   1   2
ATOM      2  C   UNL     1       9.046   1.221   5.955  1.00  0.00     0.004 C 
BRANCH   2   3
ATOM      3  C   UNL     1       7.616   1.824   5.845  1.00  0.00    -0.009 C 
BRANCH   3   4
ATOM      4  C   UNL     1       6.682   1.201   6.927  1.00  0.00     0.000 C 
ATOM      5  C   UNL     1       7.146  -0.187   7.376  1.00  0.00     0.004 C 
ENDBRANCH   3   4
BRANCH   3   6
ATOM      6  C   UNL     1       7.591   3.392   5.863  1.00  0.00    -0.014 C 
ATOM      7  C   UNL     1       8.924   3.977   6.364  1.00  0.00     0.007 C 
ATOM      8  C   UNL     1       6.452   3.945   6.742  1.00  0.00     0.007 C 
ENDBRANCH   3   6
ENDBRANCH   2   3
ENDBRANCH   1   2
BRANCH   1   9
ATOM      9  C   UNL     1       8.680  -0.091   3.757  1.00  0.00    -0.011 C 
ATOM     10  C   UNL     1       8.703  -1.556   4.251  1.00  0.00     0.008 C 
BRANCH   9  11
ATOM     11  C   UNL     1       8.983   0.087   2.219  1.00  0.00    -0.002 C 
ATOM     12  C   UNL     1       8.817  -1.220   1.417  1.00  0.00     0.005 C 
ATOM     13  C   UNL     1       8.182   1.170   1.413  1.00  0.00    -0.026 C 
ATOM     14  C   UNL     1       7.665  -1.014   0.434  1.00  0.00     0.005 C 
ATOM     15  C   UNL     1       7.052   0.360   0.735  1.00  0.00    -0.001 C 
ATOM     16  C   UNL     1       9.130   1.768   0.330  1.00  0.00     0.007 C 
ATOM     17  C   UNL     1       7.652   2.326   2.302  1.00  0.00     0.012 C 
ATOM     18  C   UNL     1       6.380   1.010  -0.516  1.00  0.00     0.000 C 
ATOM     19  C   UNL     1       8.409   2.538  -0.778  1.00  0.00     0.005 C 
ATOM     20  C   UNL     1       7.386   1.647  -1.524  1.00  0.00     0.003 C 
ATOM     21  C   UNL     1       5.201   1.955  -0.120  1.00  0.00     0.031 C 
ATOM     22  C   UNL     1       6.615   2.395  -2.679  1.00  0.00    -0.008 C 
ATOM     23  C   UNL     1       5.113   3.254  -0.884  1.00  0.00    -0.027 C 
ATOM     24  C   UNL     1       5.717   3.464  -2.068  1.00  0.00    -0.065 C 
ATOM     25  C   UNL     1       7.602   3.070  -3.683  1.00  0.00     0.014 C 
ATOM     26  C   UNL     1       5.734   1.382  -3.462  1.00  0.00     0.016 C 
ATOM     27  C   UNL     1       5.615   4.825  -2.724  1.00  0.00     0.063 C 
ATOM     28  C   UNL     1       6.911   3.920  -4.770  1.00  0.00     0.033 C 
ATOM     29  C   UNL     1       5.671   4.702  -4.258  1.00  0.00     0.118 C 
BRANCH  29  30
ATOM     30  O   UNL     1       5.600   5.972  -4.855  1.00  0.00    -0.393 OA
ATOM     31  H   UNL     1       5.446   6.634  -4.131  1.00  0.00     0.210 HD
ENDBRANCH  29  30
ENDBRANCH   9  11
ENDBRANCH   1   9
TORSDOF 7
ENDMDL
MODEL 2
REMARK VINA RESULT:    -4.952      9.326     11.901
REMARK INTER + INTRA:          -8.311
REMARK INTER:                  -6.776
REMARK INTRA:                  -1.535
REMARK UNBOUND:                -1.477
REMARK SMILES CC[C@H](CC[C@H](C)[C@H]1CC[C@@H]2[C@H]3CC=C4C[C@@H](O)CC[C@@]4(C)[C@H]3CC[C@@]21C)C(C)C
REMARK SMILES IDX 5 1 4 2 3 3 2 4 1 5 28 6 29 7 30 8 6 9 7 10 8 11 9 12 26 13
REMARK SMILES IDX 10 14 11 15 25 16 27 17 12 18 24 19 23 20 13 21 21 22 14 23
REMARK SMILES IDX 15 24 20 25 22 26 16 27 19 28 17 29 18 30
REMARK H PARENT 18 31
REMARK Flexibility Score: inf
ROOT
ATOM      1  C   UNL     1       3.184  -6.172  -3.798  1.00  0.00     0.004 C 
ENDROOT
BRANCH   1   2
ATOM      2  C   UNL     1       3.658  -5.822  -2.371  1.00  0.00     0.004 C 
BRANCH   2   3
ATOM      3  C   UNL     1       2.572  -5.150  -1.482  1.00  0.00    -0.009 C 
BRANCH   3   4
ATOM      4  C   UNL     1       2.702  -5.640  -0.007  1.00  0.00     0.000 C 
ATOM      5  C   UNL     1       2.151  -7.054   0.194  1.00  0.00     0.004 C 
ENDBRANCH   3   4
BRANCH   3   6
ATOM      6  C   UNL     1       2.544  -3.586  -1.594  1.00  0.00    -0.014 C 
ATOM      7  C   UNL     1       3.943  -2.977  -1.391  1.00  0.00     0.007 C 
ATOM      8  C   UNL     1       1.579  -2.948  -0.576  1.00  0.00     0.007 C 
ENDBRANCH   3   6
ENDBRANCH   2   3
ENDBRANCH   1   2
BRANCH   1   9
ATOM      9  C   UNL     1       1.676  -6.555  -3.861  1.00  0.00    -0.011 C 
ATOM     10  C   UNL     1       1.475  -8.012  -3.382  1.00  0.00     0.008 C 
BRANCH   9  11
ATOM     11  C   UNL     1       1.090  -6.249  -5.293  1.00  0.00    -0.002 C 
ATOM     12  C   UNL     1       0.184  -7.377  -5.828  1.00  0.00     0.005 C 
ATOM     13  C   UNL     1       0.271  -4.926  -5.505  1.00  0.00    -0.026 C 
ATOM     14  C   UNL     1      -1.227  -6.808  -5.965  1.00  0.00     0.005 C 
ATOM     15  C   UNL     1      -1.202  -5.386  -5.389  1.00  0.00    -0.001 C 
ATOM     16  C   UNL     1       0.552  -4.407  -6.947  1.00  0.00     0.007 C 
ATOM     17  C   UNL     1       0.640  -3.809  -4.493  1.00  0.00     0.012 C 
ATOM     18  C   UNL     1      -2.278  -4.453  -6.031  1.00  0.00     0.000 C 
ATOM     19  C   UNL     1      -0.452  -3.366  -7.447  1.00  0.00     0.005 C 
ATOM     20  C   UNL     1      -1.898  -3.918  -7.446  1.00  0.00     0.003 C 
ATOM     21  C   UNL     1      -2.750  -3.340  -5.042  1.00  0.00     0.031 C 
ATOM     22  C   UNL     1      -2.973  -2.882  -7.954  1.00  0.00    -0.008 C 
ATOM     23  C   UNL     1      -2.931  -1.964  -5.636  1.00  0.00    -0.027 C 
ATOM     24  C   UNL     1      -3.072  -1.736  -6.955  1.00  0.00    -0.065 C 
ATOM     25  C   UNL     1      -2.597  -2.307  -9.356  1.00  0.00     0.014 C 
ATOM     26  C   UNL     1      -4.359  -3.578  -8.065  1.00  0.00     0.016 C 
ATOM     27  C   UNL     1      -3.188  -0.311  -7.455  1.00  0.00     0.063 C 
ATOM     28  C   UNL     1      -3.546  -1.198  -9.856  1.00  0.00     0.033 C 
ATOM     29  C   UNL     1      -4.041  -0.244  -8.735  1.00  0.00     0.118 C 
BRANCH  29  30
ATOM     30  O   UNL     1      -4.121   1.078  -9.204  1.00  0.00    -0.393 OA
ATOM     31  H   UNL     1      -5.083   1.301  -9.307  1.00  0.00     0.210 HD
ENDBRANCH  29  30
ENDBRANCH   9  11
ENDBRANCH   1   9
TORSDOF 7
ENDMDL
MODEL 3
REMARK VINA RESULT:    -4.941      4.666      7.850
REMARK INTER + INTRA:          -8.295
REMARK INTER:                  -6.063
REMARK INTRA:                  -2.232
REMARK UNBOUND:                -1.477
REMARK SMILES CC[C@H](CC[C@H](C)[C@H]1CC[C@@H]2[C@H]3CC=C4C[C@@H](O)CC[C@@]4(C)[C@H]3CC[C@@]21C)C(C)C
REMARK SMILES IDX 5 1 4 2 3 3 2 4 1 5 28 6 29 7 30 8 6 9 7 10 8 11 9 12 26 13
REMARK SMILES IDX 10 14 11 15 25 16 27 17 12 18 24 19 23 20 13 21 21 22 14 23
REMARK SMILES IDX 15 24 20 25 22 26 16 27 19 28 17 29 18 30
REMARK H PARENT 18 31
REMARK Flexibility Score: inf
ROOT
ATOM      1  C   UNL     1       5.281  -6.882  -2.688  1.00  0.00     0.004 C 
ENDROOT
BRANCH   1   2
ATOM      2  C   UNL     1       4.198  -7.302  -1.669  1.00  0.00     0.004 C 
BRANCH   2   3
ATOM      3  C   UNL     1       2.834  -6.576  -1.849  1.00  0.00    -0.009 C 
BRANCH   3   4
ATOM      4  C   UNL     1       2.513  -5.709  -0.593  1.00  0.00     0.000 C 
ATOM      5  C   UNL     1       2.960  -6.374   0.711  1.00  0.00     0.004 C 
ENDBRANCH   3   4
BRANCH   3   6
ATOM      6  C   UNL     1       2.725  -5.761  -3.185  1.00  0.00    -0.014 C 
ATOM      7  C   UNL     1       2.279  -4.310  -2.931  1.00  0.00     0.007 C 
ATOM      8  C   UNL     1       1.743  -6.409  -4.181  1.00  0.00     0.007 C 
ENDBRANCH   3   6
ENDBRANCH   2   3
ENDBRANCH   1   2
BRANCH   1   9
ATOM      9  C   UNL     1       6.490  -6.159  -2.026  1.00  0.00    -0.011 C 
ATOM     10  C   UNL     1       7.398  -7.184  -1.308  1.00  0.00     0.008 C 
BRANCH   9  11
ATOM     11  C   UNL     1       5.988  -4.975  -1.112  1.00  0.00    -0.002 C 
ATOM     12  C   UNL     1       6.617  -4.992   0.297  1.00  0.00     0.005 C 
ATOM     13  C   UNL     1       6.164  -3.501  -1.624  1.00  0.00    -0.026 C 
ATOM     14  C   UNL     1       7.466  -3.729   0.438  1.00  0.00     0.005 C 
ATOM     15  C   UNL     1       7.458  -3.022  -0.924  1.00  0.00    -0.001 C 
ATOM     16  C   UNL     1       4.949  -2.664  -1.120  1.00  0.00     0.007 C 
ATOM     17  C   UNL     1       6.233  -3.394  -3.170  1.00  0.00     0.012 C 
ATOM     18  C   UNL     1       7.658  -1.478  -0.806  1.00  0.00     0.000 C 
ATOM     19  C   UNL     1       5.156  -1.150  -1.192  1.00  0.00     0.005 C 
ATOM     20  C   UNL     1       6.382  -0.699  -0.362  1.00  0.00     0.003 C 
ATOM     21  C   UNL     1       8.352  -0.881  -2.072  1.00  0.00     0.031 C 
ATOM     22  C   UNL     1       6.639   0.857  -0.403  1.00  0.00    -0.008 C 
ATOM     23  C   UNL     1       7.799   0.433  -2.569  1.00  0.00    -0.027 C 
ATOM     24  C   UNL     1       7.049   1.257  -1.814  1.00  0.00    -0.065 C 
ATOM     25  C   UNL     1       5.364   1.658   0.006  1.00  0.00     0.014 C 
ATOM     26  C   UNL     1       7.786   1.224   0.580  1.00  0.00     0.016 C 
ATOM     27  C   UNL     1       6.492   2.525  -2.427  1.00  0.00     0.063 C 
ATOM     28  C   UNL     1       5.513   3.189  -0.129  1.00  0.00     0.033 C 
ATOM     29  C   UNL     1       6.342   3.630  -1.365  1.00  0.00     0.118 C 
BRANCH  29  30
ATOM     30  O   UNL     1       5.802   4.793  -1.940  1.00  0.00    -0.393 OA
ATOM     31  H   UNL     1       4.861   4.869  -1.632  1.00  0.00     0.210 HD
ENDBRANCH  29  30
ENDBRANCH   9  11
ENDBRANCH   1   9
TORSDOF 7
ENDMDL
MODEL 4
REMARK VINA RESULT:    -4.794      3.342      6.797
REMARK INTER + INTRA:          -8.093
REMARK INTER:                  -5.986
REMARK INTRA:                  -2.107
REMARK UNBOUND:                -1.477
REMARK SMILES CC[C@H](CC[C@H](C)[C@H]1CC[C@@H]2[C@H]3CC=C4C[C@@H](O)CC[C@@]4(C)[C@H]3CC[C@@]21C)C(C)C
REMARK SMILES IDX 5 1 4 2 3 3 2 4 1 5 28 6 29 7 30 8 6 9 7 10 8 11 9 12 26 13
REMARK SMILES IDX 10 14 11 15 25 16 27 17 12 18 24 19 23 20 13 21 21 22 14 23
REMARK SMILES IDX 15 24 20 25 22 26 16 27 19 28 17 29 18 30
REMARK H PARENT 18 31
REMARK Flexibility Score: inf
ROOT
ATOM      1  C   UNL     1       8.754   1.240  -1.871  1.00  0.00     0.004 C 
ENDROOT
BRANCH   1   2
ATOM      2  C   UNL     1       7.914   0.608  -0.739  1.00  0.00     0.004 C 
BRANCH   2   3
ATOM      3  C   UNL     1       6.452   1.131  -0.659  1.00  0.00    -0.009 C 
BRANCH   3   4
ATOM      4  C   UNL     1       5.452  -0.065  -0.607  1.00  0.00     0.000 C 
ATOM      5  C   UNL     1       5.242  -0.716  -1.976  1.00  0.00     0.004 C 
ENDBRANCH   3   4
BRANCH   3   6
ATOM      6  C   UNL     1       6.213   2.162   0.499  1.00  0.00    -0.014 C 
ATOM      7  C   UNL     1       5.935   3.575  -0.046  1.00  0.00     0.007 C 
ATOM      8  C   UNL     1       7.411   2.237   1.466  1.00  0.00     0.007 C 
ENDBRANCH   3   6
ENDBRANCH   2   3
ENDBRANCH   1   2
BRANCH   1   9
ATOM      9  C   UNL     1       7.923   1.529  -3.155  1.00  0.00    -0.011 C 
ATOM     10  C   UNL     1       8.458   0.689  -4.337  1.00  0.00     0.008 C 
BRANCH   9  11
ATOM     11  C   UNL     1       7.859   3.081  -3.430  1.00  0.00    -0.002 C 
ATOM     12  C   UNL     1       8.988   3.577  -4.357  1.00  0.00     0.005 C 
ATOM     13  C   UNL     1       6.539   3.686  -4.028  1.00  0.00    -0.026 C 
ATOM     14  C   UNL     1       8.338   4.094  -5.639  1.00  0.00     0.005 C 
ATOM     15  C   UNL     1       6.838   3.789  -5.543  1.00  0.00    -0.001 C 
ATOM     16  C   UNL     1       6.344   5.112  -3.429  1.00  0.00     0.007 C 
ATOM     17  C   UNL     1       5.279   2.838  -3.713  1.00  0.00     0.012 C 
ATOM     18  C   UNL     1       5.961   4.790  -6.361  1.00  0.00     0.000 C 
ATOM     19  C   UNL     1       5.340   5.981  -4.190  1.00  0.00     0.005 C 
ATOM     20  C   UNL     1       5.754   6.172  -5.669  1.00  0.00     0.003 C 
ATOM     21  C   UNL     1       4.638   4.131  -6.864  1.00  0.00     0.031 C 
ATOM     22  C   UNL     1       4.751   7.063  -6.499  1.00  0.00    -0.008 C 
ATOM     23  C   UNL     1       3.397   4.986  -6.763  1.00  0.00    -0.027 C 
ATOM     24  C   UNL     1       3.424   6.325  -6.635  1.00  0.00    -0.065 C 
ATOM     25  C   UNL     1       4.501   8.440  -5.807  1.00  0.00     0.014 C 
ATOM     26  C   UNL     1       5.332   7.324  -7.917  1.00  0.00     0.016 C 
ATOM     27  C   UNL     1       2.123   7.084  -6.482  1.00  0.00     0.063 C 
ATOM     28  C   UNL     1       3.436   9.311  -6.507  1.00  0.00     0.033 C 
ATOM     29  C   UNL     1       2.239   8.501  -7.075  1.00  0.00     0.118 C 
BRANCH  29  30
ATOM     30  O   UNL     1       1.034   9.204  -6.905  1.00  0.00    -0.393 OA
ATOM     31  H   UNL     1       1.199  10.146  -7.172  1.00  0.00     0.210 HD
ENDBRANCH  29  30
ENDBRANCH   9  11
ENDBRANCH   1   9
TORSDOF 7
ENDMDL
MODEL 5
REMARK VINA RESULT:    -4.783      5.800      9.593
REMARK INTER + INTRA:          -8.077
REMARK INTER:                  -6.056
REMARK INTRA:                  -2.021
REMARK UNBOUND:                -1.477
REMARK SMILES CC[C@H](CC[C@H](C)[C@H]1CC[C@@H]2[C@H]3CC=C4C[C@@H](O)CC[C@@]4(C)[C@H]3CC[C@@]21C)C(C)C
REMARK SMILES IDX 5 1 4 2 3 3 2 4 1 5 28 6 29 7 30 8 6 9 7 10 8 11 9 12 26 13
REMARK SMILES IDX 10 14 11 15 25 16 27 17 12 18 24 19 23 20 13 21 21 22 14 23
REMARK SMILES IDX 15 24 20 25 22 26 16 27 19 28 17 29 18 30
REMARK H PARENT 18 31
REMARK Flexibility Score: inf
ROOT
ATOM      1  C   UNL     1       2.305  -6.644  -4.117  1.00  0.00     0.004 C 
ENDROOT
BRANCH   1   2
ATOM      2  C   UNL     1       2.184  -5.732  -5.357  1.00  0.00     0.004 C 
BRANCH   2   3
ATOM      3  C   UNL     1       0.724  -5.505  -5.845  1.00  0.00    -0.009 C 
BRANCH   3   4
ATOM      4  C   UNL     1      -0.278  -6.267  -4.923  1.00  0.00     0.000 C 
ATOM      5  C   UNL     1      -1.441  -6.886  -5.702  1.00  0.00     0.004 C 
ENDBRANCH   3   4
BRANCH   3   6
ATOM      6  C   UNL     1       0.345  -3.994  -6.022  1.00  0.00    -0.014 C 
ATOM      7  C   UNL     1       1.595  -3.109  -6.176  1.00  0.00     0.007 C 
ATOM      8  C   UNL     1      -0.489  -3.462  -4.840  1.00  0.00     0.007 C 
ENDBRANCH   3   6
ENDBRANCH   2   3
ENDBRANCH   1   2
BRANCH   1   9
ATOM      9  C   UNL     1       3.115  -5.990  -2.959  1.00  0.00    -0.011 C 
ATOM     10  C   UNL     1       2.656  -6.561  -1.597  1.00  0.00     0.008 C 
BRANCH   9  11
ATOM     11  C   UNL     1       3.051  -4.417  -3.065  1.00  0.00    -0.002 C 
ATOM     12  C   UNL     1       1.980  -3.793  -2.147  1.00  0.00     0.005 C 
ATOM     13  C   UNL     1       4.359  -3.590  -2.794  1.00  0.00    -0.026 C 
ATOM     14  C   UNL     1       2.704  -2.933  -1.113  1.00  0.00     0.005 C 
ATOM     15  C   UNL     1       4.209  -3.143  -1.321  1.00  0.00    -0.001 C 
ATOM     16  C   UNL     1       4.346  -2.344  -3.730  1.00  0.00     0.007 C 
ATOM     17  C   UNL     1       5.658  -4.396  -3.057  1.00  0.00     0.012 C 
ATOM     18  C   UNL     1       5.061  -1.911  -0.875  1.00  0.00     0.000 C 
ATOM     19  C   UNL     1       5.331  -1.245  -3.325  1.00  0.00     0.005 C 
ATOM     20  C   UNL     1       5.055  -0.729  -1.891  1.00  0.00     0.003 C 
ATOM     21  C   UNL     1       6.489  -2.329  -0.402  1.00  0.00     0.031 C 
ATOM     22  C   UNL     1       6.045   0.408  -1.425  1.00  0.00    -0.008 C 
ATOM     23  C   UNL     1       7.620  -1.438  -0.853  1.00  0.00    -0.027 C 
ATOM     24  C   UNL     1       7.445  -0.175  -1.287  1.00  0.00    -0.065 C 
ATOM     25  C   UNL     1       6.082   1.589  -2.445  1.00  0.00     0.014 C 
ATOM     26  C   UNL     1       5.590   0.964  -0.046  1.00  0.00     0.016 C 
ATOM     27  C   UNL     1       8.641   0.616  -1.774  1.00  0.00     0.063 C 
ATOM     28  C   UNL     1       7.121   2.680  -2.108  1.00  0.00     0.033 C 
ATOM     29  C   UNL     1       8.445   2.122  -1.520  1.00  0.00     0.118 C 
BRANCH  29  30
ATOM     30  O   UNL     1       9.549   2.848  -1.998  1.00  0.00    -0.393 OA
ATOM     31  H   UNL     1       9.355   3.812  -1.860  1.00  0.00     0.210 HD
ENDBRANCH  29  30
ENDBRANCH   9  11
ENDBRANCH   1   9
TORSDOF 7
ENDMDL
MODEL 6
REMARK VINA RESULT:    -4.764      5.428      9.008
REMARK INTER + INTRA:          -8.051
REMARK INTER:                  -6.156
REMARK INTRA:                  -1.895
REMARK UNBOUND:                -1.477
REMARK SMILES CC[C@H](CC[C@H](C)[C@H]1CC[C@@H]2[C@H]3CC=C4C[C@@H](O)CC[C@@]4(C)[C@H]3CC[C@@]21C)C(C)C
REMARK SMILES IDX 5 1 4 2 3 3 2 4 1 5 28 6 29 7 30 8 6 9 7 10 8 11 9 12 26 13
REMARK SMILES IDX 10 14 11 15 25 16 27 17 12 18 24 19 23 20 13 21 21 22 14 23
REMARK SMILES IDX 15 24 20 25 22 26 16 27 19 28 17 29 18 30
REMARK H PARENT 18 31
REMARK Flexibility Score: inf
ROOT
ATOM      1  C   UNL     1       3.641  -7.270  -2.758  1.00  0.00     0.004 C 
ENDROOT
BRANCH   1   2
ATOM      2  C   UNL     1       2.282  -6.556  -2.928  1.00  0.00     0.004 C 
BRANCH   2   3
ATOM      3  C   UNL     1       1.753  -6.525  -4.390  1.00  0.00    -0.009 C 
BRANCH   3   4
ATOM      4  C   UNL     1       0.532  -7.483  -4.543  1.00  0.00     0.000 C 
ATOM      5  C   UNL     1      -0.668  -6.805  -5.209  1.00  0.00     0.004 C 
ENDBRANCH   3   4
BRANCH   3   6
ATOM      6  C   UNL     1       1.453  -5.081  -4.923  1.00  0.00    -0.014 C 
ATOM      7  C   UNL     1       2.486  -4.636  -5.973  1.00  0.00     0.007 C 
ATOM      8  C   UNL     1       1.426  -4.038  -3.788  1.00  0.00     0.007 C 
ENDBRANCH   3   6
ENDBRANCH   2   3
ENDBRANCH   1   2
BRANCH   1   9
ATOM      9  C   UNL     1       4.848  -6.286  -2.758  1.00  0.00    -0.011 C 
ATOM     10  C   UNL     1       6.171  -7.065  -2.577  1.00  0.00     0.008 C 
BRANCH   9  11
ATOM     11  C   UNL     1       4.617  -5.132  -1.708  1.00  0.00    -0.002 C 
ATOM     12  C   UNL     1       5.319  -5.395  -0.360  1.00  0.00     0.005 C 
ATOM     13  C   UNL     1       5.014  -3.665  -2.101  1.00  0.00    -0.026 C 
ATOM     14  C   UNL     1       6.381  -4.312  -0.175  1.00  0.00     0.005 C 
ATOM     15  C   UNL     1       6.412  -3.482  -1.465  1.00  0.00    -0.001 C 
ATOM     16  C   UNL     1       3.996  -2.692  -1.433  1.00  0.00     0.007 C 
ATOM     17  C   UNL     1       5.006  -3.418  -3.633  1.00  0.00     0.012 C 
ATOM     18  C   UNL     1       6.885  -2.012  -1.228  1.00  0.00     0.000 C 
ATOM     19  C   UNL     1       4.459  -1.233  -1.389  1.00  0.00     0.005 C 
ATOM     20  C   UNL     1       5.793  -1.079  -0.620  1.00  0.00     0.003 C 
ATOM     21  C   UNL     1       7.593  -1.417  -2.487  1.00  0.00     0.031 C 
ATOM     22  C   UNL     1       6.314   0.408  -0.544  1.00  0.00    -0.008 C 
ATOM     23  C   UNL     1       7.247   0.013  -2.822  1.00  0.00    -0.027 C 
ATOM     24  C   UNL     1       6.699   0.873  -1.943  1.00  0.00    -0.065 C 
ATOM     25  C   UNL     1       5.225   1.367   0.031  1.00  0.00     0.014 C 
ATOM     26  C   UNL     1       7.566   0.478   0.375  1.00  0.00     0.016 C 
ATOM     27  C   UNL     1       6.335   2.271  -2.397  1.00  0.00     0.063 C 
ATOM     28  C   UNL     1       5.629   2.857   0.019  1.00  0.00     0.033 C 
ATOM     29  C   UNL     1       6.445   3.274  -1.234  1.00  0.00     0.118 C 
BRANCH  29  30
ATOM     30  O   UNL     1       6.081   4.563  -1.661  1.00  0.00    -0.393 OA
ATOM     31  H   UNL     1       5.350   4.461  -2.325  1.00  0.00     0.210 HD
ENDBRANCH  29  30
ENDBRANCH   9  11
ENDBRANCH   1   9
TORSDOF 7
ENDMDL
MODEL 7
REMARK VINA RESULT:    -4.763      9.716     14.077
REMARK INTER + INTRA:          -8.050
REMARK INTER:                  -6.247
REMARK INTRA:                  -1.803
REMARK UNBOUND:                -1.477
REMARK SMILES CC[C@H](CC[C@H](C)[C@H]1CC[C@@H]2[C@H]3CC=C4C[C@@H](O)CC[C@@]4(C)[C@H]3CC[C@@]21C)C(C)C
REMARK SMILES IDX 5 1 4 2 3 3 2 4 1 5 28 6 29 7 30 8 6 9 7 10 8 11 9 12 26 13
REMARK SMILES IDX 10 14 11 15 25 16 27 17 12 18 24 19 23 20 13 21 21 22 14 23
REMARK SMILES IDX 15 24 20 25 22 26 16 27 19 28 17 29 18 30
REMARK H PARENT 18 31
REMARK Flexibility Score: inf
ROOT
ATOM      1  C   UNL     1      -3.735  -4.717  -8.823  1.00  0.00     0.004 C 
ENDROOT
BRANCH   1   2
ATOM      2  C   UNL     1      -3.691  -3.279  -8.260  1.00  0.00     0.004 C 
BRANCH   2   3
ATOM      3  C   UNL     1      -4.712  -3.008  -7.117  1.00  0.00    -0.009 C 
BRANCH   3   4
ATOM      4  C   UNL     1      -4.001  -2.325  -5.908  1.00  0.00     0.000 C 
ATOM      5  C   UNL     1      -2.996  -1.255  -6.344  1.00  0.00     0.004 C 
ENDBRANCH   3   4
BRANCH   3   6
ATOM      6  C   UNL     1      -5.987  -2.223  -7.583  1.00  0.00    -0.014 C 
ATOM      7  C   UNL     1      -6.701  -1.543  -6.401  1.00  0.00     0.007 C 
ATOM      8  C   UNL     1      -6.997  -3.135  -8.307  1.00  0.00     0.007 C 
ENDBRANCH   3   6
ENDBRANCH   2   3
ENDBRANCH   1   2
BRANCH   1   9
ATOM      9  C   UNL     1      -2.458  -5.540  -8.484  1.00  0.00    -0.011 C 
ATOM     10  C   UNL     1      -2.609  -6.993  -8.991  1.00  0.00     0.008 C 
BRANCH   9  11
ATOM     11  C   UNL     1      -2.113  -5.414  -6.950  1.00  0.00    -0.002 C 
ATOM     12  C   UNL     1      -2.230  -6.753  -6.193  1.00  0.00     0.005 C 
ATOM     13  C   UNL     1      -0.716  -4.827  -6.537  1.00  0.00    -0.026 C 
ATOM     14  C   UNL     1      -0.834  -7.124  -5.695  1.00  0.00     0.005 C 
ATOM     15  C   UNL     1       0.142  -6.085  -6.264  1.00  0.00    -0.001 C 
ATOM     16  C   UNL     1      -0.902  -4.015  -5.220  1.00  0.00     0.007 C 
ATOM     17  C   UNL     1      -0.102  -3.894  -7.614  1.00  0.00     0.012 C 
ATOM     18  C   UNL     1       1.406  -5.886  -5.367  1.00  0.00     0.000 C 
ATOM     19  C   UNL     1       0.404  -3.712  -4.480  1.00  0.00     0.005 C 
ATOM     20  C   UNL     1       1.161  -5.008  -4.102  1.00  0.00     0.003 C 
ATOM     21  C   UNL     1       2.652  -5.455  -6.203  1.00  0.00     0.031 C 
ATOM     22  C   UNL     1       2.516  -4.750  -3.335  1.00  0.00    -0.008 C 
ATOM     23  C   UNL     1       3.519  -4.383  -5.588  1.00  0.00    -0.027 C 
ATOM     24  C   UNL     1       3.501  -4.072  -4.279  1.00  0.00    -0.065 C 
ATOM     25  C   UNL     1       2.301  -3.844  -2.082  1.00  0.00     0.014 C 
ATOM     26  C   UNL     1       3.117  -6.105  -2.865  1.00  0.00     0.016 C 
ATOM     27  C   UNL     1       4.368  -2.939  -3.772  1.00  0.00     0.063 C 
ATOM     28  C   UNL     1       3.607  -3.456  -1.356  1.00  0.00     0.033 C 
ATOM     29  C   UNL     1       4.798  -3.185  -2.314  1.00  0.00     0.118 C 
BRANCH  29  30
ATOM     30  O   UNL     1       5.581  -2.115  -1.846  1.00  0.00    -0.393 OA
ATOM     31  H   UNL     1       5.623  -2.187  -0.856  1.00  0.00     0.210 HD
ENDBRANCH  29  30
ENDBRANCH   9  11
ENDBRANCH   1   9
TORSDOF 7
ENDMDL
MODEL 8
REMARK VINA RESULT:    -4.762      3.109      5.885
REMARK INTER + INTRA:          -8.048
REMARK INTER:                  -5.816
REMARK INTRA:                  -2.232
REMARK UNBOUND:                -1.477
REMARK SMILES CC[C@H](CC[C@H](C)[C@H]1CC[C@@H]2[C@H]3CC=C4C[C@@H](O)CC[C@@]4(C)[C@H]3CC[C@@]21C)C(C)C
REMARK SMILES IDX 5 1 4 2 3 3 2 4 1 5 28 6 29 7 30 8 6 9 7 10 8 11 9 12 26 13
REMARK SMILES IDX 10 14 11 15 25 16 27 17 12 18 24 19 23 20 13 21 21 22 14 23
REMARK SMILES IDX 15 24 20 25 22 26 16 27 19 28 17 29 18 30
REMARK H PARENT 18 31
REMARK Flexibility Score: inf
ROOT
ATOM      1  C   UNL     1       8.293  -1.763   0.512  1.00  0.00     0.004 C 
ENDROOT
BRANCH   1   2
ATOM      2  C   UNL     1       6.905  -2.208   0.001  1.00  0.00     0.004 C 
BRANCH   2   3
ATOM      3  C   UNL     1       6.867  -2.573  -1.511  1.00  0.00    -0.009 C 
BRANCH   3   4
ATOM      4  C   UNL     1       7.844  -3.752  -1.807  1.00  0.00     0.000 C 
ATOM      5  C   UNL     1       8.946  -3.369  -2.798  1.00  0.00     0.004 C 
ENDBRANCH   3   4
BRANCH   3   6
ATOM      6  C   UNL     1       5.422  -2.840  -2.059  1.00  0.00    -0.014 C 
ATOM      7  C   UNL     1       5.250  -2.308  -3.493  1.00  0.00     0.007 C 
ATOM      8  C   UNL     1       4.336  -2.204  -1.168  1.00  0.00     0.007 C 
ENDBRANCH   3   6
ENDBRANCH   2   3
ENDBRANCH   1   2
BRANCH   1   9
ATOM      9  C   UNL     1       8.552  -0.240   0.316  1.00  0.00    -0.011 C 
ATOM     10  C   UNL     1       9.236   0.351   1.570  1.00  0.00     0.008 C 
BRANCH   9  11
ATOM     11  C   UNL     1       7.223   0.493  -0.113  1.00  0.00    -0.002 C 
ATOM     12  C   UNL     1       6.777   1.572   0.895  1.00  0.00     0.005 C 
ATOM     13  C   UNL     1       7.168   1.193  -1.518  1.00  0.00    -0.026 C 
ATOM     14  C   UNL     1       6.850   2.923   0.185  1.00  0.00     0.005 C 
ATOM     15  C   UNL     1       7.465   2.677  -1.199  1.00  0.00    -0.001 C 
ATOM     16  C   UNL     1       5.719   1.050  -2.075  1.00  0.00     0.007 C 
ATOM     17  C   UNL     1       8.157   0.582  -2.545  1.00  0.00     0.012 C 
ATOM     18  C   UNL     1       7.005   3.726  -2.261  1.00  0.00     0.000 C 
ATOM     19  C   UNL     1       5.394   1.998  -3.231  1.00  0.00     0.005 C 
ATOM     20  C   UNL     1       5.571   3.481  -2.823  1.00  0.00     0.003 C 
ATOM     21  C   UNL     1       8.085   3.948  -3.367  1.00  0.00     0.031 C 
ATOM     22  C   UNL     1       5.247   4.501  -3.982  1.00  0.00    -0.008 C 
ATOM     23  C   UNL     1       7.568   4.062  -4.780  1.00  0.00    -0.027 C 
ATOM     24  C   UNL     1       6.288   4.350  -5.084  1.00  0.00    -0.065 C 
ATOM     25  C   UNL     1       3.827   4.253  -4.582  1.00  0.00     0.014 C 
ATOM     26  C   UNL     1       5.300   5.953  -3.430  1.00  0.00     0.016 C 
ATOM     27  C   UNL     1       5.857   4.383  -6.535  1.00  0.00     0.063 C 
ATOM     28  C   UNL     1       3.497   5.141  -5.801  1.00  0.00     0.033 C 
ATOM     29  C   UNL     1       4.706   5.385  -6.744  1.00  0.00     0.118 C 
BRANCH  29  30
ATOM     30  O   UNL     1       4.297   5.388  -8.089  1.00  0.00    -0.393 OA
ATOM     31  H   UNL     1       3.475   5.941  -8.150  1.00  0.00     0.210 HD
ENDBRANCH  29  30
ENDBRANCH   9  11
ENDBRANCH   1   9
TORSDOF 7
ENDMDL
MODEL 9
REMARK VINA RESULT:    -3.628      1.489      3.386
REMARK INTER + INTRA:          -6.483
REMARK INTER:                  -5.259
REMARK INTRA:                  -1.224
REMARK UNBOUND:                -1.477
REMARK SMILES CC[C@H](CC[C@H](C)[C@H]1CC[C@@H]2[C@H]3CC=C4C[C@@H](O)CC[C@@]4(C)[C@H]3CC[C@@]21C)C(C)C
REMARK SMILES IDX 5 1 4 2 3 3 2 4 1 5 28 6 29 7 30 8 6 9 7 10 8 11 9 12 26 13
REMARK SMILES IDX 10 14 11 15 25 16 27 17 12 18 24 19 23 20 13 21 21 22 14 23
REMARK SMILES IDX 15 24 20 25 22 26 16 27 19 28 17 29 18 30
REMARK H PARENT 18 31
REMARK Flexibility Score: inf
ROOT
ATOM      1  C   UNL     1       8.185   0.098   2.518  1.00  0.00     0.004 C 
ENDROOT
BRANCH   1   2
ATOM      2  C   UNL     1       8.068   1.525   3.101  1.00  0.00     0.004 C 
BRANCH   2   3
ATOM      3  C   UNL     1       8.500   1.645   4.590  1.00  0.00    -0.009 C 
BRANCH   3   4
ATOM      4  C   UNL     1       7.521   2.581   5.363  1.00  0.00     0.000 C 
ATOM      5  C   UNL     1       8.251   3.610   6.230  1.00  0.00     0.004 C 
ENDBRANCH   3   4
BRANCH   3   6
ATOM      6  C   UNL     1       8.697   0.263   5.304  1.00  0.00    -0.014 C 
ATOM      7  C   UNL     1       7.697   0.071   6.457  1.00  0.00     0.007 C 
ATOM      8  C   UNL     1      10.125   0.095   5.860  1.00  0.00     0.007 C 
ENDBRANCH   3   6
ENDBRANCH   2   3
ENDBRANCH   1   2
BRANCH   1   9
ATOM      9  C   UNL     1       8.090   0.067   0.965  1.00  0.00    -0.011 C 
ATOM     10  C   UNL     1       9.221  -0.810   0.379  1.00  0.00     0.008 C 
BRANCH   9  11
ATOM     11  C   UNL     1       8.033   1.534   0.388  1.00  0.00    -0.002 C 
ATOM     12  C   UNL     1       9.341   1.961  -0.308  1.00  0.00     0.005 C 
ATOM     13  C   UNL     1       6.889   1.903  -0.622  1.00  0.00    -0.026 C 
ATOM     14  C   UNL     1       9.025   2.184  -1.786  1.00  0.00     0.005 C 
ATOM     15  C   UNL     1       7.566   1.765  -2.006  1.00  0.00    -0.001 C 
ATOM     16  C   UNL     1       6.484   3.388  -0.376  1.00  0.00     0.007 C 
ATOM     17  C   UNL     1       5.628   1.012  -0.471  1.00  0.00     0.012 C 
ATOM     18  C   UNL     1       6.890   2.523  -3.193  1.00  0.00     0.000 C 
ATOM     19  C   UNL     1       5.676   4.015  -1.514  1.00  0.00     0.005 C 
ATOM     20  C   UNL     1       6.451   3.981  -2.854  1.00  0.00     0.003 C 
ATOM     21  C   UNL     1       5.771   1.669  -3.870  1.00  0.00     0.031 C 
ATOM     22  C   UNL     1       5.660   4.617  -4.061  1.00  0.00    -0.008 C 
ATOM     23  C   UNL     1       4.512   2.412  -4.246  1.00  0.00    -0.027 C 
ATOM     24  C   UNL     1       4.447   3.750  -4.375  1.00  0.00    -0.065 C 
ATOM     25  C   UNL     1       5.180   6.066  -3.731  1.00  0.00     0.014 C 
ATOM     26  C   UNL     1       6.578   4.677  -5.314  1.00  0.00     0.016 C 
ATOM     27  C   UNL     1       3.119   4.403  -4.698  1.00  0.00     0.063 C 
ATOM     28  C   UNL     1       4.297   6.701  -4.826  1.00  0.00     0.033 C 
ATOM     29  C   UNL     1       3.325   5.698  -5.505  1.00  0.00     0.118 C 
BRANCH  29  30
ATOM     30  O   UNL     1       2.088   6.308  -5.777  1.00  0.00    -0.393 OA
ATOM     31  H   UNL     1       2.114   7.222  -5.389  1.00  0.00     0.210 HD
ENDBRANCH  29  30
ENDBRANCH   9  11
ENDBRANCH   1   9
TORSDOF 7
ENDMDL
