MODEL 1
REMARK VINA RESULT:    -6.827      0.000      0.000
REMARK INTER + INTRA:         -12.333
REMARK INTER:                  -9.421
REMARK INTRA:                  -2.912
REMARK UNBOUND:                -2.912
REMARK SMILES CC[C@@H](CC[C@@H](C)[C@H]1CC[C@@H]2[C@@H]3CC=C4C[C@H](O)CC[C@@]4(C)[C@H]3CC[C@]21C)C(C)C
REMARK SMILES IDX 5 1 4 2 3 3 2 4 1 5 28 6 29 7 30 8 6 9 7 10 8 11 9 12 26 13
REMARK SMILES IDX 10 14 11 15 25 16 27 17 12 18 24 19 23 20 13 21 21 22 14 23
REMARK SMILES IDX 15 24 20 25 22 26 16 27 19 28 17 29 18 30
REMARK H PARENT 18 31
REMARK Flexibility Score: inf
ROOT
ATOM      1  C   UNL     1      20.777 -20.306  32.779  1.00  0.00     0.004 C 
ENDROOT
BRANCH   1   2
ATOM      2  C   UNL     1      20.704 -19.107  31.797  1.00  0.00     0.004 C 
BRANCH   2   3
ATOM      3  C   UNL     1      21.628 -19.289  30.566  1.00  0.00    -0.009 C 
BRANCH   3   4
ATOM      4  C   UNL     1      22.597 -18.078  30.385  1.00  0.00     0.000 C 
ATOM      5  C   UNL     1      23.998 -18.386  30.910  1.00  0.00     0.004 C 
ENDBRANCH   3   4
BRANCH   3   6
ATOM      6  C   UNL     1      20.802 -19.634  29.285  1.00  0.00    -0.014 C 
ATOM      7  C   UNL     1      19.471 -18.869  29.166  1.00  0.00     0.007 C 
ATOM      8  C   UNL     1      21.638 -19.458  28.009  1.00  0.00     0.007 C 
ENDBRANCH   3   6
ENDBRANCH   2   3
ENDBRANCH   1   2
BRANCH   1   9
ATOM      9  C   UNL     1      22.078 -21.166  32.721  1.00  0.00    -0.011 C 
ATOM     10  C   UNL     1      22.863 -21.173  34.049  1.00  0.00     0.008 C 
BRANCH   9  11
ATOM     11  C   UNL     1      21.905 -22.616  32.145  1.00  0.00    -0.002 C 
ATOM     12  C   UNL     1      20.449 -23.006  31.772  1.00  0.00     0.005 C 
ATOM     13  C   UNL     1      22.810 -23.049  30.918  1.00  0.00    -0.026 C 
ATOM     14  C   UNL     1      20.523 -23.786  30.457  1.00  0.00     0.005 C 
ATOM     15  C   UNL     1      21.765 -23.220  29.802  1.00  0.00    -0.001 C 
ATOM     16  C   UNL     1      23.913 -22.056  30.392  1.00  0.00     0.007 C 
ATOM     17  C   UNL     1      23.494 -24.398  31.326  1.00  0.00     0.012 C 
ATOM     18  C   UNL     1      22.275 -23.812  28.462  1.00  0.00     0.000 C 
ATOM     19  C   UNL     1      24.129 -22.081  28.841  1.00  0.00     0.005 C 
ATOM     20  C   UNL     1      23.759 -23.445  28.195  1.00  0.00     0.003 C 
ATOM     21  C   UNL     1      22.123 -25.318  28.252  1.00  0.00     0.031 C 
ATOM     22  C   UNL     1      24.114 -23.637  26.675  1.00  0.00    -0.008 C 
ATOM     23  C   UNL     1      22.557 -25.664  26.845  1.00  0.00    -0.027 C 
ATOM     24  C   UNL     1      23.439 -24.915  26.123  1.00  0.00    -0.065 C 
ATOM     25  C   UNL     1      23.636 -22.425  25.814  1.00  0.00     0.014 C 
ATOM     26  C   UNL     1      25.656 -23.786  26.547  1.00  0.00     0.016 C 
ATOM     27  C   UNL     1      23.570 -25.183  24.638  1.00  0.00     0.063 C 
ATOM     28  C   UNL     1      23.755 -22.668  24.294  1.00  0.00     0.033 C 
ATOM     29  C   UNL     1      23.041 -23.965  23.862  1.00  0.00     0.118 C 
BRANCH  29  30
ATOM     30  O   UNL     1      23.168 -24.166  22.477  1.00  0.00    -0.393 OA
ATOM     31  H   UNL     1      22.279 -23.988  22.066  1.00  0.00     0.210 HD
ENDBRANCH  29  30
ENDBRANCH   9  11
ENDBRANCH   1   9
TORSDOF 7
ENDMDL
MODEL 2
REMARK VINA RESULT:    -6.796      7.111     10.203
REMARK INTER + INTRA:         -12.291
REMARK INTER:                 -10.547
REMARK INTRA:                  -1.744
REMARK UNBOUND:                -2.912
REMARK SMILES CC[C@@H](CC[C@@H](C)[C@H]1CC[C@@H]2[C@@H]3CC=C4C[C@H](O)CC[C@@]4(C)[C@H]3CC[C@]21C)C(C)C
REMARK SMILES IDX 5 1 4 2 3 3 2 4 1 5 28 6 29 7 30 8 6 9 7 10 8 11 9 12 26 13
REMARK SMILES IDX 10 14 11 15 25 16 27 17 12 18 24 19 23 20 13 21 21 22 14 23
REMARK SMILES IDX 15 24 20 25 22 26 16 27 19 28 17 29 18 30
REMARK H PARENT 18 31
REMARK Flexibility Score: inf
ROOT
ATOM      1  C   UNL     1      25.348 -25.202  35.972  1.00  0.00     0.004 C 
ENDROOT
BRANCH   1   2
ATOM      2  C   UNL     1      25.964 -26.231  36.956  1.00  0.00     0.004 C 
BRANCH   2   3
ATOM      3  C   UNL     1      24.888 -26.986  37.778  1.00  0.00    -0.009 C 
BRANCH   3   4
ATOM      4  C   UNL     1      24.933 -26.595  39.288  1.00  0.00     0.000 C 
ATOM      5  C   UNL     1      25.377 -25.147  39.488  1.00  0.00     0.004 C 
ENDBRANCH   3   4
BRANCH   3   6
ATOM      6  C   UNL     1      24.961 -28.527  37.522  1.00  0.00    -0.014 C 
ATOM      7  C   UNL     1      26.294 -29.005  36.919  1.00  0.00     0.007 C 
ATOM      8  C   UNL     1      24.626 -29.327  38.789  1.00  0.00     0.007 C 
ENDBRANCH   3   6
ENDBRANCH   2   3
ENDBRANCH   1   2
BRANCH   1   9
ATOM      9  C   UNL     1      26.141 -24.952  34.650  1.00  0.00    -0.011 C 
ATOM     10  C   UNL     1      27.631 -24.628  34.886  1.00  0.00     0.008 C 
BRANCH   9  11
ATOM     11  C   UNL     1      25.958 -26.043  33.536  1.00  0.00    -0.002 C 
ATOM     12  C   UNL     1      27.056 -27.141  33.502  1.00  0.00     0.005 C 
ATOM     13  C   UNL     1      24.568 -26.801  33.451  1.00  0.00    -0.026 C 
ATOM     14  C   UNL     1      26.345 -28.470  33.239  1.00  0.00     0.005 C 
ATOM     15  C   UNL     1      24.970 -28.238  33.829  1.00  0.00    -0.001 C 
ATOM     16  C   UNL     1      23.398 -26.365  34.409  1.00  0.00     0.007 C 
ATOM     17  C   UNL     1      24.084 -26.674  31.967  1.00  0.00     0.012 C 
ATOM     18  C   UNL     1      23.870 -29.322  33.690  1.00  0.00     0.000 C 
ATOM     19  C   UNL     1      22.489 -27.539  34.908  1.00  0.00     0.005 C 
ATOM     20  C   UNL     1      22.451 -28.742  33.925  1.00  0.00     0.003 C 
ATOM     21  C   UNL     1      23.834 -30.128  32.391  1.00  0.00     0.031 C 
ATOM     22  C   UNL     1      21.426 -29.892  34.241  1.00  0.00    -0.008 C 
ATOM     23  C   UNL     1      22.784 -31.209  32.513  1.00  0.00    -0.027 C 
ATOM     24  C   UNL     1      21.706 -31.122  33.345  1.00  0.00    -0.065 C 
ATOM     25  C   UNL     1      21.511 -30.348  35.732  1.00  0.00     0.014 C 
ATOM     26  C   UNL     1      19.993 -29.367  33.943  1.00  0.00     0.016 C 
ATOM     27  C   UNL     1      20.891 -32.372  33.607  1.00  0.00     0.063 C 
ATOM     28  C   UNL     1      20.693 -31.622  36.031  1.00  0.00     0.033 C 
ATOM     29  C   UNL     1      21.062 -32.778  35.081  1.00  0.00     0.118 C 
BRANCH  29  30
ATOM     30  O   UNL     1      20.301 -33.923  35.370  1.00  0.00    -0.393 OA
ATOM     31  H   UNL     1      20.517 -34.199  36.302  1.00  0.00     0.210 HD
ENDBRANCH  29  30
ENDBRANCH   9  11
ENDBRANCH   1   9
TORSDOF 7
ENDMDL
MODEL 3
REMARK VINA RESULT:    -6.748      0.912      1.659
REMARK INTER + INTRA:         -12.225
REMARK INTER:                  -9.650
REMARK INTRA:                  -2.575
REMARK UNBOUND:                -2.912
REMARK SMILES CC[C@@H](CC[C@@H](C)[C@H]1CC[C@@H]2[C@@H]3CC=C4C[C@H](O)CC[C@@]4(C)[C@H]3CC[C@]21C)C(C)C
REMARK SMILES IDX 5 1 4 2 3 3 2 4 1 5 28 6 29 7 30 8 6 9 7 10 8 11 9 12 26 13
REMARK SMILES IDX 10 14 11 15 25 16 27 17 12 18 24 19 23 20 13 21 21 22 14 23
REMARK SMILES IDX 15 24 20 25 22 26 16 27 19 28 17 29 18 30
REMARK H PARENT 18 31
REMARK Flexibility Score: inf
ROOT
ATOM      1  C   UNL     1      21.105 -21.149  32.160  1.00  0.00     0.004 C 
ENDROOT
BRANCH   1   2
ATOM      2  C   UNL     1      21.904 -19.826  32.019  1.00  0.00     0.004 C 
BRANCH   2   3
ATOM      3  C   UNL     1      21.783 -19.206  30.604  1.00  0.00    -0.009 C 
BRANCH   3   4
ATOM      4  C   UNL     1      21.155 -20.207  29.584  1.00  0.00     0.000 C 
ATOM      5  C   UNL     1      21.745 -20.040  28.185  1.00  0.00     0.004 C 
ENDBRANCH   3   4
BRANCH   3   6
ATOM      6  C   UNL     1      23.146 -18.599  30.135  1.00  0.00    -0.014 C 
ATOM      7  C   UNL     1      23.113 -17.077  29.902  1.00  0.00     0.007 C 
ATOM      8  C   UNL     1      24.289 -18.972  31.089  1.00  0.00     0.007 C 
ENDBRANCH   3   6
ENDBRANCH   2   3
ENDBRANCH   1   2
BRANCH   1   9
ATOM      9  C   UNL     1      21.866 -22.347  32.809  1.00  0.00    -0.011 C 
ATOM     10  C   UNL     1      21.472 -22.594  34.280  1.00  0.00     0.008 C 
BRANCH   9  11
ATOM     11  C   UNL     1      21.862 -23.679  31.979  1.00  0.00    -0.002 C 
ATOM     12  C   UNL     1      20.469 -24.128  31.460  1.00  0.00     0.005 C 
ATOM     13  C   UNL     1      22.855 -23.800  30.749  1.00  0.00    -0.026 C 
ATOM     14  C   UNL     1      20.673 -24.647  30.035  1.00  0.00     0.005 C 
ATOM     15  C   UNL     1      21.878 -23.861  29.562  1.00  0.00    -0.001 C 
ATOM     16  C   UNL     1      23.873 -22.631  30.470  1.00  0.00     0.007 C 
ATOM     17  C   UNL     1      23.653 -25.132  30.952  1.00  0.00     0.012 C 
ATOM     18  C   UNL     1      22.499 -24.152  28.171  1.00  0.00     0.000 C 
ATOM     19  C   UNL     1      24.152 -22.357  28.954  1.00  0.00     0.005 C 
ATOM     20  C   UNL     1      23.948 -23.610  28.058  1.00  0.00     0.003 C 
ATOM     21  C   UNL     1      22.506 -25.604  27.691  1.00  0.00     0.031 C 
ATOM     22  C   UNL     1      24.380 -23.490  26.550  1.00  0.00    -0.008 C 
ATOM     23  C   UNL     1      23.029 -25.649  26.272  1.00  0.00    -0.027 C 
ATOM     24  C   UNL     1      23.860 -24.704  25.745  1.00  0.00    -0.065 C 
ATOM     25  C   UNL     1      23.819 -22.192  25.889  1.00  0.00     0.014 C 
ATOM     26  C   UNL     1      25.934 -23.472  26.487  1.00  0.00     0.016 C 
ATOM     27  C   UNL     1      24.077 -24.687  24.246  1.00  0.00     0.063 C 
ATOM     28  C   UNL     1      24.022 -22.145  24.360  1.00  0.00     0.033 C 
ATOM     29  C   UNL     1      23.460 -23.402  23.667  1.00  0.00     0.118 C 
BRANCH  29  30
ATOM     30  O   UNL     1      23.662 -23.337  22.278  1.00  0.00    -0.393 OA
ATOM     31  H   UNL     1      24.611 -23.081  22.125  1.00  0.00     0.210 HD
ENDBRANCH  29  30
ENDBRANCH   9  11
ENDBRANCH   1   9
TORSDOF 7
ENDMDL
MODEL 4
REMARK VINA RESULT:    -6.693      2.997      7.045
REMARK INTER + INTRA:         -12.149
REMARK INTER:                 -10.918
REMARK INTRA:                  -1.231
REMARK UNBOUND:                -2.912
REMARK SMILES CC[C@@H](CC[C@@H](C)[C@H]1CC[C@@H]2[C@@H]3CC=C4C[C@H](O)CC[C@@]4(C)[C@H]3CC[C@]21C)C(C)C
REMARK SMILES IDX 5 1 4 2 3 3 2 4 1 5 28 6 29 7 30 8 6 9 7 10 8 11 9 12 26 13
REMARK SMILES IDX 10 14 11 15 25 16 27 17 12 18 24 19 23 20 13 21 21 22 14 23
REMARK SMILES IDX 15 24 20 25 22 26 16 27 19 28 17 29 18 30
REMARK H PARENT 18 31
REMARK Flexibility Score: inf
ROOT
ATOM      1  C   UNL     1      23.614 -26.561  29.870  1.00  0.00     0.004 C 
ENDROOT
BRANCH   1   2
ATOM      2  C   UNL     1      23.840 -26.357  31.392  1.00  0.00     0.004 C 
BRANCH   2   3
ATOM      3  C   UNL     1      25.042 -27.174  31.929  1.00  0.00    -0.009 C 
BRANCH   3   4
ATOM      4  C   UNL     1      24.777 -28.711  31.855  1.00  0.00     0.000 C 
ATOM      5  C   UNL     1      23.640 -29.138  32.782  1.00  0.00     0.004 C 
ENDBRANCH   3   4
BRANCH   3   6
ATOM      6  C   UNL     1      25.476 -26.676  33.346  1.00  0.00    -0.014 C 
ATOM      7  C   UNL     1      26.994 -26.728  33.597  1.00  0.00     0.007 C 
ATOM      8  C   UNL     1      24.931 -25.271  33.643  1.00  0.00     0.007 C 
ENDBRANCH   3   6
ENDBRANCH   2   3
ENDBRANCH   1   2
BRANCH   1   9
ATOM      9  C   UNL     1      24.854 -26.325  28.951  1.00  0.00    -0.011 C 
ATOM     10  C   UNL     1      25.525 -27.634  28.487  1.00  0.00     0.008 C 
BRANCH   9  11
ATOM     11  C   UNL     1      24.629 -25.335  27.754  1.00  0.00    -0.002 C 
ATOM     12  C   UNL     1      23.535 -25.765  26.740  1.00  0.00     0.005 C 
ATOM     13  C   UNL     1      24.353 -23.809  28.084  1.00  0.00    -0.026 C 
ATOM     14  C   UNL     1      22.756 -24.502  26.366  1.00  0.00     0.005 C 
ATOM     15  C   UNL     1      22.902 -23.640  27.601  1.00  0.00    -0.001 C 
ATOM     16  C   UNL     1      24.418 -23.326  29.582  1.00  0.00     0.007 C 
ATOM     17  C   UNL     1      25.379 -22.980  27.239  1.00  0.00     0.012 C 
ATOM     18  C   UNL     1      22.333 -22.197  27.615  1.00  0.00     0.000 C 
ATOM     19  C   UNL     1      23.384 -22.210  29.954  1.00  0.00     0.005 C 
ATOM     20  C   UNL     1      22.966 -21.335  28.739  1.00  0.00     0.003 C 
ATOM     21  C   UNL     1      22.410 -21.396  26.315  1.00  0.00     0.031 C 
ATOM     22  C   UNL     1      22.076 -20.073  29.039  1.00  0.00    -0.008 C 
ATOM     23  C   UNL     1      21.689 -20.080  26.506  1.00  0.00    -0.027 C 
ATOM     24  C   UNL     1      21.523 -19.482  27.721  1.00  0.00    -0.065 C 
ATOM     25  C   UNL     1      20.866 -20.426  29.959  1.00  0.00     0.014 C 
ATOM     26  C   UNL     1      22.963 -19.004  29.738  1.00  0.00     0.016 C 
ATOM     27  C   UNL     1      20.539 -18.336  27.834  1.00  0.00     0.063 C 
ATOM     28  C   UNL     1      19.843 -19.278  30.093  1.00  0.00     0.033 C 
ATOM     29  C   UNL     1      19.359 -18.776  28.718  1.00  0.00     0.118 C 
BRANCH  29  30
ATOM     30  O   UNL     1      18.434 -17.729  28.867  1.00  0.00    -0.393 OA
ATOM     31  H   UNL     1      17.557 -18.136  29.101  1.00  0.00     0.210 HD
ENDBRANCH  29  30
ENDBRANCH   9  11
ENDBRANCH   1   9
TORSDOF 7
ENDMDL
MODEL 5
REMARK VINA RESULT:    -6.521      7.713     11.346
REMARK INTER + INTRA:         -11.912
REMARK INTER:                  -8.970
REMARK INTRA:                  -2.942
REMARK UNBOUND:                -2.912
REMARK SMILES CC[C@@H](CC[C@@H](C)[C@H]1CC[C@@H]2[C@@H]3CC=C4C[C@H](O)CC[C@@]4(C)[C@H]3CC[C@]21C)C(C)C
REMARK SMILES IDX 5 1 4 2 3 3 2 4 1 5 28 6 29 7 30 8 6 9 7 10 8 11 9 12 26 13
REMARK SMILES IDX 10 14 11 15 25 16 27 17 12 18 24 19 23 20 13 21 21 22 14 23
REMARK SMILES IDX 15 24 20 25 22 26 16 27 19 28 17 29 18 30
REMARK H PARENT 18 31
REMARK Flexibility Score: inf
ROOT
ATOM      1  C   UNL     1      26.389 -26.250  33.215  1.00  0.00     0.004 C 
ENDROOT
BRANCH   1   2
ATOM      2  C   UNL     1      26.000 -27.743  33.046  1.00  0.00     0.004 C 
BRANCH   2   3
ATOM      3  C   UNL     1      24.482 -27.988  33.241  1.00  0.00    -0.009 C 
BRANCH   3   4
ATOM      4  C   UNL     1      24.200 -29.371  33.908  1.00  0.00     0.000 C 
ATOM      5  C   UNL     1      22.741 -29.505  34.344  1.00  0.00     0.004 C 
ENDBRANCH   3   4
BRANCH   3   6
ATOM      6  C   UNL     1      23.697 -27.757  31.909  1.00  0.00    -0.014 C 
ATOM      7  C   UNL     1      23.084 -26.351  31.773  1.00  0.00     0.007 C 
ATOM      8  C   UNL     1      24.556 -28.090  30.681  1.00  0.00     0.007 C 
ENDBRANCH   3   6
ENDBRANCH   2   3
ENDBRANCH   1   2
BRANCH   1   9
ATOM      9  C   UNL     1      26.948 -25.838  34.613  1.00  0.00    -0.011 C 
ATOM     10  C   UNL     1      28.144 -24.866  34.528  1.00  0.00     0.008 C 
BRANCH   9  11
ATOM     11  C   UNL     1      25.878 -25.347  35.651  1.00  0.00    -0.002 C 
ATOM     12  C   UNL     1      24.567 -24.791  35.031  1.00  0.00     0.005 C 
ATOM     13  C   UNL     1      25.438 -26.343  36.803  1.00  0.00    -0.026 C 
ATOM     14  C   UNL     1      23.414 -25.310  35.895  1.00  0.00     0.005 C 
ATOM     15  C   UNL     1      23.966 -26.609  36.443  1.00  0.00    -0.001 C 
ATOM     16  C   UNL     1      26.160 -27.737  36.926  1.00  0.00     0.007 C 
ATOM     17  C   UNL     1      25.606 -25.563  38.151  1.00  0.00     0.012 C 
ATOM     18  C   UNL     1      23.142 -27.432  37.468  1.00  0.00     0.000 C 
ATOM     19  C   UNL     1      25.234 -28.913  37.388  1.00  0.00     0.005 C 
ATOM     20  C   UNL     1      24.028 -28.440  38.246  1.00  0.00     0.003 C 
ATOM     21  C   UNL     1      22.310 -26.658  38.489  1.00  0.00     0.031 C 
ATOM     22  C   UNL     1      23.143 -29.557  38.913  1.00  0.00    -0.008 C 
ATOM     23  C   UNL     1      21.490 -27.638  39.299  1.00  0.00    -0.027 C 
ATOM     24  C   UNL     1      21.846 -28.941  39.488  1.00  0.00    -0.065 C 
ATOM     25  C   UNL     1      22.743 -30.665  37.889  1.00  0.00     0.014 C 
ATOM     26  C   UNL     1      23.955 -30.196  40.075  1.00  0.00     0.016 C 
ATOM     27  C   UNL     1      20.816 -29.897  40.055  1.00  0.00     0.063 C 
ATOM     28  C   UNL     1      21.692 -31.654  38.436  1.00  0.00     0.033 C 
ATOM     29  C   UNL     1      20.444 -30.927  38.975  1.00  0.00     0.118 C 
BRANCH  29  30
ATOM     30  O   UNL     1      19.506 -31.848  39.471  1.00  0.00    -0.393 OA
ATOM     31  H   UNL     1      18.633 -31.376  39.544  1.00  0.00     0.210 HD
ENDBRANCH  29  30
ENDBRANCH   9  11
ENDBRANCH   1   9
TORSDOF 7
ENDMDL
MODEL 6
REMARK VINA RESULT:    -6.505      3.817      6.337
REMARK INTER + INTRA:         -11.889
REMARK INTER:                 -10.184
REMARK INTRA:                  -1.705
REMARK UNBOUND:                -2.912
REMARK SMILES CC[C@@H](CC[C@@H](C)[C@H]1CC[C@@H]2[C@@H]3CC=C4C[C@H](O)CC[C@@]4(C)[C@H]3CC[C@]21C)C(C)C
REMARK SMILES IDX 5 1 4 2 3 3 2 4 1 5 28 6 29 7 30 8 6 9 7 10 8 11 9 12 26 13
REMARK SMILES IDX 10 14 11 15 25 16 27 17 12 18 24 19 23 20 13 21 21 22 14 23
REMARK SMILES IDX 15 24 20 25 22 26 16 27 19 28 17 29 18 30
REMARK H PARENT 18 31
REMARK Flexibility Score: inf
ROOT
ATOM      1  C   UNL     1      23.550 -26.492  35.653  1.00  0.00     0.004 C 
ENDROOT
BRANCH   1   2
ATOM      2  C   UNL     1      24.846 -26.558  36.503  1.00  0.00     0.004 C 
BRANCH   2   3
ATOM      3  C   UNL     1      25.740 -25.304  36.325  1.00  0.00    -0.009 C 
BRANCH   3   4
ATOM      4  C   UNL     1      25.125 -24.296  35.303  1.00  0.00     0.000 C 
ATOM      5  C   UNL     1      24.705 -22.989  35.976  1.00  0.00     0.004 C 
ENDBRANCH   3   4
BRANCH   3   6
ATOM      6  C   UNL     1      27.218 -25.704  36.006  1.00  0.00    -0.014 C 
ATOM      7  C   UNL     1      27.419 -27.203  35.723  1.00  0.00     0.007 C 
ATOM      8  C   UNL     1      27.798 -24.858  34.864  1.00  0.00     0.007 C 
ENDBRANCH   3   6
ENDBRANCH   2   3
ENDBRANCH   1   2
BRANCH   1   9
ATOM      9  C   UNL     1      23.219 -27.760  34.803  1.00  0.00    -0.011 C 
ATOM     10  C   UNL     1      21.765 -27.784  34.289  1.00  0.00     0.008 C 
BRANCH   9  11
ATOM     11  C   UNL     1      24.241 -28.094  33.661  1.00  0.00    -0.002 C 
ATOM     12  C   UNL     1      24.075 -29.498  33.018  1.00  0.00     0.005 C 
ATOM     13  C   UNL     1      24.384 -27.070  32.459  1.00  0.00    -0.026 C 
ATOM     14  C   UNL     1      24.281 -29.323  31.512  1.00  0.00     0.005 C 
ATOM     15  C   UNL     1      23.843 -27.893  31.278  1.00  0.00    -0.001 C 
ATOM     16  C   UNL     1      23.581 -25.716  32.507  1.00  0.00     0.007 C 
ATOM     17  C   UNL     1      25.912 -26.749  32.330  1.00  0.00     0.012 C 
ATOM     18  C   UNL     1      23.983 -27.257  29.870  1.00  0.00     0.000 C 
ATOM     19  C   UNL     1      23.063 -25.215  31.117  1.00  0.00     0.005 C 
ATOM     20  C   UNL     1      23.932 -25.707  29.927  1.00  0.00     0.003 C 
ATOM     21  C   UNL     1      25.201 -27.652  29.036  1.00  0.00     0.031 C 
ATOM     22  C   UNL     1      23.608 -25.110  28.508  1.00  0.00    -0.008 C 
ATOM     23  C   UNL     1      25.079 -27.030  27.662  1.00  0.00    -0.027 C 
ATOM     24  C   UNL     1      24.360 -25.898  27.410  1.00  0.00    -0.065 C 
ATOM     25  C   UNL     1      22.081 -25.171  28.191  1.00  0.00     0.014 C 
ATOM     26  C   UNL     1      24.083 -23.630  28.481  1.00  0.00     0.016 C 
ATOM     27  C   UNL     1      24.061 -25.538  25.969  1.00  0.00     0.063 C 
ATOM     28  C   UNL     1      21.744 -24.811  26.729  1.00  0.00     0.033 C 
ATOM     29  C   UNL     1      22.547 -25.664  25.727  1.00  0.00     0.118 C 
BRANCH  29  30
ATOM     30  O   UNL     1      22.226 -25.313  24.405  1.00  0.00    -0.393 OA
ATOM     31  H   UNL     1      22.390 -24.336  24.306  1.00  0.00     0.210 HD
ENDBRANCH  29  30
ENDBRANCH   9  11
ENDBRANCH   1   9
TORSDOF 7
ENDMDL
MODEL 7
REMARK VINA RESULT:    -6.498      3.956      6.366
REMARK INTER + INTRA:         -11.879
REMARK INTER:                  -9.141
REMARK INTRA:                  -2.738
REMARK UNBOUND:                -2.912
REMARK SMILES CC[C@@H](CC[C@@H](C)[C@H]1CC[C@@H]2[C@@H]3CC=C4C[C@H](O)CC[C@@]4(C)[C@H]3CC[C@]21C)C(C)C
REMARK SMILES IDX 5 1 4 2 3 3 2 4 1 5 28 6 29 7 30 8 6 9 7 10 8 11 9 12 26 13
REMARK SMILES IDX 10 14 11 15 25 16 27 17 12 18 24 19 23 20 13 21 21 22 14 23
REMARK SMILES IDX 15 24 20 25 22 26 16 27 19 28 17 29 18 30
REMARK H PARENT 18 31
REMARK Flexibility Score: inf
ROOT
ATOM      1  C   UNL     1      22.318 -27.962  35.585  1.00  0.00     0.004 C 
ENDROOT
BRANCH   1   2
ATOM      2  C   UNL     1      21.247 -27.059  34.918  1.00  0.00     0.004 C 
BRANCH   2   3
ATOM      3  C   UNL     1      20.823 -27.573  33.519  1.00  0.00    -0.009 C 
BRANCH   3   4
ATOM      4  C   UNL     1      20.260 -26.424  32.625  1.00  0.00     0.000 C 
ATOM      5  C   UNL     1      20.419 -25.057  33.289  1.00  0.00     0.004 C 
ENDBRANCH   3   4
BRANCH   3   6
ATOM      6  C   UNL     1      19.870 -28.807  33.636  1.00  0.00    -0.014 C 
ATOM      7  C   UNL     1      18.570 -28.680  32.821  1.00  0.00     0.007 C 
ATOM      8  C   UNL     1      20.595 -30.116  33.290  1.00  0.00     0.007 C 
ENDBRANCH   3   6
ENDBRANCH   2   3
ENDBRANCH   1   2
BRANCH   1   9
ATOM      9  C   UNL     1      23.800 -27.489  35.450  1.00  0.00    -0.011 C 
ATOM     10  C   UNL     1      24.608 -27.636  36.756  1.00  0.00     0.008 C 
BRANCH   9  11
ATOM     11  C   UNL     1      24.583 -28.068  34.219  1.00  0.00    -0.002 C 
ATOM     12  C   UNL     1      24.078 -29.443  33.703  1.00  0.00     0.005 C 
ATOM     13  C   UNL     1      24.753 -27.148  32.939  1.00  0.00    -0.026 C 
ATOM     14  C   UNL     1      24.112 -29.382  32.174  1.00  0.00     0.005 C 
ATOM     15  C   UNL     1      23.918 -27.908  31.893  1.00  0.00    -0.001 C 
ATOM     16  C   UNL     1      24.226 -25.665  32.986  1.00  0.00     0.007 C 
ATOM     17  C   UNL     1      26.283 -27.133  32.603  1.00  0.00     0.012 C 
ATOM     18  C   UNL     1      23.986 -27.378  30.437  1.00  0.00     0.000 C 
ATOM     19  C   UNL     1      23.631 -25.140  31.636  1.00  0.00     0.005 C 
ATOM     20  C   UNL     1      24.230 -25.846  30.388  1.00  0.00     0.003 C 
ATOM     21  C   UNL     1      24.989 -28.039  29.492  1.00  0.00     0.031 C 
ATOM     22  C   UNL     1      23.837 -25.266  28.980  1.00  0.00    -0.008 C 
ATOM     23  C   UNL     1      24.804 -27.470  28.103  1.00  0.00    -0.027 C 
ATOM     24  C   UNL     1      24.279 -26.235  27.859  1.00  0.00    -0.065 C 
ATOM     25  C   UNL     1      22.297 -25.047  28.855  1.00  0.00     0.014 C 
ATOM     26  C   UNL     1      24.569 -23.907  28.790  1.00  0.00     0.016 C 
ATOM     27  C   UNL     1      23.865 -25.892  26.442  1.00  0.00     0.063 C 
ATOM     28  C   UNL     1      21.841 -24.699  27.422  1.00  0.00     0.033 C 
ATOM     29  C   UNL     1      22.335 -25.737  26.394  1.00  0.00     0.118 C 
BRANCH  29  30
ATOM     30  O   UNL     1      21.912 -25.394  25.098  1.00  0.00    -0.393 OA
ATOM     31  H   UNL     1      22.237 -24.472  24.911  1.00  0.00     0.210 HD
ENDBRANCH  29  30
ENDBRANCH   9  11
ENDBRANCH   1   9
TORSDOF 7
ENDMDL
MODEL 8
REMARK VINA RESULT:    -6.366      4.666      7.352
REMARK INTER + INTRA:         -11.698
REMARK INTER:                 -10.298
REMARK INTRA:                  -1.400
REMARK UNBOUND:                -2.912
REMARK SMILES CC[C@@H](CC[C@@H](C)[C@H]1CC[C@@H]2[C@@H]3CC=C4C[C@H](O)CC[C@@]4(C)[C@H]3CC[C@]21C)C(C)C
REMARK SMILES IDX 5 1 4 2 3 3 2 4 1 5 28 6 29 7 30 8 6 9 7 10 8 11 9 12 26 13
REMARK SMILES IDX 10 14 11 15 25 16 27 17 12 18 24 19 23 20 13 21 21 22 14 23
REMARK SMILES IDX 15 24 20 25 22 26 16 27 19 28 17 29 18 30
REMARK H PARENT 18 31
REMARK Flexibility Score: inf
ROOT
ATOM      1  C   UNL     1      23.661 -26.534  36.000  1.00  0.00     0.004 C 
ENDROOT
BRANCH   1   2
ATOM      2  C   UNL     1      25.183 -26.580  36.302  1.00  0.00     0.004 C 
BRANCH   2   3
ATOM      3  C   UNL     1      25.523 -27.502  37.501  1.00  0.00    -0.009 C 
BRANCH   3   4
ATOM      4  C   UNL     1      25.876 -28.950  37.036  1.00  0.00     0.000 C 
ATOM      5  C   UNL     1      26.995 -28.957  35.995  1.00  0.00     0.004 C 
ENDBRANCH   3   4
BRANCH   3   6
ATOM      6  C   UNL     1      24.407 -27.444  38.594  1.00  0.00    -0.014 C 
ATOM      7  C   UNL     1      24.112 -28.796  39.269  1.00  0.00     0.007 C 
ATOM      8  C   UNL     1      24.705 -26.371  39.650  1.00  0.00     0.007 C 
ENDBRANCH   3   6
ENDBRANCH   2   3
ENDBRANCH   1   2
BRANCH   1   9
ATOM      9  C   UNL     1      23.115 -27.639  35.042  1.00  0.00    -0.011 C 
ATOM     10  C   UNL     1      21.719 -27.315  34.472  1.00  0.00     0.008 C 
BRANCH   9  11
ATOM     11  C   UNL     1      24.104 -28.106  33.916  1.00  0.00    -0.002 C 
ATOM     12  C   UNL     1      23.780 -29.489  33.287  1.00  0.00     0.005 C 
ATOM     13  C   UNL     1      24.382 -27.121  32.706  1.00  0.00    -0.026 C 
ATOM     14  C   UNL     1      24.023 -29.358  31.781  1.00  0.00     0.005 C 
ATOM     15  C   UNL     1      23.760 -27.889  31.526  1.00  0.00    -0.001 C 
ATOM     16  C   UNL     1      23.743 -25.682  32.729  1.00  0.00     0.007 C 
ATOM     17  C   UNL     1      25.938 -26.985  32.593  1.00  0.00     0.012 C 
ATOM     18  C   UNL     1      23.991 -27.292  30.114  1.00  0.00     0.000 C 
ATOM     19  C   UNL     1      23.305 -25.139  31.326  1.00  0.00     0.005 C 
ATOM     20  C   UNL     1      24.123 -25.746  30.153  1.00  0.00     0.003 C 
ATOM     21  C   UNL     1      25.163 -27.839  29.299  1.00  0.00     0.031 C 
ATOM     22  C   UNL     1      23.889 -25.132  28.724  1.00  0.00    -0.008 C 
ATOM     23  C   UNL     1      25.131 -27.223  27.918  1.00  0.00    -0.027 C 
ATOM     24  C   UNL     1      24.555 -26.017  27.644  1.00  0.00    -0.065 C 
ATOM     25  C   UNL     1      22.369 -25.016  28.387  1.00  0.00     0.014 C 
ATOM     26  C   UNL     1      24.536 -23.719  28.686  1.00  0.00     0.016 C 
ATOM     27  C   UNL     1      24.318 -25.642  26.196  1.00  0.00     0.063 C 
ATOM     28  C   UNL     1      22.094 -24.637  26.917  1.00  0.00     0.033 C 
ATOM     29  C   UNL     1      22.803 -25.591  25.935  1.00  0.00     0.118 C 
BRANCH  29  30
ATOM     30  O   UNL     1      22.541 -25.221  24.605  1.00  0.00    -0.393 OA
ATOM     31  H   UNL     1      22.151 -26.013  24.145  1.00  0.00     0.210 HD
ENDBRANCH  29  30
ENDBRANCH   9  11
ENDBRANCH   1   9
TORSDOF 7
ENDMDL
MODEL 9
REMARK VINA RESULT:    -6.302      6.685      9.771
REMARK INTER + INTRA:         -11.610
REMARK INTER:                  -8.521
REMARK INTRA:                  -3.088
REMARK UNBOUND:                -2.912
REMARK SMILES CC[C@@H](CC[C@@H](C)[C@H]1CC[C@@H]2[C@@H]3CC=C4C[C@H](O)CC[C@@]4(C)[C@H]3CC[C@]21C)C(C)C
REMARK SMILES IDX 5 1 4 2 3 3 2 4 1 5 28 6 29 7 30 8 6 9 7 10 8 11 9 12 26 13
REMARK SMILES IDX 10 14 11 15 25 16 27 17 12 18 24 19 23 20 13 21 21 22 14 23
REMARK SMILES IDX 15 24 20 25 22 26 16 27 19 28 17 29 18 30
REMARK H PARENT 18 31
REMARK Flexibility Score: inf
ROOT
ATOM      1  C   UNL     1      25.588 -25.380  34.110  1.00  0.00     0.004 C 
ENDROOT
BRANCH   1   2
ATOM      2  C   UNL     1      26.476 -26.591  33.719  1.00  0.00     0.004 C 
BRANCH   2   3
ATOM      3  C   UNL     1      25.796 -27.950  34.024  1.00  0.00    -0.009 C 
BRANCH   3   4
ATOM      4  C   UNL     1      26.607 -28.782  35.067  1.00  0.00     0.000 C 
ATOM      5  C   UNL     1      26.092 -28.569  36.490  1.00  0.00     0.004 C 
ENDBRANCH   3   4
BRANCH   3   6
ATOM      6  C   UNL     1      25.473 -28.729  32.708  1.00  0.00    -0.014 C 
ATOM      7  C   UNL     1      24.382 -29.804  32.861  1.00  0.00     0.007 C 
ATOM      8  C   UNL     1      25.128 -27.774  31.556  1.00  0.00     0.007 C 
ENDBRANCH   3   6
ENDBRANCH   2   3
ENDBRANCH   1   2
BRANCH   1   9
ATOM      9  C   UNL     1      24.478 -25.654  35.173  1.00  0.00    -0.011 C 
ATOM     10  C   UNL     1      24.623 -24.789  36.442  1.00  0.00     0.008 C 
BRANCH   9  11
ATOM     11  C   UNL     1      23.005 -25.641  34.630  1.00  0.00    -0.002 C 
ATOM     12  C   UNL     1      22.870 -25.426  33.098  1.00  0.00     0.005 C 
ATOM     13  C   UNL     1      22.061 -26.861  34.994  1.00  0.00    -0.026 C 
ATOM     14  C   UNL     1      21.767 -26.371  32.615  1.00  0.00     0.005 C 
ATOM     15  C   UNL     1      21.835 -27.505  33.615  1.00  0.00    -0.001 C 
ATOM     16  C   UNL     1      22.595 -27.980  35.963  1.00  0.00     0.007 C 
ATOM     17  C   UNL     1      20.755 -26.245  35.601  1.00  0.00     0.012 C 
ATOM     18  C   UNL     1      20.801 -28.660  33.553  1.00  0.00     0.000 C 
ATOM     19  C   UNL     1      22.101 -29.427  35.626  1.00  0.00     0.005 C 
ATOM     20  C   UNL     1      20.734 -29.449  34.887  1.00  0.00     0.003 C 
ATOM     21  C   UNL     1      19.371 -28.305  33.149  1.00  0.00     0.031 C 
ATOM     22  C   UNL     1      20.061 -30.854  34.668  1.00  0.00    -0.008 C 
ATOM     23  C   UNL     1      18.566 -29.580  33.023  1.00  0.00    -0.027 C 
ATOM     24  C   UNL     1      18.870 -30.731  33.689  1.00  0.00    -0.065 C 
ATOM     25  C   UNL     1      21.068 -31.891  34.079  1.00  0.00     0.014 C 
ATOM     26  C   UNL     1      19.536 -31.365  36.039  1.00  0.00     0.016 C 
ATOM     27  C   UNL     1      18.185 -32.014  33.264  1.00  0.00     0.063 C 
ATOM     28  C   UNL     1      20.401 -33.210  33.634  1.00  0.00     0.033 C 
ATOM     29  C   UNL     1      19.234 -32.962  32.658  1.00  0.00     0.118 C 
BRANCH  29  30
ATOM     30  O   UNL     1      18.641 -34.176  32.273  1.00  0.00    -0.393 OA
ATOM     31  H   UNL     1      17.879 -34.347  32.890  1.00  0.00     0.210 HD
ENDBRANCH  29  30
ENDBRANCH   9  11
ENDBRANCH   1   9
TORSDOF 7
ENDMDL
