MODEL 1
REMARK VINA RESULT:    -8.477      0.000      0.000
REMARK INTER + INTRA:          -8.973
REMARK INTER:                  -8.973
REMARK INTRA:                   0.000
REMARK UNBOUND:                 0.000
REMARK SMILES C[C@H]1CC[C@H]2[N@H+](C1)C[C@@H]1[C@H]3C[C@@H]4[C@@H](CC(=O)[C@H]5C[C@@H](O)CC[C@]54C)[C@H]3CC[C@H]1[C@]2(C)O
REMARK SMILES IDX 5 1 6 2 8 3 7 4 4 5 29 6 3 7 28 8 30 9 2 10 27 11 9 12 1 13
REMARK SMILES IDX 26 14 10 15 25 16 11 17 13 18 12 19 14 20 23 21 15 22 17 23
REMARK SMILES IDX 22 24 24 25 16 26 18 27 21 28 19 29 31 31 20 33
REMARK H PARENT 6 30 31 32 20 34
REMARK Flexibility Score: inf
ROOT
ATOM      1  C   UNL     1      15.877 -23.901  -6.733  1.00  0.00     0.216 C 
ATOM      2  N   UNL     1      16.883 -22.875  -6.318  1.00  0.00    -0.330 N 
ATOM      3  C   UNL     1      17.032 -22.810  -4.845  1.00  0.00     0.266 C 
ATOM      4  C   UNL     1      18.215 -23.167  -6.906  1.00  0.00     0.265 C 
ATOM      5  C   UNL     1      15.784 -23.974  -8.282  1.00  0.00     0.069 C 
ATOM      6  C   UNL     1      14.470 -23.675  -6.061  1.00  0.00     0.117 C 
ATOM      7  C   UNL     1      17.151 -24.252  -8.904  1.00  0.00     0.015 C 
ATOM      8  C   UNL     1      14.677 -23.612  -4.518  1.00  0.00     0.036 C 
ATOM      9  C   UNL     1      13.763 -22.388  -6.596  1.00  0.00     0.049 C 
ATOM     10  C   UNL     1      18.164 -23.198  -8.444  1.00  0.00     0.041 C 
ATOM     11  C   UNL     1      13.350 -23.541  -3.699  1.00  0.00     0.007 C 
ATOM     12  C   UNL     1      15.696 -22.510  -4.140  1.00  0.00     0.054 C 
ATOM     13  C   UNL     1      19.550 -23.493  -9.027  1.00  0.00     0.013 C 
ATOM     14  C   UNL     1      13.306 -22.354  -2.731  1.00  0.00     0.004 C 
ATOM     15  C   UNL     1      15.876 -22.430  -2.597  1.00  0.00     0.002 C 
ATOM     16  C   UNL     1      14.546 -22.367  -1.810  1.00  0.00    -0.004 C 
ATOM     17  C   UNL     1      16.678 -21.206  -2.166  1.00  0.00     0.009 C 
ATOM     18  C   UNL     1      14.672 -21.208  -0.774  1.00  0.00     0.003 C 
ATOM     19  C   UNL     1      16.181 -20.840  -0.764  1.00  0.00    -0.000 C 
ATOM     20  C   UNL     1      13.742 -19.983  -0.995  1.00  0.00     0.080 C 
ATOM     21  C   UNL     1      16.535 -19.363  -0.320  1.00  0.00    -0.020 C 
ATOM     22  C   UNL     1      14.453 -18.895  -1.732  1.00  0.00     0.136 C 
ATOM     23  C   UNL     1      15.682 -18.283  -1.105  1.00  0.00     0.065 C 
ATOM     24  C   UNL     1      16.287 -19.237   1.214  1.00  0.00     0.010 C 
ATOM     25  C   UNL     1      18.054 -19.135  -0.577  1.00  0.00     0.012 C 
ATOM     26  O   UNL     1      14.031 -18.490  -2.804  1.00  0.00    -0.299 OA
ATOM     27  C   UNL     1      15.214 -17.087  -0.234  1.00  0.00     0.043 C 
ATOM     28  C   UNL     1      16.575 -17.829   1.782  1.00  0.00     0.032 C 
ATOM     29  C   UNL     1      16.256 -16.672   0.810  1.00  0.00     0.115 C 
ATOM     30  H   UNL     1      16.590 -21.930  -6.660  1.00  0.00     0.348 HD
ENDROOT
BRANCH   6  31
ATOM     31  O   UNL     1      13.656 -24.803  -6.311  1.00  0.00    -0.384 OA
ATOM     32  H   UNL     1      13.117 -24.643  -7.128  1.00  0.00     0.211 HD
ENDBRANCH   6  31
BRANCH  29  33
ATOM     33  O   UNL     1      15.782 -15.573   1.544  1.00  0.00    -0.393 OA
ATOM     34  H   UNL     1      16.545 -14.950   1.660  1.00  0.00     0.210 HD
ENDBRANCH  29  33
TORSDOF 2
ENDMDL
MODEL 2
REMARK VINA RESULT:    -8.033      4.233      6.024
REMARK INTER + INTRA:          -8.503
REMARK INTER:                  -8.503
REMARK INTRA:                   0.000
REMARK UNBOUND:                 0.000
REMARK SMILES C[C@H]1CC[C@H]2[N@H+](C1)C[C@@H]1[C@H]3C[C@@H]4[C@@H](CC(=O)[C@H]5C[C@@H](O)CC[C@]54C)[C@H]3CC[C@H]1[C@]2(C)O
REMARK SMILES IDX 5 1 6 2 8 3 7 4 4 5 29 6 3 7 28 8 30 9 2 10 27 11 9 12 1 13
REMARK SMILES IDX 26 14 10 15 25 16 11 17 13 18 12 19 14 20 23 21 15 22 17 23
REMARK SMILES IDX 22 24 24 25 16 26 18 27 21 28 19 29 31 31 20 33
REMARK H PARENT 6 30 31 32 20 34
REMARK Flexibility Score: inf
ROOT
ATOM      1  C   UNL     1      19.957 -22.922  -6.817  1.00  0.00     0.216 C 
ATOM      2  N   UNL     1      19.400 -22.593  -5.469  1.00  0.00    -0.330 N 
ATOM      3  C   UNL     1      18.299 -23.508  -5.086  1.00  0.00     0.266 C 
ATOM      4  C   UNL     1      20.453 -22.673  -4.424  1.00  0.00     0.265 C 
ATOM      5  C   UNL     1      21.139 -21.975  -7.163  1.00  0.00     0.069 C 
ATOM      6  C   UNL     1      18.853 -22.932  -7.941  1.00  0.00     0.117 C 
ATOM      7  C   UNL     1      22.221 -22.028  -6.086  1.00  0.00     0.015 C 
ATOM      8  C   UNL     1      17.719 -23.904  -7.494  1.00  0.00     0.036 C 
ATOM      9  C   UNL     1      18.298 -21.501  -8.232  1.00  0.00     0.049 C 
ATOM     10  C   UNL     1      21.617 -21.709  -4.714  1.00  0.00     0.041 C 
ATOM     11  C   UNL     1      16.618 -24.138  -8.575  1.00  0.00     0.007 C 
ATOM     12  C   UNL     1      17.152 -23.497  -6.114  1.00  0.00     0.054 C 
ATOM     13  C   UNL     1      22.685 -21.802  -3.620  1.00  0.00     0.013 C 
ATOM     14  C   UNL     1      15.203 -23.855  -8.061  1.00  0.00     0.004 C 
ATOM     15  C   UNL     1      16.000 -24.450  -5.687  1.00  0.00     0.002 C 
ATOM     16  C   UNL     1      14.926 -24.670  -6.778  1.00  0.00    -0.004 C 
ATOM     17  C   UNL     1      15.252 -23.946  -4.455  1.00  0.00     0.009 C 
ATOM     18  C   UNL     1      13.532 -24.480  -6.104  1.00  0.00     0.003 C 
ATOM     19  C   UNL     1      13.820 -24.476  -4.579  1.00  0.00    -0.000 C 
ATOM     20  C   UNL     1      12.700 -23.257  -6.577  1.00  0.00     0.080 C 
ATOM     21  C   UNL     1      12.770 -23.712  -3.673  1.00  0.00    -0.020 C 
ATOM     22  C   UNL     1      12.881 -22.095  -5.654  1.00  0.00     0.136 C 
ATOM     23  C   UNL     1      12.472 -22.252  -4.210  1.00  0.00     0.065 C 
ATOM     24  C   UNL     1      11.456 -24.550  -3.629  1.00  0.00     0.010 C 
ATOM     25  C   UNL     1      13.342 -23.645  -2.226  1.00  0.00     0.012 C 
ATOM     26  O   UNL     1      13.324 -21.034  -6.067  1.00  0.00    -0.299 OA
ATOM     27  C   UNL     1      10.984 -21.825  -4.099  1.00  0.00     0.043 C 
ATOM     28  C   UNL     1      10.330 -23.905  -2.790  1.00  0.00     0.032 C 
ATOM     29  C   UNL     1      10.308 -22.361  -2.833  1.00  0.00     0.115 C 
ATOM     30  H   UNL     1      19.029 -21.614  -5.466  1.00  0.00     0.348 HD
ENDROOT
BRANCH   6  31
ATOM     31  O   UNL     1      19.406 -23.477  -9.122  1.00  0.00    -0.384 OA
ATOM     32  H   UNL     1      19.070 -22.970  -9.905  1.00  0.00     0.211 HD
ENDBRANCH   6  31
BRANCH  29  33
ATOM     33  O   UNL     1       8.976 -21.920  -2.782  1.00  0.00    -0.393 OA
ATOM     34  H   UNL     1       8.401 -22.729  -2.785  1.00  0.00     0.210 HD
ENDBRANCH  29  33
TORSDOF 2
ENDMDL
MODEL 3
REMARK VINA RESULT:    -7.615      4.837      8.135
REMARK INTER + INTRA:          -8.060
REMARK INTER:                  -8.060
REMARK INTRA:                   0.000
REMARK UNBOUND:                 0.000
REMARK SMILES C[C@H]1CC[C@H]2[N@H+](C1)C[C@@H]1[C@H]3C[C@@H]4[C@@H](CC(=O)[C@H]5C[C@@H](O)CC[C@]54C)[C@H]3CC[C@H]1[C@]2(C)O
REMARK SMILES IDX 5 1 6 2 8 3 7 4 4 5 29 6 3 7 28 8 30 9 2 10 27 11 9 12 1 13
REMARK SMILES IDX 26 14 10 15 25 16 11 17 13 18 12 19 14 20 23 21 15 22 17 23
REMARK SMILES IDX 22 24 24 25 16 26 18 27 21 28 19 29 31 31 20 33
REMARK H PARENT 6 30 31 32 20 34
REMARK Flexibility Score: inf
ROOT
ATOM      1  C   UNL     1      10.830 -25.731  -0.921  1.00  0.00     0.216 C 
ATOM      2  N   UNL     1      12.275 -26.055  -1.130  1.00  0.00    -0.330 N 
ATOM      3  C   UNL     1      13.033 -24.896  -1.658  1.00  0.00     0.266 C 
ATOM      4  C   UNL     1      12.913 -26.484   0.141  1.00  0.00     0.265 C 
ATOM      5  C   UNL     1      10.081 -26.953  -0.323  1.00  0.00     0.069 C 
ATOM      6  C   UNL     1      10.138 -25.189  -2.229  1.00  0.00     0.117 C 
ATOM      7  C   UNL     1      10.738 -27.421   0.974  1.00  0.00     0.015 C 
ATOM      8  C   UNL     1      10.968 -23.976  -2.747  1.00  0.00     0.036 C 
ATOM      9  C   UNL     1      10.001 -26.296  -3.323  1.00  0.00     0.049 C 
ATOM     10  C   UNL     1      12.221 -27.724   0.734  1.00  0.00     0.041 C 
ATOM     11  C   UNL     1      10.323 -23.232  -3.958  1.00  0.00     0.007 C 
ATOM     12  C   UNL     1      12.444 -24.373  -2.982  1.00  0.00     0.054 C 
ATOM     13  C   UNL     1      12.900 -28.153   2.039  1.00  0.00     0.013 C 
ATOM     14  C   UNL     1      11.268 -23.105  -5.156  1.00  0.00     0.004 C 
ATOM     15  C   UNL     1      13.261 -23.168  -3.528  1.00  0.00     0.002 C 
ATOM     16  C   UNL     1      12.596 -22.446  -4.723  1.00  0.00    -0.004 C 
ATOM     17  C   UNL     1      14.654 -23.574  -4.003  1.00  0.00     0.009 C 
ATOM     18  C   UNL     1      13.688 -22.262  -5.822  1.00  0.00     0.003 C 
ATOM     19  C   UNL     1      15.031 -22.588  -5.114  1.00  0.00    -0.000 C 
ATOM     20  C   UNL     1      13.479 -23.057  -7.140  1.00  0.00     0.080 C 
ATOM     21  C   UNL     1      16.208 -23.088  -6.047  1.00  0.00    -0.020 C 
ATOM     22  C   UNL     1      14.250 -24.337  -7.124  1.00  0.00     0.136 C 
ATOM     23  C   UNL     1      15.752 -24.271  -6.997  1.00  0.00     0.065 C 
ATOM     24  C   UNL     1      16.714 -21.880  -6.891  1.00  0.00     0.010 C 
ATOM     25  C   UNL     1      17.379 -23.555  -5.133  1.00  0.00     0.012 C 
ATOM     26  O   UNL     1      13.679 -25.410  -7.239  1.00  0.00    -0.299 OA
ATOM     27  C   UNL     1      16.337 -24.193  -8.433  1.00  0.00     0.043 C 
ATOM     28  C   UNL     1      17.857 -22.234  -7.869  1.00  0.00     0.032 C 
ATOM     29  C   UNL     1      17.773 -23.659  -8.458  1.00  0.00     0.115 C 
ATOM     30  H   UNL     1      12.369 -26.845  -1.810  1.00  0.00     0.348 HD
ENDROOT
BRANCH   6  31
ATOM     31  O   UNL     1       8.859 -24.688  -1.896  1.00  0.00    -0.384 OA
ATOM     32  H   UNL     1       8.833 -23.713  -2.073  1.00  0.00     0.211 HD
ENDBRANCH   6  31
BRANCH  29  33
ATOM     33  O   UNL     1      18.249 -23.638  -9.779  1.00  0.00    -0.393 OA
ATOM     34  H   UNL     1      19.213 -23.406  -9.737  1.00  0.00     0.210 HD
ENDBRANCH  29  33
TORSDOF 2
ENDMDL
MODEL 4
REMARK VINA RESULT:    -7.560      5.495      7.197
REMARK INTER + INTRA:          -8.002
REMARK INTER:                  -8.002
REMARK INTRA:                   0.000
REMARK UNBOUND:                 0.000
REMARK SMILES C[C@H]1CC[C@H]2[N@H+](C1)C[C@@H]1[C@H]3C[C@@H]4[C@@H](CC(=O)[C@H]5C[C@@H](O)CC[C@]54C)[C@H]3CC[C@H]1[C@]2(C)O
REMARK SMILES IDX 5 1 6 2 8 3 7 4 4 5 29 6 3 7 28 8 30 9 2 10 27 11 9 12 1 13
REMARK SMILES IDX 26 14 10 15 25 16 11 17 13 18 12 19 14 20 23 21 15 22 17 23
REMARK SMILES IDX 22 24 24 25 16 26 18 27 21 28 19 29 31 31 20 33
REMARK H PARENT 6 30 31 32 20 34
REMARK Flexibility Score: inf
ROOT
ATOM      1  C   UNL     1      20.608 -22.893  -6.742  1.00  0.00     0.216 C 
ATOM      2  N   UNL     1      19.515 -23.655  -6.064  1.00  0.00    -0.330 N 
ATOM      3  C   UNL     1      19.210 -23.110  -4.721  1.00  0.00     0.266 C 
ATOM      4  C   UNL     1      18.267 -23.625  -6.870  1.00  0.00     0.265 C 
ATOM      5  C   UNL     1      20.866 -23.463  -8.164  1.00  0.00     0.069 C 
ATOM      6  C   UNL     1      21.925 -22.829  -5.879  1.00  0.00     0.117 C 
ATOM      7  C   UNL     1      19.586 -23.460  -8.999  1.00  0.00     0.015 C 
ATOM      8  C   UNL     1      21.555 -22.253  -4.478  1.00  0.00     0.036 C 
ATOM      9  C   UNL     1      22.617 -24.225  -5.757  1.00  0.00     0.049 C 
ATOM     10  C   UNL     1      18.479 -24.228  -8.270  1.00  0.00     0.041 C 
ATOM     11  C   UNL     1      22.785 -21.986  -3.554  1.00  0.00     0.007 C 
ATOM     12  C   UNL     1      20.449 -23.098  -3.805  1.00  0.00     0.054 C 
ATOM     13  C   UNL     1      17.178 -24.194  -9.078  1.00  0.00     0.013 C 
ATOM     14  C   UNL     1      22.668 -22.671  -2.189  1.00  0.00     0.004 C 
ATOM     15  C   UNL     1      20.106 -22.538  -2.396  1.00  0.00     0.002 C 
ATOM     16  C   UNL     1      21.342 -22.277  -1.503  1.00  0.00    -0.004 C 
ATOM     17  C   UNL     1      19.202 -23.474  -1.599  1.00  0.00     0.009 C 
ATOM     18  C   UNL     1      21.050 -22.909  -0.107  1.00  0.00     0.003 C 
ATOM     19  C   UNL     1      19.532 -23.234  -0.122  1.00  0.00    -0.000 C 
ATOM     20  C   UNL     1      21.935 -24.119   0.299  1.00  0.00     0.080 C 
ATOM     21  C   UNL     1      19.059 -24.398   0.841  1.00  0.00    -0.020 C 
ATOM     22  C   UNL     1      21.250 -25.412  -0.008  1.00  0.00     0.136 C 
ATOM     23  C   UNL     1      19.934 -25.708   0.667  1.00  0.00     0.065 C 
ATOM     24  C   UNL     1      19.140 -23.885   2.310  1.00  0.00     0.010 C 
ATOM     25  C   UNL     1      17.565 -24.706   0.525  1.00  0.00     0.012 C 
ATOM     26  O   UNL     1      21.760 -26.223  -0.765  1.00  0.00    -0.299 OA
ATOM     27  C   UNL     1      20.247 -26.443   1.998  1.00  0.00     0.043 C 
ATOM     28  C   UNL     1      18.724 -24.934   3.365  1.00  0.00     0.032 C 
ATOM     29  C   UNL     1      19.083 -26.389   2.992  1.00  0.00     0.115 C 
ATOM     30  H   UNL     1      19.794 -24.658  -5.955  1.00  0.00     0.348 HD
ENDROOT
BRANCH   6  31
ATOM     31  O   UNL     1      22.816 -21.906  -6.471  1.00  0.00    -0.384 OA
ATOM     32  H   UNL     1      23.650 -22.376  -6.729  1.00  0.00     0.211 HD
ENDBRANCH   6  31
BRANCH  29  33
ATOM     33  O   UNL     1      19.422 -27.092   4.159  1.00  0.00    -0.393 OA
ATOM     34  H   UNL     1      19.902 -27.912   3.876  1.00  0.00     0.210 HD
ENDBRANCH  29  33
TORSDOF 2
ENDMDL
MODEL 5
REMARK VINA RESULT:    -7.506      4.332      7.658
REMARK INTER + INTRA:          -7.945
REMARK INTER:                  -7.945
REMARK INTRA:                   0.000
REMARK UNBOUND:                 0.000
REMARK SMILES C[C@H]1CC[C@H]2[N@H+](C1)C[C@@H]1[C@H]3C[C@@H]4[C@@H](CC(=O)[C@H]5C[C@@H](O)CC[C@]54C)[C@H]3CC[C@H]1[C@]2(C)O
REMARK SMILES IDX 5 1 6 2 8 3 7 4 4 5 29 6 3 7 28 8 30 9 2 10 27 11 9 12 1 13
REMARK SMILES IDX 26 14 10 15 25 16 11 17 13 18 12 19 14 20 23 21 15 22 17 23
REMARK SMILES IDX 22 24 24 25 16 26 18 27 21 28 19 29 31 31 20 33
REMARK H PARENT 6 30 31 32 20 34
REMARK Flexibility Score: inf
ROOT
ATOM      1  C   UNL     1       9.768 -21.724  -5.652  1.00  0.00     0.216 C 
ATOM      2  N   UNL     1      10.567 -21.514  -6.899  1.00  0.00    -0.330 N 
ATOM      3  C   UNL     1      11.556 -22.597  -7.112  1.00  0.00     0.266 C 
ATOM      4  C   UNL     1       9.685 -21.450  -8.092  1.00  0.00     0.265 C 
ATOM      5  C   UNL     1       8.712 -20.597  -5.488  1.00  0.00     0.069 C 
ATOM      6  C   UNL     1      10.674 -21.882  -4.373  1.00  0.00     0.117 C 
ATOM      7  C   UNL     1       7.810 -20.503  -6.718  1.00  0.00     0.015 C 
ATOM      8  C   UNL     1      11.696 -23.028  -4.645  1.00  0.00     0.036 C 
ATOM      9  C   UNL     1      11.397 -20.549  -3.996  1.00  0.00     0.049 C 
ATOM     10  C   UNL     1       8.657 -20.310  -7.979  1.00  0.00     0.041 C 
ATOM     11  C   UNL     1      12.570 -23.408  -3.409  1.00  0.00     0.007 C 
ATOM     12  C   UNL     1      12.521 -22.743  -5.922  1.00  0.00     0.054 C 
ATOM     13  C   UNL     1       7.765 -20.259  -9.224  1.00  0.00     0.013 C 
ATOM     14  C   UNL     1      14.073 -23.360  -3.701  1.00  0.00     0.004 C 
ATOM     15  C   UNL     1      13.561 -23.873  -6.171  1.00  0.00     0.002 C 
ATOM     16  C   UNL     1      14.409 -24.235  -4.929  1.00  0.00    -0.004 C 
ATOM     17  C   UNL     1      14.556 -23.518  -7.272  1.00  0.00     0.009 C 
ATOM     18  C   UNL     1      15.901 -24.279  -5.382  1.00  0.00     0.003 C 
ATOM     19  C   UNL     1      15.852 -24.262  -6.933  1.00  0.00    -0.000 C 
ATOM     20  C   UNL     1      16.834 -23.191  -4.784  1.00  0.00     0.080 C 
ATOM     21  C   UNL     1      17.133 -23.690  -7.666  1.00  0.00    -0.020 C 
ATOM     22  C   UNL     1      16.980 -22.034  -5.720  1.00  0.00     0.136 C 
ATOM     23  C   UNL     1      17.573 -22.283  -7.085  1.00  0.00     0.065 C 
ATOM     24  C   UNL     1      18.290 -24.723  -7.512  1.00  0.00     0.010 C 
ATOM     25  C   UNL     1      16.804 -23.565  -9.183  1.00  0.00     0.012 C 
ATOM     26  O   UNL     1      16.652 -20.909  -5.376  1.00  0.00    -0.299 OA
ATOM     27  C   UNL     1      19.109 -22.096  -6.967  1.00  0.00     0.043 C 
ATOM     28  C   UNL     1      19.618 -24.279  -8.167  1.00  0.00     0.032 C 
ATOM     29  C   UNL     1      19.875 -22.758  -8.117  1.00  0.00     0.115 C 
ATOM     30  H   UNL     1      11.084 -20.605  -6.842  1.00  0.00     0.348 HD
ENDROOT
BRANCH   6  31
ATOM     31  O   UNL     1       9.870 -22.309  -3.292  1.00  0.00    -0.384 OA
ATOM     32  H   UNL     1      10.316 -22.072  -2.439  1.00  0.00     0.211 HD
ENDBRANCH   6  31
BRANCH  29  33
ATOM     33  O   UNL     1      21.252 -22.531  -7.963  1.00  0.00    -0.393 OA
ATOM     34  H   UNL     1      21.385 -22.156  -7.054  1.00  0.00     0.210 HD
ENDBRANCH  29  33
TORSDOF 2
ENDMDL
MODEL 6
REMARK VINA RESULT:    -7.491      3.563      6.644
REMARK INTER + INTRA:          -7.929
REMARK INTER:                  -7.929
REMARK INTRA:                   0.000
REMARK UNBOUND:                 0.000
REMARK SMILES C[C@H]1CC[C@H]2[N@H+](C1)C[C@@H]1[C@H]3C[C@@H]4[C@@H](CC(=O)[C@H]5C[C@@H](O)CC[C@]54C)[C@H]3CC[C@H]1[C@]2(C)O
REMARK SMILES IDX 5 1 6 2 8 3 7 4 4 5 29 6 3 7 28 8 30 9 2 10 27 11 9 12 1 13
REMARK SMILES IDX 26 14 10 15 25 16 11 17 13 18 12 19 14 20 23 21 15 22 17 23
REMARK SMILES IDX 22 24 24 25 16 26 18 27 21 28 19 29 31 31 20 33
REMARK H PARENT 6 30 31 32 20 34
REMARK Flexibility Score: inf
ROOT
ATOM      1  C   UNL     1      18.084 -21.907  -5.983  1.00  0.00     0.216 C 
ATOM      2  N   UNL     1      17.935 -23.383  -5.790  1.00  0.00    -0.330 N 
ATOM      3  C   UNL     1      16.534 -23.828  -5.976  1.00  0.00     0.266 C 
ATOM      4  C   UNL     1      18.789 -24.133  -6.747  1.00  0.00     0.265 C 
ATOM      5  C   UNL     1      19.571 -21.486  -5.829  1.00  0.00     0.069 C 
ATOM      6  C   UNL     1      17.129 -21.077  -5.044  1.00  0.00     0.117 C 
ATOM      7  C   UNL     1      20.467 -22.265  -6.791  1.00  0.00     0.015 C 
ATOM      8  C   UNL     1      15.671 -21.580  -5.272  1.00  0.00     0.036 C 
ATOM      9  C   UNL     1      17.542 -21.185  -3.541  1.00  0.00     0.049 C 
ATOM     10  C   UNL     1      20.277 -23.772  -6.585  1.00  0.00     0.041 C 
ATOM     11  C   UNL     1      14.585 -20.749  -4.520  1.00  0.00     0.007 C 
ATOM     12  C   UNL     1      15.565 -23.103  -5.024  1.00  0.00     0.054 C 
ATOM     13  C   UNL     1      21.138 -24.562  -7.575  1.00  0.00     0.013 C 
ATOM     14  C   UNL     1      13.674 -21.610  -3.640  1.00  0.00     0.004 C 
ATOM     15  C   UNL     1      14.103 -23.595  -5.222  1.00  0.00     0.002 C 
ATOM     16  C   UNL     1      13.046 -22.750  -4.472  1.00  0.00    -0.004 C 
ATOM     17  C   UNL     1      13.902 -25.033  -4.753  1.00  0.00     0.009 C 
ATOM     18  C   UNL     1      12.106 -23.742  -3.720  1.00  0.00     0.003 C 
ATOM     19  C   UNL     1      12.439 -25.138  -4.310  1.00  0.00    -0.000 C 
ATOM     20  C   UNL     1      12.162 -23.700  -2.168  1.00  0.00     0.080 C 
ATOM     21  C   UNL     1      12.136 -26.380  -3.376  1.00  0.00    -0.020 C 
ATOM     22  C   UNL     1      13.075 -24.757  -1.634  1.00  0.00     0.136 C 
ATOM     23  C   UNL     1      12.754 -26.201  -1.928  1.00  0.00     0.065 C 
ATOM     24  C   UNL     1      10.591 -26.563  -3.285  1.00  0.00     0.010 C 
ATOM     25  C   UNL     1      12.727 -27.649  -4.059  1.00  0.00     0.012 C 
ATOM     26  O   UNL     1      14.043 -24.457  -0.953  1.00  0.00    -0.299 OA
ATOM     27  C   UNL     1      11.846 -26.719  -0.782  1.00  0.00     0.043 C 
ATOM     28  C   UNL     1      10.151 -27.736  -2.381  1.00  0.00     0.032 C 
ATOM     29  C   UNL     1      11.071 -27.984  -1.166  1.00  0.00     0.115 C 
ATOM     30  H   UNL     1      18.238 -23.649  -4.824  1.00  0.00     0.348 HD
ENDROOT
BRANCH   6  31
ATOM     31  O   UNL     1      17.154 -19.723  -5.447  1.00  0.00    -0.384 OA
ATOM     32  H   UNL     1      16.914 -19.662  -6.407  1.00  0.00     0.211 HD
ENDBRANCH   6  31
BRANCH  29  33
ATOM     33  O   UNL     1      10.291 -28.412  -0.080  1.00  0.00    -0.393 OA
ATOM     34  H   UNL     1      10.563 -27.870   0.705  1.00  0.00     0.210 HD
ENDBRANCH  29  33
TORSDOF 2
ENDMDL
MODEL 7
REMARK VINA RESULT:    -7.352      4.647      6.534
REMARK INTER + INTRA:          -7.781
REMARK INTER:                  -7.781
REMARK INTRA:                   0.000
REMARK UNBOUND:                 0.000
REMARK SMILES C[C@H]1CC[C@H]2[N@H+](C1)C[C@@H]1[C@H]3C[C@@H]4[C@@H](CC(=O)[C@H]5C[C@@H](O)CC[C@]54C)[C@H]3CC[C@H]1[C@]2(C)O
REMARK SMILES IDX 5 1 6 2 8 3 7 4 4 5 29 6 3 7 28 8 30 9 2 10 27 11 9 12 1 13
REMARK SMILES IDX 26 14 10 15 25 16 11 17 13 18 12 19 14 20 23 21 15 22 17 23
REMARK SMILES IDX 22 24 24 25 16 26 18 27 21 28 19 29 31 31 20 33
REMARK H PARENT 6 30 31 32 20 34
REMARK Flexibility Score: inf
ROOT
ATOM      1  C   UNL     1      18.749 -23.156  -7.653  1.00  0.00     0.216 C 
ATOM      2  N   UNL     1      17.996 -23.371  -6.379  1.00  0.00    -0.330 N 
ATOM      3  C   UNL     1      18.390 -22.400  -5.332  1.00  0.00     0.266 C 
ATOM      4  C   UNL     1      16.532 -23.245  -6.599  1.00  0.00     0.265 C 
ATOM      5  C   UNL     1      18.274 -24.159  -8.740  1.00  0.00     0.069 C 
ATOM      6  C   UNL     1      20.310 -23.197  -7.446  1.00  0.00     0.117 C 
ATOM      7  C   UNL     1      16.766 -24.059  -8.962  1.00  0.00     0.015 C 
ATOM      8  C   UNL     1      20.677 -22.164  -6.338  1.00  0.00     0.036 C 
ATOM      9  C   UNL     1      20.818 -24.629  -7.082  1.00  0.00     0.049 C 
ATOM     10  C   UNL     1      16.023 -24.260  -7.637  1.00  0.00     0.041 C 
ATOM     11  C   UNL     1      22.211 -21.978  -6.122  1.00  0.00     0.007 C 
ATOM     12  C   UNL     1      19.900 -22.453  -5.031  1.00  0.00     0.054 C 
ATOM     13  C   UNL     1      14.511 -24.118  -7.841  1.00  0.00     0.013 C 
ATOM     14  C   UNL     1      22.641 -22.182  -4.666  1.00  0.00     0.004 C 
ATOM     15  C   UNL     1      20.293 -21.439  -3.919  1.00  0.00     0.002 C 
ATOM     16  C   UNL     1      21.818 -21.269  -3.731  1.00  0.00    -0.004 C 
ATOM     17  C   UNL     1      19.741 -21.830  -2.551  1.00  0.00     0.009 C 
ATOM     18  C   UNL     1      22.113 -21.369  -2.203  1.00  0.00     0.003 C 
ATOM     19  C   UNL     1      20.723 -21.270  -1.518  1.00  0.00    -0.000 C 
ATOM     20  C   UNL     1      22.940 -22.600  -1.740  1.00  0.00     0.080 C 
ATOM     21  C   UNL     1      20.601 -21.936  -0.087  1.00  0.00    -0.020 C 
ATOM     22  C   UNL     1      22.047 -23.696  -1.255  1.00  0.00     0.136 C 
ATOM     23  C   UNL     1      21.149 -23.423  -0.074  1.00  0.00     0.065 C 
ATOM     24  C   UNL     1      21.391 -21.061   0.933  1.00  0.00     0.010 C 
ATOM     25  C   UNL     1      19.100 -21.913   0.328  1.00  0.00     0.012 C 
ATOM     26  O   UNL     1      22.066 -24.796  -1.784  1.00  0.00    -0.299 OA
ATOM     27  C   UNL     1      21.938 -23.797   1.209  1.00  0.00     0.043 C 
ATOM     28  C   UNL     1      21.374 -21.610   2.377  1.00  0.00     0.032 C 
ATOM     29  C   UNL     1      21.358 -23.152   2.471  1.00  0.00     0.115 C 
ATOM     30  H   UNL     1      18.176 -24.336  -6.016  1.00  0.00     0.348 HD
ENDROOT
BRANCH   6  31
ATOM     31  O   UNL     1      20.941 -22.756  -8.631  1.00  0.00    -0.384 OA
ATOM     32  H   UNL     1      20.388 -22.050  -9.053  1.00  0.00     0.211 HD
ENDBRANCH   6  31
BRANCH  29  33
ATOM     33  O   UNL     1      22.101 -23.550   3.594  1.00  0.00    -0.393 OA
ATOM     34  H   UNL     1      22.632 -24.344   3.324  1.00  0.00     0.210 HD
ENDBRANCH  29  33
TORSDOF 2
ENDMDL
MODEL 8
REMARK VINA RESULT:    -7.254      4.241      6.889
REMARK INTER + INTRA:          -7.678
REMARK INTER:                  -7.678
REMARK INTRA:                   0.000
REMARK UNBOUND:                 0.000
REMARK SMILES C[C@H]1CC[C@H]2[N@H+](C1)C[C@@H]1[C@H]3C[C@@H]4[C@@H](CC(=O)[C@H]5C[C@@H](O)CC[C@]54C)[C@H]3CC[C@H]1[C@]2(C)O
REMARK SMILES IDX 5 1 6 2 8 3 7 4 4 5 29 6 3 7 28 8 30 9 2 10 27 11 9 12 1 13
REMARK SMILES IDX 26 14 10 15 25 16 11 17 13 18 12 19 14 20 23 21 15 22 17 23
REMARK SMILES IDX 22 24 24 25 16 26 18 27 21 28 19 29 31 31 20 33
REMARK H PARENT 6 30 31 32 20 34
REMARK Flexibility Score: inf
ROOT
ATOM      1  C   UNL     1      12.440 -24.531  -3.394  1.00  0.00     0.216 C 
ATOM      2  N   UNL     1      13.718 -24.768  -2.655  1.00  0.00    -0.330 N 
ATOM      3  C   UNL     1      14.621 -23.596  -2.720  1.00  0.00     0.266 C 
ATOM      4  C   UNL     1      13.457 -25.074  -1.225  1.00  0.00     0.265 C 
ATOM      5  C   UNL     1      11.500 -25.761  -3.264  1.00  0.00     0.069 C 
ATOM      6  C   UNL     1      12.678 -24.119  -4.897  1.00  0.00     0.117 C 
ATOM      7  C   UNL     1      11.240 -26.103  -1.798  1.00  0.00     0.015 C 
ATOM      8  C   UNL     1      13.632 -22.887  -4.914  1.00  0.00     0.036 C 
ATOM      9  C   UNL     1      13.253 -25.299  -5.745  1.00  0.00     0.049 C 
ATOM     10  C   UNL     1      12.567 -26.319  -1.063  1.00  0.00     0.041 C 
ATOM     11  C   UNL     1      13.846 -22.266  -6.329  1.00  0.00     0.007 C 
ATOM     12  C   UNL     1      14.953 -23.198  -4.170  1.00  0.00     0.054 C 
ATOM     13  C   UNL     1      12.318 -26.619   0.419  1.00  0.00     0.013 C 
ATOM     14  C   UNL     1      15.323 -22.149  -6.716  1.00  0.00     0.004 C 
ATOM     15  C   UNL     1      15.914 -21.976  -4.217  1.00  0.00     0.002 C 
ATOM     16  C   UNL     1      16.102 -21.376  -5.630  1.00  0.00    -0.004 C 
ATOM     17  C   UNL     1      17.314 -22.315  -3.713  1.00  0.00     0.009 C 
ATOM     18  C   UNL     1      17.634 -21.187  -5.855  1.00  0.00     0.003 C 
ATOM     19  C   UNL     1      18.273 -21.377  -4.452  1.00  0.00    -0.000 C 
ATOM     20  C   UNL     1      18.283 -22.075  -6.952  1.00  0.00     0.080 C 
ATOM     21  C   UNL     1      19.783 -21.853  -4.433  1.00  0.00    -0.020 C 
ATOM     22  C   UNL     1      18.906 -23.296  -6.356  1.00  0.00     0.136 C 
ATOM     23  C   UNL     1      20.019 -23.121  -5.353  1.00  0.00     0.065 C 
ATOM     24  C   UNL     1      20.679 -20.668  -4.904  1.00  0.00     0.010 C 
ATOM     25  C   UNL     1      20.163 -22.182  -2.959  1.00  0.00     0.012 C 
ATOM     26  O   UNL     1      18.540 -24.411  -6.696  1.00  0.00    -0.299 OA
ATOM     27  C   UNL     1      21.356 -23.093  -6.141  1.00  0.00     0.043 C 
ATOM     28  C   UNL     1      22.187 -21.004  -4.953  1.00  0.00     0.032 C 
ATOM     29  C   UNL     1      22.501 -22.465  -5.341  1.00  0.00     0.115 C 
ATOM     30  H   UNL     1      14.219 -25.591  -3.065  1.00  0.00     0.348 HD
ENDROOT
BRANCH   6  31
ATOM     31  O   UNL     1      11.453 -23.687  -5.453  1.00  0.00    -0.384 OA
ATOM     32  H   UNL     1      11.080 -22.957  -4.896  1.00  0.00     0.211 HD
ENDBRANCH   6  31
BRANCH  29  33
ATOM     33  O   UNL     1      23.683 -22.493  -6.099  1.00  0.00    -0.393 OA
ATOM     34  H   UNL     1      23.432 -22.282  -7.036  1.00  0.00     0.210 HD
ENDBRANCH  29  33
TORSDOF 2
ENDMDL
MODEL 9
REMARK VINA RESULT:    -7.196      3.049      5.170
REMARK INTER + INTRA:          -7.617
REMARK INTER:                  -7.617
REMARK INTRA:                   0.000
REMARK UNBOUND:                 0.000
REMARK SMILES C[C@H]1CC[C@H]2[N@H+](C1)C[C@@H]1[C@H]3C[C@@H]4[C@@H](CC(=O)[C@H]5C[C@@H](O)CC[C@]54C)[C@H]3CC[C@H]1[C@]2(C)O
REMARK SMILES IDX 5 1 6 2 8 3 7 4 4 5 29 6 3 7 28 8 30 9 2 10 27 11 9 12 1 13
REMARK SMILES IDX 26 14 10 15 25 16 11 17 13 18 12 19 14 20 23 21 15 22 17 23
REMARK SMILES IDX 22 24 24 25 16 26 18 27 21 28 19 29 31 31 20 33
REMARK H PARENT 6 30 31 32 20 34
REMARK Flexibility Score: inf
ROOT
ATOM      1  C   UNL     1      12.157 -26.046  -3.910  1.00  0.00     0.216 C 
ATOM      2  N   UNL     1      12.247 -25.420  -2.554  1.00  0.00    -0.330 N 
ATOM      3  C   UNL     1      11.822 -24.000  -2.570  1.00  0.00     0.266 C 
ATOM      4  C   UNL     1      11.399 -26.146  -1.576  1.00  0.00     0.265 C 
ATOM      5  C   UNL     1      12.564 -27.544  -3.844  1.00  0.00     0.069 C 
ATOM      6  C   UNL     1      12.977 -25.253  -4.997  1.00  0.00     0.117 C 
ATOM      7  C   UNL     1      11.715 -28.301  -2.824  1.00  0.00     0.015 C 
ATOM      8  C   UNL     1      12.498 -23.770  -4.976  1.00  0.00     0.036 C 
ATOM      9  C   UNL     1      14.519 -25.359  -4.764  1.00  0.00     0.049 C 
ATOM     10  C   UNL     1      11.810 -27.624  -1.453  1.00  0.00     0.041 C 
ATOM     11  C   UNL     1      13.113 -22.885  -6.105  1.00  0.00     0.007 C 
ATOM     12  C   UNL     1      12.647 -23.159  -3.562  1.00  0.00     0.054 C 
ATOM     13  C   UNL     1      10.927 -28.350  -0.432  1.00  0.00     0.013 C 
ATOM     14  C   UNL     1      13.794 -21.621  -5.572  1.00  0.00     0.004 C 
ATOM     15  C   UNL     1      12.198 -21.670  -3.553  1.00  0.00     0.002 C 
ATOM     16  C   UNL     1      12.816 -20.818  -4.686  1.00  0.00    -0.004 C 
ATOM     17  C   UNL     1      12.554 -20.961  -2.250  1.00  0.00     0.009 C 
ATOM     18  C   UNL     1      13.359 -19.507  -4.038  1.00  0.00     0.003 C 
ATOM     19  C   UNL     1      12.756 -19.485  -2.607  1.00  0.00    -0.000 C 
ATOM     20  C   UNL     1      14.901 -19.316  -4.059  1.00  0.00     0.080 C 
ATOM     21  C   UNL     1      13.566 -18.664  -1.522  1.00  0.00    -0.020 C 
ATOM     22  C   UNL     1      15.515 -19.758  -2.770  1.00  0.00     0.136 C 
ATOM     23  C   UNL     1      15.100 -19.060  -1.498  1.00  0.00     0.065 C 
ATOM     24  C   UNL     1      13.404 -17.145  -1.832  1.00  0.00     0.010 C 
ATOM     25  C   UNL     1      12.919 -18.939  -0.132  1.00  0.00     0.012 C 
ATOM     26  O   UNL     1      16.354 -20.644  -2.751  1.00  0.00    -0.299 OA
ATOM     27  C   UNL     1      16.061 -17.860  -1.291  1.00  0.00     0.043 C 
ATOM     28  C   UNL     1      14.166 -16.222  -0.856  1.00  0.00     0.032 C 
ATOM     29  C   UNL     1      15.496 -16.807  -0.332  1.00  0.00     0.115 C 
ATOM     30  H   UNL     1      13.234 -25.462  -2.207  1.00  0.00     0.348 HD
ENDROOT
BRANCH   6  31
ATOM     31  O   UNL     1      12.654 -25.761  -6.275  1.00  0.00    -0.384 OA
ATOM     32  H   UNL     1      13.074 -26.651  -6.390  1.00  0.00     0.211 HD
ENDBRANCH   6  31
BRANCH  29  33
ATOM     33  O   UNL     1      16.423 -15.765  -0.169  1.00  0.00    -0.393 OA
ATOM     34  H   UNL     1      15.903 -14.924  -0.084  1.00  0.00     0.210 HD
ENDBRANCH  29  33
TORSDOF 2
ENDMDL
