MODEL 1
REMARK VINA RESULT:    -6.095      0.000      0.000
REMARK INTER + INTRA:         -11.496
REMARK INTER:                  -8.411
REMARK INTRA:                  -3.085
REMARK UNBOUND:                -3.085
REMARK SMILES CC[C@H](CC[C@H](C)[C@@H]1CC[C@H]2[C@@H]3CC=C4C[C@H](O)CC[C@]4(C)[C@H]3CC[C@@]21C)C(C)C
REMARK SMILES IDX 5 1 4 2 3 3 2 4 1 5 28 6 29 7 30 8 6 9 7 10 8 11 9 12 26 13
REMARK SMILES IDX 10 14 11 15 25 16 27 17 12 18 24 19 23 20 13 21 21 22 14 23
REMARK SMILES IDX 15 24 20 25 22 26 16 27 19 28 17 29 18 30
REMARK H PARENT 18 31
REMARK Flexibility Score: inf
ROOT
ATOM      1  C   UNL     1     163.755 178.194 181.275  1.00  0.00     0.004 C 
ENDROOT
BRANCH   1   2
ATOM      2  C   UNL     1     164.007 176.691 181.523  1.00  0.00     0.004 C 
BRANCH   2   3
ATOM      3  C   UNL     1     162.882 175.753 180.992  1.00  0.00    -0.009 C 
BRANCH   3   4
ATOM      4  C   UNL     1     161.510 176.499 181.000  1.00  0.00     0.000 C 
ATOM      5  C   UNL     1     160.373 175.613 181.510  1.00  0.00     0.004 C 
ENDBRANCH   3   4
BRANCH   3   6
ATOM      6  C   UNL     1     163.218 175.097 179.609  1.00  0.00    -0.014 C 
ATOM      7  C   UNL     1     164.670 174.596 179.548  1.00  0.00     0.007 C 
ATOM      8  C   UNL     1     162.242 173.981 179.187  1.00  0.00     0.007 C 
ENDBRANCH   3   6
ENDBRANCH   2   3
ENDBRANCH   1   2
BRANCH   1   9
ATOM      9  C   UNL     1     164.666 178.782 180.144  1.00  0.00    -0.011 C 
ATOM     10  C   UNL     1     165.612 179.827 180.791  1.00  0.00     0.008 C 
BRANCH   9  11
ATOM     11  C   UNL     1     163.810 179.384 178.970  1.00  0.00    -0.002 C 
ATOM     12  C   UNL     1     162.322 179.621 179.389  1.00  0.00     0.005 C 
ATOM     13  C   UNL     1     163.688 178.559 177.631  1.00  0.00    -0.026 C 
ATOM     14  C   UNL     1     161.422 178.907 178.383  1.00  0.00     0.005 C 
ATOM     15  C   UNL     1     162.334 177.852 177.802  1.00  0.00    -0.001 C 
ATOM     16  C   UNL     1     164.728 177.449 177.333  1.00  0.00     0.007 C 
ATOM     17  C   UNL     1     163.700 179.594 176.459  1.00  0.00     0.012 C 
ATOM     18  C   UNL     1     161.851 177.109 176.536  1.00  0.00     0.000 C 
ATOM     19  C   UNL     1     164.359 176.635 176.073  1.00  0.00     0.005 C 
ATOM     20  C   UNL     1     162.914 176.047 176.128  1.00  0.00     0.003 C 
ATOM     21  C   UNL     1     160.512 176.402 176.811  1.00  0.00     0.031 C 
ATOM     22  C   UNL     1     162.487 175.271 174.822  1.00  0.00    -0.008 C 
ATOM     23  C   UNL     1     160.132 175.420 175.741  1.00  0.00    -0.027 C 
ATOM     24  C   UNL     1     161.026 174.804 174.936  1.00  0.00    -0.065 C 
ATOM     25  C   UNL     1     163.408 174.022 174.649  1.00  0.00     0.014 C 
ATOM     26  C   UNL     1     162.605 176.169 173.559  1.00  0.00     0.016 C 
ATOM     27  C   UNL     1     160.519 173.743 173.978  1.00  0.00     0.063 C 
ATOM     28  C   UNL     1     162.902 173.012 173.606  1.00  0.00     0.033 C 
ATOM     29  C   UNL     1     161.473 172.549 173.918  1.00  0.00     0.118 C 
BRANCH  29  30
ATOM     30  O   UNL     1     161.443 171.860 175.143  1.00  0.00    -0.393 OA
ATOM     31  H   UNL     1     162.242 171.272 175.169  1.00  0.00     0.210 HD
ENDBRANCH  29  30
ENDBRANCH   9  11
ENDBRANCH   1   9
TORSDOF 7
ENDMDL
MODEL 2
REMARK VINA RESULT:    -5.777      2.283      5.374
REMARK INTER + INTRA:         -11.057
REMARK INTER:                  -8.154
REMARK INTRA:                  -2.903
REMARK UNBOUND:                -3.085
REMARK SMILES CC[C@H](CC[C@H](C)[C@@H]1CC[C@H]2[C@@H]3CC=C4C[C@H](O)CC[C@]4(C)[C@H]3CC[C@@]21C)C(C)C
REMARK SMILES IDX 5 1 4 2 3 3 2 4 1 5 28 6 29 7 30 8 6 9 7 10 8 11 9 12 26 13
REMARK SMILES IDX 10 14 11 15 25 16 27 17 12 18 24 19 23 20 13 21 21 22 14 23
REMARK SMILES IDX 15 24 20 25 22 26 16 27 19 28 17 29 18 30
REMARK H PARENT 18 31
REMARK Flexibility Score: inf
ROOT
ATOM      1  C   UNL     1     162.117 178.572 178.071  1.00  0.00     0.004 C 
ENDROOT
BRANCH   1   2
ATOM      2  C   UNL     1     161.196 177.435 177.579  1.00  0.00     0.004 C 
BRANCH   2   3
ATOM      3  C   UNL     1     161.656 176.762 176.252  1.00  0.00    -0.009 C 
BRANCH   3   4
ATOM      4  C   UNL     1     163.008 177.383 175.773  1.00  0.00     0.000 C 
ATOM      5  C   UNL     1     162.902 177.986 174.372  1.00  0.00     0.004 C 
ENDBRANCH   3   4
BRANCH   3   6
ATOM      6  C   UNL     1     161.691 175.196 176.325  1.00  0.00    -0.014 C 
ATOM      7  C   UNL     1     160.496 174.632 177.111  1.00  0.00     0.007 C 
ATOM      8  C   UNL     1     161.812 174.504 174.954  1.00  0.00     0.007 C 
ENDBRANCH   3   6
ENDBRANCH   2   3
ENDBRANCH   1   2
BRANCH   1   9
ATOM      9  C   UNL     1     162.242 178.617 179.633  1.00  0.00    -0.011 C 
ATOM     10  C   UNL     1     162.388 180.102 180.056  1.00  0.00     0.008 C 
BRANCH   9  11
ATOM     11  C   UNL     1     163.432 177.723 180.141  1.00  0.00    -0.002 C 
ATOM     12  C   UNL     1     164.532 177.531 179.046  1.00  0.00     0.005 C 
ATOM     13  C   UNL     1     163.118 176.250 180.609  1.00  0.00    -0.026 C 
ATOM     14  C   UNL     1     164.766 176.034 178.859  1.00  0.00     0.005 C 
ATOM     15  C   UNL     1     163.477 175.425 179.363  1.00  0.00    -0.001 C 
ATOM     16  C   UNL     1     161.661 175.872 180.979  1.00  0.00     0.007 C 
ATOM     17  C   UNL     1     164.045 175.955 181.832  1.00  0.00     0.012 C 
ATOM     18  C   UNL     1     163.452 173.897 179.594  1.00  0.00     0.000 C 
ATOM     19  C   UNL     1     161.506 174.358 181.246  1.00  0.00     0.005 C 
ATOM     20  C   UNL     1     162.031 173.474 180.072  1.00  0.00     0.003 C 
ATOM     21  C   UNL     1     163.786 173.155 178.288  1.00  0.00     0.031 C 
ATOM     22  C   UNL     1     161.951 171.924 180.350  1.00  0.00    -0.008 C 
ATOM     23  C   UNL     1     163.487 171.685 178.351  1.00  0.00    -0.027 C 
ATOM     24  C   UNL     1     162.566 171.141 179.177  1.00  0.00    -0.065 C 
ATOM     25  C   UNL     1     160.453 171.512 180.505  1.00  0.00     0.014 C 
ATOM     26  C   UNL     1     162.722 171.534 181.642  1.00  0.00     0.016 C 
ATOM     27  C   UNL     1     162.277 169.657 179.055  1.00  0.00     0.063 C 
ATOM     28  C   UNL     1     160.213 169.994 180.461  1.00  0.00     0.033 C 
ATOM     29  C   UNL     1     160.779 169.372 179.178  1.00  0.00     0.118 C 
BRANCH  29  30
ATOM     30  O   UNL     1     160.108 169.884 178.054  1.00  0.00    -0.393 OA
ATOM     31  H   UNL     1     160.799 170.121 177.382  1.00  0.00     0.210 HD
ENDBRANCH  29  30
ENDBRANCH   9  11
ENDBRANCH   1   9
TORSDOF 7
ENDMDL
MODEL 3
REMARK VINA RESULT:    -5.706      7.830     10.938
REMARK INTER + INTRA:         -10.960
REMARK INTER:                  -8.046
REMARK INTRA:                  -2.914
REMARK UNBOUND:                -3.085
REMARK SMILES CC[C@H](CC[C@H](C)[C@@H]1CC[C@H]2[C@@H]3CC=C4C[C@H](O)CC[C@]4(C)[C@H]3CC[C@@]21C)C(C)C
REMARK SMILES IDX 5 1 4 2 3 3 2 4 1 5 28 6 29 7 30 8 6 9 7 10 8 11 9 12 26 13
REMARK SMILES IDX 10 14 11 15 25 16 27 17 12 18 24 19 23 20 13 21 21 22 14 23
REMARK SMILES IDX 15 24 20 25 22 26 16 27 19 28 17 29 18 30
REMARK H PARENT 18 31
REMARK Flexibility Score: inf
ROOT
ATOM      1  C   UNL     1     175.683 179.230 177.910  1.00  0.00     0.004 C 
ENDROOT
BRANCH   1   2
ATOM      2  C   UNL     1     174.358 179.840 177.407  1.00  0.00     0.004 C 
BRANCH   2   3
ATOM      3  C   UNL     1     173.823 179.217 176.083  1.00  0.00    -0.009 C 
BRANCH   3   4
ATOM      4  C   UNL     1     174.772 178.071 175.606  1.00  0.00     0.000 C 
ATOM      5  C   UNL     1     175.302 178.312 174.191  1.00  0.00     0.004 C 
ENDBRANCH   3   4
BRANCH   3   6
ATOM      6  C   UNL     1     172.320 178.778 176.162  1.00  0.00    -0.014 C 
ATOM      7  C   UNL     1     171.518 179.649 177.143  1.00  0.00     0.007 C 
ATOM      8  C   UNL     1     171.611 178.710 174.795  1.00  0.00     0.007 C 
ENDBRANCH   3   6
ENDBRANCH   2   3
ENDBRANCH   1   2
BRANCH   1   9
ATOM      9  C   UNL     1     175.744 179.117 179.472  1.00  0.00    -0.011 C 
ATOM     10  C   UNL     1     177.197 179.429 179.915  1.00  0.00     0.008 C 
BRANCH   9  11
ATOM     11  C   UNL     1     175.248 177.709 179.968  1.00  0.00    -0.002 C 
ATOM     12  C   UNL     1     175.365 176.619 178.853  1.00  0.00     0.005 C 
ATOM     13  C   UNL     1     173.757 177.570 180.463  1.00  0.00    -0.026 C 
ATOM     14  C   UNL     1     173.999 175.960 178.682  1.00  0.00     0.005 C 
ATOM     15  C   UNL     1     173.049 177.005 179.221  1.00  0.00    -0.001 C 
ATOM     16  C   UNL     1     172.976 178.846 180.869  1.00  0.00     0.007 C 
ATOM     17  C   UNL     1     173.771 176.577 181.670  1.00  0.00     0.012 C 
ATOM     18  C   UNL     1     171.586 176.577 179.475  1.00  0.00     0.000 C 
ATOM     19  C   UNL     1     171.489 178.545 181.160  1.00  0.00     0.005 C 
ATOM     20  C   UNL     1     170.775 177.803 179.988  1.00  0.00     0.003 C 
ATOM     21  C   UNL     1     170.949 176.061 178.173  1.00  0.00     0.031 C 
ATOM     22  C   UNL     1     169.275 177.420 180.290  1.00  0.00    -0.008 C 
ATOM     23  C   UNL     1     169.457 175.914 178.263  1.00  0.00    -0.027 C 
ATOM     24  C   UNL     1     168.684 176.622 179.116  1.00  0.00    -0.065 C 
ATOM     25  C   UNL     1     168.446 178.729 180.482  1.00  0.00     0.014 C 
ATOM     26  C   UNL     1     169.153 176.548 181.571  1.00  0.00     0.016 C 
ATOM     27  C   UNL     1     167.178 176.464 179.021  1.00  0.00     0.063 C 
ATOM     28  C   UNL     1     166.923 178.514 180.465  1.00  0.00     0.033 C 
ATOM     29  C   UNL     1     166.469 177.811 179.180  1.00  0.00     0.118 C 
BRANCH  29  30
ATOM     30  O   UNL     1     166.739 178.621 178.063  1.00  0.00    -0.393 OA
ATOM     31  H   UNL     1     166.068 179.351 178.060  1.00  0.00     0.210 HD
ENDBRANCH  29  30
ENDBRANCH   9  11
ENDBRANCH   1   9
TORSDOF 7
ENDMDL
MODEL 4
REMARK VINA RESULT:    -5.600      1.699      2.517
REMARK INTER + INTRA:         -10.813
REMARK INTER:                  -8.107
REMARK INTRA:                  -2.705
REMARK UNBOUND:                -3.085
REMARK SMILES CC[C@H](CC[C@H](C)[C@@H]1CC[C@H]2[C@@H]3CC=C4C[C@H](O)CC[C@]4(C)[C@H]3CC[C@@]21C)C(C)C
REMARK SMILES IDX 5 1 4 2 3 3 2 4 1 5 28 6 29 7 30 8 6 9 7 10 8 11 9 12 26 13
REMARK SMILES IDX 10 14 11 15 25 16 27 17 12 18 24 19 23 20 13 21 21 22 14 23
REMARK SMILES IDX 15 24 20 25 22 26 16 27 19 28 17 29 18 30
REMARK H PARENT 18 31
REMARK Flexibility Score: inf
ROOT
ATOM      1  C   UNL     1     161.515 176.208 181.202  1.00  0.00     0.004 C 
ENDROOT
BRANCH   1   2
ATOM      2  C   UNL     1     160.569 175.024 180.910  1.00  0.00     0.004 C 
BRANCH   2   3
ATOM      3  C   UNL     1     161.294 173.671 180.640  1.00  0.00    -0.009 C 
BRANCH   3   4
ATOM      4  C   UNL     1     161.113 172.710 181.858  1.00  0.00     0.000 C 
ATOM      5  C   UNL     1     162.379 172.615 182.712  1.00  0.00     0.004 C 
ENDBRANCH   3   4
BRANCH   3   6
ATOM      6  C   UNL     1     160.898 173.013 179.274  1.00  0.00    -0.014 C 
ATOM      7  C   UNL     1     160.261 174.028 178.311  1.00  0.00     0.007 C 
ATOM      8  C   UNL     1     162.050 172.260 178.580  1.00  0.00     0.007 C 
ENDBRANCH   3   6
ENDBRANCH   2   3
ENDBRANCH   1   2
BRANCH   1   9
ATOM      9  C   UNL     1     162.900 176.068 180.482  1.00  0.00    -0.011 C 
ATOM     10  C   UNL     1     164.008 176.146 181.564  1.00  0.00     0.008 C 
BRANCH   9  11
ATOM     11  C   UNL     1     163.076 177.152 179.356  1.00  0.00    -0.002 C 
ATOM     12  C   UNL     1     161.791 178.024 179.174  1.00  0.00     0.005 C 
ATOM     13  C   UNL     1     163.400 176.665 177.890  1.00  0.00    -0.026 C 
ATOM     14  C   UNL     1     161.377 177.969 177.706  1.00  0.00     0.005 C 
ATOM     15  C   UNL     1     162.015 176.687 177.223  1.00  0.00    -0.001 C 
ATOM     16  C   UNL     1     163.966 175.238 177.678  1.00  0.00     0.007 C 
ATOM     17  C   UNL     1     164.395 177.703 177.278  1.00  0.00     0.012 C 
ATOM     18  C   UNL     1     162.051 176.437 175.698  1.00  0.00     0.000 C 
ATOM     19  C   UNL     1     164.061 174.870 176.181  1.00  0.00     0.005 C 
ATOM     20  C   UNL     1     162.710 175.054 175.420  1.00  0.00     0.003 C 
ATOM     21  C   UNL     1     160.623 176.439 175.124  1.00  0.00     0.031 C 
ATOM     22  C   UNL     1     162.798 174.754 173.874  1.00  0.00    -0.008 C 
ATOM     23  C   UNL     1     160.550 175.907 173.722  1.00  0.00    -0.027 C 
ATOM     24  C   UNL     1     161.446 175.042 173.199  1.00  0.00    -0.065 C 
ATOM     25  C   UNL     1     163.157 173.248 173.669  1.00  0.00     0.014 C 
ATOM     26  C   UNL     1     163.876 175.633 173.181  1.00  0.00     0.016 C 
ATOM     27  C   UNL     1     161.189 174.490 171.811  1.00  0.00     0.063 C 
ATOM     28  C   UNL     1     162.963 172.750 172.227  1.00  0.00     0.033 C 
ATOM     29  C   UNL     1     161.533 173.001 171.733  1.00  0.00     0.118 C 
BRANCH  29  30
ATOM     30  O   UNL     1     160.617 172.265 172.505  1.00  0.00    -0.393 OA
ATOM     31  H   UNL     1     161.139 171.602 173.026  1.00  0.00     0.210 HD
ENDBRANCH  29  30
ENDBRANCH   9  11
ENDBRANCH   1   9
TORSDOF 7
ENDMDL
MODEL 5
REMARK VINA RESULT:    -5.597      9.127     12.085
REMARK INTER + INTRA:         -10.809
REMARK INTER:                  -7.760
REMARK INTRA:                  -3.049
REMARK UNBOUND:                -3.085
REMARK SMILES CC[C@H](CC[C@H](C)[C@@H]1CC[C@H]2[C@@H]3CC=C4C[C@H](O)CC[C@]4(C)[C@H]3CC[C@@]21C)C(C)C
REMARK SMILES IDX 5 1 4 2 3 3 2 4 1 5 28 6 29 7 30 8 6 9 7 10 8 11 9 12 26 13
REMARK SMILES IDX 10 14 11 15 25 16 27 17 12 18 24 19 23 20 13 21 21 22 14 23
REMARK SMILES IDX 15 24 20 25 22 26 16 27 19 28 17 29 18 30
REMARK H PARENT 18 31
REMARK Flexibility Score: inf
ROOT
ATOM      1  C   UNL     1     177.516 177.255 178.920  1.00  0.00     0.004 C 
ENDROOT
BRANCH   1   2
ATOM      2  C   UNL     1     177.041 178.715 179.075  1.00  0.00     0.004 C 
BRANCH   2   3
ATOM      3  C   UNL     1     175.611 178.868 179.676  1.00  0.00    -0.009 C 
BRANCH   3   4
ATOM      4  C   UNL     1     175.675 179.660 181.021  1.00  0.00     0.000 C 
ATOM      5  C   UNL     1     177.104 179.784 181.551  1.00  0.00     0.004 C 
ENDBRANCH   3   4
BRANCH   3   6
ATOM      6  C   UNL     1     174.568 179.455 178.664  1.00  0.00    -0.014 C 
ATOM      7  C   UNL     1     174.698 178.819 177.271  1.00  0.00     0.007 C 
ATOM      8  C   UNL     1     173.109 179.390 179.155  1.00  0.00     0.007 C 
ENDBRANCH   3   6
ENDBRANCH   2   3
ENDBRANCH   1   2
BRANCH   1   9
ATOM      9  C   UNL     1     177.223 176.385 180.190  1.00  0.00    -0.011 C 
ATOM     10  C   UNL     1     178.584 175.953 180.795  1.00  0.00     0.008 C 
BRANCH   9  11
ATOM     11  C   UNL     1     176.296 175.161 179.849  1.00  0.00    -0.002 C 
ATOM     12  C   UNL     1     176.261 174.860 178.314  1.00  0.00     0.005 C 
ATOM     13  C   UNL     1     174.770 175.242 180.242  1.00  0.00    -0.026 C 
ATOM     14  C   UNL     1     174.803 174.848 177.861  1.00  0.00     0.005 C 
ATOM     15  C   UNL     1     174.113 175.675 178.921  1.00  0.00    -0.001 C 
ATOM     16  C   UNL     1     174.322 176.270 181.312  1.00  0.00     0.007 C 
ATOM     17  C   UNL     1     174.345 173.811 180.703  1.00  0.00     0.012 C 
ATOM     18  C   UNL     1     172.568 175.649 178.953  1.00  0.00     0.000 C 
ATOM     19  C   UNL     1     172.785 176.332 181.446  1.00  0.00     0.005 C 
ATOM     20  C   UNL     1     172.062 176.589 180.087  1.00  0.00     0.003 C 
ATOM     21  C   UNL     1     171.999 176.130 177.607  1.00  0.00     0.031 C 
ATOM     22  C   UNL     1     170.488 176.585 180.185  1.00  0.00    -0.008 C 
ATOM     23  C   UNL     1     170.527 176.422 177.659  1.00  0.00    -0.027 C 
ATOM     24  C   UNL     1     169.868 176.761 178.788  1.00  0.00    -0.065 C 
ATOM     25  C   UNL     1     170.033 177.767 181.097  1.00  0.00     0.014 C 
ATOM     26  C   UNL     1     169.956 175.250 180.779  1.00  0.00     0.016 C 
ATOM     27  C   UNL     1     168.405 177.147 178.680  1.00  0.00     0.063 C 
ATOM     28  C   UNL     1     168.527 178.071 181.022  1.00  0.00     0.033 C 
ATOM     29  C   UNL     1     168.079 178.341 179.580  1.00  0.00     0.118 C 
BRANCH  29  30
ATOM     30  O   UNL     1     168.713 179.493 179.083  1.00  0.00    -0.393 OA
ATOM     31  H   UNL     1     168.105 180.259 179.252  1.00  0.00     0.210 HD
ENDBRANCH  29  30
ENDBRANCH   9  11
ENDBRANCH   1   9
TORSDOF 7
ENDMDL
MODEL 6
REMARK VINA RESULT:    -5.574      8.174     11.132
REMARK INTER + INTRA:         -10.777
REMARK INTER:                  -7.859
REMARK INTRA:                  -2.918
REMARK UNBOUND:                -3.085
REMARK SMILES CC[C@H](CC[C@H](C)[C@@H]1CC[C@H]2[C@@H]3CC=C4C[C@H](O)CC[C@]4(C)[C@H]3CC[C@@]21C)C(C)C
REMARK SMILES IDX 5 1 4 2 3 3 2 4 1 5 28 6 29 7 30 8 6 9 7 10 8 11 9 12 26 13
REMARK SMILES IDX 10 14 11 15 25 16 27 17 12 18 24 19 23 20 13 21 21 22 14 23
REMARK SMILES IDX 15 24 20 25 22 26 16 27 19 28 17 29 18 30
REMARK H PARENT 18 31
REMARK Flexibility Score: inf
ROOT
ATOM      1  C   UNL     1     176.172 179.152 178.138  1.00  0.00     0.004 C 
ENDROOT
BRANCH   1   2
ATOM      2  C   UNL     1     174.929 179.762 177.454  1.00  0.00     0.004 C 
BRANCH   2   3
ATOM      3  C   UNL     1     174.051 178.734 176.679  1.00  0.00    -0.009 C 
BRANCH   3   4
ATOM      4  C   UNL     1     172.884 179.470 175.945  1.00  0.00     0.000 C 
ATOM      5  C   UNL     1     171.566 179.375 176.717  1.00  0.00     0.004 C 
ENDBRANCH   3   4
BRANCH   3   6
ATOM      6  C   UNL     1     174.877 177.795 175.734  1.00  0.00    -0.014 C 
ATOM      7  C   UNL     1     174.145 176.472 175.457  1.00  0.00     0.007 C 
ATOM      8  C   UNL     1     175.313 178.458 174.413  1.00  0.00     0.007 C 
ENDBRANCH   3   6
ENDBRANCH   2   3
ENDBRANCH   1   2
BRANCH   1   9
ATOM      9  C   UNL     1     176.068 179.160 179.701  1.00  0.00    -0.011 C 
ATOM     10  C   UNL     1     177.452 179.572 180.268  1.00  0.00     0.008 C 
BRANCH   9  11
ATOM     11  C   UNL     1     175.577 177.772 180.253  1.00  0.00    -0.002 C 
ATOM     12  C   UNL     1     175.817 176.615 179.229  1.00  0.00     0.005 C 
ATOM     13  C   UNL     1     174.055 177.612 180.637  1.00  0.00    -0.026 C 
ATOM     14  C   UNL     1     174.490 175.896 178.997  1.00  0.00     0.005 C 
ATOM     15  C   UNL     1     173.468 176.940 179.385  1.00  0.00    -0.001 C 
ATOM     16  C   UNL     1     173.205 178.884 180.890  1.00  0.00     0.007 C 
ATOM     17  C   UNL     1     174.001 176.704 181.908  1.00  0.00     0.012 C 
ATOM     18  C   UNL     1     172.002 176.478 179.551  1.00  0.00     0.000 C 
ATOM     19  C   UNL     1     171.709 178.550 181.083  1.00  0.00     0.005 C 
ATOM     20  C   UNL     1     171.116 177.706 179.912  1.00  0.00     0.003 C 
ATOM     21  C   UNL     1     171.490 175.853 178.242  1.00  0.00     0.031 C 
ATOM     22  C   UNL     1     169.608 177.291 180.120  1.00  0.00    -0.008 C 
ATOM     23  C   UNL     1     170.001 175.659 178.224  1.00  0.00    -0.027 C 
ATOM     24  C   UNL     1     169.139 176.394 178.961  1.00  0.00    -0.065 C 
ATOM     25  C   UNL     1     168.727 178.579 180.154  1.00  0.00     0.014 C 
ATOM     26  C   UNL     1     169.409 176.502 181.445  1.00  0.00     0.016 C 
ATOM     27  C   UNL     1     167.652 176.177 178.758  1.00  0.00     0.063 C 
ATOM     28  C   UNL     1     167.218 178.308 180.032  1.00  0.00     0.033 C 
ATOM     29  C   UNL     1     166.891 177.505 178.766  1.00  0.00     0.118 C 
BRANCH  29  30
ATOM     30  O   UNL     1     167.228 178.247 177.621  1.00  0.00    -0.393 OA
ATOM     31  H   UNL     1     167.350 179.189 177.907  1.00  0.00     0.210 HD
ENDBRANCH  29  30
ENDBRANCH   9  11
ENDBRANCH   1   9
TORSDOF 7
ENDMDL
MODEL 7
REMARK VINA RESULT:    -5.536      1.992      4.869
REMARK INTER + INTRA:         -10.724
REMARK INTER:                  -7.961
REMARK INTRA:                  -2.763
REMARK UNBOUND:                -3.085
REMARK SMILES CC[C@H](CC[C@H](C)[C@@H]1CC[C@H]2[C@@H]3CC=C4C[C@H](O)CC[C@]4(C)[C@H]3CC[C@@]21C)C(C)C
REMARK SMILES IDX 5 1 4 2 3 3 2 4 1 5 28 6 29 7 30 8 6 9 7 10 8 11 9 12 26 13
REMARK SMILES IDX 10 14 11 15 25 16 27 17 12 18 24 19 23 20 13 21 21 22 14 23
REMARK SMILES IDX 15 24 20 25 22 26 16 27 19 28 17 29 18 30
REMARK H PARENT 18 31
REMARK Flexibility Score: inf
ROOT
ATOM      1  C   UNL     1     161.964 175.392 181.379  1.00  0.00     0.004 C 
ENDROOT
BRANCH   1   2
ATOM      2  C   UNL     1     161.361 176.705 180.836  1.00  0.00     0.004 C 
BRANCH   2   3
ATOM      3  C   UNL     1     162.307 177.507 179.893  1.00  0.00    -0.009 C 
BRANCH   3   4
ATOM      4  C   UNL     1     161.614 177.750 178.514  1.00  0.00     0.000 C 
ATOM      5  C   UNL     1     162.545 178.433 177.512  1.00  0.00     0.004 C 
ENDBRANCH   3   4
BRANCH   3   6
ATOM      6  C   UNL     1     162.865 178.821 180.541  1.00  0.00    -0.014 C 
ATOM      7  C   UNL     1     161.740 179.795 180.925  1.00  0.00     0.007 C 
ATOM      8  C   UNL     1     163.806 178.582 181.738  1.00  0.00     0.007 C 
ENDBRANCH   3   6
ENDBRANCH   2   3
ENDBRANCH   1   2
BRANCH   1   9
ATOM      9  C   UNL     1     161.131 174.128 180.972  1.00  0.00    -0.011 C 
ATOM     10  C   UNL     1     160.729 173.385 182.272  1.00  0.00     0.008 C 
BRANCH   9  11
ATOM     11  C   UNL     1     161.926 173.212 179.971  1.00  0.00    -0.002 C 
ATOM     12  C   UNL     1     163.473 173.333 180.166  1.00  0.00     0.005 C 
ATOM     13  C   UNL     1     161.732 173.446 178.423  1.00  0.00    -0.026 C 
ATOM     14  C   UNL     1     164.100 173.687 178.820  1.00  0.00     0.005 C 
ATOM     15  C   UNL     1     162.949 174.313 178.066  1.00  0.00    -0.001 C 
ATOM     16  C   UNL     1     160.483 174.220 177.930  1.00  0.00     0.007 C 
ATOM     17  C   UNL     1     161.757 172.038 177.746  1.00  0.00     0.012 C 
ATOM     18  C   UNL     1     163.131 174.543 176.548  1.00  0.00     0.000 C 
ATOM     19  C   UNL     1     160.541 174.505 176.413  1.00  0.00     0.005 C 
ATOM     20  C   UNL     1     161.854 175.227 175.977  1.00  0.00     0.003 C 
ATOM     21  C   UNL     1     164.348 175.449 176.288  1.00  0.00     0.031 C 
ATOM     22  C   UNL     1     161.971 175.465 174.422  1.00  0.00    -0.008 C 
ATOM     23  C   UNL     1     164.411 175.962 174.879  1.00  0.00    -0.027 C 
ATOM     24  C   UNL     1     163.329 176.102 174.082  1.00  0.00    -0.065 C 
ATOM     25  C   UNL     1     160.829 176.428 173.968  1.00  0.00     0.014 C 
ATOM     26  C   UNL     1     161.857 174.132 173.630  1.00  0.00     0.016 C 
ATOM     27  C   UNL     1     163.516 176.746 172.722  1.00  0.00     0.063 C 
ATOM     28  C   UNL     1     161.014 176.992 172.549  1.00  0.00     0.033 C 
ATOM     29  C   UNL     1     162.365 177.701 172.397  1.00  0.00     0.118 C 
BRANCH  29  30
ATOM     30  O   UNL     1     162.426 178.818 173.249  1.00  0.00    -0.393 OA
ATOM     31  H   UNL     1     161.982 179.571 172.779  1.00  0.00     0.210 HD
ENDBRANCH  29  30
ENDBRANCH   9  11
ENDBRANCH   1   9
TORSDOF 7
ENDMDL
MODEL 8
REMARK VINA RESULT:    -5.487      8.942     11.417
REMARK INTER + INTRA:         -10.657
REMARK INTER:                  -7.697
REMARK INTRA:                  -2.960
REMARK UNBOUND:                -3.085
REMARK SMILES CC[C@H](CC[C@H](C)[C@@H]1CC[C@H]2[C@@H]3CC=C4C[C@H](O)CC[C@]4(C)[C@H]3CC[C@@]21C)C(C)C
REMARK SMILES IDX 5 1 4 2 3 3 2 4 1 5 28 6 29 7 30 8 6 9 7 10 8 11 9 12 26 13
REMARK SMILES IDX 10 14 11 15 25 16 27 17 12 18 24 19 23 20 13 21 21 22 14 23
REMARK SMILES IDX 15 24 20 25 22 26 16 27 19 28 17 29 18 30
REMARK H PARENT 18 31
REMARK Flexibility Score: inf
ROOT
ATOM      1  C   UNL     1     172.664 178.461 181.386  1.00  0.00     0.004 C 
ENDROOT
BRANCH   1   2
ATOM      2  C   UNL     1     173.715 179.390 180.741  1.00  0.00     0.004 C 
BRANCH   2   3
ATOM      3  C   UNL     1     174.674 178.679 179.739  1.00  0.00    -0.009 C 
BRANCH   3   4
ATOM      4  C   UNL     1     174.960 179.609 178.516  1.00  0.00     0.000 C 
ATOM      5  C   UNL     1     175.842 178.929 177.468  1.00  0.00     0.004 C 
ENDBRANCH   3   4
BRANCH   3   6
ATOM      6  C   UNL     1     175.979 178.127 180.409  1.00  0.00    -0.014 C 
ATOM      7  C   UNL     1     176.456 179.024 181.563  1.00  0.00     0.007 C 
ATOM      8  C   UNL     1     175.877 176.660 180.871  1.00  0.00     0.007 C 
ENDBRANCH   3   6
ENDBRANCH   2   3
ENDBRANCH   1   2
BRANCH   1   9
ATOM      9  C   UNL     1     171.197 178.836 180.982  1.00  0.00    -0.011 C 
ATOM     10  C   UNL     1     170.361 178.952 182.283  1.00  0.00     0.008 C 
BRANCH   9  11
ATOM     11  C   UNL     1     170.596 177.796 179.967  1.00  0.00    -0.002 C 
ATOM     12  C   UNL     1     171.191 176.364 180.171  1.00  0.00     0.005 C 
ATOM     13  C   UNL     1     170.788 178.057 178.423  1.00  0.00    -0.026 C 
ATOM     14  C   UNL     1     171.751 175.883 178.834  1.00  0.00     0.005 C 
ATOM     15  C   UNL     1     172.000 177.173 178.087  1.00  0.00    -0.001 C 
ATOM     16  C   UNL     1     171.142 179.487 177.940  1.00  0.00     0.007 C 
ATOM     17  C   UNL     1     169.473 177.594 177.718  1.00  0.00     0.012 C 
ATOM     18  C   UNL     1     172.306 177.076 176.575  1.00  0.00     0.000 C 
ATOM     19  C   UNL     1     171.461 179.524 176.429  1.00  0.00     0.005 C 
ATOM     20  C   UNL     1     172.567 178.505 176.013  1.00  0.00     0.003 C 
ATOM     21  C   UNL     1     173.552 176.206 176.339  1.00  0.00     0.031 C 
ATOM     22  C   UNL     1     172.860 178.472 174.463  1.00  0.00    -0.008 C 
ATOM     23  C   UNL     1     174.087 176.310 174.940  1.00  0.00    -0.027 C 
ATOM     24  C   UNL     1     173.897 177.383 174.141  1.00  0.00    -0.065 C 
ATOM     25  C   UNL     1     173.426 179.859 174.024  1.00  0.00     0.014 C 
ATOM     26  C   UNL     1     171.575 178.165 173.644  1.00  0.00     0.016 C 
ATOM     27  C   UNL     1     174.594 177.411 172.795  1.00  0.00     0.063 C 
ATOM     28  C   UNL     1     174.047 179.864 172.617  1.00  0.00     0.033 C 
ATOM     29  C   UNL     1     175.147 178.803 172.485  1.00  0.00     0.118 C 
BRANCH  29  30
ATOM     30  O   UNL     1     176.209 179.094 173.359  1.00  0.00    -0.393 OA
ATOM     31  H   UNL     1     177.036 178.733 172.946  1.00  0.00     0.210 HD
ENDBRANCH  29  30
ENDBRANCH   9  11
ENDBRANCH   1   9
TORSDOF 7
ENDMDL
MODEL 9
REMARK VINA RESULT:    -5.483      8.247     10.471
REMARK INTER + INTRA:         -10.652
REMARK INTER:                  -8.037
REMARK INTRA:                  -2.616
REMARK UNBOUND:                -3.085
REMARK SMILES CC[C@H](CC[C@H](C)[C@@H]1CC[C@H]2[C@@H]3CC=C4C[C@H](O)CC[C@]4(C)[C@H]3CC[C@@]21C)C(C)C
REMARK SMILES IDX 5 1 4 2 3 3 2 4 1 5 28 6 29 7 30 8 6 9 7 10 8 11 9 12 26 13
REMARK SMILES IDX 10 14 11 15 25 16 27 17 12 18 24 19 23 20 13 21 21 22 14 23
REMARK SMILES IDX 15 24 20 25 22 26 16 27 19 28 17 29 18 30
REMARK H PARENT 18 31
REMARK Flexibility Score: inf
ROOT
ATOM      1  C   UNL     1     173.538 179.259 181.141  1.00  0.00     0.004 C 
ENDROOT
BRANCH   1   2
ATOM      2  C   UNL     1     172.087 179.780 181.075  1.00  0.00     0.004 C 
BRANCH   2   3
ATOM      3  C   UNL     1     171.017 178.678 180.813  1.00  0.00    -0.009 C 
BRANCH   3   4
ATOM      4  C   UNL     1     170.084 178.528 182.056  1.00  0.00     0.000 C 
ATOM      5  C   UNL     1     170.092 177.105 182.616  1.00  0.00     0.004 C 
ENDBRANCH   3   4
BRANCH   3   6
ATOM      6  C   UNL     1     170.229 178.879 179.473  1.00  0.00    -0.014 C 
ATOM      7  C   UNL     1     170.981 179.799 178.497  1.00  0.00     0.007 C 
ATOM      8  C   UNL     1     169.827 177.565 178.776  1.00  0.00     0.007 C 
ENDBRANCH   3   6
ENDBRANCH   2   3
ENDBRANCH   1   2
BRANCH   1   9
ATOM      9  C   UNL     1     173.720 177.881 180.417  1.00  0.00    -0.011 C 
ATOM     10  C   UNL     1     174.098 176.826 181.489  1.00  0.00     0.008 C 
BRANCH   9  11
ATOM     11  C   UNL     1     174.780 177.974 179.259  1.00  0.00    -0.002 C 
ATOM     12  C   UNL     1     175.264 179.442 179.021  1.00  0.00     0.005 C 
ATOM     13  C   UNL     1     174.362 177.487 177.817  1.00  0.00    -0.026 C 
ATOM     14  C   UNL     1     175.059 179.782 177.547  1.00  0.00     0.005 C 
ATOM     15  C   UNL     1     173.987 178.805 177.121  1.00  0.00    -0.001 C 
ATOM     16  C   UNL     1     173.139 176.547 177.665  1.00  0.00     0.007 C 
ATOM     17  C   UNL     1     175.616 176.794 177.192  1.00  0.00     0.012 C 
ATOM     18  C   UNL     1     173.716 178.658 175.606  1.00  0.00     0.000 C 
ATOM     19  C   UNL     1     172.772 176.312 176.184  1.00  0.00     0.005 C 
ATOM     20  C   UNL     1     172.559 177.638 175.389  1.00  0.00     0.003 C 
ATOM     21  C   UNL     1     173.313 180.015 175.003  1.00  0.00     0.031 C 
ATOM     22  C   UNL     1     172.254 177.427 173.856  1.00  0.00    -0.008 C 
ATOM     23  C   UNL     1     172.744 179.899 173.618  1.00  0.00    -0.027 C 
ATOM     24  C   UNL     1     172.144 178.786 173.143  1.00  0.00    -0.065 C 
ATOM     25  C   UNL     1     170.899 176.665 173.709  1.00  0.00     0.014 C 
ATOM     26  C   UNL     1     173.376 176.609 173.157  1.00  0.00     0.016 C 
ATOM     27  C   UNL     1     171.506 178.842 171.769  1.00  0.00     0.063 C 
ATOM     28  C   UNL     1     170.328 176.674 172.280  1.00  0.00     0.033 C 
ATOM     29  C   UNL     1     170.166 178.103 171.748  1.00  0.00     0.118 C 
BRANCH  29  30
ATOM     30  O   UNL     1     169.228 178.806 172.525  1.00  0.00    -0.393 OA
ATOM     31  H   UNL     1     169.594 178.863 173.446  1.00  0.00     0.210 HD
ENDBRANCH  29  30
ENDBRANCH   9  11
ENDBRANCH   1   9
TORSDOF 7
ENDMDL
