MODEL 1
REMARK VINA RESULT:    -0.638      0.000      0.000
REMARK INTER + INTRA:          -1.414
REMARK INTER:                  -0.881
REMARK INTRA:                  -0.534
REMARK UNBOUND:                -0.534
REMARK SMILES CC[C@H](CC[C@H](C)[C@@H]1CC[C@@H]2[C@@H]3CC=C4C[C@@H](O)CC[C@]4(C)[C@@H]3CC[C@]21C)C(C)C
REMARK SMILES IDX 5 1 4 2 3 3 2 4 1 5 28 6 29 7 30 8 6 9 7 10 8 11 9 12 26 13
REMARK SMILES IDX 10 14 11 15 25 16 27 17 12 18 24 19 23 20 13 21 21 22 14 23
REMARK SMILES IDX 15 24 20 25 22 26 16 27 19 28 17 29 18 30
REMARK H PARENT 18 31
REMARK Flexibility Score: inf
ROOT
ATOM      1  C   UNL     1       9.118  -5.236  14.609  1.00  0.00     0.004 C 
ENDROOT
BRANCH   1   2
ATOM      2  C   UNL     1       8.927  -5.835  16.022  1.00  0.00     0.004 C 
BRANCH   2   3
ATOM      3  C   UNL     1       7.468  -6.180  16.447  1.00  0.00    -0.009 C 
BRANCH   3   4
ATOM      4  C   UNL     1       6.688  -7.120  15.483  1.00  0.00     0.000 C 
ATOM      5  C   UNL     1       5.725  -6.442  14.506  1.00  0.00     0.004 C 
ENDBRANCH   3   4
BRANCH   3   6
ATOM      6  C   UNL     1       7.280  -6.465  17.983  1.00  0.00    -0.014 C 
ATOM      7  C   UNL     1       8.515  -6.008  18.787  1.00  0.00     0.007 C 
ATOM      8  C   UNL     1       6.021  -5.843  18.621  1.00  0.00     0.007 C 
ENDBRANCH   3   6
ENDBRANCH   2   3
ENDBRANCH   1   2
BRANCH   1   9
ATOM      9  C   UNL     1       9.527  -3.735  14.599  1.00  0.00    -0.011 C 
ATOM     10  C   UNL     1      10.336  -3.398  15.868  1.00  0.00     0.008 C 
BRANCH   9  11
ATOM     11  C   UNL     1       8.312  -2.767  14.389  1.00  0.00    -0.002 C 
ATOM     12  C   UNL     1       8.635  -1.610  13.404  1.00  0.00     0.005 C 
ATOM     13  C   UNL     1       7.716  -2.033  15.636  1.00  0.00    -0.026 C 
ATOM     14  C   UNL     1       7.767  -0.407  13.814  1.00  0.00     0.005 C 
ATOM     15  C   UNL     1       6.878  -0.959  14.916  1.00  0.00    -0.001 C 
ATOM     16  C   UNL     1       6.735  -2.864  16.494  1.00  0.00     0.007 C 
ATOM     17  C   UNL     1       8.858  -1.469  16.536  1.00  0.00     0.012 C 
ATOM     18  C   UNL     1       6.072   0.016  15.807  1.00  0.00     0.000 C 
ATOM     19  C   UNL     1       5.931  -1.975  17.474  1.00  0.00     0.005 C 
ATOM     20  C   UNL     1       5.169  -0.791  16.798  1.00  0.00     0.003 C 
ATOM     21  C   UNL     1       6.896   1.167  16.437  1.00  0.00     0.031 C 
ATOM     22  C   UNL     1       4.413   0.168  17.801  1.00  0.00    -0.008 C 
ATOM     23  C   UNL     1       6.486   1.579  17.825  1.00  0.00    -0.027 C 
ATOM     24  C   UNL     1       5.388   1.136  18.469  1.00  0.00    -0.065 C 
ATOM     25  C   UNL     1       3.655  -0.657  18.898  1.00  0.00     0.014 C 
ATOM     26  C   UNL     1       3.375   1.006  17.005  1.00  0.00     0.016 C 
ATOM     27  C   UNL     1       4.957   1.877  19.728  1.00  0.00     0.063 C 
ATOM     28  C   UNL     1       3.098   0.199  20.044  1.00  0.00     0.033 C 
ATOM     29  C   UNL     1       4.237   0.970  20.728  1.00  0.00     0.118 C 
BRANCH  29  30
ATOM     30  O   UNL     1       3.721   1.758  21.770  1.00  0.00    -0.393 OA
ATOM     31  H   UNL     1       4.197   1.485  22.598  1.00  0.00     0.210 HD
ENDBRANCH  29  30
ENDBRANCH   9  11
ENDBRANCH   1   9
TORSDOF 7
ENDMDL
MODEL 2
REMARK VINA RESULT:    -0.289      0.476      1.509
REMARK INTER + INTRA:          -0.932
REMARK INTER:                  -0.748
REMARK INTRA:                  -0.184
REMARK UNBOUND:                -0.534
REMARK SMILES CC[C@H](CC[C@H](C)[C@@H]1CC[C@@H]2[C@@H]3CC=C4C[C@@H](O)CC[C@]4(C)[C@@H]3CC[C@]21C)C(C)C
REMARK SMILES IDX 5 1 4 2 3 3 2 4 1 5 28 6 29 7 30 8 6 9 7 10 8 11 9 12 26 13
REMARK SMILES IDX 10 14 11 15 25 16 27 17 12 18 24 19 23 20 13 21 21 22 14 23
REMARK SMILES IDX 15 24 20 25 22 26 16 27 19 28 17 29 18 30
REMARK H PARENT 18 31
REMARK Flexibility Score: inf
ROOT
ATOM      1  C   UNL     1       9.034  -5.150  14.984  1.00  0.00     0.004 C 
ENDROOT
BRANCH   1   2
ATOM      2  C   UNL     1       8.999  -5.443  16.503  1.00  0.00     0.004 C 
BRANCH   2   3
ATOM      3  C   UNL     1       8.008  -6.544  16.983  1.00  0.00    -0.009 C 
BRANCH   3   4
ATOM      4  C   UNL     1       8.265  -7.109  18.410  1.00  0.00     0.000 C 
ATOM      5  C   UNL     1       8.482  -6.076  19.518  1.00  0.00     0.004 C 
ENDBRANCH   3   4
BRANCH   3   6
ATOM      6  C   UNL     1       6.501  -6.281  16.612  1.00  0.00    -0.014 C 
ATOM      7  C   UNL     1       6.093  -7.078  15.356  1.00  0.00     0.007 C 
ATOM      8  C   UNL     1       5.483  -6.573  17.732  1.00  0.00     0.007 C 
ENDBRANCH   3   6
ENDBRANCH   2   3
ENDBRANCH   1   2
BRANCH   1   9
ATOM      9  C   UNL     1       9.466  -3.701  14.619  1.00  0.00    -0.011 C 
ATOM     10  C   UNL     1      10.471  -3.170  15.662  1.00  0.00     0.008 C 
BRANCH   9  11
ATOM     11  C   UNL     1       8.252  -2.731  14.409  1.00  0.00    -0.002 C 
ATOM     12  C   UNL     1       8.577  -1.574  13.424  1.00  0.00     0.005 C 
ATOM     13  C   UNL     1       7.658  -1.996  15.656  1.00  0.00    -0.026 C 
ATOM     14  C   UNL     1       7.712  -0.370  13.833  1.00  0.00     0.005 C 
ATOM     15  C   UNL     1       6.822  -0.921  14.936  1.00  0.00    -0.001 C 
ATOM     16  C   UNL     1       6.676  -2.824  16.514  1.00  0.00     0.007 C 
ATOM     17  C   UNL     1       8.802  -1.433  16.556  1.00  0.00     0.012 C 
ATOM     18  C   UNL     1       6.017   0.056  15.826  1.00  0.00     0.000 C 
ATOM     19  C   UNL     1       5.874  -1.933  17.494  1.00  0.00     0.005 C 
ATOM     20  C   UNL     1       5.113  -0.748  16.818  1.00  0.00     0.003 C 
ATOM     21  C   UNL     1       6.843   1.206  16.456  1.00  0.00     0.031 C 
ATOM     22  C   UNL     1       4.359   0.212  17.820  1.00  0.00    -0.008 C 
ATOM     23  C   UNL     1       6.435   1.619  17.844  1.00  0.00    -0.027 C 
ATOM     24  C   UNL     1       5.335   1.179  18.489  1.00  0.00    -0.065 C 
ATOM     25  C   UNL     1       3.600  -0.611  18.917  1.00  0.00     0.014 C 
ATOM     26  C   UNL     1       3.323   1.052  17.024  1.00  0.00     0.016 C 
ATOM     27  C   UNL     1       4.906   1.921  19.747  1.00  0.00     0.063 C 
ATOM     28  C   UNL     1       3.044   0.246  20.063  1.00  0.00     0.033 C 
ATOM     29  C   UNL     1       4.184   1.015  20.747  1.00  0.00     0.118 C 
BRANCH  29  30
ATOM     30  O   UNL     1       3.669   1.805  21.789  1.00  0.00    -0.393 OA
ATOM     31  H   UNL     1       3.215   2.579  21.363  1.00  0.00     0.210 HD
ENDBRANCH  29  30
ENDBRANCH   9  11
ENDBRANCH   1   9
TORSDOF 7
ENDMDL
