MODEL 1
REMARK VINA RESULT:    -7.447      0.000      0.000
REMARK INTER + INTRA:         -11.430
REMARK INTER:                 -10.277
REMARK INTRA:                  -1.153
REMARK UNBOUND:                -1.153
REMARK SMILES CC[C@@H](CC[C@@H](C)[C@@H]1CC[C@@H]2[C@@H]3CC=C4C[C@H](O)CC[C@]4(C)[C@@H]3CC[C@@]21C)C(C)C
REMARK SMILES IDX 5 1 4 2 3 3 2 4 1 5 28 6 29 7 30 8 6 9 7 10 8 11 9 12 26 13
REMARK SMILES IDX 10 14 11 15 25 16 27 17 12 18 24 19 23 20 13 21 21 22 14 23
REMARK SMILES IDX 15 24 20 25 22 26 16 27 19 28 17 29 18 30
REMARK H PARENT 18 31
REMARK Flexibility Score: inf
ROOT
ATOM      1  C   UNL     1      13.318 -15.872  31.741  1.00  0.00     0.004 C 
ENDROOT
BRANCH   1   2
ATOM      2  C   UNL     1      12.811 -17.320  31.594  1.00  0.00     0.004 C 
BRANCH   2   3
ATOM      3  C   UNL     1      11.259 -17.441  31.654  1.00  0.00    -0.009 C 
BRANCH   3   4
ATOM      4  C   UNL     1      10.634 -16.370  32.587  1.00  0.00     0.000 C 
ATOM      5  C   UNL     1       9.701 -15.399  31.861  1.00  0.00     0.004 C 
ENDBRANCH   3   4
BRANCH   3   6
ATOM      6  C   UNL     1      10.836 -18.896  32.061  1.00  0.00    -0.014 C 
ATOM      7  C   UNL     1       9.939 -19.570  31.012  1.00  0.00     0.007 C 
ATOM      8  C   UNL     1      10.189 -18.964  33.455  1.00  0.00     0.007 C 
ENDBRANCH   3   6
ENDBRANCH   2   3
ENDBRANCH   1   2
BRANCH   1   9
ATOM      9  C   UNL     1      13.939 -15.260  30.437  1.00  0.00    -0.011 C 
ATOM     10  C   UNL     1      14.736 -16.381  29.717  1.00  0.00     0.008 C 
BRANCH   9  11
ATOM     11  C   UNL     1      12.907 -14.552  29.462  1.00  0.00    -0.002 C 
ATOM     12  C   UNL     1      12.075 -15.544  28.620  1.00  0.00     0.005 C 
ATOM     13  C   UNL     1      13.459 -13.528  28.385  1.00  0.00    -0.026 C 
ATOM     14  C   UNL     1      12.782 -15.671  27.296  1.00  0.00     0.005 C 
ATOM     15  C   UNL     1      13.310 -14.270  27.011  1.00  0.00    -0.001 C 
ATOM     16  C   UNL     1      14.916 -13.031  28.590  1.00  0.00     0.007 C 
ATOM     17  C   UNL     1      12.540 -12.271  28.395  1.00  0.00     0.012 C 
ATOM     18  C   UNL     1      14.544 -14.223  26.060  1.00  0.00     0.000 C 
ATOM     19  C   UNL     1      15.504 -12.254  27.394  1.00  0.00     0.005 C 
ATOM     20  C   UNL     1      15.095 -12.780  25.982  1.00  0.00     0.003 C 
ATOM     21  C   UNL     1      15.664 -15.261  26.341  1.00  0.00     0.031 C 
ATOM     22  C   UNL     1      16.250 -12.682  24.917  1.00  0.00    -0.008 C 
ATOM     23  C   UNL     1      17.050 -14.846  25.897  1.00  0.00    -0.027 C 
ATOM     24  C   UNL     1      17.348 -13.671  25.296  1.00  0.00    -0.065 C 
ATOM     25  C   UNL     1      16.792 -11.212  24.849  1.00  0.00     0.014 C 
ATOM     26  C   UNL     1      15.714 -13.055  23.502  1.00  0.00     0.016 C 
ATOM     27  C   UNL     1      18.750 -13.470  24.759  1.00  0.00     0.063 C 
ATOM     28  C   UNL     1      18.157 -11.091  24.161  1.00  0.00     0.033 C 
ATOM     29  C   UNL     1      19.199 -12.004  24.823  1.00  0.00     0.118 C 
BRANCH  29  30
ATOM     30  O   UNL     1      19.413 -11.622  26.159  1.00  0.00    -0.393 OA
ATOM     31  H   UNL     1      19.525 -12.461  26.680  1.00  0.00     0.210 HD
ENDBRANCH  29  30
ENDBRANCH   9  11
ENDBRANCH   1   9
TORSDOF 7
ENDMDL
MODEL 2
REMARK VINA RESULT:    -7.287      1.733      3.245
REMARK INTER + INTRA:         -11.209
REMARK INTER:                 -10.068
REMARK INTRA:                  -1.140
REMARK UNBOUND:                -1.153
REMARK SMILES CC[C@@H](CC[C@@H](C)[C@@H]1CC[C@@H]2[C@@H]3CC=C4C[C@H](O)CC[C@]4(C)[C@@H]3CC[C@@]21C)C(C)C
REMARK SMILES IDX 5 1 4 2 3 3 2 4 1 5 28 6 29 7 30 8 6 9 7 10 8 11 9 12 26 13
REMARK SMILES IDX 10 14 11 15 25 16 27 17 12 18 24 19 23 20 13 21 21 22 14 23
REMARK SMILES IDX 15 24 20 25 22 26 16 27 19 28 17 29 18 30
REMARK H PARENT 18 31
REMARK Flexibility Score: inf
ROOT
ATOM      1  C   UNL     1      12.530 -15.580  27.977  1.00  0.00     0.004 C 
ENDROOT
BRANCH   1   2
ATOM      2  C   UNL     1      12.013 -14.810  29.207  1.00  0.00     0.004 C 
BRANCH   2   3
ATOM      3  C   UNL     1      11.663 -15.732  30.414  1.00  0.00    -0.009 C 
BRANCH   3   4
ATOM      4  C   UNL     1      10.448 -15.193  31.215  1.00  0.00     0.000 C 
ATOM      5  C   UNL     1      10.312 -15.814  32.606  1.00  0.00     0.004 C 
ENDBRANCH   3   4
BRANCH   3   6
ATOM      6  C   UNL     1      12.921 -15.949  31.325  1.00  0.00    -0.014 C 
ATOM      7  C   UNL     1      14.099 -15.042  30.938  1.00  0.00     0.007 C 
ATOM      8  C   UNL     1      13.366 -17.420  31.390  1.00  0.00     0.007 C 
ENDBRANCH   3   6
ENDBRANCH   2   3
ENDBRANCH   1   2
BRANCH   1   9
ATOM      9  C   UNL     1      12.606 -14.735  26.659  1.00  0.00    -0.011 C 
ATOM     10  C   UNL     1      11.300 -14.983  25.857  1.00  0.00     0.008 C 
BRANCH   9  11
ATOM     11  C   UNL     1      12.886 -13.186  26.862  1.00  0.00    -0.002 C 
ATOM     12  C   UNL     1      12.198 -12.293  25.806  1.00  0.00     0.005 C 
ATOM     13  C   UNL     1      14.388 -12.678  26.852  1.00  0.00    -0.026 C 
ATOM     14  C   UNL     1      13.228 -12.035  24.736  1.00  0.00     0.005 C 
ATOM     15  C   UNL     1      14.542 -11.903  25.497  1.00  0.00    -0.001 C 
ATOM     16  C   UNL     1      15.485 -13.768  26.994  1.00  0.00     0.007 C 
ATOM     17  C   UNL     1      14.571 -11.685  28.037  1.00  0.00     0.012 C 
ATOM     18  C   UNL     1      15.813 -12.225  24.654  1.00  0.00     0.000 C 
ATOM     19  C   UNL     1      16.919 -13.275  26.716  1.00  0.00     0.005 C 
ATOM     20  C   UNL     1      17.063 -12.228  25.565  1.00  0.00     0.003 C 
ATOM     21  C   UNL     1      15.739 -13.493  23.761  1.00  0.00     0.031 C 
ATOM     22  C   UNL     1      18.373 -12.408  24.713  1.00  0.00    -0.008 C 
ATOM     23  C   UNL     1      17.070 -14.150  23.466  1.00  0.00    -0.027 C 
ATOM     24  C   UNL     1      18.265 -13.708  23.921  1.00  0.00    -0.065 C 
ATOM     25  C   UNL     1      19.628 -12.405  25.653  1.00  0.00     0.014 C 
ATOM     26  C   UNL     1      18.530 -11.228  23.708  1.00  0.00     0.016 C 
ATOM     27  C   UNL     1      19.525 -14.373  23.404  1.00  0.00     0.063 C 
ATOM     28  C   UNL     1      20.893 -12.968  24.993  1.00  0.00     0.033 C 
ATOM     29  C   UNL     1      20.653 -14.382  24.443  1.00  0.00     0.118 C 
BRANCH  29  30
ATOM     30  O   UNL     1      20.341 -15.271  25.487  1.00  0.00    -0.393 OA
ATOM     31  H   UNL     1      19.429 -15.618  25.302  1.00  0.00     0.210 HD
ENDBRANCH  29  30
ENDBRANCH   9  11
ENDBRANCH   1   9
TORSDOF 7
ENDMDL
MODEL 3
REMARK VINA RESULT:    -7.199      1.304      2.251
REMARK INTER + INTRA:         -11.087
REMARK INTER:                 -10.319
REMARK INTRA:                  -0.768
REMARK UNBOUND:                -1.153
REMARK SMILES CC[C@@H](CC[C@@H](C)[C@@H]1CC[C@@H]2[C@@H]3CC=C4C[C@H](O)CC[C@]4(C)[C@@H]3CC[C@@]21C)C(C)C
REMARK SMILES IDX 5 1 4 2 3 3 2 4 1 5 28 6 29 7 30 8 6 9 7 10 8 11 9 12 26 13
REMARK SMILES IDX 10 14 11 15 25 16 27 17 12 18 24 19 23 20 13 21 21 22 14 23
REMARK SMILES IDX 15 24 20 25 22 26 16 27 19 28 17 29 18 30
REMARK H PARENT 18 31
REMARK Flexibility Score: inf
ROOT
ATOM      1  C   UNL     1      11.465 -14.492  29.375  1.00  0.00     0.004 C 
ENDROOT
BRANCH   1   2
ATOM      2  C   UNL     1      11.801 -15.800  30.116  1.00  0.00     0.004 C 
BRANCH   2   3
ATOM      3  C   UNL     1      12.010 -15.607  31.649  1.00  0.00    -0.009 C 
BRANCH   3   4
ATOM      4  C   UNL     1      13.417 -16.080  32.101  1.00  0.00     0.000 C 
ATOM      5  C   UNL     1      13.992 -17.199  31.231  1.00  0.00     0.004 C 
ENDBRANCH   3   4
BRANCH   3   6
ATOM      6  C   UNL     1      10.863 -16.313  32.453  1.00  0.00    -0.014 C 
ATOM      7  C   UNL     1      10.666 -17.780  32.043  1.00  0.00     0.007 C 
ATOM      8  C   UNL     1       9.531 -15.547  32.393  1.00  0.00     0.007 C 
ENDBRANCH   3   6
ENDBRANCH   2   3
ENDBRANCH   1   2
BRANCH   1   9
ATOM      9  C   UNL     1      12.596 -13.968  28.424  1.00  0.00    -0.011 C 
ATOM     10  C   UNL     1      13.756 -14.999  28.449  1.00  0.00     0.008 C 
BRANCH   9  11
ATOM     11  C   UNL     1      12.137 -13.636  26.942  1.00  0.00    -0.002 C 
ATOM     12  C   UNL     1      11.746 -14.886  26.124  1.00  0.00     0.005 C 
ATOM     13  C   UNL     1      13.146 -12.872  25.987  1.00  0.00    -0.026 C 
ATOM     14  C   UNL     1      12.971 -15.277  25.339  1.00  0.00     0.005 C 
ATOM     15  C   UNL     1      13.611 -13.950  24.947  1.00  0.00    -0.001 C 
ATOM     16  C   UNL     1      14.367 -12.199  26.671  1.00  0.00     0.007 C 
ATOM     17  C   UNL     1      12.358 -11.750  25.248  1.00  0.00     0.012 C 
ATOM     18  C   UNL     1      15.143 -14.028  24.667  1.00  0.00     0.000 C 
ATOM     19  C   UNL     1      15.454 -11.700  25.698  1.00  0.00     0.005 C 
ATOM     20  C   UNL     1      15.712 -12.606  24.452  1.00  0.00     0.003 C 
ATOM     21  C   UNL     1      15.984 -14.846  25.684  1.00  0.00     0.031 C 
ATOM     22  C   UNL     1      17.225 -12.670  24.025  1.00  0.00    -0.008 C 
ATOM     23  C   UNL     1      17.433 -14.425  25.804  1.00  0.00    -0.027 C 
ATOM     24  C   UNL     1      18.004 -13.418  25.103  1.00  0.00    -0.065 C 
ATOM     25  C   UNL     1      17.782 -11.220  23.808  1.00  0.00     0.014 C 
ATOM     26  C   UNL     1      17.375 -13.442  22.680  1.00  0.00     0.016 C 
ATOM     27  C   UNL     1      19.503 -13.225  25.208  1.00  0.00     0.063 C 
ATOM     28  C   UNL     1      19.314 -11.146  23.789  1.00  0.00     0.033 C 
ATOM     29  C   UNL     1      19.918 -11.755  25.063  1.00  0.00     0.118 C 
BRANCH  29  30
ATOM     30  O   UNL     1      19.516 -11.026  26.197  1.00  0.00    -0.393 OA
ATOM     31  H   UNL     1      20.232 -11.139  26.876  1.00  0.00     0.210 HD
ENDBRANCH  29  30
ENDBRANCH   9  11
ENDBRANCH   1   9
TORSDOF 7
ENDMDL
MODEL 4
REMARK VINA RESULT:    -7.095      2.142      4.364
REMARK INTER + INTRA:         -10.945
REMARK INTER:                  -9.454
REMARK INTRA:                  -1.491
REMARK UNBOUND:                -1.153
REMARK SMILES CC[C@@H](CC[C@@H](C)[C@@H]1CC[C@@H]2[C@@H]3CC=C4C[C@H](O)CC[C@]4(C)[C@@H]3CC[C@@]21C)C(C)C
REMARK SMILES IDX 5 1 4 2 3 3 2 4 1 5 28 6 29 7 30 8 6 9 7 10 8 11 9 12 26 13
REMARK SMILES IDX 10 14 11 15 25 16 27 17 12 18 24 19 23 20 13 21 21 22 14 23
REMARK SMILES IDX 15 24 20 25 22 26 16 27 19 28 17 29 18 30
REMARK H PARENT 18 31
REMARK Flexibility Score: inf
ROOT
ATOM      1  C   UNL     1      12.598 -12.631  28.204  1.00  0.00     0.004 C 
ENDROOT
BRANCH   1   2
ATOM      2  C   UNL     1      12.151 -13.892  28.969  1.00  0.00     0.004 C 
BRANCH   2   3
ATOM      3  C   UNL     1      13.324 -14.633  29.680  1.00  0.00    -0.009 C 
BRANCH   3   4
ATOM      4  C   UNL     1      14.032 -15.634  28.728  1.00  0.00     0.000 C 
ATOM      5  C   UNL     1      13.183 -16.025  27.516  1.00  0.00     0.004 C 
ENDBRANCH   3   4
BRANCH   3   6
ATOM      6  C   UNL     1      12.821 -15.325  30.995  1.00  0.00    -0.014 C 
ATOM      7  C   UNL     1      13.626 -16.584  31.349  1.00  0.00     0.007 C 
ATOM      8  C   UNL     1      11.314 -15.631  30.971  1.00  0.00     0.007 C 
ENDBRANCH   3   6
ENDBRANCH   2   3
ENDBRANCH   1   2
BRANCH   1   9
ATOM      9  C   UNL     1      12.757 -12.826  26.657  1.00  0.00    -0.011 C 
ATOM     10  C   UNL     1      11.342 -12.770  26.021  1.00  0.00     0.008 C 
BRANCH   9  11
ATOM     11  C   UNL     1      13.760 -11.823  25.947  1.00  0.00    -0.002 C 
ATOM     12  C   UNL     1      13.577 -11.750  24.415  1.00  0.00     0.005 C 
ATOM     13  C   UNL     1      15.319 -12.058  26.120  1.00  0.00    -0.026 C 
ATOM     14  C   UNL     1      14.581 -12.704  23.823  1.00  0.00     0.005 C 
ATOM     15  C   UNL     1      15.807 -12.571  24.720  1.00  0.00    -0.001 C 
ATOM     16  C   UNL     1      15.748 -13.036  27.248  1.00  0.00     0.007 C 
ATOM     17  C   UNL     1      15.985 -10.685  26.426  1.00  0.00     0.012 C 
ATOM     18  C   UNL     1      16.743 -13.817  24.726  1.00  0.00     0.000 C 
ATOM     19  C   UNL     1      17.235 -13.442  27.215  1.00  0.00     0.005 C 
ATOM     20  C   UNL     1      17.849 -13.641  25.792  1.00  0.00     0.003 C 
ATOM     21  C   UNL     1      16.043 -15.199  24.833  1.00  0.00     0.031 C 
ATOM     22  C   UNL     1      18.889 -14.820  25.716  1.00  0.00    -0.008 C 
ATOM     23  C   UNL     1      16.879 -16.295  25.458  1.00  0.00    -0.027 C 
ATOM     24  C   UNL     1      18.146 -16.138  25.907  1.00  0.00    -0.065 C 
ATOM     25  C   UNL     1      20.004 -14.620  26.802  1.00  0.00     0.014 C 
ATOM     26  C   UNL     1      19.583 -14.839  24.322  1.00  0.00     0.016 C 
ATOM     27  C   UNL     1      18.912 -17.367  26.353  1.00  0.00     0.063 C 
ATOM     28  C   UNL     1      20.820 -15.887  27.085  1.00  0.00     0.033 C 
ATOM     29  C   UNL     1      19.911 -17.062  27.476  1.00  0.00     0.118 C 
BRANCH  29  30
ATOM     30  O   UNL     1      19.224 -16.778  28.670  1.00  0.00    -0.393 OA
ATOM     31  H   UNL     1      19.329 -15.804  28.834  1.00  0.00     0.210 HD
ENDBRANCH  29  30
ENDBRANCH   9  11
ENDBRANCH   1   9
TORSDOF 7
ENDMDL
MODEL 5
REMARK VINA RESULT:    -6.974      6.336     12.367
REMARK INTER + INTRA:         -10.777
REMARK INTER:                 -10.507
REMARK INTRA:                  -0.269
REMARK UNBOUND:                -1.153
REMARK SMILES CC[C@@H](CC[C@@H](C)[C@@H]1CC[C@@H]2[C@@H]3CC=C4C[C@H](O)CC[C@]4(C)[C@@H]3CC[C@@]21C)C(C)C
REMARK SMILES IDX 5 1 4 2 3 3 2 4 1 5 28 6 29 7 30 8 6 9 7 10 8 11 9 12 26 13
REMARK SMILES IDX 10 14 11 15 25 16 27 17 12 18 24 19 23 20 13 21 21 22 14 23
REMARK SMILES IDX 15 24 20 25 22 26 16 27 19 28 17 29 18 30
REMARK H PARENT 18 31
REMARK Flexibility Score: inf
ROOT
ATOM      1  C   UNL     1       9.746 -19.010  32.106  1.00  0.00     0.004 C 
ENDROOT
BRANCH   1   2
ATOM      2  C   UNL     1      10.613 -17.835  32.595  1.00  0.00     0.004 C 
BRANCH   2   3
ATOM      3  C   UNL     1      11.420 -17.144  31.455  1.00  0.00    -0.009 C 
BRANCH   3   4
ATOM      4  C   UNL     1      12.939 -17.446  31.562  1.00  0.00     0.000 C 
ATOM      5  C   UNL     1      13.776 -16.224  31.945  1.00  0.00     0.004 C 
ENDBRANCH   3   4
BRANCH   3   6
ATOM      6  C   UNL     1      11.125 -15.604  31.428  1.00  0.00    -0.014 C 
ATOM      7  C   UNL     1       9.761 -15.249  32.039  1.00  0.00     0.007 C 
ATOM      8  C   UNL     1      11.268 -14.992  30.024  1.00  0.00     0.007 C 
ENDBRANCH   3   6
ENDBRANCH   2   3
ENDBRANCH   1   2
BRANCH   1   9
ATOM      9  C   UNL     1      10.201 -20.420  32.619  1.00  0.00    -0.011 C 
ATOM     10  C   UNL     1       9.992 -20.459  34.156  1.00  0.00     0.008 C 
BRANCH   9  11
ATOM     11  C   UNL     1       9.515 -21.657  31.901  1.00  0.00    -0.002 C 
ATOM     12  C   UNL     1       9.587 -21.592  30.359  1.00  0.00     0.005 C 
ATOM     13  C   UNL     1       7.982 -21.948  32.186  1.00  0.00    -0.026 C 
ATOM     14  C   UNL     1       8.286 -20.986  29.902  1.00  0.00     0.005 C 
ATOM     15  C   UNL     1       7.244 -21.552  30.860  1.00  0.00    -0.001 C 
ATOM     16  C   UNL     1       7.358 -21.218  33.406  1.00  0.00     0.007 C 
ATOM     17  C   UNL     1       7.817 -23.476  32.431  1.00  0.00     0.012 C 
ATOM     18  C   UNL     1       5.963 -20.677  31.014  1.00  0.00     0.000 C 
ATOM     19  C   UNL     1       5.822 -21.314  33.495  1.00  0.00     0.005 C 
ATOM     20  C   UNL     1       5.062 -21.255  32.131  1.00  0.00     0.003 C 
ATOM     21  C   UNL     1       6.192 -19.151  31.179  1.00  0.00     0.031 C 
ATOM     22  C   UNL     1       3.698 -20.474  32.206  1.00  0.00    -0.008 C 
ATOM     23  C   UNL     1       5.104 -18.416  31.932  1.00  0.00    -0.027 C 
ATOM     24  C   UNL     1       3.994 -18.997  32.446  1.00  0.00    -0.065 C 
ATOM     25  C   UNL     1       2.798 -21.076  33.340  1.00  0.00     0.014 C 
ATOM     26  C   UNL     1       2.922 -20.611  30.862  1.00  0.00     0.016 C 
ATOM     27  C   UNL     1       2.916 -18.105  33.026  1.00  0.00     0.063 C 
ATOM     28  C   UNL     1       1.646 -20.157  33.765  1.00  0.00     0.033 C 
ATOM     29  C   UNL     1       2.161 -18.772  34.183  1.00  0.00     0.118 C 
BRANCH  29  30
ATOM     30  O   UNL     1       2.998 -18.876  35.309  1.00  0.00    -0.393 OA
ATOM     31  H   UNL     1       2.558 -18.365  36.039  1.00  0.00     0.210 HD
ENDBRANCH  29  30
ENDBRANCH   9  11
ENDBRANCH   1   9
TORSDOF 7
ENDMDL
MODEL 6
REMARK VINA RESULT:    -6.699      2.697      5.260
REMARK INTER + INTRA:         -10.397
REMARK INTER:                  -8.483
REMARK INTRA:                  -1.915
REMARK UNBOUND:                -1.153
REMARK SMILES CC[C@@H](CC[C@@H](C)[C@@H]1CC[C@@H]2[C@@H]3CC=C4C[C@H](O)CC[C@]4(C)[C@@H]3CC[C@@]21C)C(C)C
REMARK SMILES IDX 5 1 4 2 3 3 2 4 1 5 28 6 29 7 30 8 6 9 7 10 8 11 9 12 26 13
REMARK SMILES IDX 10 14 11 15 25 16 27 17 12 18 24 19 23 20 13 21 21 22 14 23
REMARK SMILES IDX 15 24 20 25 22 26 16 27 19 28 17 29 18 30
REMARK H PARENT 18 31
REMARK Flexibility Score: inf
ROOT
ATOM      1  C   UNL     1      11.879 -12.835  25.820  1.00  0.00     0.004 C 
ENDROOT
BRANCH   1   2
ATOM      2  C   UNL     1      12.012 -13.404  27.246  1.00  0.00     0.004 C 
BRANCH   2   3
ATOM      3  C   UNL     1      12.669 -14.817  27.290  1.00  0.00    -0.009 C 
BRANCH   3   4
ATOM      4  C   UNL     1      12.114 -15.743  26.175  1.00  0.00     0.000 C 
ATOM      5  C   UNL     1      13.106 -16.820  25.729  1.00  0.00     0.004 C 
ENDBRANCH   3   4
BRANCH   3   6
ATOM      6  C   UNL     1      12.514 -15.451  28.716  1.00  0.00    -0.014 C 
ATOM      7  C   UNL     1      11.636 -14.607  29.650  1.00  0.00     0.007 C 
ATOM      8  C   UNL     1      13.866 -15.769  29.379  1.00  0.00     0.007 C 
ENDBRANCH   3   6
ENDBRANCH   2   3
ENDBRANCH   1   2
BRANCH   1   9
ATOM      9  C   UNL     1      13.212 -12.279  25.210  1.00  0.00    -0.011 C 
ATOM     10  C   UNL     1      12.852 -11.090  24.279  1.00  0.00     0.008 C 
BRANCH   9  11
ATOM     11  C   UNL     1      14.328 -11.882  26.267  1.00  0.00    -0.002 C 
ATOM     12  C   UNL     1      14.907 -10.467  26.048  1.00  0.00     0.005 C 
ATOM     13  C   UNL     1      15.620 -12.794  26.386  1.00  0.00    -0.026 C 
ATOM     14  C   UNL     1      16.163 -10.645  25.235  1.00  0.00     0.005 C 
ATOM     15  C   UNL     1      16.776 -11.938  25.761  1.00  0.00    -0.001 C 
ATOM     16  C   UNL     1      15.541 -14.192  25.715  1.00  0.00     0.007 C 
ATOM     17  C   UNL     1      15.910 -13.026  27.898  1.00  0.00     0.012 C 
ATOM     18  C   UNL     1      17.711 -12.669  24.750  1.00  0.00     0.000 C 
ATOM     19  C   UNL     1      16.889 -14.936  25.622  1.00  0.00     0.005 C 
ATOM     20  C   UNL     1      18.134 -14.042  25.322  1.00  0.00     0.003 C 
ATOM     21  C   UNL     1      17.191 -12.778  23.292  1.00  0.00     0.031 C 
ATOM     22  C   UNL     1      19.193 -14.733  24.384  1.00  0.00    -0.008 C 
ATOM     23  C   UNL     1      17.723 -13.958  22.507  1.00  0.00    -0.027 C 
ATOM     24  C   UNL     1      18.588 -14.879  22.991  1.00  0.00    -0.065 C 
ATOM     25  C   UNL     1      19.611 -16.122  24.982  1.00  0.00     0.014 C 
ATOM     26  C   UNL     1      20.475 -13.856  24.278  1.00  0.00     0.016 C 
ATOM     27  C   UNL     1      19.159 -15.905  22.034  1.00  0.00     0.063 C 
ATOM     28  C   UNL     1      20.309 -17.041  23.973  1.00  0.00     0.033 C 
ATOM     29  C   UNL     1      19.449 -17.248  22.717  1.00  0.00     0.118 C 
BRANCH  29  30
ATOM     30  O   UNL     1      18.243 -17.893  23.047  1.00  0.00    -0.393 OA
ATOM     31  H   UNL     1      18.018 -18.483  22.280  1.00  0.00     0.210 HD
ENDBRANCH  29  30
ENDBRANCH   9  11
ENDBRANCH   1   9
TORSDOF 7
ENDMDL
MODEL 7
REMARK VINA RESULT:    -6.649      1.878      3.525
REMARK INTER + INTRA:         -10.329
REMARK INTER:                  -9.830
REMARK INTRA:                  -0.499
REMARK UNBOUND:                -1.153
REMARK SMILES CC[C@@H](CC[C@@H](C)[C@@H]1CC[C@@H]2[C@@H]3CC=C4C[C@H](O)CC[C@]4(C)[C@@H]3CC[C@@]21C)C(C)C
REMARK SMILES IDX 5 1 4 2 3 3 2 4 1 5 28 6 29 7 30 8 6 9 7 10 8 11 9 12 26 13
REMARK SMILES IDX 10 14 11 15 25 16 27 17 12 18 24 19 23 20 13 21 21 22 14 23
REMARK SMILES IDX 15 24 20 25 22 26 16 27 19 28 17 29 18 30
REMARK H PARENT 18 31
REMARK Flexibility Score: inf
ROOT
ATOM      1  C   UNL     1      12.736 -14.215  28.847  1.00  0.00     0.004 C 
ENDROOT
BRANCH   1   2
ATOM      2  C   UNL     1      11.508 -14.741  29.613  1.00  0.00     0.004 C 
BRANCH   2   3
ATOM      3  C   UNL     1      11.866 -15.405  30.977  1.00  0.00    -0.009 C 
BRANCH   3   4
ATOM      4  C   UNL     1      13.140 -16.285  30.870  1.00  0.00     0.000 C 
ATOM      5  C   UNL     1      14.143 -16.044  32.000  1.00  0.00     0.004 C 
ENDBRANCH   3   4
BRANCH   3   6
ATOM      6  C   UNL     1      10.640 -16.207  31.537  1.00  0.00    -0.014 C 
ATOM      7  C   UNL     1       9.983 -15.522  32.745  1.00  0.00     0.007 C 
ATOM      8  C   UNL     1      10.981 -17.672  31.861  1.00  0.00     0.007 C 
ENDBRANCH   3   6
ENDBRANCH   2   3
ENDBRANCH   1   2
BRANCH   1   9
ATOM      9  C   UNL     1      12.444 -13.006  27.891  1.00  0.00    -0.011 C 
ATOM     10  C   UNL     1      13.502 -11.906  28.176  1.00  0.00     0.008 C 
BRANCH   9  11
ATOM     11  C   UNL     1      12.370 -13.365  26.348  1.00  0.00    -0.002 C 
ATOM     12  C   UNL     1      11.443 -14.560  26.037  1.00  0.00     0.005 C 
ATOM     13  C   UNL     1      13.713 -13.734  25.588  1.00  0.00    -0.026 C 
ATOM     14  C   UNL     1      12.329 -15.777  25.972  1.00  0.00     0.005 C 
ATOM     15  C   UNL     1      13.615 -15.277  25.324  1.00  0.00    -0.001 C 
ATOM     16  C   UNL     1      15.037 -13.380  26.318  1.00  0.00     0.007 C 
ATOM     17  C   UNL     1      13.723 -12.978  24.227  1.00  0.00     0.012 C 
ATOM     18  C   UNL     1      14.881 -16.120  25.662  1.00  0.00     0.000 C 
ATOM     19  C   UNL     1      16.303 -13.986  25.680  1.00  0.00     0.005 C 
ATOM     20  C   UNL     1      16.143 -15.427  25.098  1.00  0.00     0.003 C 
ATOM     21  C   UNL     1      15.055 -16.527  27.151  1.00  0.00     0.031 C 
ATOM     22  C   UNL     1      17.415 -16.332  25.302  1.00  0.00    -0.008 C 
ATOM     23  C   UNL     1      16.485 -16.755  27.591  1.00  0.00    -0.027 C 
ATOM     24  C   UNL     1      17.568 -16.628  26.790  1.00  0.00    -0.065 C 
ATOM     25  C   UNL     1      18.682 -15.613  24.720  1.00  0.00     0.014 C 
ATOM     26  C   UNL     1      17.244 -17.682  24.543  1.00  0.00     0.016 C 
ATOM     27  C   UNL     1      18.919 -17.052  27.330  1.00  0.00     0.063 C 
ATOM     28  C   UNL     1      20.006 -16.205  25.216  1.00  0.00     0.033 C 
ATOM     29  C   UNL     1      20.071 -16.221  26.750  1.00  0.00     0.118 C 
BRANCH  29  30
ATOM     30  O   UNL     1      20.026 -14.911  27.260  1.00  0.00    -0.393 OA
ATOM     31  H   UNL     1      20.892 -14.755  27.720  1.00  0.00     0.210 HD
ENDBRANCH  29  30
ENDBRANCH   9  11
ENDBRANCH   1   9
TORSDOF 7
ENDMDL
MODEL 8
REMARK VINA RESULT:    -6.637      3.473      7.386
REMARK INTER + INTRA:         -10.313
REMARK INTER:                  -8.197
REMARK INTRA:                  -2.116
REMARK UNBOUND:                -1.153
REMARK SMILES CC[C@@H](CC[C@@H](C)[C@@H]1CC[C@@H]2[C@@H]3CC=C4C[C@H](O)CC[C@]4(C)[C@@H]3CC[C@@]21C)C(C)C
REMARK SMILES IDX 5 1 4 2 3 3 2 4 1 5 28 6 29 7 30 8 6 9 7 10 8 11 9 12 26 13
REMARK SMILES IDX 10 14 11 15 25 16 27 17 12 18 24 19 23 20 13 21 21 22 14 23
REMARK SMILES IDX 15 24 20 25 22 26 16 27 19 28 17 29 18 30
REMARK H PARENT 18 31
REMARK Flexibility Score: inf
ROOT
ATOM      1  C   UNL     1      20.793 -14.765  26.731  1.00  0.00     0.004 C 
ENDROOT
BRANCH   1   2
ATOM      2  C   UNL     1      20.353 -15.923  25.816  1.00  0.00     0.004 C 
BRANCH   2   3
ATOM      3  C   UNL     1      19.819 -17.161  26.596  1.00  0.00    -0.009 C 
BRANCH   3   4
ATOM      4  C   UNL     1      18.679 -17.879  25.825  1.00  0.00     0.000 C 
ATOM      5  C   UNL     1      18.740 -17.664  24.312  1.00  0.00     0.004 C 
ENDBRANCH   3   4
BRANCH   3   6
ATOM      6  C   UNL     1      19.382 -16.751  28.046  1.00  0.00    -0.014 C 
ATOM      7  C   UNL     1      20.105 -17.557  29.135  1.00  0.00     0.007 C 
ATOM      8  C   UNL     1      17.859 -16.804  28.250  1.00  0.00     0.007 C 
ENDBRANCH   3   6
ENDBRANCH   2   3
ENDBRANCH   1   2
BRANCH   1   9
ATOM      9  C   UNL     1      19.945 -13.454  26.584  1.00  0.00    -0.011 C 
ATOM     10  C   UNL     1      20.794 -12.273  27.124  1.00  0.00     0.008 C 
BRANCH   9  11
ATOM     11  C   UNL     1      19.394 -13.164  25.124  1.00  0.00    -0.002 C 
ATOM     12  C   UNL     1      19.499 -11.679  24.711  1.00  0.00     0.005 C 
ATOM     13  C   UNL     1      17.888 -13.532  24.793  1.00  0.00    -0.026 C 
ATOM     14  C   UNL     1      18.159 -11.060  25.017  1.00  0.00     0.005 C 
ATOM     15  C   UNL     1      17.150 -12.152  24.682  1.00  0.00    -0.001 C 
ATOM     16  C   UNL     1      17.168 -14.465  25.805  1.00  0.00     0.007 C 
ATOM     17  C   UNL     1      17.857 -14.246  23.409  1.00  0.00     0.012 C 
ATOM     18  C   UNL     1      15.791 -12.031  25.435  1.00  0.00     0.000 C 
ATOM     19  C   UNL     1      15.645 -14.586  25.596  1.00  0.00     0.005 C 
ATOM     20  C   UNL     1      14.919 -13.276  25.153  1.00  0.00     0.003 C 
ATOM     21  C   UNL     1      15.874 -11.707  26.951  1.00  0.00     0.031 C 
ATOM     22  C   UNL     1      13.487 -13.108  25.784  1.00  0.00    -0.008 C 
ATOM     23  C   UNL     1      14.704 -12.197  27.777  1.00  0.00    -0.027 C 
ATOM     24  C   UNL     1      13.640 -12.871  27.284  1.00  0.00    -0.065 C 
ATOM     25  C   UNL     1      12.617 -14.379  25.484  1.00  0.00     0.014 C 
ATOM     26  C   UNL     1      12.762 -11.879  25.160  1.00  0.00     0.016 C 
ATOM     27  C   UNL     1      12.470 -13.147  28.205  1.00  0.00     0.063 C 
ATOM     28  C   UNL     1      11.375 -14.498  26.376  1.00  0.00     0.033 C 
ATOM     29  C   UNL     1      11.750 -14.459  27.865  1.00  0.00     0.118 C 
BRANCH  29  30
ATOM     30  O   UNL     1      12.564 -15.557  28.198  1.00  0.00    -0.393 OA
ATOM     31  H   UNL     1      13.131 -15.269  28.961  1.00  0.00     0.210 HD
ENDBRANCH  29  30
ENDBRANCH   9  11
ENDBRANCH   1   9
TORSDOF 7
ENDMDL
MODEL 9
REMARK VINA RESULT:    -6.518      3.597      7.733
REMARK INTER + INTRA:         -10.148
REMARK INTER:                  -7.724
REMARK INTRA:                  -2.423
REMARK UNBOUND:                -1.153
REMARK SMILES CC[C@@H](CC[C@@H](C)[C@@H]1CC[C@@H]2[C@@H]3CC=C4C[C@H](O)CC[C@]4(C)[C@@H]3CC[C@@]21C)C(C)C
REMARK SMILES IDX 5 1 4 2 3 3 2 4 1 5 28 6 29 7 30 8 6 9 7 10 8 11 9 12 26 13
REMARK SMILES IDX 10 14 11 15 25 16 27 17 12 18 24 19 23 20 13 21 21 22 14 23
REMARK SMILES IDX 15 24 20 25 22 26 16 27 19 28 17 29 18 30
REMARK H PARENT 18 31
REMARK Flexibility Score: inf
ROOT
ATOM      1  C   UNL     1      19.294 -10.923  24.604  1.00  0.00     0.004 C 
ENDROOT
BRANCH   1   2
ATOM      2  C   UNL     1      19.518 -12.357  24.088  1.00  0.00     0.004 C 
BRANCH   2   3
ATOM      3  C   UNL     1      18.667 -13.425  24.838  1.00  0.00    -0.009 C 
BRANCH   3   4
ATOM      4  C   UNL     1      19.547 -14.334  25.737  1.00  0.00     0.000 C 
ATOM      5  C   UNL     1      19.075 -14.391  27.191  1.00  0.00     0.004 C 
ENDBRANCH   3   4
BRANCH   3   6
ATOM      6  C   UNL     1      17.807 -14.256  23.822  1.00  0.00    -0.014 C 
ATOM      7  C   UNL     1      17.330 -13.421  22.624  1.00  0.00     0.007 C 
ATOM      8  C   UNL     1      16.622 -14.976  24.489  1.00  0.00     0.007 C 
ENDBRANCH   3   6
ENDBRANCH   2   3
ENDBRANCH   1   2
BRANCH   1   9
ATOM      9  C   UNL     1      19.028 -10.816  26.145  1.00  0.00    -0.011 C 
ATOM     10  C   UNL     1      20.382 -10.520  26.844  1.00  0.00     0.008 C 
BRANCH   9  11
ATOM     11  C   UNL     1      17.907  -9.775  26.569  1.00  0.00    -0.002 C 
ATOM     12  C   UNL     1      17.960  -9.388  28.063  1.00  0.00     0.005 C 
ATOM     13  C   UNL     1      16.386 -10.161  26.342  1.00  0.00    -0.026 C 
ATOM     14  C   UNL     1      16.973 -10.283  28.766  1.00  0.00     0.005 C 
ATOM     15  C   UNL     1      15.819 -10.426  27.780  1.00  0.00    -0.001 C 
ATOM     16  C   UNL     1      16.115 -11.372  25.408  1.00  0.00     0.007 C 
ATOM     17  C   UNL     1      15.662  -8.931  25.720  1.00  0.00     0.012 C 
ATOM     18  C   UNL     1      14.967 -11.719  27.962  1.00  0.00     0.000 C 
ATOM     19  C   UNL     1      14.658 -11.879  25.422  1.00  0.00     0.005 C 
ATOM     20  C   UNL     1      13.944 -11.842  26.810  1.00  0.00     0.003 C 
ATOM     21  C   UNL     1      15.760 -13.035  28.183  1.00  0.00     0.031 C 
ATOM     22  C   UNL     1      12.977 -13.061  27.051  1.00  0.00    -0.008 C 
ATOM     23  C   UNL     1      15.049 -14.295  27.738  1.00  0.00    -0.027 C 
ATOM     24  C   UNL     1      13.816 -14.329  27.182  1.00  0.00    -0.065 C 
ATOM     25  C   UNL     1      11.945 -13.167  25.875  1.00  0.00     0.014 C 
ATOM     26  C   UNL     1      12.174 -12.861  28.371  1.00  0.00     0.016 C 
ATOM     27  C   UNL     1      13.169 -15.678  26.943  1.00  0.00     0.063 C 
ATOM     28  C   UNL     1      11.237 -14.525  25.799  1.00  0.00     0.033 C 
ATOM     29  C   UNL     1      12.248 -15.679  25.716  1.00  0.00     0.118 C 
BRANCH  29  30
ATOM     30  O   UNL     1      13.011 -15.582  24.539  1.00  0.00    -0.393 OA
ATOM     31  H   UNL     1      13.015 -14.623  24.280  1.00  0.00     0.210 HD
ENDBRANCH  29  30
ENDBRANCH   9  11
ENDBRANCH   1   9
TORSDOF 7
ENDMDL
