MODEL 1
REMARK VINA RESULT:    68.872      0.000      0.000
REMARK INTER + INTRA:          95.775
REMARK INTER:                  95.043
REMARK INTRA:                   0.732
REMARK UNBOUND:                 0.732
REMARK SMILES CC[C@H](CC[C@H](C)[C@@H]1CC[C@H]2[C@@H]3CC=C4C[C@@H](O)CC[C@]4(C)[C@@H]3CC[C@]21C)C(C)C
REMARK SMILES IDX 5 1 4 2 3 3 2 4 1 5 28 6 29 7 30 8 6 9 7 10 8 11 9 12 26 13
REMARK SMILES IDX 10 14 11 15 25 16 27 17 12 18 24 19 23 20 13 21 21 22 14 23
REMARK SMILES IDX 15 24 20 25 22 26 16 27 19 28 17 29 18 30
REMARK H PARENT 18 31
REMARK Flexibility Score: inf
ROOT
ATOM      1  C   UNL     1      26.394 -33.354  -3.806  1.00  0.00     0.004 C 
ENDROOT
BRANCH   1   2
ATOM      2  C   UNL     1      27.111 -34.202  -4.881  1.00  0.00     0.004 C 
BRANCH   2   3
ATOM      3  C   UNL     1      26.548 -35.647  -5.012  1.00  0.00    -0.009 C 
BRANCH   3   4
ATOM      4  C   UNL     1      25.044 -35.678  -4.619  1.00  0.00     0.000 C 
ATOM      5  C   UNL     1      24.818 -36.014  -3.141  1.00  0.00     0.004 C 
ENDBRANCH   3   4
BRANCH   3   6
ATOM      6  C   UNL     1      26.805 -36.267  -6.428  1.00  0.00    -0.014 C 
ATOM      7  C   UNL     1      28.085 -37.115  -6.510  1.00  0.00     0.007 C 
ATOM      8  C   UNL     1      26.807 -35.197  -7.535  1.00  0.00     0.007 C 
ENDBRANCH   3   6
ENDBRANCH   2   3
ENDBRANCH   1   2
BRANCH   1   9
ATOM      9  C   UNL     1      27.365 -32.693  -2.780  1.00  0.00    -0.011 C 
ATOM     10  C   UNL     1      27.079 -31.166  -2.761  1.00  0.00     0.008 C 
BRANCH   9  11
ATOM     11  C   UNL     1      28.904 -33.018  -3.008  1.00  0.00    -0.002 C 
ATOM     12  C   UNL     1      29.514 -33.871  -1.871  1.00  0.00     0.005 C 
ATOM     13  C   UNL     1      29.882 -31.779  -3.060  1.00  0.00    -0.026 C 
ATOM     14  C   UNL     1      30.144 -32.909  -0.876  1.00  0.00     0.005 C 
ATOM     15  C   UNL     1      30.226 -31.534  -1.559  1.00  0.00    -0.001 C 
ATOM     16  C   UNL     1      31.155 -32.169  -3.877  1.00  0.00     0.007 C 
ATOM     17  C   UNL     1      29.258 -30.528  -3.730  1.00  0.00     0.012 C 
ATOM     18  C   UNL     1      31.578 -30.817  -1.240  1.00  0.00     0.000 C 
ATOM     19  C   UNL     1      32.380 -31.287  -3.598  1.00  0.00     0.005 C 
ATOM     20  C   UNL     1      32.764 -31.331  -2.100  1.00  0.00     0.003 C 
ATOM     21  C   UNL     1      31.445 -29.284  -1.310  1.00  0.00     0.031 C 
ATOM     22  C   UNL     1      34.123 -30.610  -1.706  1.00  0.00    -0.008 C 
ATOM     23  C   UNL     1      32.752 -28.564  -1.159  1.00  0.00    -0.027 C 
ATOM     24  C   UNL     1      33.947 -29.105  -1.467  1.00  0.00    -0.065 C 
ATOM     25  C   UNL     1      35.219 -30.812  -2.801  1.00  0.00     0.014 C 
ATOM     26  C   UNL     1      34.629 -31.246  -0.379  1.00  0.00     0.016 C 
ATOM     27  C   UNL     1      35.189 -28.242  -1.314  1.00  0.00     0.063 C 
ATOM     28  C   UNL     1      36.512 -30.022  -2.539  1.00  0.00     0.033 C 
ATOM     29  C   UNL     1      36.211 -28.519  -2.424  1.00  0.00     0.118 C 
BRANCH  29  30
ATOM     30  O   UNL     1      37.392 -27.813  -2.142  1.00  0.00    -0.393 OA
ATOM     31  H   UNL     1      37.640 -28.034  -1.206  1.00  0.00     0.210 HD
ENDBRANCH  29  30
ENDBRANCH   9  11
ENDBRANCH   1   9
TORSDOF 7
ENDMDL
MODEL 2
REMARK VINA RESULT:    69.520      2.424      3.146
REMARK INTER + INTRA:          96.670
REMARK INTER:                  94.778
REMARK INTRA:                   1.892
REMARK UNBOUND:                 0.732
REMARK SMILES CC[C@H](CC[C@H](C)[C@@H]1CC[C@H]2[C@@H]3CC=C4C[C@@H](O)CC[C@]4(C)[C@@H]3CC[C@]21C)C(C)C
REMARK SMILES IDX 5 1 4 2 3 3 2 4 1 5 28 6 29 7 30 8 6 9 7 10 8 11 9 12 26 13
REMARK SMILES IDX 10 14 11 15 25 16 27 17 12 18 24 19 23 20 13 21 21 22 14 23
REMARK SMILES IDX 15 24 20 25 22 26 16 27 19 28 17 29 18 30
REMARK H PARENT 18 31
REMARK Flexibility Score: inf
ROOT
ATOM      1  C   UNL     1      26.774 -30.762  -3.166  1.00  0.00     0.004 C 
ENDROOT
BRANCH   1   2
ATOM      2  C   UNL     1      26.154 -31.208  -4.510  1.00  0.00     0.004 C 
BRANCH   2   3
ATOM      3  C   UNL     1      26.249 -30.129  -5.628  1.00  0.00    -0.009 C 
BRANCH   3   4
ATOM      4  C   UNL     1      27.554 -29.298  -5.467  1.00  0.00     0.000 C 
ATOM      5  C   UNL     1      27.637 -28.120  -6.443  1.00  0.00     0.004 C 
ENDBRANCH   3   4
BRANCH   3   6
ATOM      6  C   UNL     1      26.106 -30.737  -7.065  1.00  0.00    -0.014 C 
ATOM      7  C   UNL     1      27.452 -31.014  -7.756  1.00  0.00     0.007 C 
ATOM      8  C   UNL     1      25.213 -29.871  -7.971  1.00  0.00     0.007 C 
ENDBRANCH   3   6
ENDBRANCH   2   3
ENDBRANCH   1   2
BRANCH   1   9
ATOM      9  C   UNL     1      27.094 -31.945  -2.202  1.00  0.00    -0.011 C 
ATOM     10  C   UNL     1      26.867 -31.454  -0.745  1.00  0.00     0.008 C 
BRANCH   9  11
ATOM     11  C   UNL     1      28.527 -32.604  -2.402  1.00  0.00    -0.002 C 
ATOM     12  C   UNL     1      29.058 -33.289  -1.121  1.00  0.00     0.005 C 
ATOM     13  C   UNL     1      29.706 -31.620  -2.771  1.00  0.00    -0.026 C 
ATOM     14  C   UNL     1      29.927 -32.273  -0.395  1.00  0.00     0.005 C 
ATOM     15  C   UNL     1      30.203 -31.124  -1.379  1.00  0.00    -0.001 C 
ATOM     16  C   UNL     1      30.820 -32.419  -3.519  1.00  0.00     0.007 C 
ATOM     17  C   UNL     1      29.269 -30.450  -3.688  1.00  0.00     0.012 C 
ATOM     18  C   UNL     1      31.684 -30.630  -1.279  1.00  0.00     0.000 C 
ATOM     19  C   UNL     1      32.203 -31.752  -3.492  1.00  0.00     0.005 C 
ATOM     20  C   UNL     1      32.687 -31.541  -2.038  1.00  0.00     0.003 C 
ATOM     21  C   UNL     1      31.825 -29.154  -1.695  1.00  0.00     0.031 C 
ATOM     22  C   UNL     1      34.180 -31.028  -1.867  1.00  0.00    -0.008 C 
ATOM     23  C   UNL     1      33.249 -28.686  -1.758  1.00  0.00    -0.027 C 
ATOM     24  C   UNL     1      34.298 -29.502  -1.975  1.00  0.00    -0.065 C 
ATOM     25  C   UNL     1      35.134 -31.673  -2.923  1.00  0.00     0.014 C 
ATOM     26  C   UNL     1      34.663 -31.443  -0.447  1.00  0.00     0.016 C 
ATOM     27  C   UNL     1      35.684 -28.884  -2.066  1.00  0.00     0.063 C 
ATOM     28  C   UNL     1      36.565 -31.111  -2.893  1.00  0.00     0.033 C 
ATOM     29  C   UNL     1      36.551 -29.590  -3.117  1.00  0.00     0.118 C 
BRANCH  29  30
ATOM     30  O   UNL     1      37.858 -29.083  -3.046  1.00  0.00    -0.393 OA
ATOM     31  H   UNL     1      38.252 -29.426  -2.200  1.00  0.00     0.210 HD
ENDBRANCH  29  30
ENDBRANCH   9  11
ENDBRANCH   1   9
TORSDOF 7
ENDMDL
MODEL 3
REMARK VINA RESULT:    70.239      9.653     11.462
REMARK INTER + INTRA:          97.661
REMARK INTER:                  96.818
REMARK INTRA:                   0.843
REMARK UNBOUND:                 0.732
REMARK SMILES CC[C@H](CC[C@H](C)[C@@H]1CC[C@H]2[C@@H]3CC=C4C[C@@H](O)CC[C@]4(C)[C@@H]3CC[C@]21C)C(C)C
REMARK SMILES IDX 5 1 4 2 3 3 2 4 1 5 28 6 29 7 30 8 6 9 7 10 8 11 9 12 26 13
REMARK SMILES IDX 10 14 11 15 25 16 27 17 12 18 24 19 23 20 13 21 21 22 14 23
REMARK SMILES IDX 15 24 20 25 22 26 16 27 19 28 17 29 18 30
REMARK H PARENT 18 31
REMARK Flexibility Score: inf
ROOT
ATOM      1  C   UNL     1      27.123 -26.723   5.980  1.00  0.00     0.004 C 
ENDROOT
BRANCH   1   2
ATOM      2  C   UNL     1      26.070 -27.456   5.118  1.00  0.00     0.004 C 
BRANCH   2   3
ATOM      3  C   UNL     1      24.629 -27.380   5.699  1.00  0.00    -0.009 C 
BRANCH   3   4
ATOM      4  C   UNL     1      23.861 -26.174   5.087  1.00  0.00     0.000 C 
ATOM      5  C   UNL     1      22.393 -26.492   4.783  1.00  0.00     0.004 C 
ENDBRANCH   3   4
BRANCH   3   6
ATOM      6  C   UNL     1      23.844 -28.727   5.538  1.00  0.00    -0.014 C 
ATOM      7  C   UNL     1      22.435 -28.700   6.156  1.00  0.00     0.007 C 
ATOM      8  C   UNL     1      24.638 -29.927   6.083  1.00  0.00     0.007 C 
ENDBRANCH   3   6
ENDBRANCH   2   3
ENDBRANCH   1   2
BRANCH   1   9
ATOM      9  C   UNL     1      28.593 -26.983   5.528  1.00  0.00    -0.011 C 
ATOM     10  C   UNL     1      28.687 -28.448   5.017  1.00  0.00     0.008 C 
BRANCH   9  11
ATOM     11  C   UNL     1      29.699 -26.650   6.620  1.00  0.00    -0.002 C 
ATOM     12  C   UNL     1      29.437 -25.315   7.354  1.00  0.00     0.005 C 
ATOM     13  C   UNL     1      31.173 -26.457   6.088  1.00  0.00    -0.026 C 
ATOM     14  C   UNL     1      30.223 -24.237   6.623  1.00  0.00     0.005 C 
ATOM     15  C   UNL     1      31.213 -24.951   5.688  1.00  0.00    -0.001 C 
ATOM     16  C   UNL     1      32.176 -26.762   7.246  1.00  0.00     0.007 C 
ATOM     17  C   UNL     1      31.528 -27.389   4.901  1.00  0.00     0.012 C 
ATOM     18  C   UNL     1      32.608 -24.244   5.685  1.00  0.00     0.000 C 
ATOM     19  C   UNL     1      33.570 -26.148   7.053  1.00  0.00     0.005 C 
ATOM     20  C   UNL     1      33.483 -24.610   6.914  1.00  0.00     0.003 C 
ATOM     21  C   UNL     1      33.361 -24.467   4.360  1.00  0.00     0.031 C 
ATOM     22  C   UNL     1      34.867 -23.831   6.893  1.00  0.00    -0.008 C 
ATOM     23  C   UNL     1      34.763 -23.934   4.374  1.00  0.00    -0.027 C 
ATOM     24  C   UNL     1      35.495 -23.777   5.494  1.00  0.00    -0.065 C 
ATOM     25  C   UNL     1      35.901 -24.470   7.874  1.00  0.00     0.014 C 
ATOM     26  C   UNL     1      34.594 -22.368   7.348  1.00  0.00     0.016 C 
ATOM     27  C   UNL     1      36.923 -23.274   5.356  1.00  0.00     0.063 C 
ATOM     28  C   UNL     1      37.303 -23.842   7.796  1.00  0.00     0.033 C 
ATOM     29  C   UNL     1      37.860 -23.947   6.367  1.00  0.00     0.118 C 
BRANCH  29  30
ATOM     30  O   UNL     1      39.122 -23.333   6.298  1.00  0.00    -0.393 OA
ATOM     31  H   UNL     1      39.405 -23.371   5.346  1.00  0.00     0.210 HD
ENDBRANCH  29  30
ENDBRANCH   9  11
ENDBRANCH   1   9
TORSDOF 7
ENDMDL
MODEL 4
REMARK VINA RESULT:    71.077      4.510      8.758
REMARK INTER + INTRA:          98.819
REMARK INTER:                  98.642
REMARK INTRA:                   0.177
REMARK UNBOUND:                 0.732
REMARK SMILES CC[C@H](CC[C@H](C)[C@@H]1CC[C@H]2[C@@H]3CC=C4C[C@@H](O)CC[C@]4(C)[C@@H]3CC[C@]21C)C(C)C
REMARK SMILES IDX 5 1 4 2 3 3 2 4 1 5 28 6 29 7 30 8 6 9 7 10 8 11 9 12 26 13
REMARK SMILES IDX 10 14 11 15 25 16 27 17 12 18 24 19 23 20 13 21 21 22 14 23
REMARK SMILES IDX 15 24 20 25 22 26 16 27 19 28 17 29 18 30
REMARK H PARENT 18 31
REMARK Flexibility Score: inf
ROOT
ATOM      1  C   UNL     1      29.778 -31.887  -2.399  1.00  0.00     0.004 C 
ENDROOT
BRANCH   1   2
ATOM      2  C   UNL     1      31.222 -32.084  -2.914  1.00  0.00     0.004 C 
BRANCH   2   3
ATOM      3  C   UNL     1      32.128 -30.834  -2.720  1.00  0.00    -0.009 C 
BRANCH   3   4
ATOM      4  C   UNL     1      31.975 -30.275  -1.276  1.00  0.00     0.000 C 
ATOM      5  C   UNL     1      31.932 -28.744  -1.230  1.00  0.00     0.004 C 
ENDBRANCH   3   4
BRANCH   3   6
ATOM      6  C   UNL     1      33.625 -31.112  -3.093  1.00  0.00    -0.014 C 
ATOM      7  C   UNL     1      34.634 -30.428  -2.154  1.00  0.00     0.007 C 
ATOM      8  C   UNL     1      33.932 -30.747  -4.556  1.00  0.00     0.007 C 
ENDBRANCH   3   6
ENDBRANCH   2   3
ENDBRANCH   1   2
BRANCH   1   9
ATOM      9  C   UNL     1      28.940 -33.202  -2.366  1.00  0.00    -0.011 C 
ATOM     10  C   UNL     1      29.847 -34.363  -2.861  1.00  0.00     0.008 C 
BRANCH   9  11
ATOM     11  C   UNL     1      27.558 -33.136  -3.148  1.00  0.00    -0.002 C 
ATOM     12  C   UNL     1      27.532 -34.043  -4.400  1.00  0.00     0.005 C 
ATOM     13  C   UNL     1      27.156 -31.730  -3.744  1.00  0.00    -0.026 C 
ATOM     14  C   UNL     1      27.935 -33.182  -5.588  1.00  0.00     0.005 C 
ATOM     15  C   UNL     1      27.865 -31.715  -5.132  1.00  0.00    -0.001 C 
ATOM     16  C   UNL     1      25.604 -31.668  -3.900  1.00  0.00     0.007 C 
ATOM     17  C   UNL     1      27.587 -30.536  -2.853  1.00  0.00     0.012 C 
ATOM     18  C   UNL     1      27.253 -30.800  -6.242  1.00  0.00     0.000 C 
ATOM     19  C   UNL     1      25.110 -30.615  -4.903  1.00  0.00     0.005 C 
ATOM     20  C   UNL     1      25.703 -30.868  -6.308  1.00  0.00     0.003 C 
ATOM     21  C   UNL     1      27.757 -29.349  -6.132  1.00  0.00     0.031 C 
ATOM     22  C   UNL     1      25.132 -29.963  -7.481  1.00  0.00    -0.008 C 
ATOM     23  C   UNL     1      27.079 -28.408  -7.083  1.00  0.00    -0.027 C 
ATOM     24  C   UNL     1      25.844 -28.608  -7.583  1.00  0.00    -0.065 C 
ATOM     25  C   UNL     1      23.600 -29.705  -7.314  1.00  0.00     0.014 C 
ATOM     26  C   UNL     1      25.361 -30.722  -8.820  1.00  0.00     0.016 C 
ATOM     27  C   UNL     1      25.257 -27.545  -8.498  1.00  0.00     0.063 C 
ATOM     28  C   UNL     1      23.019 -28.722  -8.343  1.00  0.00     0.033 C 
ATOM     29  C   UNL     1      23.749 -27.371  -8.271  1.00  0.00     0.118 C 
BRANCH  29  30
ATOM     30  O   UNL     1      23.239 -26.497  -9.244  1.00  0.00    -0.393 OA
ATOM     31  H   UNL     1      22.374 -26.154  -8.894  1.00  0.00     0.210 HD
ENDBRANCH  29  30
ENDBRANCH   9  11
ENDBRANCH   1   9
TORSDOF 7
ENDMDL
MODEL 5
REMARK VINA RESULT:    71.162     10.381     14.556
REMARK INTER + INTRA:          98.935
REMARK INTER:                  99.236
REMARK INTRA:                  -0.301
REMARK UNBOUND:                 0.732
REMARK SMILES CC[C@H](CC[C@H](C)[C@@H]1CC[C@H]2[C@@H]3CC=C4C[C@@H](O)CC[C@]4(C)[C@@H]3CC[C@]21C)C(C)C
REMARK SMILES IDX 5 1 4 2 3 3 2 4 1 5 28 6 29 7 30 8 6 9 7 10 8 11 9 12 26 13
REMARK SMILES IDX 10 14 11 15 25 16 27 17 12 18 24 19 23 20 13 21 21 22 14 23
REMARK SMILES IDX 15 24 20 25 22 26 16 27 19 28 17 29 18 30
REMARK H PARENT 18 31
REMARK Flexibility Score: inf
ROOT
ATOM      1  C   UNL     1      36.156 -23.746   6.786  1.00  0.00     0.004 C 
ENDROOT
BRANCH   1   2
ATOM      2  C   UNL     1      37.621 -23.763   7.279  1.00  0.00     0.004 C 
BRANCH   2   3
ATOM      3  C   UNL     1      38.663 -23.868   6.129  1.00  0.00    -0.009 C 
BRANCH   3   4
ATOM      4  C   UNL     1      39.125 -25.343   5.950  1.00  0.00     0.000 C 
ATOM      5  C   UNL     1      39.107 -26.137   7.260  1.00  0.00     0.004 C 
ENDBRANCH   3   4
BRANCH   3   6
ATOM      6  C   UNL     1      38.145 -23.242   4.788  1.00  0.00    -0.014 C 
ATOM      7  C   UNL     1      38.353 -24.147   3.562  1.00  0.00     0.007 C 
ATOM      8  C   UNL     1      38.751 -21.852   4.529  1.00  0.00     0.007 C 
ENDBRANCH   3   6
ENDBRANCH   2   3
ENDBRANCH   1   2
BRANCH   1   9
ATOM      9  C   UNL     1      35.336 -25.000   7.219  1.00  0.00    -0.011 C 
ATOM     10  C   UNL     1      36.339 -26.107   7.648  1.00  0.00     0.008 C 
BRANCH   9  11
ATOM     11  C   UNL     1      34.285 -25.518   6.145  1.00  0.00    -0.002 C 
ATOM     12  C   UNL     1      33.929 -24.447   5.087  1.00  0.00     0.005 C 
ATOM     13  C   UNL     1      32.864 -25.931   6.696  1.00  0.00    -0.026 C 
ATOM     14  C   UNL     1      32.674 -23.736   5.572  1.00  0.00     0.005 C 
ATOM     15  C   UNL     1      32.082 -24.582   6.711  1.00  0.00    -0.001 C 
ATOM     16  C   UNL     1      32.213 -26.953   5.710  1.00  0.00     0.007 C 
ATOM     17  C   UNL     1      32.915 -26.595   8.096  1.00  0.00     0.012 C 
ATOM     18  C   UNL     1      30.523 -24.655   6.618  1.00  0.00     0.000 C 
ATOM     19  C   UNL     1      30.685 -27.056   5.825  1.00  0.00     0.005 C 
ATOM     20  C   UNL     1      30.018 -25.684   5.572  1.00  0.00     0.003 C 
ATOM     21  C   UNL     1      29.876 -24.878   7.998  1.00  0.00     0.031 C 
ATOM     22  C   UNL     1      28.432 -25.686   5.478  1.00  0.00    -0.008 C 
ATOM     23  C   UNL     1      28.395 -25.104   7.933  1.00  0.00    -0.027 C 
ATOM     24  C   UNL     1      27.757 -25.598   6.853  1.00  0.00    -0.065 C 
ATOM     25  C   UNL     1      27.901 -26.961   4.747  1.00  0.00     0.014 C 
ATOM     26  C   UNL     1      28.005 -24.434   4.658  1.00  0.00     0.016 C 
ATOM     27  C   UNL     1      26.257 -25.825   6.943  1.00  0.00     0.063 C 
ATOM     28  C   UNL     1      26.368 -27.085   4.748  1.00  0.00     0.033 C 
ATOM     29  C   UNL     1      25.829 -27.089   6.188  1.00  0.00     0.118 C 
BRANCH  29  30
ATOM     30  O   UNL     1      24.426 -27.159   6.174  1.00  0.00    -0.393 OA
ATOM     31  H   UNL     1      24.113 -26.485   5.515  1.00  0.00     0.210 HD
ENDBRANCH  29  30
ENDBRANCH   9  11
ENDBRANCH   1   9
TORSDOF 7
ENDMDL
