MODEL 1
REMARK VINA RESULT:    -7.033      0.000      0.000
REMARK INTER + INTRA:         -10.886
REMARK INTER:                  -9.706
REMARK INTRA:                  -1.180
REMARK UNBOUND:                -1.180
REMARK SMILES CC[C@@H](CC[C@H](C)[C@@H]1CC[C@@H]2[C@H]3CC=C4C[C@@H](O)CC[C@]4(C)[C@@H]3CC[C@]21C)C(C)C
REMARK SMILES IDX 5 1 4 2 3 3 2 4 1 5 28 6 29 7 30 8 6 9 7 10 8 11 9 12 26 13
REMARK SMILES IDX 10 14 11 15 25 16 27 17 12 18 24 19 23 20 13 21 21 22 14 23
REMARK SMILES IDX 15 24 20 25 22 26 16 27 19 28 17 29 18 30
REMARK H PARENT 18 31
REMARK Flexibility Score: inf
ROOT
ATOM      1  C   UNL     1     163.886 176.265 187.087  1.00  0.00     0.004 C 
ENDROOT
BRANCH   1   2
ATOM      2  C   UNL     1     162.884 176.750 188.153  1.00  0.00     0.004 C 
BRANCH   2   3
ATOM      3  C   UNL     1     161.425 176.736 187.612  1.00  0.00    -0.009 C 
BRANCH   3   4
ATOM      4  C   UNL     1     161.179 175.523 186.672  1.00  0.00     0.000 C 
ATOM      5  C   UNL     1     160.697 174.284 187.432  1.00  0.00     0.004 C 
ENDBRANCH   3   4
BRANCH   3   6
ATOM      6  C   UNL     1     161.062 178.104 186.947  1.00  0.00    -0.014 C 
ATOM      7  C   UNL     1     160.639 177.979 185.471  1.00  0.00     0.007 C 
ATOM      8  C   UNL     1     159.983 178.857 187.744  1.00  0.00     0.007 C 
ENDBRANCH   3   6
ENDBRANCH   2   3
ENDBRANCH   1   2
BRANCH   1   9
ATOM      9  C   UNL     1     165.046 177.256 186.780  1.00  0.00    -0.011 C 
ATOM     10  C   UNL     1     164.633 178.212 185.645  1.00  0.00     0.008 C 
BRANCH   9  11
ATOM     11  C   UNL     1     166.408 176.536 186.488  1.00  0.00    -0.002 C 
ATOM     12  C   UNL     1     166.610 175.271 187.367  1.00  0.00     0.005 C 
ATOM     13  C   UNL     1     167.729 177.340 186.703  1.00  0.00    -0.026 C 
ATOM     14  C   UNL     1     168.116 175.130 187.624  1.00  0.00     0.005 C 
ATOM     15  C   UNL     1     168.744 176.185 186.730  1.00  0.00    -0.001 C 
ATOM     16  C   UNL     1     168.151 178.267 185.534  1.00  0.00     0.007 C 
ATOM     17  C   UNL     1     167.671 178.137 188.044  1.00  0.00     0.012 C 
ATOM     18  C   UNL     1     170.192 176.634 187.034  1.00  0.00     0.000 C 
ATOM     19  C   UNL     1     169.595 178.787 185.721  1.00  0.00     0.005 C 
ATOM     20  C   UNL     1     170.646 177.650 185.947  1.00  0.00     0.003 C 
ATOM     21  C   UNL     1     171.140 175.428 186.988  1.00  0.00     0.031 C 
ATOM     22  C   UNL     1     172.123 178.167 186.200  1.00  0.00    -0.008 C 
ATOM     23  C   UNL     1     172.559 175.860 187.181  1.00  0.00    -0.027 C 
ATOM     24  C   UNL     1     173.029 177.063 186.786  1.00  0.00    -0.065 C 
ATOM     25  C   UNL     1     172.148 179.363 187.207  1.00  0.00     0.014 C 
ATOM     26  C   UNL     1     172.709 178.621 184.837  1.00  0.00     0.016 C 
ATOM     27  C   UNL     1     174.434 177.453 187.197  1.00  0.00     0.063 C 
ATOM     28  C   UNL     1     173.562 179.767 187.674  1.00  0.00     0.033 C 
ATOM     29  C   UNL     1     174.352 178.574 188.237  1.00  0.00     0.118 C 
BRANCH  29  30
ATOM     30  O   UNL     1     175.651 178.979 188.579  1.00  0.00    -0.393 OA
ATOM     31  H   UNL     1     175.668 179.079 189.566  1.00  0.00     0.210 HD
ENDBRANCH  29  30
ENDBRANCH   9  11
ENDBRANCH   1   9
TORSDOF 7
ENDMDL
MODEL 2
REMARK VINA RESULT:    -6.650      3.353      9.853
REMARK INTER + INTRA:         -10.357
REMARK INTER:                  -9.107
REMARK INTRA:                  -1.250
REMARK UNBOUND:                -1.180
REMARK SMILES CC[C@@H](CC[C@H](C)[C@@H]1CC[C@@H]2[C@H]3CC=C4C[C@@H](O)CC[C@]4(C)[C@@H]3CC[C@]21C)C(C)C
REMARK SMILES IDX 5 1 4 2 3 3 2 4 1 5 28 6 29 7 30 8 6 9 7 10 8 11 9 12 26 13
REMARK SMILES IDX 10 14 11 15 25 16 27 17 12 18 24 19 23 20 13 21 21 22 14 23
REMARK SMILES IDX 15 24 20 25 22 26 16 27 19 28 17 29 18 30
REMARK H PARENT 18 31
REMARK Flexibility Score: inf
ROOT
ATOM      1  C   UNL     1     171.952 177.054 187.569  1.00  0.00     0.004 C 
ENDROOT
BRANCH   1   2
ATOM      2  C   UNL     1     173.349 176.435 187.363  1.00  0.00     0.004 C 
BRANCH   2   3
ATOM      3  C   UNL     1     174.470 177.509 187.483  1.00  0.00    -0.009 C 
BRANCH   3   4
ATOM      4  C   UNL     1     173.877 178.938 187.623  1.00  0.00     0.000 C 
ATOM      5  C   UNL     1     174.736 179.843 188.510  1.00  0.00     0.004 C 
ENDBRANCH   3   4
BRANCH   3   6
ATOM      6  C   UNL     1     175.491 177.385 186.305  1.00  0.00    -0.014 C 
ATOM      7  C   UNL     1     175.247 178.400 185.171  1.00  0.00     0.007 C 
ATOM      8  C   UNL     1     176.944 177.480 186.797  1.00  0.00     0.007 C 
ENDBRANCH   3   6
ENDBRANCH   2   3
ENDBRANCH   1   2
BRANCH   1   9
ATOM      9  C   UNL     1     170.961 176.839 186.388  1.00  0.00    -0.011 C 
ATOM     10  C   UNL     1     171.680 177.084 185.048  1.00  0.00     0.008 C 
BRANCH   9  11
ATOM     11  C   UNL     1     169.648 177.685 186.525  1.00  0.00    -0.002 C 
ATOM     12  C   UNL     1     169.299 178.000 188.006  1.00  0.00     0.005 C 
ATOM     13  C   UNL     1     168.322 177.087 185.960  1.00  0.00    -0.026 C 
ATOM     14  C   UNL     1     167.769 178.067 188.108  1.00  0.00     0.005 C 
ATOM     15  C   UNL     1     167.298 177.990 186.667  1.00  0.00    -0.001 C 
ATOM     16  C   UNL     1     168.094 177.273 184.437  1.00  0.00     0.007 C 
ATOM     17  C   UNL     1     168.189 175.583 186.357  1.00  0.00     0.012 C 
ATOM     18  C   UNL     1     165.828 177.597 186.397  1.00  0.00     0.000 C 
ATOM     19  C   UNL     1     166.645 176.910 184.036  1.00  0.00     0.005 C 
ATOM     20  C   UNL     1     165.557 177.665 184.867  1.00  0.00     0.003 C 
ATOM     21  C   UNL     1     164.880 178.581 187.096  1.00  0.00     0.031 C 
ATOM     22  C   UNL     1     164.065 177.261 184.511  1.00  0.00    -0.008 C 
ATOM     23  C   UNL     1     163.454 178.274 186.764  1.00  0.00    -0.027 C 
ATOM     24  C   UNL     1     163.066 177.731 185.589  1.00  0.00    -0.065 C 
ATOM     25  C   UNL     1     163.907 175.711 184.383  1.00  0.00     0.014 C 
ATOM     26  C   UNL     1     163.698 177.936 183.162  1.00  0.00     0.016 C 
ATOM     27  C   UNL     1     161.621 177.301 185.442  1.00  0.00     0.063 C 
ATOM     28  C   UNL     1     162.445 175.233 184.264  1.00  0.00     0.033 C 
ATOM     29  C   UNL     1     161.562 175.772 185.403  1.00  0.00     0.118 C 
BRANCH  29  30
ATOM     30  O   UNL     1     160.231 175.369 185.208  1.00  0.00    -0.393 OA
ATOM     31  H   UNL     1     159.702 175.770 185.945  1.00  0.00     0.210 HD
ENDBRANCH  29  30
ENDBRANCH   9  11
ENDBRANCH   1   9
TORSDOF 7
ENDMDL
MODEL 3
REMARK VINA RESULT:    -6.579      1.637      2.957
REMARK INTER + INTRA:         -10.259
REMARK INTER:                  -9.007
REMARK INTRA:                  -1.252
REMARK UNBOUND:                -1.180
REMARK SMILES CC[C@@H](CC[C@H](C)[C@@H]1CC[C@@H]2[C@H]3CC=C4C[C@@H](O)CC[C@]4(C)[C@@H]3CC[C@]21C)C(C)C
REMARK SMILES IDX 5 1 4 2 3 3 2 4 1 5 28 6 29 7 30 8 6 9 7 10 8 11 9 12 26 13
REMARK SMILES IDX 10 14 11 15 25 16 27 17 12 18 24 19 23 20 13 21 21 22 14 23
REMARK SMILES IDX 15 24 20 25 22 26 16 27 19 28 17 29 18 30
REMARK H PARENT 18 31
REMARK Flexibility Score: inf
ROOT
ATOM      1  C   UNL     1     163.586 175.187 186.553  1.00  0.00     0.004 C 
ENDROOT
BRANCH   1   2
ATOM      2  C   UNL     1     163.508 173.908 187.412  1.00  0.00     0.004 C 
BRANCH   2   3
ATOM      3  C   UNL     1     162.032 173.472 187.649  1.00  0.00    -0.009 C 
BRANCH   3   4
ATOM      4  C   UNL     1     161.849 171.944 187.435  1.00  0.00     0.000 C 
ATOM      5  C   UNL     1     160.931 171.312 188.486  1.00  0.00     0.004 C 
ENDBRANCH   3   4
BRANCH   3   6
ATOM      6  C   UNL     1     161.050 174.329 186.786  1.00  0.00    -0.014 C 
ATOM      7  C   UNL     1     160.501 173.584 185.554  1.00  0.00     0.007 C 
ATOM      8  C   UNL     1     159.890 174.888 187.627  1.00  0.00     0.007 C 
ENDBRANCH   3   6
ENDBRANCH   2   3
ENDBRANCH   1   2
BRANCH   1   9
ATOM      9  C   UNL     1     164.129 176.441 187.297  1.00  0.00    -0.011 C 
ATOM     10  C   UNL     1     162.956 177.294 187.814  1.00  0.00     0.008 C 
BRANCH   9  11
ATOM     11  C   UNL     1     165.141 177.275 186.436  1.00  0.00    -0.002 C 
ATOM     12  C   UNL     1     165.150 176.839 184.945  1.00  0.00     0.005 C 
ATOM     13  C   UNL     1     166.651 177.241 186.832  1.00  0.00    -0.026 C 
ATOM     14  C   UNL     1     166.573 177.059 184.415  1.00  0.00     0.005 C 
ATOM     15  C   UNL     1     167.278 177.793 185.541  1.00  0.00    -0.001 C 
ATOM     16  C   UNL     1     167.070 178.206 187.971  1.00  0.00     0.007 C 
ATOM     17  C   UNL     1     167.098 175.780 187.154  1.00  0.00     0.012 C 
ATOM     18  C   UNL     1     168.824 177.804 185.554  1.00  0.00     0.000 C 
ATOM     19  C   UNL     1     168.609 178.305 188.087  1.00  0.00     0.005 C 
ATOM     20  C   UNL     1     169.316 178.678 186.742  1.00  0.00     0.003 C 
ATOM     21  C   UNL     1     169.359 178.418 184.254  1.00  0.00     0.031 C 
ATOM     22  C   UNL     1     170.898 178.726 186.827  1.00  0.00    -0.008 C 
ATOM     23  C   UNL     1     170.851 178.526 184.291  1.00  0.00    -0.027 C 
ATOM     24  C   UNL     1     171.553 178.717 185.430  1.00  0.00    -0.065 C 
ATOM     25  C   UNL     1     171.468 177.497 187.608  1.00  0.00     0.014 C 
ATOM     26  C   UNL     1     171.297 180.036 187.557  1.00  0.00     0.016 C 
ATOM     27  C   UNL     1     173.063 178.630 185.362  1.00  0.00     0.063 C 
ATOM     28  C   UNL     1     173.003 177.356 187.534  1.00  0.00     0.033 C 
ATOM     29  C   UNL     1     173.518 177.360 186.085  1.00  0.00     0.118 C 
BRANCH  29  30
ATOM     30  O   UNL     1     174.921 177.304 186.076  1.00  0.00    -0.393 OA
ATOM     31  H   UNL     1     175.166 176.348 185.973  1.00  0.00     0.210 HD
ENDBRANCH  29  30
ENDBRANCH   9  11
ENDBRANCH   1   9
TORSDOF 7
ENDMDL
MODEL 4
REMARK VINA RESULT:    -6.519      7.352     12.153
REMARK INTER + INTRA:         -10.177
REMARK INTER:                  -9.206
REMARK INTRA:                  -0.971
REMARK UNBOUND:                -1.180
REMARK SMILES CC[C@@H](CC[C@H](C)[C@@H]1CC[C@@H]2[C@H]3CC=C4C[C@@H](O)CC[C@]4(C)[C@@H]3CC[C@]21C)C(C)C
REMARK SMILES IDX 5 1 4 2 3 3 2 4 1 5 28 6 29 7 30 8 6 9 7 10 8 11 9 12 26 13
REMARK SMILES IDX 10 14 11 15 25 16 27 17 12 18 24 19 23 20 13 21 21 22 14 23
REMARK SMILES IDX 15 24 20 25 22 26 16 27 19 28 17 29 18 30
REMARK H PARENT 18 31
REMARK Flexibility Score: inf
ROOT
ATOM      1  C   UNL     1     162.361 165.880 186.716  1.00  0.00     0.004 C 
ENDROOT
BRANCH   1   2
ATOM      2  C   UNL     1     163.007 164.803 187.612  1.00  0.00     0.004 C 
BRANCH   2   3
ATOM      3  C   UNL     1     162.936 163.396 186.952  1.00  0.00    -0.009 C 
BRANCH   3   4
ATOM      4  C   UNL     1     161.667 162.620 187.403  1.00  0.00     0.000 C 
ATOM      5  C   UNL     1     161.989 161.202 187.883  1.00  0.00     0.004 C 
ENDBRANCH   3   4
BRANCH   3   6
ATOM      6  C   UNL     1     164.257 162.595 187.197  1.00  0.00    -0.014 C 
ATOM      7  C   UNL     1     165.073 162.346 185.914  1.00  0.00     0.007 C 
ATOM      8  C   UNL     1     165.140 163.264 188.264  1.00  0.00     0.007 C 
ENDBRANCH   3   6
ENDBRANCH   2   3
ENDBRANCH   1   2
BRANCH   1   9
ATOM      9  C   UNL     1     161.227 166.700 187.395  1.00  0.00    -0.011 C 
ATOM     10  C   UNL     1     160.078 165.763 187.811  1.00  0.00     0.008 C 
BRANCH   9  11
ATOM     11  C   UNL     1     160.729 167.902 186.520  1.00  0.00    -0.002 C 
ATOM     12  C   UNL     1     161.156 167.767 185.032  1.00  0.00     0.005 C 
ATOM     13  C   UNL     1     161.201 169.340 186.903  1.00  0.00    -0.026 C 
ATOM     14  C   UNL     1     161.365 169.187 184.488  1.00  0.00     0.005 C 
ATOM     15  C   UNL     1     160.864 170.088 185.603  1.00  0.00    -0.001 C 
ATOM     16  C   UNL     1     160.396 170.035 188.031  1.00  0.00     0.007 C 
ATOM     17  C   UNL     1     162.727 169.343 187.233  1.00  0.00     0.012 C 
ATOM     18  C   UNL     1     161.306 171.569 185.602  1.00  0.00     0.000 C 
ATOM     19  C   UNL     1     160.750 171.536 188.133  1.00  0.00     0.005 C 
ATOM     20  C   UNL     1     160.607 172.307 186.780  1.00  0.00     0.003 C 
ATOM     21  C   UNL     1     160.882 172.247 184.293  1.00  0.00     0.031 C 
ATOM     22  C   UNL     1     161.024 173.835 186.851  1.00  0.00    -0.008 C 
ATOM     23  C   UNL     1     161.214 173.706 184.317  1.00  0.00    -0.027 C 
ATOM     24  C   UNL     1     161.231 174.445 185.448  1.00  0.00    -0.065 C 
ATOM     25  C   UNL     1     162.362 174.029 187.636  1.00  0.00     0.014 C 
ATOM     26  C   UNL     1     159.884 174.608 187.567  1.00  0.00     0.016 C 
ATOM     27  C   UNL     1     161.756 175.863 185.368  1.00  0.00     0.063 C 
ATOM     28  C   UNL     1     162.945 175.455 187.551  1.00  0.00     0.033 C 
ATOM     29  C   UNL     1     163.101 175.934 186.098  1.00  0.00     0.118 C 
BRANCH  29  30
ATOM     30  O   UNL     1     163.564 177.258 186.077  1.00  0.00    -0.393 OA
ATOM     31  H   UNL     1     163.169 177.685 185.273  1.00  0.00     0.210 HD
ENDBRANCH  29  30
ENDBRANCH   9  11
ENDBRANCH   1   9
TORSDOF 7
ENDMDL
MODEL 5
REMARK VINA RESULT:    -6.440      3.192      9.493
REMARK INTER + INTRA:         -10.067
REMARK INTER:                  -8.565
REMARK INTRA:                  -1.503
REMARK UNBOUND:                -1.180
REMARK SMILES CC[C@@H](CC[C@H](C)[C@@H]1CC[C@@H]2[C@H]3CC=C4C[C@@H](O)CC[C@]4(C)[C@@H]3CC[C@]21C)C(C)C
REMARK SMILES IDX 5 1 4 2 3 3 2 4 1 5 28 6 29 7 30 8 6 9 7 10 8 11 9 12 26 13
REMARK SMILES IDX 10 14 11 15 25 16 27 17 12 18 24 19 23 20 13 21 21 22 14 23
REMARK SMILES IDX 15 24 20 25 22 26 16 27 19 28 17 29 18 30
REMARK H PARENT 18 31
REMARK Flexibility Score: inf
ROOT
ATOM      1  C   UNL     1     172.076 176.842 187.889  1.00  0.00     0.004 C 
ENDROOT
BRANCH   1   2
ATOM      2  C   UNL     1     173.200 177.413 187.000  1.00  0.00     0.004 C 
BRANCH   2   3
ATOM      3  C   UNL     1     173.013 178.939 186.758  1.00  0.00    -0.009 C 
BRANCH   3   4
ATOM      4  C   UNL     1     172.807 179.255 185.251  1.00  0.00     0.000 C 
ATOM      5  C   UNL     1     171.328 179.270 184.854  1.00  0.00     0.004 C 
ENDBRANCH   3   4
BRANCH   3   6
ATOM      6  C   UNL     1     174.186 179.754 187.396  1.00  0.00    -0.014 C 
ATOM      7  C   UNL     1     174.841 179.051 188.600  1.00  0.00     0.007 C 
ATOM      8  C   UNL     1     175.255 180.125 186.355  1.00  0.00     0.007 C 
ENDBRANCH   3   6
ENDBRANCH   2   3
ENDBRANCH   1   2
BRANCH   1   9
ATOM      9  C   UNL     1     170.945 176.102 187.118  1.00  0.00    -0.011 C 
ATOM     10  C   UNL     1     171.510 175.475 185.830  1.00  0.00     0.008 C 
BRANCH   9  11
ATOM     11  C   UNL     1     169.695 177.008 186.842  1.00  0.00    -0.002 C 
ATOM     12  C   UNL     1     169.523 178.121 187.914  1.00  0.00     0.005 C 
ATOM     13  C   UNL     1     168.289 176.332 186.793  1.00  0.00    -0.026 C 
ATOM     14  C   UNL     1     168.017 178.384 188.058  1.00  0.00     0.005 C 
ATOM     15  C   UNL     1     167.390 177.571 186.939  1.00  0.00    -0.001 C 
ATOM     16  C   UNL     1     167.907 175.670 185.444  1.00  0.00     0.007 C 
ATOM     17  C   UNL     1     168.130 175.318 187.970  1.00  0.00     0.012 C 
ATOM     18  C   UNL     1     165.883 177.242 187.029  1.00  0.00     0.000 C 
ATOM     19  C   UNL     1     166.409 175.290 185.407  1.00  0.00     0.005 C 
ATOM     20  C   UNL     1     165.452 176.482 185.742  1.00  0.00     0.003 C 
ATOM     21  C   UNL     1     165.064 178.536 187.117  1.00  0.00     0.031 C 
ATOM     22  C   UNL     1     163.914 176.098 185.768  1.00  0.00    -0.008 C 
ATOM     23  C   UNL     1     163.597 178.239 187.105  1.00  0.00    -0.027 C 
ATOM     24  C   UNL     1     163.060 177.180 186.460  1.00  0.00    -0.065 C 
ATOM     25  C   UNL     1     163.671 174.759 186.537  1.00  0.00     0.014 C 
ATOM     26  C   UNL     1     163.435 175.950 184.299  1.00  0.00     0.016 C 
ATOM     27  C   UNL     1     161.589 176.886 186.671  1.00  0.00     0.063 C 
ATOM     28  C   UNL     1     162.183 174.441 186.798  1.00  0.00     0.033 C 
ATOM     29  C   UNL     1     161.455 175.603 187.496  1.00  0.00     0.118 C 
BRANCH  29  30
ATOM     30  O   UNL     1     160.094 175.294 187.644  1.00  0.00    -0.393 OA
ATOM     31  H   UNL     1     159.596 176.147 187.549  1.00  0.00     0.210 HD
ENDBRANCH  29  30
ENDBRANCH   9  11
ENDBRANCH   1   9
TORSDOF 7
ENDMDL
MODEL 6
REMARK VINA RESULT:    -6.432      7.088     11.471
REMARK INTER + INTRA:         -10.056
REMARK INTER:                  -8.916
REMARK INTRA:                  -1.139
REMARK UNBOUND:                -1.180
REMARK SMILES CC[C@@H](CC[C@H](C)[C@@H]1CC[C@@H]2[C@H]3CC=C4C[C@@H](O)CC[C@]4(C)[C@@H]3CC[C@]21C)C(C)C
REMARK SMILES IDX 5 1 4 2 3 3 2 4 1 5 28 6 29 7 30 8 6 9 7 10 8 11 9 12 26 13
REMARK SMILES IDX 10 14 11 15 25 16 27 17 12 18 24 19 23 20 13 21 21 22 14 23
REMARK SMILES IDX 15 24 20 25 22 26 16 27 19 28 17 29 18 30
REMARK H PARENT 18 31
REMARK Flexibility Score: inf
ROOT
ATOM      1  C   UNL     1     162.295 166.497 186.054  1.00  0.00     0.004 C 
ENDROOT
BRANCH   1   2
ATOM      2  C   UNL     1     162.266 165.431 187.167  1.00  0.00     0.004 C 
BRANCH   2   3
ATOM      3  C   UNL     1     161.677 164.085 186.651  1.00  0.00    -0.009 C 
BRANCH   3   4
ATOM      4  C   UNL     1     160.300 163.779 187.303  1.00  0.00     0.000 C 
ATOM      5  C   UNL     1     159.875 164.858 188.304  1.00  0.00     0.004 C 
ENDBRANCH   3   4
BRANCH   3   6
ATOM      6  C   UNL     1     162.706 162.920 186.827  1.00  0.00    -0.014 C 
ATOM      7  C   UNL     1     164.023 163.358 187.495  1.00  0.00     0.007 C 
ATOM      8  C   UNL     1     162.097 161.732 187.589  1.00  0.00     0.007 C 
ENDBRANCH   3   6
ENDBRANCH   2   3
ENDBRANCH   1   2
BRANCH   1   9
ATOM      9  C   UNL     1     163.191 167.733 186.356  1.00  0.00    -0.011 C 
ATOM     10  C   UNL     1     164.483 167.284 187.064  1.00  0.00     0.008 C 
BRANCH   9  11
ATOM     11  C   UNL     1     162.439 168.860 187.145  1.00  0.00    -0.002 C 
ATOM     12  C   UNL     1     160.900 168.643 187.164  1.00  0.00     0.005 C 
ATOM     13  C   UNL     1     162.590 170.334 186.653  1.00  0.00    -0.026 C 
ATOM     14  C   UNL     1     160.245 170.031 187.192  1.00  0.00     0.005 C 
ATOM     15  C   UNL     1     161.409 170.986 187.391  1.00  0.00    -0.001 C 
ATOM     16  C   UNL     1     163.867 171.074 187.128  1.00  0.00     0.007 C 
ATOM     17  C   UNL     1     162.457 170.406 185.099  1.00  0.00     0.012 C 
ATOM     18  C   UNL     1     161.201 172.476 187.041  1.00  0.00     0.000 C 
ATOM     19  C   UNL     1     163.782 172.590 186.832  1.00  0.00     0.005 C 
ATOM     20  C   UNL     1     162.492 173.267 187.401  1.00  0.00     0.003 C 
ATOM     21  C   UNL     1     160.041 173.055 187.860  1.00  0.00     0.031 C 
ATOM     22  C   UNL     1     162.357 174.809 187.057  1.00  0.00    -0.008 C 
ATOM     23  C   UNL     1     159.889 174.522 187.607  1.00  0.00    -0.027 C 
ATOM     24  C   UNL     1     160.926 175.333 187.298  1.00  0.00    -0.065 C 
ATOM     25  C   UNL     1     162.704 175.094 185.559  1.00  0.00     0.014 C 
ATOM     26  C   UNL     1     163.335 175.589 187.976  1.00  0.00     0.016 C 
ATOM     27  C   UNL     1     160.621 176.759 186.888  1.00  0.00     0.063 C 
ATOM     28  C   UNL     1     162.376 176.529 185.096  1.00  0.00     0.033 C 
ATOM     29  C   UNL     1     160.918 176.918 185.395  1.00  0.00     0.118 C 
BRANCH  29  30
ATOM     30  O   UNL     1     160.693 178.253 185.022  1.00  0.00    -0.393 OA
ATOM     31  H   UNL     1     161.079 178.363 184.115  1.00  0.00     0.210 HD
ENDBRANCH  29  30
ENDBRANCH   9  11
ENDBRANCH   1   9
TORSDOF 7
ENDMDL
MODEL 7
REMARK VINA RESULT:    -6.402      1.511      2.685
REMARK INTER + INTRA:         -10.015
REMARK INTER:                  -8.613
REMARK INTRA:                  -1.402
REMARK UNBOUND:                -1.180
REMARK SMILES CC[C@@H](CC[C@H](C)[C@@H]1CC[C@@H]2[C@H]3CC=C4C[C@@H](O)CC[C@]4(C)[C@@H]3CC[C@]21C)C(C)C
REMARK SMILES IDX 5 1 4 2 3 3 2 4 1 5 28 6 29 7 30 8 6 9 7 10 8 11 9 12 26 13
REMARK SMILES IDX 10 14 11 15 25 16 27 17 12 18 24 19 23 20 13 21 21 22 14 23
REMARK SMILES IDX 15 24 20 25 22 26 16 27 19 28 17 29 18 30
REMARK H PARENT 18 31
REMARK Flexibility Score: inf
ROOT
ATOM      1  C   UNL     1     163.325 175.520 186.371  1.00  0.00     0.004 C 
ENDROOT
BRANCH   1   2
ATOM      2  C   UNL     1     162.037 174.965 187.013  1.00  0.00     0.004 C 
BRANCH   2   3
ATOM      3  C   UNL     1     160.817 175.107 186.056  1.00  0.00    -0.009 C 
BRANCH   3   4
ATOM      4  C   UNL     1     160.297 173.720 185.588  1.00  0.00     0.000 C 
ATOM      5  C   UNL     1     160.751 172.584 186.510  1.00  0.00     0.004 C 
ENDBRANCH   3   4
BRANCH   3   6
ATOM      6  C   UNL     1     161.149 176.066 184.866  1.00  0.00    -0.014 C 
ATOM      7  C   UNL     1     160.739 175.505 183.491  1.00  0.00     0.007 C 
ATOM      8  C   UNL     1     160.538 177.462 185.071  1.00  0.00     0.007 C 
ENDBRANCH   3   6
ENDBRANCH   2   3
ENDBRANCH   1   2
BRANCH   1   9
ATOM      9  C   UNL     1     164.051 176.615 187.204  1.00  0.00    -0.011 C 
ATOM     10  C   UNL     1     163.016 177.534 187.880  1.00  0.00     0.008 C 
BRANCH   9  11
ATOM     11  C   UNL     1     165.110 177.419 186.372  1.00  0.00    -0.002 C 
ATOM     12  C   UNL     1     165.143 176.986 184.880  1.00  0.00     0.005 C 
ATOM     13  C   UNL     1     166.607 177.337 186.806  1.00  0.00    -0.026 C 
ATOM     14  C   UNL     1     166.586 177.162 184.387  1.00  0.00     0.005 C 
ATOM     15  C   UNL     1     167.285 177.871 185.533  1.00  0.00    -0.001 C 
ATOM     16  C   UNL     1     167.027 178.286 187.958  1.00  0.00     0.007 C 
ATOM     17  C   UNL     1     167.000 175.862 187.135  1.00  0.00     0.012 C 
ATOM     18  C   UNL     1     168.829 177.833 185.585  1.00  0.00     0.000 C 
ATOM     19  C   UNL     1     168.565 178.336 188.113  1.00  0.00     0.005 C 
ATOM     20  C   UNL     1     169.317 178.689 186.789  1.00  0.00     0.003 C 
ATOM     21  C   UNL     1     169.416 178.433 184.301  1.00  0.00     0.031 C 
ATOM     22  C   UNL     1     170.898 178.687 186.914  1.00  0.00    -0.008 C 
ATOM     23  C   UNL     1     170.909 178.494 184.377  1.00  0.00    -0.027 C 
ATOM     24  C   UNL     1     171.587 178.661 185.534  1.00  0.00    -0.065 C 
ATOM     25  C   UNL     1     171.408 177.440 187.705  1.00  0.00     0.014 C 
ATOM     26  C   UNL     1     171.318 179.984 187.657  1.00  0.00     0.016 C 
ATOM     27  C   UNL     1     173.096 178.527 185.504  1.00  0.00     0.063 C 
ATOM     28  C   UNL     1     172.939 177.252 187.671  1.00  0.00     0.033 C 
ATOM     29  C   UNL     1     173.492 177.241 186.235  1.00  0.00     0.118 C 
BRANCH  29  30
ATOM     30  O   UNL     1     174.892 177.142 186.262  1.00  0.00    -0.393 OA
ATOM     31  H   UNL     1     175.244 177.977 185.859  1.00  0.00     0.210 HD
ENDBRANCH  29  30
ENDBRANCH   9  11
ENDBRANCH   1   9
TORSDOF 7
ENDMDL
MODEL 8
REMARK VINA RESULT:    -6.393      8.206     11.881
REMARK INTER + INTRA:         -10.003
REMARK INTER:                  -8.887
REMARK INTRA:                  -1.116
REMARK UNBOUND:                -1.180
REMARK SMILES CC[C@@H](CC[C@H](C)[C@@H]1CC[C@@H]2[C@H]3CC=C4C[C@@H](O)CC[C@]4(C)[C@@H]3CC[C@]21C)C(C)C
REMARK SMILES IDX 5 1 4 2 3 3 2 4 1 5 28 6 29 7 30 8 6 9 7 10 8 11 9 12 26 13
REMARK SMILES IDX 10 14 11 15 25 16 27 17 12 18 24 19 23 20 13 21 21 22 14 23
REMARK SMILES IDX 15 24 20 25 22 26 16 27 19 28 17 29 18 30
REMARK H PARENT 18 31
REMARK Flexibility Score: inf
ROOT
ATOM      1  C   UNL     1     161.067 175.265 183.897  1.00  0.00     0.004 C 
ENDROOT
BRANCH   1   2
ATOM      2  C   UNL     1     160.582 175.974 185.178  1.00  0.00     0.004 C 
BRANCH   2   3
ATOM      3  C   UNL     1     161.679 175.966 186.282  1.00  0.00    -0.009 C 
BRANCH   3   4
ATOM      4  C   UNL     1     161.378 174.906 187.377  1.00  0.00     0.000 C 
ATOM      5  C   UNL     1     159.877 174.638 187.533  1.00  0.00     0.004 C 
ENDBRANCH   3   4
BRANCH   3   6
ATOM      6  C   UNL     1     161.894 177.401 186.867  1.00  0.00    -0.014 C 
ATOM      7  C   UNL     1     160.630 178.279 186.823  1.00  0.00     0.007 C 
ATOM      8  C   UNL     1     162.458 177.356 188.297  1.00  0.00     0.007 C 
ENDBRANCH   3   6
ENDBRANCH   2   3
ENDBRANCH   1   2
BRANCH   1   9
ATOM      9  C   UNL     1     161.370 176.212 182.700  1.00  0.00    -0.011 C 
ATOM     10  C   UNL     1     161.131 177.676 183.116  1.00  0.00     0.008 C 
BRANCH   9  11
ATOM     11  C   UNL     1     160.588 175.826 181.397  1.00  0.00    -0.002 C 
ATOM     12  C   UNL     1     160.290 174.303 181.315  1.00  0.00     0.005 C 
ATOM     13  C   UNL     1     161.249 176.140 180.018  1.00  0.00    -0.026 C 
ATOM     14  C   UNL     1     160.297 173.917 179.830  1.00  0.00     0.005 C 
ATOM     15  C   UNL     1     160.396 175.246 179.102  1.00  0.00    -0.001 C 
ATOM     16  C   UNL     1     161.073 177.591 179.503  1.00  0.00     0.007 C 
ATOM     17  C   UNL     1     162.758 175.739 180.033  1.00  0.00     0.012 C 
ATOM     18  C   UNL     1     160.859 175.241 177.628  1.00  0.00     0.000 C 
ATOM     19  C   UNL     1     161.505 177.719 178.024  1.00  0.00     0.005 C 
ATOM     20  C   UNL     1     160.803 176.694 177.074  1.00  0.00     0.003 C 
ATOM     21  C   UNL     1     159.922 174.370 176.782  1.00  0.00     0.031 C 
ATOM     22  C   UNL     1     161.278 176.770 175.563  1.00  0.00    -0.008 C 
ATOM     23  C   UNL     1     160.297 174.433 175.335  1.00  0.00    -0.027 C 
ATOM     24  C   UNL     1     160.857 175.521 174.761  1.00  0.00    -0.065 C 
ATOM     25  C   UNL     1     162.834 176.881 175.457  1.00  0.00     0.014 C 
ATOM     26  C   UNL     1     160.621 178.021 174.920  1.00  0.00     0.016 C 
ATOM     27  C   UNL     1     161.356 175.400 173.336  1.00  0.00     0.063 C 
ATOM     28  C   UNL     1     163.382 176.731 174.022  1.00  0.00     0.033 C 
ATOM     29  C   UNL     1     162.887 175.443 173.343  1.00  0.00     0.118 C 
BRANCH  29  30
ATOM     30  O   UNL     1     163.353 175.390 172.020  1.00  0.00    -0.393 OA
ATOM     31  H   UNL     1     163.500 176.329 171.733  1.00  0.00     0.210 HD
ENDBRANCH  29  30
ENDBRANCH   9  11
ENDBRANCH   1   9
TORSDOF 7
ENDMDL
MODEL 9
REMARK VINA RESULT:    -6.388      6.423     10.034
REMARK INTER + INTRA:          -9.996
REMARK INTER:                  -8.171
REMARK INTRA:                  -1.825
REMARK UNBOUND:                -1.180
REMARK SMILES CC[C@@H](CC[C@H](C)[C@@H]1CC[C@@H]2[C@H]3CC=C4C[C@@H](O)CC[C@]4(C)[C@@H]3CC[C@]21C)C(C)C
REMARK SMILES IDX 5 1 4 2 3 3 2 4 1 5 28 6 29 7 30 8 6 9 7 10 8 11 9 12 26 13
REMARK SMILES IDX 10 14 11 15 25 16 27 17 12 18 24 19 23 20 13 21 21 22 14 23
REMARK SMILES IDX 15 24 20 25 22 26 16 27 19 28 17 29 18 30
REMARK H PARENT 18 31
REMARK Flexibility Score: inf
ROOT
ATOM      1  C   UNL     1     162.414 174.785 187.077  1.00  0.00     0.004 C 
ENDROOT
BRANCH   1   2
ATOM      2  C   UNL     1     162.437 176.128 187.835  1.00  0.00     0.004 C 
BRANCH   2   3
ATOM      3  C   UNL     1     162.505 177.334 186.853  1.00  0.00    -0.009 C 
BRANCH   3   4
ATOM      4  C   UNL     1     163.877 178.059 186.936  1.00  0.00     0.000 C 
ATOM      5  C   UNL     1     164.567 178.161 185.572  1.00  0.00     0.004 C 
ENDBRANCH   3   4
BRANCH   3   6
ATOM      6  C   UNL     1     161.293 178.299 187.068  1.00  0.00    -0.014 C 
ATOM      7  C   UNL     1     160.257 178.251 185.929  1.00  0.00     0.007 C 
ATOM      8  C   UNL     1     160.603 178.056 188.421  1.00  0.00     0.007 C 
ENDBRANCH   3   6
ENDBRANCH   2   3
ENDBRANCH   1   2
BRANCH   1   9
ATOM      9  C   UNL     1     161.272 174.645 186.030  1.00  0.00    -0.011 C 
ATOM     10  C   UNL     1     160.094 173.863 186.639  1.00  0.00     0.008 C 
BRANCH   9  11
ATOM     11  C   UNL     1     161.757 174.032 184.670  1.00  0.00    -0.002 C 
ATOM     12  C   UNL     1     163.294 173.807 184.637  1.00  0.00     0.005 C 
ATOM     13  C   UNL     1     161.480 174.832 183.359  1.00  0.00    -0.026 C 
ATOM     14  C   UNL     1     163.751 173.998 183.184  1.00  0.00     0.005 C 
ATOM     15  C   UNL     1     162.455 174.125 182.403  1.00  0.00    -0.001 C 
ATOM     16  C   UNL     1     160.065 174.658 182.750  1.00  0.00     0.007 C 
ATOM     17  C   UNL     1     161.810 176.345 183.562  1.00  0.00     0.012 C 
ATOM     18  C   UNL     1     162.510 174.753 180.991  1.00  0.00     0.000 C 
ATOM     19  C   UNL     1     159.989 175.251 181.324  1.00  0.00     0.005 C 
ATOM     20  C   UNL     1     161.090 174.702 180.358  1.00  0.00     0.003 C 
ATOM     21  C   UNL     1     163.463 173.953 180.094  1.00  0.00     0.031 C 
ATOM     22  C   UNL     1     161.066 175.342 178.908  1.00  0.00    -0.008 C 
ATOM     23  C   UNL     1     163.453 174.488 178.696  1.00  0.00    -0.027 C 
ATOM     24  C   UNL     1     162.370 175.066 178.131  1.00  0.00    -0.065 C 
ATOM     25  C   UNL     1     160.889 176.895 178.969  1.00  0.00     0.014 C 
ATOM     26  C   UNL     1     159.879 174.714 178.129  1.00  0.00     0.016 C 
ATOM     27  C   UNL     1     162.537 175.727 176.779  1.00  0.00     0.063 C 
ATOM     28  C   UNL     1     161.084 177.608 177.615  1.00  0.00     0.033 C 
ATOM     29  C   UNL     1     162.425 177.244 176.954  1.00  0.00     0.118 C 
BRANCH  29  30
ATOM     30  O   UNL     1     162.520 177.859 175.696  1.00  0.00    -0.393 OA
ATOM     31  H   UNL     1     162.049 178.730 175.769  1.00  0.00     0.210 HD
ENDBRANCH  29  30
ENDBRANCH   9  11
ENDBRANCH   1   9
TORSDOF 7
ENDMDL
