MODEL 1
REMARK VINA RESULT:    -7.342      0.000      0.000
REMARK INTER + INTRA:          -7.986
REMARK INTER:                  -7.986
REMARK INTRA:                   0.000
REMARK UNBOUND:                 0.000
REMARK SMILES C[C@H]1CC[C@@H]2[N@@H+](C1)C[C@@H]1[C@H]3C[C@@H]4[C@H](C[C@@H](O)[C@H]5C[C@@H](O)CC[C@@]45C)[C@@H]3CC[C@@H]1[C@]2(C)O
REMARK SMILES IDX 5 1 6 2 8 3 7 4 4 5 29 6 3 7 28 8 30 9 2 10 27 11 9 12 1 13
REMARK SMILES IDX 26 14 10 15 25 16 11 17 13 18 12 19 14 20 23 21 15 22 17 23
REMARK SMILES IDX 22 24 24 25 18 26 21 27 19 28 31 30 16 32 20 34
REMARK H PARENT 6 29 31 31 16 33 20 35
REMARK Flexibility Score: inf
ROOT
ATOM      1  C   UNL     1      53.758   0.887  31.940  1.00  0.00     0.216 C 
ATOM      2  N   UNL     1      52.333   0.520  31.717  1.00  0.00    -0.330 N 
ATOM      3  C   UNL     1      51.686   1.334  30.654  1.00  0.00     0.266 C 
ATOM      4  C   UNL     1      51.503   0.662  32.944  1.00  0.00     0.265 C 
ATOM      5  C   UNL     1      54.352   0.145  33.176  1.00  0.00     0.069 C 
ATOM      6  C   UNL     1      54.636   0.600  30.656  1.00  0.00     0.117 C 
ATOM      7  C   UNL     1      53.484   0.291  34.420  1.00  0.00     0.015 C 
ATOM      8  C   UNL     1      53.922   1.049  29.319  1.00  0.00     0.036 C 
ATOM      9  C   UNL     1      55.967   1.390  30.782  1.00  0.00     0.049 C 
ATOM     10  C   UNL     1      52.039  -0.125  34.147  1.00  0.00     0.041 C 
ATOM     11  C   UNL     1      53.712  -0.061  28.234  1.00  0.00     0.007 C 
ATOM     12  C   UNL     1      52.624   1.889  29.542  1.00  0.00     0.054 C 
ATOM     13  C   UNL     1      51.879  -1.644  33.974  1.00  0.00     0.013 C 
ATOM     14  C   UNL     1      53.278   0.511  26.838  1.00  0.00     0.004 C 
ATOM     15  C   UNL     1      51.831   2.000  28.210  1.00  0.00     0.002 C 
ATOM     16  C   UNL     1      52.730   1.945  26.977  1.00  0.00    -0.004 C 
ATOM     17  C   UNL     1      50.932   3.211  27.973  1.00  0.00     0.009 C 
ATOM     18  C   UNL     1      51.905   2.592  25.841  1.00  0.00    -0.001 C 
ATOM     19  C   UNL     1      50.580   2.983  26.496  1.00  0.00    -0.001 C 
ATOM     20  C   UNL     1      51.597   1.812  24.563  1.00  0.00     0.036 C 
ATOM     21  C   UNL     1      49.761   4.024  25.677  1.00  0.00    -0.024 C 
ATOM     22  C   UNL     1      50.860   2.758  23.586  1.00  0.00     0.118 C 
ATOM     23  C   UNL     1      49.598   3.513  24.179  1.00  0.00     0.026 C 
ATOM     24  C   UNL     1      48.355   4.200  26.322  1.00  0.00     0.010 C 
ATOM     25  C   UNL     1      50.458   5.411  25.681  1.00  0.00     0.012 C 
ATOM     26  C   UNL     1      48.222   2.839  23.878  1.00  0.00     0.038 C 
ATOM     27  C   UNL     1      47.506   2.908  26.337  1.00  0.00     0.032 C 
ATOM     28  C   UNL     1      47.628   2.049  25.052  1.00  0.00     0.114 C 
ATOM     29  H   UNL     1      52.282  -0.481  31.416  1.00  0.00     0.348 HD
ENDROOT
BRANCH   6  30
ATOM     30  O   UNL     1      54.995  -0.766  30.585  1.00  0.00    -0.384 OA
ATOM     31  H   UNL     1      54.562  -1.243  31.342  1.00  0.00     0.211 HD
ENDBRANCH   6  30
BRANCH  22  32
ATOM     32  O   UNL     1      50.538   2.045  22.420  1.00  0.00    -0.393 OA
ATOM     33  H   UNL     1      51.038   1.189  22.461  1.00  0.00     0.210 HD
ENDBRANCH  22  32
BRANCH  28  34
ATOM     34  O   UNL     1      48.387   0.892  25.292  1.00  0.00    -0.393 OA
ATOM     35  H   UNL     1      47.749   0.132  25.321  1.00  0.00     0.210 HD
ENDBRANCH  28  34
TORSDOF 3
ENDMDL
MODEL 2
REMARK VINA RESULT:    -6.928      4.434      8.084
REMARK INTER + INTRA:          -7.536
REMARK INTER:                  -7.536
REMARK INTRA:                   0.000
REMARK UNBOUND:                 0.000
REMARK SMILES C[C@H]1CC[C@@H]2[N@@H+](C1)C[C@@H]1[C@H]3C[C@@H]4[C@H](C[C@@H](O)[C@H]5C[C@@H](O)CC[C@@]45C)[C@@H]3CC[C@@H]1[C@]2(C)O
REMARK SMILES IDX 5 1 6 2 8 3 7 4 4 5 29 6 3 7 28 8 30 9 2 10 27 11 9 12 1 13
REMARK SMILES IDX 26 14 10 15 25 16 11 17 13 18 12 19 14 20 23 21 15 22 17 23
REMARK SMILES IDX 22 24 24 25 18 26 21 27 19 28 31 30 16 32 20 34
REMARK H PARENT 6 29 31 31 16 33 20 35
REMARK Flexibility Score: inf
ROOT
ATOM      1  C   UNL     1      46.156  -3.087  25.778  1.00  0.00     0.216 C 
ATOM      2  N   UNL     1      46.413  -1.625  25.667  1.00  0.00    -0.330 N 
ATOM      3  C   UNL     1      47.749  -1.232  26.188  1.00  0.00     0.266 C 
ATOM      4  C   UNL     1      45.403  -0.807  26.391  1.00  0.00     0.265 C 
ATOM      5  C   UNL     1      44.687  -3.440  25.394  1.00  0.00     0.069 C 
ATOM      6  C   UNL     1      47.168  -3.920  24.892  1.00  0.00     0.117 C 
ATOM      7  C   UNL     1      43.666  -2.584  26.134  1.00  0.00     0.015 C 
ATOM      8  C   UNL     1      48.652  -3.385  24.999  1.00  0.00     0.036 C 
ATOM      9  C   UNL     1      47.150  -5.396  25.377  1.00  0.00     0.049 C 
ATOM     10  C   UNL     1      43.957  -1.093  25.966  1.00  0.00     0.041 C 
ATOM     11  C   UNL     1      49.338  -2.959  23.657  1.00  0.00     0.007 C 
ATOM     12  C   UNL     1      48.864  -2.318  26.119  1.00  0.00     0.054 C 
ATOM     13  C   UNL     1      43.648  -0.582  24.549  1.00  0.00     0.013 C 
ATOM     14  C   UNL     1      50.885  -2.727  23.798  1.00  0.00     0.004 C 
ATOM     15  C   UNL     1      50.244  -1.625  25.935  1.00  0.00     0.002 C 
ATOM     16  C   UNL     1      51.279  -2.533  25.275  1.00  0.00    -0.004 C 
ATOM     17  C   UNL     1      50.961  -1.052  27.155  1.00  0.00     0.009 C 
ATOM     18  C   UNL     1      52.651  -1.929  25.656  1.00  0.00    -0.001 C 
ATOM     19  C   UNL     1      52.316  -0.712  26.517  1.00  0.00    -0.001 C 
ATOM     20  C   UNL     1      53.637  -1.493  24.571  1.00  0.00     0.036 C 
ATOM     21  C   UNL     1      53.516  -0.197  27.366  1.00  0.00    -0.024 C 
ATOM     22  C   UNL     1      54.945  -1.042  25.262  1.00  0.00     0.118 C 
ATOM     23  C   UNL     1      54.778   0.025  26.422  1.00  0.00     0.026 C 
ATOM     24  C   UNL     1      53.131   1.150  28.045  1.00  0.00     0.010 C 
ATOM     25  C   UNL     1      53.879  -1.204  28.490  1.00  0.00     0.012 C 
ATOM     26  C   UNL     1      55.003   1.510  25.994  1.00  0.00     0.038 C 
ATOM     27  C   UNL     1      52.798   2.283  27.046  1.00  0.00     0.032 C 
ATOM     28  C   UNL     1      53.715   2.320  25.795  1.00  0.00     0.114 C 
ATOM     29  H   UNL     1      46.380  -1.349  24.658  1.00  0.00     0.348 HD
ENDROOT
BRANCH   6  30
ATOM     30  O   UNL     1      46.753  -3.945  23.540  1.00  0.00    -0.384 OA
ATOM     31  H   UNL     1      46.291  -4.809  23.371  1.00  0.00     0.211 HD
ENDBRANCH   6  30
BRANCH  22  32
ATOM     32  O   UNL     1      55.848  -0.604  24.279  1.00  0.00    -0.393 OA
ATOM     33  H   UNL     1      55.314  -0.135  23.588  1.00  0.00     0.210 HD
ENDBRANCH  22  32
BRANCH  28  34
ATOM     34  O   UNL     1      53.028   1.869  24.657  1.00  0.00    -0.393 OA
ATOM     35  H   UNL     1      52.138   2.308  24.667  1.00  0.00     0.210 HD
ENDBRANCH  28  34
TORSDOF 3
ENDMDL
MODEL 3
REMARK VINA RESULT:    -6.872      4.364      7.177
REMARK INTER + INTRA:          -7.475
REMARK INTER:                  -7.475
REMARK INTRA:                   0.000
REMARK UNBOUND:                 0.000
REMARK SMILES C[C@H]1CC[C@@H]2[N@@H+](C1)C[C@@H]1[C@H]3C[C@@H]4[C@H](C[C@@H](O)[C@H]5C[C@@H](O)CC[C@@]45C)[C@@H]3CC[C@@H]1[C@]2(C)O
REMARK SMILES IDX 5 1 6 2 8 3 7 4 4 5 29 6 3 7 28 8 30 9 2 10 27 11 9 12 1 13
REMARK SMILES IDX 26 14 10 15 25 16 11 17 13 18 12 19 14 20 23 21 15 22 17 23
REMARK SMILES IDX 22 24 24 25 18 26 21 27 19 28 31 30 16 32 20 34
REMARK H PARENT 6 29 31 31 16 33 20 35
REMARK Flexibility Score: inf
ROOT
ATOM      1  C   UNL     1      51.491   2.638  25.381  1.00  0.00     0.216 C 
ATOM      2  N   UNL     1      50.205   2.941  26.066  1.00  0.00    -0.330 N 
ATOM      3  C   UNL     1      49.087   2.077  25.604  1.00  0.00     0.266 C 
ATOM      4  C   UNL     1      49.773   4.353  25.879  1.00  0.00     0.265 C 
ATOM      5  C   UNL     1      52.594   3.675  25.753  1.00  0.00     0.069 C 
ATOM      6  C   UNL     1      51.988   1.172  25.707  1.00  0.00     0.117 C 
ATOM      7  C   UNL     1      52.131   5.115  25.568  1.00  0.00     0.015 C 
ATOM      8  C   UNL     1      50.817   0.110  25.659  1.00  0.00     0.036 C 
ATOM      9  C   UNL     1      53.052   0.765  24.651  1.00  0.00     0.049 C 
ATOM     10  C   UNL     1      50.824   5.383  26.313  1.00  0.00     0.041 C 
ATOM     11  C   UNL     1      50.578  -0.723  26.964  1.00  0.00     0.007 C 
ATOM     12  C   UNL     1      49.479   0.664  25.076  1.00  0.00     0.054 C 
ATOM     13  C   UNL     1      51.006   5.431  27.838  1.00  0.00     0.013 C 
ATOM     14  C   UNL     1      49.617  -1.946  26.752  1.00  0.00     0.004 C 
ATOM     15  C   UNL     1      48.321  -0.332  25.370  1.00  0.00     0.002 C 
ATOM     16  C   UNL     1      48.795  -1.781  25.458  1.00  0.00    -0.004 C 
ATOM     17  C   UNL     1      47.120  -0.380  24.429  1.00  0.00     0.009 C 
ATOM     18  C   UNL     1      47.532  -2.637  25.207  1.00  0.00    -0.001 C 
ATOM     19  C   UNL     1      46.411  -1.623  24.985  1.00  0.00    -0.001 C 
ATOM     20  C   UNL     1      47.062  -3.653  26.249  1.00  0.00     0.036 C 
ATOM     21  C   UNL     1      45.151  -2.225  24.296  1.00  0.00    -0.024 C 
ATOM     22  C   UNL     1      45.854  -4.421  25.663  1.00  0.00     0.118 C 
ATOM     23  C   UNL     1      44.680  -3.523  25.088  1.00  0.00     0.026 C 
ATOM     24  C   UNL     1      44.005  -1.171  24.299  1.00  0.00     0.010 C 
ATOM     25  C   UNL     1      45.445  -2.597  22.818  1.00  0.00     0.012 C 
ATOM     26  C   UNL     1      43.493  -3.277  26.072  1.00  0.00     0.038 C 
ATOM     27  C   UNL     1      43.552  -0.741  25.714  1.00  0.00     0.032 C 
ATOM     28  C   UNL     1      43.495  -1.898  26.745  1.00  0.00     0.114 C 
ATOM     29  H   UNL     1      50.320   2.779  27.093  1.00  0.00     0.348 HD
ENDROOT
BRANCH   6  30
ATOM     30  O   UNL     1      52.639   1.126  26.961  1.00  0.00    -0.384 OA
ATOM     31  H   UNL     1      53.096   0.247  27.044  1.00  0.00     0.211 HD
ENDBRANCH   6  30
BRANCH  22  32
ATOM     32  O   UNL     1      45.388  -5.333  26.623  1.00  0.00    -0.393 OA
ATOM     33  H   UNL     1      44.413  -5.435  26.473  1.00  0.00     0.210 HD
ENDBRANCH  22  32
BRANCH  28  34
ATOM     34  O   UNL     1      44.556  -1.806  27.660  1.00  0.00    -0.393 OA
ATOM     35  H   UNL     1      45.271  -1.278  27.218  1.00  0.00     0.210 HD
ENDBRANCH  28  34
TORSDOF 3
ENDMDL
MODEL 4
REMARK VINA RESULT:    -6.854      5.451      8.984
REMARK INTER + INTRA:          -7.455
REMARK INTER:                  -7.455
REMARK INTRA:                   0.000
REMARK UNBOUND:                 0.000
REMARK SMILES C[C@H]1CC[C@@H]2[N@@H+](C1)C[C@@H]1[C@H]3C[C@@H]4[C@H](C[C@@H](O)[C@H]5C[C@@H](O)CC[C@@]45C)[C@@H]3CC[C@@H]1[C@]2(C)O
REMARK SMILES IDX 5 1 6 2 8 3 7 4 4 5 29 6 3 7 28 8 30 9 2 10 27 11 9 12 1 13
REMARK SMILES IDX 26 14 10 15 25 16 11 17 13 18 12 19 14 20 23 21 15 22 17 23
REMARK SMILES IDX 22 24 24 25 18 26 21 27 19 28 31 30 16 32 20 34
REMARK H PARENT 6 29 31 31 16 33 20 35
REMARK Flexibility Score: inf
ROOT
ATOM      1  C   UNL     1      45.913  -2.936  26.627  1.00  0.00     0.216 C 
ATOM      2  N   UNL     1      46.586  -2.015  25.672  1.00  0.00    -0.330 N 
ATOM      3  C   UNL     1      48.051  -1.911  25.903  1.00  0.00     0.266 C 
ATOM      4  C   UNL     1      46.036  -0.633  25.721  1.00  0.00     0.265 C 
ATOM      5  C   UNL     1      44.363  -2.885  26.475  1.00  0.00     0.069 C 
ATOM      6  C   UNL     1      46.430  -4.422  26.456  1.00  0.00     0.117 C 
ATOM      7  C   UNL     1      43.817  -1.462  26.515  1.00  0.00     0.015 C 
ATOM      8  C   UNL     1      47.999  -4.503  26.278  1.00  0.00     0.036 C 
ATOM      9  C   UNL     1      46.046  -5.227  27.728  1.00  0.00     0.049 C 
ATOM     10  C   UNL     1      44.519  -0.564  25.498  1.00  0.00     0.041 C 
ATOM     11  C   UNL     1      48.517  -5.202  24.976  1.00  0.00     0.007 C 
ATOM     12  C   UNL     1      48.739  -3.154  26.542  1.00  0.00     0.054 C 
ATOM     13  C   UNL     1      44.124  -0.883  24.047  1.00  0.00     0.013 C 
ATOM     14  C   UNL     1      50.057  -5.510  25.008  1.00  0.00     0.004 C 
ATOM     15  C   UNL     1      50.205  -3.247  26.032  1.00  0.00     0.002 C 
ATOM     16  C   UNL     1      50.763  -4.667  26.087  1.00  0.00    -0.004 C 
ATOM     17  C   UNL     1      51.282  -2.388  26.691  1.00  0.00     0.009 C 
ATOM     18  C   UNL     1      52.301  -4.501  26.083  1.00  0.00    -0.001 C 
ATOM     19  C   UNL     1      52.529  -2.991  26.029  1.00  0.00    -0.001 C 
ATOM     20  C   UNL     1      53.150  -5.154  24.992  1.00  0.00     0.036 C 
ATOM     21  C   UNL     1      53.967  -2.561  26.444  1.00  0.00    -0.024 C 
ATOM     22  C   UNL     1      54.639  -4.901  25.323  1.00  0.00     0.118 C 
ATOM     23  C   UNL     1      55.034  -3.391  25.605  1.00  0.00     0.026 C 
ATOM     24  C   UNL     1      54.155  -1.041  26.165  1.00  0.00     0.010 C 
ATOM     25  C   UNL     1      54.204  -2.793  27.961  1.00  0.00     0.012 C 
ATOM     26  C   UNL     1      55.624  -2.622  24.381  1.00  0.00     0.038 C 
ATOM     27  C   UNL     1      54.009  -0.655  24.674  1.00  0.00     0.032 C 
ATOM     28  C   UNL     1      54.639  -1.672  23.687  1.00  0.00     0.114 C 
ATOM     29  H   UNL     1      46.450  -2.374  24.698  1.00  0.00     0.348 HD
ENDROOT
BRANCH   6  30
ATOM     30  O   UNL     1      45.781  -5.062  25.375  1.00  0.00    -0.384 OA
ATOM     31  H   UNL     1      45.275  -5.841  25.730  1.00  0.00     0.211 HD
ENDBRANCH   6  30
BRANCH  22  32
ATOM     32  O   UNL     1      55.431  -5.464  24.310  1.00  0.00    -0.393 OA
ATOM     33  H   UNL     1      56.096  -4.777  24.049  1.00  0.00     0.210 HD
ENDBRANCH  22  32
BRANCH  28  34
ATOM     34  O   UNL     1      53.644  -2.406  23.021  1.00  0.00    -0.393 OA
ATOM     35  H   UNL     1      52.956  -1.753  22.726  1.00  0.00     0.210 HD
ENDBRANCH  28  34
TORSDOF 3
ENDMDL
MODEL 5
REMARK VINA RESULT:    -6.801      4.399      8.110
REMARK INTER + INTRA:          -7.398
REMARK INTER:                  -7.398
REMARK INTRA:                   0.000
REMARK UNBOUND:                 0.000
REMARK SMILES C[C@H]1CC[C@@H]2[N@@H+](C1)C[C@@H]1[C@H]3C[C@@H]4[C@H](C[C@@H](O)[C@H]5C[C@@H](O)CC[C@@]45C)[C@@H]3CC[C@@H]1[C@]2(C)O
REMARK SMILES IDX 5 1 6 2 8 3 7 4 4 5 29 6 3 7 28 8 30 9 2 10 27 11 9 12 1 13
REMARK SMILES IDX 26 14 10 15 25 16 11 17 13 18 12 19 14 20 23 21 15 22 17 23
REMARK SMILES IDX 22 24 24 25 18 26 21 27 19 28 31 30 16 32 20 34
REMARK H PARENT 6 29 31 31 16 33 20 35
REMARK Flexibility Score: inf
ROOT
ATOM      1  C   UNL     1      44.562  -2.168  26.423  1.00  0.00     0.216 C 
ATOM      2  N   UNL     1      45.393  -2.298  27.650  1.00  0.00    -0.330 N 
ATOM      3  C   UNL     1      46.852  -2.293  27.364  1.00  0.00     0.266 C 
ATOM      4  C   UNL     1      45.100  -3.542  28.414  1.00  0.00     0.265 C 
ATOM      5  C   UNL     1      43.046  -2.357  26.736  1.00  0.00     0.069 C 
ATOM      6  C   UNL     1      44.802  -0.778  25.707  1.00  0.00     0.117 C 
ATOM      7  C   UNL     1      42.766  -3.629  27.529  1.00  0.00     0.015 C 
ATOM      8  C   UNL     1      46.332  -0.379  25.652  1.00  0.00     0.036 C 
ATOM      9  C   UNL     1      44.275  -0.875  24.249  1.00  0.00     0.049 C 
ATOM     10  C   UNL     1      43.622  -3.701  28.793  1.00  0.00     0.041 C 
ATOM     11  C   UNL     1      46.719   0.989  26.307  1.00  0.00     0.007 C 
ATOM     12  C   UNL     1      47.302  -1.522  26.088  1.00  0.00     0.054 C 
ATOM     13  C   UNL     1      43.180  -2.698  29.870  1.00  0.00     0.013 C 
ATOM     14  C   UNL     1      48.178   1.453  25.956  1.00  0.00     0.004 C 
ATOM     15  C   UNL     1      48.729  -0.947  26.313  1.00  0.00     0.002 C 
ATOM     16  C   UNL     1      49.021   0.272  25.440  1.00  0.00    -0.004 C 
ATOM     17  C   UNL     1      49.941  -1.855  26.119  1.00  0.00     0.009 C 
ATOM     18  C   UNL     1      50.564   0.366  25.377  1.00  0.00    -0.001 C 
ATOM     19  C   UNL     1      51.061  -0.809  26.217  1.00  0.00    -0.001 C 
ATOM     20  C   UNL     1      51.284   1.631  25.847  1.00  0.00     0.036 C 
ATOM     21  C   UNL     1      52.551  -1.177  25.957  1.00  0.00    -0.024 C 
ATOM     22  C   UNL     1      52.794   1.462  25.556  1.00  0.00     0.118 C 
ATOM     23  C   UNL     1      53.454   0.126  26.098  1.00  0.00     0.026 C 
ATOM     24  C   UNL     1      53.012  -2.243  26.995  1.00  0.00     0.010 C 
ATOM     25  C   UNL     1      52.738  -1.787  24.541  1.00  0.00     0.012 C 
ATOM     26  C   UNL     1      54.177   0.257  27.476  1.00  0.00     0.038 C 
ATOM     27  C   UNL     1      52.942  -1.760  28.462  1.00  0.00     0.032 C 
ATOM     28  C   UNL     1      53.381  -0.287  28.670  1.00  0.00     0.114 C 
ATOM     29  H   UNL     1      45.197  -1.486  28.282  1.00  0.00     0.348 HD
ENDROOT
BRANCH   6  30
ATOM     30  O   UNL     1      44.052   0.247  26.329  1.00  0.00    -0.384 OA
ATOM     31  H   UNL     1      43.265   0.451  25.757  1.00  0.00     0.211 HD
ENDBRANCH   6  30
BRANCH  22  32
ATOM     32  O   UNL     1      53.474   2.601  26.015  1.00  0.00    -0.393 OA
ATOM     33  H   UNL     1      54.350   2.292  26.361  1.00  0.00     0.210 HD
ENDBRANCH  22  32
BRANCH  28  34
ATOM     34  O   UNL     1      52.273   0.534  28.930  1.00  0.00    -0.393 OA
ATOM     35  H   UNL     1      52.174   1.138  28.148  1.00  0.00     0.210 HD
ENDBRANCH  28  34
TORSDOF 3
ENDMDL
MODEL 6
REMARK VINA RESULT:    -6.759      6.225      9.356
REMARK INTER + INTRA:          -7.352
REMARK INTER:                  -7.352
REMARK INTRA:                   0.000
REMARK UNBOUND:                 0.000
REMARK SMILES C[C@H]1CC[C@@H]2[N@@H+](C1)C[C@@H]1[C@H]3C[C@@H]4[C@H](C[C@@H](O)[C@H]5C[C@@H](O)CC[C@@]45C)[C@@H]3CC[C@@H]1[C@]2(C)O
REMARK SMILES IDX 5 1 6 2 8 3 7 4 4 5 29 6 3 7 28 8 30 9 2 10 27 11 9 12 1 13
REMARK SMILES IDX 26 14 10 15 25 16 11 17 13 18 12 19 14 20 23 21 15 22 17 23
REMARK SMILES IDX 22 24 24 25 18 26 21 27 19 28 31 30 16 32 20 34
REMARK H PARENT 6 29 31 31 16 33 20 35
REMARK Flexibility Score: inf
ROOT
ATOM      1  C   UNL     1      44.026  -2.322  25.867  1.00  0.00     0.216 C 
ATOM      2  N   UNL     1      44.899  -3.025  26.846  1.00  0.00    -0.330 N 
ATOM      3  C   UNL     1      46.132  -3.581  26.227  1.00  0.00     0.266 C 
ATOM      4  C   UNL     1      44.207  -4.152  27.530  1.00  0.00     0.265 C 
ATOM      5  C   UNL     1      42.666  -1.911  26.507  1.00  0.00     0.069 C 
ATOM      6  C   UNL     1      44.748  -1.054  25.257  1.00  0.00     0.117 C 
ATOM      7  C   UNL     1      41.976  -3.072  27.214  1.00  0.00     0.015 C 
ATOM      8  C   UNL     1      46.259  -1.336  24.883  1.00  0.00     0.036 C 
ATOM      9  C   UNL     1      44.000  -0.636  23.961  1.00  0.00     0.049 C 
ATOM     10  C   UNL     1      42.903  -3.742  28.227  1.00  0.00     0.041 C 
ATOM     11  C   UNL     1      47.328  -0.413  25.562  1.00  0.00     0.007 C 
ATOM     12  C   UNL     1      46.663  -2.842  24.963  1.00  0.00     0.054 C 
ATOM     13  C   UNL     1      43.149  -2.875  29.473  1.00  0.00     0.013 C 
ATOM     14  C   UNL     1      48.757  -0.549  24.925  1.00  0.00     0.004 C 
ATOM     15  C   UNL     1      48.211  -2.977  24.903  1.00  0.00     0.002 C 
ATOM     16  C   UNL     1      48.874  -1.852  24.111  1.00  0.00    -0.004 C 
ATOM     17  C   UNL     1      48.828  -4.255  24.341  1.00  0.00     0.009 C 
ATOM     18  C   UNL     1      50.257  -2.407  23.697  1.00  0.00    -0.001 C 
ATOM     19  C   UNL     1      50.299  -3.821  24.276  1.00  0.00    -0.001 C 
ATOM     20  C   UNL     1      51.540  -1.682  24.107  1.00  0.00     0.036 C 
ATOM     21  C   UNL     1      51.394  -4.725  23.637  1.00  0.00    -0.024 C 
ATOM     22  C   UNL     1      52.737  -2.412  23.454  1.00  0.00     0.118 C 
ATOM     23  C   UNL     1      52.799  -3.979  23.691  1.00  0.00     0.026 C 
ATOM     24  C   UNL     1      51.487  -6.064  24.427  1.00  0.00     0.010 C 
ATOM     25  C   UNL     1      51.046  -5.070  22.164  1.00  0.00     0.012 C 
ATOM     26  C   UNL     1      53.721  -4.434  24.867  1.00  0.00     0.038 C 
ATOM     27  C   UNL     1      51.889  -5.890  25.910  1.00  0.00     0.032 C 
ATOM     28  C   UNL     1      52.976  -4.811  26.154  1.00  0.00     0.114 C 
ATOM     29  H   UNL     1      45.201  -2.346  27.583  1.00  0.00     0.348 HD
ENDROOT
BRANCH   6  30
ATOM     30  O   UNL     1      44.659   0.050  26.136  1.00  0.00    -0.384 OA
ATOM     31  H   UNL     1      43.970   0.675  25.786  1.00  0.00     0.211 HD
ENDBRANCH   6  30
BRANCH  22  32
ATOM     32  O   UNL     1      53.925  -1.779  23.852  1.00  0.00    -0.393 OA
ATOM     33  H   UNL     1      54.645  -2.124  23.264  1.00  0.00     0.210 HD
ENDBRANCH  22  32
BRANCH  28  34
ATOM     34  O   UNL     1      52.421  -3.666  26.747  1.00  0.00    -0.393 OA
ATOM     35  H   UNL     1      51.647  -3.399  26.185  1.00  0.00     0.210 HD
ENDBRANCH  28  34
TORSDOF 3
ENDMDL
MODEL 7
REMARK VINA RESULT:    -6.712      7.266      9.901
REMARK INTER + INTRA:          -7.301
REMARK INTER:                  -7.301
REMARK INTRA:                   0.000
REMARK UNBOUND:                 0.000
REMARK SMILES C[C@H]1CC[C@@H]2[N@@H+](C1)C[C@@H]1[C@H]3C[C@@H]4[C@H](C[C@@H](O)[C@H]5C[C@@H](O)CC[C@@]45C)[C@@H]3CC[C@@H]1[C@]2(C)O
REMARK SMILES IDX 5 1 6 2 8 3 7 4 4 5 29 6 3 7 28 8 30 9 2 10 27 11 9 12 1 13
REMARK SMILES IDX 26 14 10 15 25 16 11 17 13 18 12 19 14 20 23 21 15 22 17 23
REMARK SMILES IDX 22 24 24 25 18 26 21 27 19 28 31 30 16 32 20 34
REMARK H PARENT 6 29 31 31 16 33 20 35
REMARK Flexibility Score: inf
ROOT
ATOM      1  C   UNL     1      43.526  -5.053  28.043  1.00  0.00     0.216 C 
ATOM      2  N   UNL     1      44.612  -4.243  28.660  1.00  0.00    -0.330 N 
ATOM      3  C   UNL     1      45.957  -4.573  28.121  1.00  0.00     0.266 C 
ATOM      4  C   UNL     1      44.680  -4.403  30.138  1.00  0.00     0.265 C 
ATOM      5  C   UNL     1      42.160  -4.813  28.753  1.00  0.00     0.069 C 
ATOM      6  C   UNL     1      43.396  -4.760  26.494  1.00  0.00     0.117 C 
ATOM      7  C   UNL     1      42.250  -4.969  30.267  1.00  0.00     0.015 C 
ATOM      8  C   UNL     1      44.801  -4.671  25.772  1.00  0.00     0.036 C 
ATOM      9  C   UNL     1      42.589  -5.914  25.839  1.00  0.00     0.049 C 
ATOM     10  C   UNL     1      43.359  -4.096  30.854  1.00  0.00     0.041 C 
ATOM     11  C   UNL     1      45.110  -3.336  25.013  1.00  0.00     0.007 C 
ATOM     12  C   UNL     1      46.002  -5.119  26.663  1.00  0.00     0.054 C 
ATOM     13  C   UNL     1      43.012  -2.598  30.833  1.00  0.00     0.013 C 
ATOM     14  C   UNL     1      46.372  -3.431  24.084  1.00  0.00     0.004 C 
ATOM     15  C   UNL     1      47.341  -4.693  25.997  1.00  0.00     0.002 C 
ATOM     16  C   UNL     1      47.253  -4.633  24.474  1.00  0.00    -0.004 C 
ATOM     17  C   UNL     1      48.606  -5.503  26.275  1.00  0.00     0.009 C 
ATOM     18  C   UNL     1      48.714  -4.740  23.977  1.00  0.00    -0.001 C 
ATOM     19  C   UNL     1      49.551  -4.859  25.251  1.00  0.00    -0.001 C 
ATOM     20  C   UNL     1      49.321  -3.641  23.105  1.00  0.00     0.036 C 
ATOM     21  C   UNL     1      50.989  -5.404  25.005  1.00  0.00    -0.024 C 
ATOM     22  C   UNL     1      50.741  -4.087  22.684  1.00  0.00     0.118 C 
ATOM     23  C   UNL     1      51.694  -4.550  23.863  1.00  0.00     0.026 C 
ATOM     24  C   UNL     1      51.815  -5.297  26.320  1.00  0.00     0.010 C 
ATOM     25  C   UNL     1      50.956  -6.900  24.590  1.00  0.00     0.012 C 
ATOM     26  C   UNL     1      52.668  -3.451  24.396  1.00  0.00     0.038 C 
ATOM     27  C   UNL     1      51.991  -3.849  26.834  1.00  0.00     0.032 C 
ATOM     28  C   UNL     1      52.238  -2.802  25.718  1.00  0.00     0.114 C 
ATOM     29  H   UNL     1      44.437  -3.231  28.460  1.00  0.00     0.348 HD
ENDROOT
BRANCH   6  30
ATOM     30  O   UNL     1      42.652  -3.580  26.264  1.00  0.00    -0.384 OA
ATOM     31  H   UNL     1      43.176  -2.993  25.657  1.00  0.00     0.211 HD
ENDBRANCH   6  30
BRANCH  22  32
ATOM     32  O   UNL     1      51.324  -3.071  21.912  1.00  0.00    -0.393 OA
ATOM     33  H   UNL     1      50.786  -2.995  21.083  1.00  0.00     0.210 HD
ENDBRANCH  22  32
BRANCH  28  34
ATOM     34  O   UNL     1      51.101  -2.003  25.519  1.00  0.00    -0.393 OA
ATOM     35  H   UNL     1      51.423  -1.120  25.201  1.00  0.00     0.210 HD
ENDBRANCH  28  34
TORSDOF 3
ENDMDL
MODEL 8
REMARK VINA RESULT:    -6.698      4.924      7.278
REMARK INTER + INTRA:          -7.286
REMARK INTER:                  -7.286
REMARK INTRA:                   0.000
REMARK UNBOUND:                 0.000
REMARK SMILES C[C@H]1CC[C@@H]2[N@@H+](C1)C[C@@H]1[C@H]3C[C@@H]4[C@H](C[C@@H](O)[C@H]5C[C@@H](O)CC[C@@]45C)[C@@H]3CC[C@@H]1[C@]2(C)O
REMARK SMILES IDX 5 1 6 2 8 3 7 4 4 5 29 6 3 7 28 8 30 9 2 10 27 11 9 12 1 13
REMARK SMILES IDX 26 14 10 15 25 16 11 17 13 18 12 19 14 20 23 21 15 22 17 23
REMARK SMILES IDX 22 24 24 25 18 26 21 27 19 28 31 30 16 32 20 34
REMARK H PARENT 6 29 31 31 16 33 20 35
REMARK Flexibility Score: inf
ROOT
ATOM      1  C   UNL     1      53.397  -1.673  25.354  1.00  0.00     0.216 C 
ATOM      2  N   UNL     1      52.476  -0.770  26.094  1.00  0.00    -0.330 N 
ATOM      3  C   UNL     1      51.063  -0.890  25.646  1.00  0.00     0.266 C 
ATOM      4  C   UNL     1      52.854   0.665  25.970  1.00  0.00     0.265 C 
ATOM      5  C   UNL     1      54.887  -1.395  25.719  1.00  0.00     0.069 C 
ATOM      6  C   UNL     1      53.046  -3.194  25.613  1.00  0.00     0.117 C 
ATOM      7  C   UNL     1      55.254   0.079  25.599  1.00  0.00     0.015 C 
ATOM      8  C   UNL     1      51.490  -3.474  25.573  1.00  0.00     0.036 C 
ATOM      9  C   UNL     1      53.720  -4.052  24.507  1.00  0.00     0.049 C 
ATOM     10  C   UNL     1      54.297   0.962  26.399  1.00  0.00     0.041 C 
ATOM     11  C   UNL     1      50.864  -4.115  26.858  1.00  0.00     0.007 C 
ATOM     12  C   UNL     1      50.641  -2.269  25.058  1.00  0.00     0.054 C 
ATOM     13  C   UNL     1      54.498   0.835  27.917  1.00  0.00     0.013 C 
ATOM     14  C   UNL     1      49.399  -4.633  26.641  1.00  0.00     0.004 C 
ATOM     15  C   UNL     1      49.136  -2.516  25.360  1.00  0.00     0.002 C 
ATOM     16  C   UNL     1      48.771  -3.999  25.385  1.00  0.00    -0.004 C 
ATOM     17  C   UNL     1      48.078  -1.877  24.463  1.00  0.00     0.009 C 
ATOM     18  C   UNL     1      47.243  -4.046  25.151  1.00  0.00    -0.001 C 
ATOM     19  C   UNL     1      46.826  -2.583  25.003  1.00  0.00    -0.001 C 
ATOM     20  C   UNL     1      46.321  -4.707  26.175  1.00  0.00     0.036 C 
ATOM     21  C   UNL     1      45.429  -2.395  24.341  1.00  0.00    -0.024 C 
ATOM     22  C   UNL     1      44.881  -4.692  25.609  1.00  0.00     0.118 C 
ATOM     23  C   UNL     1      44.354  -3.284  25.107  1.00  0.00     0.026 C 
ATOM     24  C   UNL     1      45.015  -0.896  24.420  1.00  0.00     0.010 C 
ATOM     25  C   UNL     1      45.462  -2.797  22.842  1.00  0.00     0.012 C 
ATOM     26  C   UNL     1      43.490  -2.494  26.140  1.00  0.00     0.038 C 
ATOM     27  C   UNL     1      44.878  -0.359  25.863  1.00  0.00     0.032 C 
ATOM     28  C   UNL     1      44.232  -1.358  26.857  1.00  0.00     0.114 C 
ATOM     29  H   UNL     1      52.501  -1.016  27.111  1.00  0.00     0.348 HD
ENDROOT
BRANCH   6  30
ATOM     30  O   UNL     1      53.592  -3.636  26.841  1.00  0.00    -0.384 OA
ATOM     31  H   UNL     1      52.926  -3.465  27.559  1.00  0.00     0.211 HD
ENDBRANCH   6  30
BRANCH  22  32
ATOM     32  O   UNL     1      44.017  -5.264  26.555  1.00  0.00    -0.393 OA
ATOM     33  H   UNL     1      44.125  -6.247  26.487  1.00  0.00     0.210 HD
ENDBRANCH  22  32
BRANCH  28  34
ATOM     34  O   UNL     1      45.192  -1.883  27.736  1.00  0.00    -0.393 OA
ATOM     35  H   UNL     1      44.781  -1.888  28.640  1.00  0.00     0.210 HD
ENDBRANCH  28  34
TORSDOF 3
ENDMDL
