MODEL 1
REMARK VINA RESULT:    -1.622      0.000      0.000
REMARK INTER + INTRA:          -4.550
REMARK INTER:                  -2.238
REMARK INTRA:                  -2.312
REMARK UNBOUND:                -2.312
REMARK SMILES CC[C@H](CC[C@H](C)[C@@H]1CC[C@@H]2[C@H]3CC=C4C[C@@H](O)CC[C@@]4(C)[C@H]3CC[C@@]21C)C(C)C
REMARK SMILES IDX 5 1 4 2 3 3 2 4 1 5 28 6 29 7 30 8 6 9 7 10 8 11 9 12 26 13
REMARK SMILES IDX 10 14 11 15 25 16 27 17 12 18 24 19 23 20 13 21 21 22 14 23
REMARK SMILES IDX 15 24 20 25 22 26 16 27 19 28 17 29 18 30
REMARK H PARENT 18 31
REMARK Flexibility Score: inf
ROOT
ATOM      1  C   UNL     1     -17.481 -20.211  76.148  1.00  0.00     0.004 C 
ENDROOT
BRANCH   1   2
ATOM      2  C   UNL     1     -18.581 -21.066  76.827  1.00  0.00     0.004 C 
BRANCH   2   3
ATOM      3  C   UNL     1     -18.238 -22.583  76.957  1.00  0.00    -0.009 C 
BRANCH   3   4
ATOM      4  C   UNL     1     -17.368 -23.014  75.743  1.00  0.00     0.000 C 
ATOM      5  C   UNL     1     -18.205 -23.498  74.555  1.00  0.00     0.004 C 
ENDBRANCH   3   4
BRANCH   3   6
ATOM      6  C   UNL     1     -17.542 -23.006  78.311  1.00  0.00    -0.014 C 
ATOM      7  C   UNL     1     -18.486 -23.612  79.361  1.00  0.00     0.007 C 
ATOM      8  C   UNL     1     -16.322 -23.917  78.100  1.00  0.00     0.007 C 
ENDBRANCH   3   6
ENDBRANCH   2   3
ENDBRANCH   1   2
BRANCH   1   9
ATOM      9  C   UNL     1     -16.794 -19.154  77.058  1.00  0.00    -0.011 C 
ATOM     10  C   UNL     1     -16.816 -17.758  76.407  1.00  0.00     0.008 C 
BRANCH   9  11
ATOM     11  C   UNL     1     -15.359 -19.506  77.621  1.00  0.00    -0.002 C 
ATOM     12  C   UNL     1     -14.680 -20.770  77.080  1.00  0.00     0.005 C 
ATOM     13  C   UNL     1     -15.227 -19.609  79.171  1.00  0.00    -0.026 C 
ATOM     14  C   UNL     1     -13.617 -21.155  78.105  1.00  0.00     0.005 C 
ATOM     15  C   UNL     1     -13.812 -20.241  79.329  1.00  0.00    -0.001 C 
ATOM     16  C   UNL     1     -16.329 -20.526  79.779  1.00  0.00     0.007 C 
ATOM     17  C   UNL     1     -15.310 -18.188  79.792  1.00  0.00     0.012 C 
ATOM     18  C   UNL     1     -13.510 -20.984  80.668  1.00  0.00     0.000 C 
ATOM     19  C   UNL     1     -15.989 -21.069  81.174  1.00  0.00     0.005 C 
ATOM     20  C   UNL     1     -14.677 -21.887  81.146  1.00  0.00     0.003 C 
ATOM     21  C   UNL     1     -13.068 -20.005  81.768  1.00  0.00     0.031 C 
ATOM     22  C   UNL     1     -14.303 -22.658  82.484  1.00  0.00    -0.008 C 
ATOM     23  C   UNL     1     -12.876 -20.666  83.099  1.00  0.00    -0.027 C 
ATOM     24  C   UNL     1     -13.525 -21.785  83.478  1.00  0.00    -0.065 C 
ATOM     25  C   UNL     1     -15.575 -23.206  83.208  1.00  0.00     0.014 C 
ATOM     26  C   UNL     1     -13.397 -23.861  82.095  1.00  0.00     0.016 C 
ATOM     27  C   UNL     1     -13.285 -22.320  84.880  1.00  0.00     0.063 C 
ATOM     28  C   UNL     1     -15.285 -23.845  84.577  1.00  0.00     0.033 C 
ATOM     29  C   UNL     1     -14.574 -22.852  85.515  1.00  0.00     0.118 C 
BRANCH  29  30
ATOM     30  O   UNL     1     -15.423 -21.774  85.822  1.00  0.00    -0.393 OA
ATOM     31  H   UNL     1     -15.223 -21.510  86.758  1.00  0.00     0.210 HD
ENDBRANCH  29  30
ENDBRANCH   9  11
ENDBRANCH   1   9
TORSDOF 7
ENDMDL
MODEL 2
REMARK VINA RESULT:    -1.513      1.374      2.114
REMARK INTER + INTRA:          -4.399
REMARK INTER:                  -2.244
REMARK INTRA:                  -2.155
REMARK UNBOUND:                -2.312
REMARK SMILES CC[C@H](CC[C@H](C)[C@@H]1CC[C@@H]2[C@H]3CC=C4C[C@@H](O)CC[C@@]4(C)[C@H]3CC[C@@]21C)C(C)C
REMARK SMILES IDX 5 1 4 2 3 3 2 4 1 5 28 6 29 7 30 8 6 9 7 10 8 11 9 12 26 13
REMARK SMILES IDX 10 14 11 15 25 16 27 17 12 18 24 19 23 20 13 21 21 22 14 23
REMARK SMILES IDX 15 24 20 25 22 26 16 27 19 28 17 29 18 30
REMARK H PARENT 18 31
REMARK Flexibility Score: inf
ROOT
ATOM      1  C   UNL     1     -15.172 -20.736  76.061  1.00  0.00     0.004 C 
ENDROOT
BRANCH   1   2
ATOM      2  C   UNL     1     -16.685 -21.063  76.129  1.00  0.00     0.004 C 
BRANCH   2   3
ATOM      3  C   UNL     1     -17.151 -21.709  77.472  1.00  0.00    -0.009 C 
BRANCH   3   4
ATOM      4  C   UNL     1     -18.488 -21.050  77.916  1.00  0.00     0.000 C 
ATOM      5  C   UNL     1     -18.345 -19.552  78.204  1.00  0.00     0.004 C 
ENDBRANCH   3   4
BRANCH   3   6
ATOM      6  C   UNL     1     -17.291 -23.281  77.455  1.00  0.00    -0.014 C 
ATOM      7  C   UNL     1     -16.689 -23.997  78.674  1.00  0.00     0.007 C 
ATOM      8  C   UNL     1     -18.735 -23.753  77.218  1.00  0.00     0.007 C 
ENDBRANCH   3   6
ENDBRANCH   2   3
ENDBRANCH   1   2
BRANCH   1   9
ATOM      9  C   UNL     1     -14.612 -19.899  77.245  1.00  0.00    -0.011 C 
ATOM     10  C   UNL     1     -14.010 -18.569  76.753  1.00  0.00     0.008 C 
BRANCH   9  11
ATOM     11  C   UNL     1     -13.642 -20.632  78.257  1.00  0.00    -0.002 C 
ATOM     12  C   UNL     1     -13.375 -22.123  78.021  1.00  0.00     0.005 C 
ATOM     13  C   UNL     1     -14.002 -20.519  79.769  1.00  0.00    -0.026 C 
ATOM     14  C   UNL     1     -12.875 -22.682  79.350  1.00  0.00     0.005 C 
ATOM     15  C   UNL     1     -13.043 -21.570  80.404  1.00  0.00    -0.001 C 
ATOM     16  C   UNL     1     -15.493 -20.883  80.031  1.00  0.00     0.007 C 
ATOM     17  C   UNL     1     -13.706 -19.078  80.265  1.00  0.00     0.012 C 
ATOM     18  C   UNL     1     -13.438 -22.143  81.800  1.00  0.00     0.000 C 
ATOM     19  C   UNL     1     -15.794 -21.274  81.484  1.00  0.00     0.005 C 
ATOM     20  C   UNL     1     -14.944 -22.491  81.918  1.00  0.00     0.003 C 
ATOM     21  C   UNL     1     -12.984 -21.213  82.939  1.00  0.00     0.031 C 
ATOM     22  C   UNL     1     -15.287 -23.115  83.338  1.00  0.00    -0.008 C 
ATOM     23  C   UNL     1     -13.443 -21.673  84.288  1.00  0.00    -0.027 C 
ATOM     24  C   UNL     1     -14.548 -22.418  84.489  1.00  0.00    -0.065 C 
ATOM     25  C   UNL     1     -16.820 -23.060  83.638  1.00  0.00     0.014 C 
ATOM     26  C   UNL     1     -14.840 -24.605  83.317  1.00  0.00     0.016 C 
ATOM     27  C   UNL     1     -14.936 -22.767  85.916  1.00  0.00     0.063 C 
ATOM     28  C   UNL     1     -17.194 -23.526  85.055  1.00  0.00     0.033 C 
ATOM     29  C   UNL     1     -16.454 -22.705  86.125  1.00  0.00     0.118 C 
BRANCH  29  30
ATOM     30  O   UNL     1     -16.875 -21.364  86.093  1.00  0.00    -0.393 OA
ATOM     31  H   UNL     1     -16.513 -20.931  86.909  1.00  0.00     0.210 HD
ENDBRANCH  29  30
ENDBRANCH   9  11
ENDBRANCH   1   9
TORSDOF 7
ENDMDL
MODEL 3
REMARK VINA RESULT:    -1.449      1.443      2.168
REMARK INTER + INTRA:          -4.312
REMARK INTER:                  -2.280
REMARK INTRA:                  -2.032
REMARK UNBOUND:                -2.312
REMARK SMILES CC[C@H](CC[C@H](C)[C@@H]1CC[C@@H]2[C@H]3CC=C4C[C@@H](O)CC[C@@]4(C)[C@H]3CC[C@@]21C)C(C)C
REMARK SMILES IDX 5 1 4 2 3 3 2 4 1 5 28 6 29 7 30 8 6 9 7 10 8 11 9 12 26 13
REMARK SMILES IDX 10 14 11 15 25 16 27 17 12 18 24 19 23 20 13 21 21 22 14 23
REMARK SMILES IDX 15 24 20 25 22 26 16 27 19 28 17 29 18 30
REMARK H PARENT 18 31
REMARK Flexibility Score: inf
ROOT
ATOM      1  C   UNL     1     -16.830 -19.912  76.117  1.00  0.00     0.004 C 
ENDROOT
BRANCH   1   2
ATOM      2  C   UNL     1     -18.246 -20.296  76.615  1.00  0.00     0.004 C 
BRANCH   2   3
ATOM      3  C   UNL     1     -18.881 -19.280  77.616  1.00  0.00    -0.009 C 
BRANCH   3   4
ATOM      4  C   UNL     1     -19.798 -18.299  76.831  1.00  0.00     0.000 C 
ATOM      5  C   UNL     1     -21.271 -18.716  76.855  1.00  0.00     0.004 C 
ENDBRANCH   3   4
BRANCH   3   6
ATOM      6  C   UNL     1     -19.668 -19.922  78.825  1.00  0.00    -0.014 C 
ATOM      7  C   UNL     1     -19.448 -21.432  79.011  1.00  0.00     0.007 C 
ATOM      8  C   UNL     1     -19.437 -19.181  80.153  1.00  0.00     0.007 C 
ENDBRANCH   3   6
ENDBRANCH   2   3
ENDBRANCH   1   2
BRANCH   1   9
ATOM      9  C   UNL     1     -16.084 -18.845  76.968  1.00  0.00    -0.011 C 
ATOM     10  C   UNL     1     -15.899 -17.534  76.181  1.00  0.00     0.008 C 
BRANCH   9  11
ATOM     11  C   UNL     1     -14.742 -19.291  77.674  1.00  0.00    -0.002 C 
ATOM     12  C   UNL     1     -14.066 -20.569  77.161  1.00  0.00     0.005 C 
ATOM     13  C   UNL     1     -14.792 -19.453  79.223  1.00  0.00    -0.026 C 
ATOM     14  C   UNL     1     -13.146 -21.043  78.282  1.00  0.00     0.005 C 
ATOM     15  C   UNL     1     -13.435 -20.163  79.513  1.00  0.00    -0.001 C 
ATOM     16  C   UNL     1     -15.997 -20.333  79.666  1.00  0.00     0.007 C 
ATOM     17  C   UNL     1     -14.876 -18.053  79.887  1.00  0.00     0.012 C 
ATOM     18  C   UNL     1     -13.324 -20.966  80.846  1.00  0.00     0.000 C 
ATOM     19  C   UNL     1     -15.845 -20.940  81.068  1.00  0.00     0.005 C 
ATOM     20  C   UNL     1     -14.579 -21.824  81.154  1.00  0.00     0.003 C 
ATOM     21  C   UNL     1     -12.963 -20.050  82.027  1.00  0.00     0.031 C 
ATOM     22  C   UNL     1     -14.397 -22.659  82.493  1.00  0.00    -0.008 C 
ATOM     23  C   UNL     1     -12.956 -20.766  83.343  1.00  0.00    -0.027 C 
ATOM     24  C   UNL     1     -13.696 -21.862  83.602  1.00  0.00    -0.065 C 
ATOM     25  C   UNL     1     -15.767 -23.165  83.048  1.00  0.00     0.014 C 
ATOM     26  C   UNL     1     -13.511 -23.894  82.160  1.00  0.00     0.016 C 
ATOM     27  C   UNL     1     -13.642 -22.457  84.999  1.00  0.00     0.063 C 
ATOM     28  C   UNL     1     -15.666 -23.865  84.414  1.00  0.00     0.033 C 
ATOM     29  C   UNL     1     -15.020 -22.944  85.464  1.00  0.00     0.118 C 
BRANCH  29  30
ATOM     30  O   UNL     1     -15.846 -21.835  85.718  1.00  0.00    -0.393 OA
ATOM     31  H   UNL     1     -15.245 -21.063  85.886  1.00  0.00     0.210 HD
ENDBRANCH  29  30
ENDBRANCH   9  11
ENDBRANCH   1   9
TORSDOF 7
ENDMDL
MODEL 4
REMARK VINA RESULT:    -1.400      7.304      9.081
REMARK INTER + INTRA:          -4.244
REMARK INTER:                  -1.909
REMARK INTRA:                  -2.335
REMARK UNBOUND:                -2.312
REMARK SMILES CC[C@H](CC[C@H](C)[C@@H]1CC[C@@H]2[C@H]3CC=C4C[C@@H](O)CC[C@@]4(C)[C@H]3CC[C@@]21C)C(C)C
REMARK SMILES IDX 5 1 4 2 3 3 2 4 1 5 28 6 29 7 30 8 6 9 7 10 8 11 9 12 26 13
REMARK SMILES IDX 10 14 11 15 25 16 27 17 12 18 24 19 23 20 13 21 21 22 14 23
REMARK SMILES IDX 15 24 20 25 22 26 16 27 19 28 17 29 18 30
REMARK H PARENT 18 31
REMARK Flexibility Score: inf
ROOT
ATOM      1  C   UNL     1     -22.346 -15.843  80.692  1.00  0.00     0.004 C 
ENDROOT
BRANCH   1   2
ATOM      2  C   UNL     1     -21.246 -16.035  79.617  1.00  0.00     0.004 C 
BRANCH   2   3
ATOM      3  C   UNL     1     -20.812 -14.723  78.890  1.00  0.00    -0.009 C 
BRANCH   3   4
ATOM      4  C   UNL     1     -21.807 -13.586  79.256  1.00  0.00     0.000 C 
ATOM      5  C   UNL     1     -22.475 -12.963  78.026  1.00  0.00     0.004 C 
ENDBRANCH   3   4
BRANCH   3   6
ATOM      6  C   UNL     1     -19.326 -14.261  79.156  1.00  0.00    -0.014 C 
ATOM      7  C   UNL     1     -18.450 -14.146  77.898  1.00  0.00     0.007 C 
ATOM      8  C   UNL     1     -19.237 -12.971  79.988  1.00  0.00     0.007 C 
ENDBRANCH   3   6
ENDBRANCH   2   3
ENDBRANCH   1   2
BRANCH   1   9
ATOM      9  C   UNL     1     -21.998 -16.372  82.112  1.00  0.00    -0.011 C 
ATOM     10  C   UNL     1     -23.174 -17.159  82.719  1.00  0.00     0.008 C 
BRANCH   9  11
ATOM     11  C   UNL     1     -21.404 -15.333  83.146  1.00  0.00    -0.002 C 
ATOM     12  C   UNL     1     -21.489 -13.847  82.780  1.00  0.00     0.005 C 
ATOM     13  C   UNL     1     -19.925 -15.558  83.584  1.00  0.00    -0.026 C 
ATOM     14  C   UNL     1     -20.437 -13.138  83.629  1.00  0.00     0.005 C 
ATOM     15  C   UNL     1     -19.609 -14.229  84.333  1.00  0.00    -0.001 C 
ATOM     16  C   UNL     1     -18.988 -15.751  82.355  1.00  0.00     0.007 C 
ATOM     17  C   UNL     1     -19.845 -16.794  84.519  1.00  0.00     0.012 C 
ATOM     18  C   UNL     1     -18.108 -13.827  84.468  1.00  0.00     0.000 C 
ATOM     19  C   UNL     1     -17.506 -15.484  82.652  1.00  0.00     0.005 C 
ATOM     20  C   UNL     1     -17.294 -14.041  83.165  1.00  0.00     0.003 C 
ATOM     21  C   UNL     1     -17.444 -14.525  85.668  1.00  0.00     0.031 C 
ATOM     22  C   UNL     1     -15.786 -13.573  83.339  1.00  0.00    -0.008 C 
ATOM     23  C   UNL     1     -15.974 -14.251  85.764  1.00  0.00    -0.027 C 
ATOM     24  C   UNL     1     -15.198 -13.951  84.704  1.00  0.00    -0.065 C 
ATOM     25  C   UNL     1     -14.865 -14.172  82.228  1.00  0.00     0.014 C 
ATOM     26  C   UNL     1     -15.760 -12.021  83.221  1.00  0.00     0.016 C 
ATOM     27  C   UNL     1     -13.708 -13.756  84.932  1.00  0.00     0.063 C 
ATOM     28  C   UNL     1     -13.371 -13.861  82.423  1.00  0.00     0.033 C 
ATOM     29  C   UNL     1     -12.875 -14.356  83.794  1.00  0.00     0.118 C 
BRANCH  29  30
ATOM     30  O   UNL     1     -12.936 -15.759  83.860  1.00  0.00    -0.393 OA
ATOM     31  H   UNL     1     -13.537 -16.054  83.127  1.00  0.00     0.210 HD
ENDBRANCH  29  30
ENDBRANCH   9  11
ENDBRANCH   1   9
TORSDOF 7
ENDMDL
MODEL 5
REMARK VINA RESULT:    -1.288      7.132      9.429
REMARK INTER + INTRA:          -4.090
REMARK INTER:                  -1.719
REMARK INTRA:                  -2.371
REMARK UNBOUND:                -2.312
REMARK SMILES CC[C@H](CC[C@H](C)[C@@H]1CC[C@@H]2[C@H]3CC=C4C[C@@H](O)CC[C@@]4(C)[C@H]3CC[C@@]21C)C(C)C
REMARK SMILES IDX 5 1 4 2 3 3 2 4 1 5 28 6 29 7 30 8 6 9 7 10 8 11 9 12 26 13
REMARK SMILES IDX 10 14 11 15 25 16 27 17 12 18 24 19 23 20 13 21 21 22 14 23
REMARK SMILES IDX 15 24 20 25 22 26 16 27 19 28 17 29 18 30
REMARK H PARENT 18 31
REMARK Flexibility Score: inf
ROOT
ATOM      1  C   UNL     1     -23.216 -18.639  83.920  1.00  0.00     0.004 C 
ENDROOT
BRANCH   1   2
ATOM      2  C   UNL     1     -22.741 -18.744  82.448  1.00  0.00     0.004 C 
BRANCH   2   3
ATOM      3  C   UNL     1     -23.020 -17.475  81.583  1.00  0.00    -0.009 C 
BRANCH   3   4
ATOM      4  C   UNL     1     -24.212 -16.691  82.201  1.00  0.00     0.000 C 
ATOM      5  C   UNL     1     -25.445 -16.672  81.291  1.00  0.00     0.004 C 
ENDBRANCH   3   4
BRANCH   3   6
ATOM      6  C   UNL     1     -21.783 -16.517  81.367  1.00  0.00    -0.014 C 
ATOM      7  C   UNL     1     -21.176 -16.553  79.956  1.00  0.00     0.007 C 
ATOM      8  C   UNL     1     -22.066 -15.066  81.790  1.00  0.00     0.007 C 
ENDBRANCH   3   6
ENDBRANCH   2   3
ENDBRANCH   1   2
BRANCH   1   9
ATOM      9  C   UNL     1     -22.101 -18.761  84.997  1.00  0.00    -0.011 C 
ATOM     10  C   UNL     1     -22.502 -19.752  86.106  1.00  0.00     0.008 C 
BRANCH   9  11
ATOM     11  C   UNL     1     -21.528 -17.418  85.601  1.00  0.00    -0.002 C 
ATOM     12  C   UNL     1     -22.280 -16.121  85.278  1.00  0.00     0.005 C 
ATOM     13  C   UNL     1     -20.031 -17.103  85.300  1.00  0.00    -0.026 C 
ATOM     14  C   UNL     1     -21.290 -14.984  85.513  1.00  0.00     0.005 C 
ATOM     15  C   UNL     1     -19.914 -15.624  85.776  1.00  0.00    -0.001 C 
ATOM     16  C   UNL     1     -19.714 -17.235  83.781  1.00  0.00     0.007 C 
ATOM     17  C   UNL     1     -19.126 -18.059  86.122  1.00  0.00     0.012 C 
ATOM     18  C   UNL     1     -18.750 -14.774  85.180  1.00  0.00     0.000 C 
ATOM     19  C   UNL     1     -18.449 -16.486  83.340  1.00  0.00     0.005 C 
ATOM     20  C   UNL     1     -18.561 -14.976  83.654  1.00  0.00     0.003 C 
ATOM     21  C   UNL     1     -17.436 -15.002  85.945  1.00  0.00     0.031 C 
ATOM     22  C   UNL     1     -17.398 -14.054  83.086  1.00  0.00    -0.008 C 
ATOM     23  C   UNL     1     -16.270 -14.289  85.333  1.00  0.00    -0.027 C 
ATOM     24  C   UNL     1     -16.188 -13.975  84.025  1.00  0.00    -0.065 C 
ATOM     25  C   UNL     1     -16.900 -14.548  81.689  1.00  0.00     0.014 C 
ATOM     26  C   UNL     1     -17.974 -12.618  82.927  1.00  0.00     0.016 C 
ATOM     27  C   UNL     1     -14.921 -13.304  83.521  1.00  0.00     0.063 C 
ATOM     28  C   UNL     1     -15.685 -13.775  81.152  1.00  0.00     0.033 C 
ATOM     29  C   UNL     1     -14.508 -13.831  82.142  1.00  0.00     0.118 C 
BRANCH  29  30
ATOM     30  O   UNL     1     -14.035 -15.149  82.268  1.00  0.00    -0.393 OA
ATOM     31  H   UNL     1     -14.743 -15.663  82.737  1.00  0.00     0.210 HD
ENDBRANCH  29  30
ENDBRANCH   9  11
ENDBRANCH   1   9
TORSDOF 7
ENDMDL
MODEL 6
REMARK VINA RESULT:    -1.282      5.730      7.573
REMARK INTER + INTRA:          -4.081
REMARK INTER:                  -1.712
REMARK INTRA:                  -2.369
REMARK UNBOUND:                -2.312
REMARK SMILES CC[C@H](CC[C@H](C)[C@@H]1CC[C@@H]2[C@H]3CC=C4C[C@@H](O)CC[C@@]4(C)[C@H]3CC[C@@]21C)C(C)C
REMARK SMILES IDX 5 1 4 2 3 3 2 4 1 5 28 6 29 7 30 8 6 9 7 10 8 11 9 12 26 13
REMARK SMILES IDX 10 14 11 15 25 16 27 17 12 18 24 19 23 20 13 21 21 22 14 23
REMARK SMILES IDX 15 24 20 25 22 26 16 27 19 28 17 29 18 30
REMARK H PARENT 18 31
REMARK Flexibility Score: inf
ROOT
ATOM      1  C   UNL     1     -20.692 -17.633  77.546  1.00  0.00     0.004 C 
ENDROOT
BRANCH   1   2
ATOM      2  C   UNL     1     -19.276 -17.630  76.916  1.00  0.00     0.004 C 
BRANCH   2   3
ATOM      3  C   UNL     1     -18.943 -16.361  76.071  1.00  0.00    -0.009 C 
BRANCH   3   4
ATOM      4  C   UNL     1     -20.186 -15.426  76.045  1.00  0.00     0.000 C 
ATOM      5  C   UNL     1     -20.414 -14.780  74.675  1.00  0.00     0.004 C 
ENDBRANCH   3   4
BRANCH   3   6
ATOM      6  C   UNL     1     -17.661 -15.560  76.528  1.00  0.00    -0.014 C 
ATOM      7  C   UNL     1     -17.923 -14.458  77.566  1.00  0.00     0.007 C 
ATOM      8  C   UNL     1     -16.517 -16.475  76.997  1.00  0.00     0.007 C 
ENDBRANCH   3   6
ENDBRANCH   2   3
ENDBRANCH   1   2
BRANCH   1   9
ATOM      9  C   UNL     1     -20.755 -18.004  79.055  1.00  0.00    -0.011 C 
ATOM     10  C   UNL     1     -21.932 -18.954  79.347  1.00  0.00     0.008 C 
BRANCH   9  11
ATOM     11  C   UNL     1     -20.701 -16.815  80.096  1.00  0.00    -0.002 C 
ATOM     12  C   UNL     1     -20.858 -15.391  79.550  1.00  0.00     0.005 C 
ATOM     13  C   UNL     1     -19.447 -16.758  81.020  1.00  0.00    -0.026 C 
ATOM     14  C   UNL     1     -20.269 -14.461  80.607  1.00  0.00     0.005 C 
ATOM     15  C   UNL     1     -19.593 -15.349  81.669  1.00  0.00    -0.001 C 
ATOM     16  C   UNL     1     -18.128 -16.870  80.200  1.00  0.00     0.007 C 
ATOM     17  C   UNL     1     -19.525 -17.900  82.069  1.00  0.00     0.012 C 
ATOM     18  C   UNL     1     -18.299 -14.692  82.242  1.00  0.00     0.000 C 
ATOM     19  C   UNL     1     -16.889 -16.338  80.935  1.00  0.00     0.005 C 
ATOM     20  C   UNL     1     -17.066 -14.850  81.315  1.00  0.00     0.003 C 
ATOM     21  C   UNL     1     -18.000 -15.188  83.667  1.00  0.00     0.031 C 
ATOM     22  C   UNL     1     -15.789 -14.123  81.919  1.00  0.00    -0.008 C 
ATOM     23  C   UNL     1     -16.705 -14.665  84.209  1.00  0.00    -0.027 C 
ATOM     24  C   UNL     1     -15.661 -14.308  83.436  1.00  0.00    -0.065 C 
ATOM     25  C   UNL     1     -14.469 -14.629  81.252  1.00  0.00     0.014 C 
ATOM     26  C   UNL     1     -15.936 -12.601  81.633  1.00  0.00     0.016 C 
ATOM     27  C   UNL     1     -14.381 -13.849  84.117  1.00  0.00     0.063 C 
ATOM     28  C   UNL     1     -13.191 -14.059  81.890  1.00  0.00     0.033 C 
ATOM     29  C   UNL     1     -13.134 -14.373  83.396  1.00  0.00     0.118 C 
BRANCH  29  30
ATOM     30  O   UNL     1     -13.021 -15.759  83.604  1.00  0.00    -0.393 OA
ATOM     31  H   UNL     1     -12.580 -15.881  84.485  1.00  0.00     0.210 HD
ENDBRANCH  29  30
ENDBRANCH   9  11
ENDBRANCH   1   9
TORSDOF 7
ENDMDL
MODEL 7
REMARK VINA RESULT:    -1.259      6.361      8.366
REMARK INTER + INTRA:          -4.049
REMARK INTER:                  -1.950
REMARK INTRA:                  -2.099
REMARK UNBOUND:                -2.312
REMARK SMILES CC[C@H](CC[C@H](C)[C@@H]1CC[C@@H]2[C@H]3CC=C4C[C@@H](O)CC[C@@]4(C)[C@H]3CC[C@@]21C)C(C)C
REMARK SMILES IDX 5 1 4 2 3 3 2 4 1 5 28 6 29 7 30 8 6 9 7 10 8 11 9 12 26 13
REMARK SMILES IDX 10 14 11 15 25 16 27 17 12 18 24 19 23 20 13 21 21 22 14 23
REMARK SMILES IDX 15 24 20 25 22 26 16 27 19 28 17 29 18 30
REMARK H PARENT 18 31
REMARK Flexibility Score: inf
ROOT
ATOM      1  C   UNL     1     -22.426 -16.744  81.111  1.00  0.00     0.004 C 
ENDROOT
BRANCH   1   2
ATOM      2  C   UNL     1     -21.576 -17.505  80.062  1.00  0.00     0.004 C 
BRANCH   2   3
ATOM      3  C   UNL     1     -21.139 -18.939  80.496  1.00  0.00    -0.009 C 
BRANCH   3   4
ATOM      4  C   UNL     1     -21.981 -19.986  79.713  1.00  0.00     0.000 C 
ATOM      5  C   UNL     1     -23.254 -20.399  80.457  1.00  0.00     0.004 C 
ENDBRANCH   3   4
BRANCH   3   6
ATOM      6  C   UNL     1     -19.598 -19.250  80.350  1.00  0.00    -0.014 C 
ATOM      7  C   UNL     1     -18.781 -18.156  79.644  1.00  0.00     0.007 C 
ATOM      8  C   UNL     1     -18.934 -19.637  81.682  1.00  0.00     0.007 C 
ENDBRANCH   3   6
ENDBRANCH   2   3
ENDBRANCH   1   2
BRANCH   1   9
ATOM      9  C   UNL     1     -22.181 -17.145  82.593  1.00  0.00    -0.011 C 
ATOM     10  C   UNL     1     -23.404 -17.872  83.184  1.00  0.00     0.008 C 
BRANCH   9  11
ATOM     11  C   UNL     1     -21.651 -16.020  83.569  1.00  0.00    -0.002 C 
ATOM     12  C   UNL     1     -21.913 -14.562  83.173  1.00  0.00     0.005 C 
ATOM     13  C   UNL     1     -20.136 -16.074  83.934  1.00  0.00    -0.026 C 
ATOM     14  C   UNL     1     -20.902 -13.721  83.948  1.00  0.00     0.005 C 
ATOM     15  C   UNL     1     -19.928 -14.698  84.634  1.00  0.00    -0.001 C 
ATOM     16  C   UNL     1     -19.247 -16.203  82.662  1.00  0.00     0.007 C 
ATOM     17  C   UNL     1     -19.878 -17.267  84.893  1.00  0.00     0.012 C 
ATOM     18  C   UNL     1     -18.473 -14.136  84.680  1.00  0.00     0.000 C 
ATOM     19  C   UNL     1     -17.788 -15.773  82.875  1.00  0.00     0.005 C 
ATOM     20  C   UNL     1     -17.707 -14.301  83.341  1.00  0.00     0.003 C 
ATOM     21  C   UNL     1     -17.679 -14.725  85.859  1.00  0.00     0.031 C 
ATOM     22  C   UNL     1     -16.251 -13.672  83.424  1.00  0.00    -0.008 C 
ATOM     23  C   UNL     1     -16.244 -14.295  85.872  1.00  0.00    -0.027 C 
ATOM     24  C   UNL     1     -15.558 -13.946  84.765  1.00  0.00    -0.065 C 
ATOM     25  C   UNL     1     -15.327 -14.203  82.280  1.00  0.00     0.014 C 
ATOM     26  C   UNL     1     -16.396 -12.130  83.268  1.00  0.00     0.016 C 
ATOM     27  C   UNL     1     -14.088 -13.588  84.909  1.00  0.00     0.063 C 
ATOM     28  C   UNL     1     -13.868 -13.731  82.389  1.00  0.00     0.033 C 
ATOM     29  C   UNL     1     -13.254 -14.130  83.743  1.00  0.00     0.118 C 
BRANCH  29  30
ATOM     30  O   UNL     1     -13.161 -15.529  83.846  1.00  0.00    -0.393 OA
ATOM     31  H   UNL     1     -13.545 -15.903  83.011  1.00  0.00     0.210 HD
ENDBRANCH  29  30
ENDBRANCH   9  11
ENDBRANCH   1   9
TORSDOF 7
ENDMDL
MODEL 8
REMARK VINA RESULT:    -1.241      6.316      8.494
REMARK INTER + INTRA:          -4.024
REMARK INTER:                  -1.649
REMARK INTRA:                  -2.375
REMARK UNBOUND:                -2.312
REMARK SMILES CC[C@H](CC[C@H](C)[C@@H]1CC[C@@H]2[C@H]3CC=C4C[C@@H](O)CC[C@@]4(C)[C@H]3CC[C@@]21C)C(C)C
REMARK SMILES IDX 5 1 4 2 3 3 2 4 1 5 28 6 29 7 30 8 6 9 7 10 8 11 9 12 26 13
REMARK SMILES IDX 10 14 11 15 25 16 27 17 12 18 24 19 23 20 13 21 21 22 14 23
REMARK SMILES IDX 15 24 20 25 22 26 16 27 19 28 17 29 18 30
REMARK H PARENT 18 31
REMARK Flexibility Score: inf
ROOT
ATOM      1  C   UNL     1     -22.728 -19.330  80.973  1.00  0.00     0.004 C 
ENDROOT
BRANCH   1   2
ATOM      2  C   UNL     1     -21.756 -19.069  79.794  1.00  0.00     0.004 C 
BRANCH   2   3
ATOM      3  C   UNL     1     -21.898 -17.662  79.134  1.00  0.00    -0.009 C 
BRANCH   3   4
ATOM      4  C   UNL     1     -23.317 -17.100  79.434  1.00  0.00     0.000 C 
ATOM      5  C   UNL     1     -24.182 -16.971  78.177  1.00  0.00     0.004 C 
ENDBRANCH   3   4
BRANCH   3   6
ATOM      6  C   UNL     1     -20.792 -16.610  79.538  1.00  0.00    -0.014 C 
ATOM      7  C   UNL     1     -19.787 -16.269  78.426  1.00  0.00     0.007 C 
ATOM      8  C   UNL     1     -21.379 -15.322  80.140  1.00  0.00     0.007 C 
ENDBRANCH   3   6
ENDBRANCH   2   3
ENDBRANCH   1   2
BRANCH   1   9
ATOM      9  C   UNL     1     -22.057 -19.629  82.343  1.00  0.00    -0.011 C 
ATOM     10  C   UNL     1     -22.695 -20.856  83.022  1.00  0.00     0.008 C 
BRANCH   9  11
ATOM     11  C   UNL     1     -21.908 -18.423  83.355  1.00  0.00    -0.002 C 
ATOM     12  C   UNL     1     -22.670 -17.132  83.031  1.00  0.00     0.005 C 
ATOM     13  C   UNL     1     -20.454 -17.963  83.678  1.00  0.00    -0.026 C 
ATOM     14  C   UNL     1     -21.980 -16.021  83.816  1.00  0.00     0.005 C 
ATOM     15  C   UNL     1     -20.704 -16.623  84.432  1.00  0.00    -0.001 C 
ATOM     16  C   UNL     1     -19.625 -17.735  82.379  1.00  0.00     0.007 C 
ATOM     17  C   UNL     1     -19.763 -19.024  84.576  1.00  0.00     0.012 C 
ATOM     18  C   UNL     1     -19.530 -15.596  84.466  1.00  0.00     0.000 C 
ATOM     19  C   UNL     1     -18.396 -16.835  82.573  1.00  0.00     0.005 C 
ATOM     20  C   UNL     1     -18.808 -15.442  83.102  1.00  0.00     0.003 C 
ATOM     21  C   UNL     1     -18.536 -15.912  85.597  1.00  0.00     0.031 C 
ATOM     22  C   UNL     1     -17.655 -14.352  83.175  1.00  0.00    -0.008 C 
ATOM     23  C   UNL     1     -17.337 -15.015  85.592  1.00  0.00    -0.027 C 
ATOM     24  C   UNL     1     -16.858 -14.414  84.485  1.00  0.00    -0.065 C 
ATOM     25  C   UNL     1     -16.651 -14.493  81.986  1.00  0.00     0.014 C 
ATOM     26  C   UNL     1     -18.327 -12.951  83.092  1.00  0.00     0.016 C 
ATOM     27  C   UNL     1     -15.596 -13.575  84.607  1.00  0.00     0.063 C 
ATOM     28  C   UNL     1     -15.439 -13.550  82.078  1.00  0.00     0.033 C 
ATOM     29  C   UNL     1     -14.673 -13.757  83.397  1.00  0.00     0.118 C 
BRANCH  29  30
ATOM     30  O   UNL     1     -14.100 -15.041  83.435  1.00  0.00    -0.393 OA
ATOM     31  H   UNL     1     -14.750 -15.657  83.006  1.00  0.00     0.210 HD
ENDBRANCH  29  30
ENDBRANCH   9  11
ENDBRANCH   1   9
TORSDOF 7
ENDMDL
MODEL 9
REMARK VINA RESULT:    -1.221      1.748      2.547
REMARK INTER + INTRA:          -3.997
REMARK INTER:                  -1.822
REMARK INTRA:                  -2.175
REMARK UNBOUND:                -2.312
REMARK SMILES CC[C@H](CC[C@H](C)[C@@H]1CC[C@@H]2[C@H]3CC=C4C[C@@H](O)CC[C@@]4(C)[C@H]3CC[C@@]21C)C(C)C
REMARK SMILES IDX 5 1 4 2 3 3 2 4 1 5 28 6 29 7 30 8 6 9 7 10 8 11 9 12 26 13
REMARK SMILES IDX 10 14 11 15 25 16 27 17 12 18 24 19 23 20 13 21 21 22 14 23
REMARK SMILES IDX 15 24 20 25 22 26 16 27 19 28 17 29 18 30
REMARK H PARENT 18 31
REMARK Flexibility Score: inf
ROOT
ATOM      1  C   UNL     1     -19.114 -19.101  76.441  1.00  0.00     0.004 C 
ENDROOT
BRANCH   1   2
ATOM      2  C   UNL     1     -20.390 -19.711  77.075  1.00  0.00     0.004 C 
BRANCH   2   3
ATOM      3  C   UNL     1     -20.210 -20.217  78.541  1.00  0.00    -0.009 C 
BRANCH   3   4
ATOM      4  C   UNL     1     -21.340 -19.620  79.427  1.00  0.00     0.000 C 
ATOM      5  C   UNL     1     -21.028 -18.202  79.912  1.00  0.00     0.004 C 
ENDBRANCH   3   4
BRANCH   3   6
ATOM      6  C   UNL     1     -20.144 -21.785  78.713  1.00  0.00    -0.014 C 
ATOM      7  C   UNL     1     -19.033 -22.478  77.909  1.00  0.00     0.007 C 
ATOM      8  C   UNL     1     -20.093 -22.226  80.185  1.00  0.00     0.007 C 
ENDBRANCH   3   6
ENDBRANCH   2   3
ENDBRANCH   1   2
BRANCH   1   9
ATOM      9  C   UNL     1     -18.236 -18.241  77.394  1.00  0.00    -0.011 C 
ATOM     10  C   UNL     1     -18.384 -16.739  77.087  1.00  0.00     0.008 C 
BRANCH   9  11
ATOM     11  C   UNL     1     -16.718 -18.652  77.548  1.00  0.00    -0.002 C 
ATOM     12  C   UNL     1     -16.223 -19.845  76.720  1.00  0.00     0.005 C 
ATOM     13  C   UNL     1     -16.216 -18.931  78.998  1.00  0.00    -0.026 C 
ATOM     14  C   UNL     1     -14.953 -20.342  77.406  1.00  0.00     0.005 C 
ATOM     15  C   UNL     1     -14.822 -19.575  78.735  1.00  0.00    -0.001 C 
ATOM     16  C   UNL     1     -17.161 -19.914  79.750  1.00  0.00     0.007 C 
ATOM     17  C   UNL     1     -16.109 -17.591  79.774  1.00  0.00     0.012 C 
ATOM     18  C   UNL     1     -14.224 -20.465  79.868  1.00  0.00     0.000 C 
ATOM     19  C   UNL     1     -16.507 -20.612  80.951  1.00  0.00     0.005 C 
ATOM     20  C   UNL     1     -15.263 -21.419  80.513  1.00  0.00     0.003 C 
ATOM     21  C   UNL     1     -13.503 -19.617  80.929  1.00  0.00     0.031 C 
ATOM     22  C   UNL     1     -14.596 -22.337  81.625  1.00  0.00    -0.008 C 
ATOM     23  C   UNL     1     -13.012 -20.426  82.091  1.00  0.00    -0.027 C 
ATOM     24  C   UNL     1     -13.578 -21.582  82.489  1.00  0.00    -0.065 C 
ATOM     25  C   UNL     1     -15.668 -22.967  82.571  1.00  0.00     0.014 C 
ATOM     26  C   UNL     1     -13.843 -23.486  80.894  1.00  0.00     0.016 C 
ATOM     27  C   UNL     1     -13.019 -22.273  83.722  1.00  0.00     0.063 C 
ATOM     28  C   UNL     1     -15.072 -23.758  83.748  1.00  0.00     0.033 C 
ATOM     29  C   UNL     1     -14.130 -22.877  84.589  1.00  0.00     0.118 C 
BRANCH  29  30
ATOM     30  O   UNL     1     -14.851 -21.844  85.212  1.00  0.00    -0.393 OA
ATOM     31  H   UNL     1     -15.659 -22.259  85.612  1.00  0.00     0.210 HD
ENDBRANCH  29  30
ENDBRANCH   9  11
ENDBRANCH   1   9
TORSDOF 7
ENDMDL
