MODEL 1
REMARK VINA RESULT:    53.284      0.000      0.000
REMARK INTER + INTRA:          56.399
REMARK INTER:                  56.399
REMARK INTRA:                   0.000
REMARK UNBOUND:                 0.000
REMARK SMILES C[C@H]1CC[C@@H]2[N@H+](C1)C[C@@H]1[C@H]3C[C@@H]4[C@H](CC(=O)[C@@H]5C[C@@H](O)CC[C@]45C)[C@H]3CC[C@H]1[C@]2(C)O
REMARK SMILES IDX 5 1 6 2 8 3 7 4 4 5 29 6 3 7 28 8 30 9 2 10 27 11 9 12 1 13
REMARK SMILES IDX 26 14 10 15 25 16 11 17 13 18 12 19 14 20 23 21 15 22 17 23
REMARK SMILES IDX 22 24 24 25 16 26 18 27 21 28 19 29 31 31 20 33
REMARK H PARENT 6 30 31 32 20 34
REMARK Flexibility Score: inf
ROOT
ATOM      1  C   UNL     1      12.813  20.698  -2.176  1.00  0.00     0.216 C 
ATOM      2  N   UNL     1      11.403  20.302  -1.786  1.00  0.00    -0.330 N 
ATOM      3  C   UNL     1      11.009  20.521  -0.383  1.00  0.00     0.266 C 
ATOM      4  C   UNL     1      10.400  20.930  -2.701  1.00  0.00     0.265 C 
ATOM      5  C   UNL     1      13.095  20.404  -3.674  1.00  0.00     0.069 C 
ATOM      6  C   UNL     1      13.275  22.119  -1.665  1.00  0.00     0.117 C 
ATOM      7  C   UNL     1      12.022  21.004  -4.587  1.00  0.00     0.015 C 
ATOM      8  C   UNL     1      12.434  22.598  -0.450  1.00  0.00     0.036 C 
ATOM      9  C   UNL     1      14.787  22.029  -1.294  1.00  0.00     0.049 C 
ATOM     10  C   UNL     1      10.637  20.508  -4.148  1.00  0.00     0.041 C 
ATOM     11  C   UNL     1      13.111  23.646   0.466  1.00  0.00     0.007 C 
ATOM     12  C   UNL     1      12.011  21.390   0.396  1.00  0.00     0.054 C 
ATOM     13  C   UNL     1       9.520  21.061  -5.091  1.00  0.00     0.013 C 
ATOM     14  C   UNL     1      12.080  24.269   1.401  1.00  0.00     0.004 C 
ATOM     15  C   UNL     1      11.388  21.719   1.797  1.00  0.00     0.002 C 
ATOM     16  C   UNL     1      11.362  23.205   2.283  1.00  0.00    -0.004 C 
ATOM     17  C   UNL     1      12.084  20.911   2.912  1.00  0.00     0.009 C 
ATOM     18  C   UNL     1      11.963  23.158   3.687  1.00  0.00     0.003 C 
ATOM     19  C   UNL     1      11.749  21.719   4.140  1.00  0.00    -0.000 C 
ATOM     20  C   UNL     1      11.354  24.145   4.699  1.00  0.00     0.080 C 
ATOM     21  C   UNL     1      12.448  21.381   5.487  1.00  0.00    -0.020 C 
ATOM     22  C   UNL     1      11.858  23.787   6.080  1.00  0.00     0.136 C 
ATOM     23  C   UNL     1      11.811  22.334   6.558  1.00  0.00     0.065 C 
ATOM     24  C   UNL     1      13.991  21.638   5.450  1.00  0.00     0.010 C 
ATOM     25  C   UNL     1      12.160  19.875   5.800  1.00  0.00     0.012 C 
ATOM     26  O   UNL     1      12.243  24.698   6.816  1.00  0.00    -0.299 OA
ATOM     27  C   UNL     1      12.462  22.162   7.949  1.00  0.00     0.043 C 
ATOM     28  C   UNL     1      14.652  21.372   6.810  1.00  0.00     0.032 C 
ATOM     29  C   UNL     1      14.010  22.238   7.914  1.00  0.00     0.115 C 
ATOM     30  H   UNL     1      11.323  19.271  -1.901  1.00  0.00     0.348 HD
ENDROOT
BRANCH   6  31
ATOM     31  O   UNL     1      13.126  23.106  -2.667  1.00  0.00    -0.384 OA
ATOM     32  H   UNL     1      13.365  22.705  -3.566  1.00  0.00     0.211 HD
ENDBRANCH   6  31
BRANCH  29  33
ATOM     33  O   UNL     1      14.508  21.816   9.152  1.00  0.00    -0.393 OA
ATOM     34  H   UNL     1      13.755  21.425   9.667  1.00  0.00     0.210 HD
ENDBRANCH  29  33
TORSDOF 2
ENDMDL
