MODEL 1
REMARK VINA RESULT:    -6.250      0.000      0.000
REMARK INTER + INTRA:         -16.460
REMARK INTER:                 -13.192
REMARK INTRA:                  -3.268
REMARK UNBOUND:                -3.268
REMARK SMILES CCC(=O)CCCCC[C@@H]1NC(=O)[C@H]2CCCCN2C(=O)[C@H]([C@H](C)CC)NC(=O)[C@@H](Cc2cn(OC)c3ccccc23)NC1=O
REMARK SMILES IDX 9 1 10 2 44 3 43 4 45 6 30 7 28 8 27 9 29 11 22 12 23 14
REMARK SMILES IDX 24 15 25 16 26 17 31 18 32 19 33 20 42 21 34 22 37 23 41 24
REMARK SMILES IDX 38 25 40 26 39 27 35 28 36 29 11 30 12 31 13 33 14 34 19 35
REMARK SMILES IDX 15 36 18 37 16 38 17 39 20 40 21 41 8 43 7 44 6 45 5 46 3 47
REMARK SMILES IDX 4 48 2 49 1 50
REMARK H PARENT 43 5 27 10 11 32
REMARK Flexibility Score: 80.00
ROOT
ATOM      1  C   UNL     1      19.559 -29.175  21.262  1.00  0.00     0.035 C 
ENDROOT
BRANCH   1   2
ATOM      2  C   UNL     1      20.161 -30.589  21.151  1.00  0.00     0.171 C 
BRANCH   2   3
ATOM      3  C   UNL     1      20.575 -31.114  22.494  1.00  0.00     0.243 C 
ATOM      4  N   UNL     1      20.216 -30.414  23.709  1.00  0.00    -0.342 N 
ATOM      5  H   UNL     1      19.907 -29.417  23.615  1.00  0.00     0.164 HD
ATOM      6  O   UNL     1      21.307 -32.140  22.522  1.00  0.00    -0.273 OA
BRANCH   4   7
ATOM      7  C   UNL     1      20.017 -31.014  25.045  1.00  0.00     0.175 C 
BRANCH   7   8
ATOM      8  C   UNL     1      19.766 -32.501  24.937  1.00  0.00     0.243 C 
ATOM      9  N   UNL     1      18.620 -33.040  24.239  1.00  0.00    -0.342 N 
ATOM     10  H   UNL     1      17.755 -32.464  24.165  1.00  0.00     0.164 HD
ATOM     11  O   UNL     1      20.589 -33.287  25.500  1.00  0.00    -0.273 OA
BRANCH   9  12
ATOM     12  C   UNL     1      18.512 -34.465  23.928  1.00  0.00     0.174 CG0
ATOM     13  G   UNL     1      18.305 -34.728  22.438  1.00  0.00     0.000 G0
BRANCH  12  14
ATOM     14  C   UNL     1      17.552 -35.200  24.914  1.00  0.00     0.018 C 
ATOM     15  C   UNL     1      16.515 -34.272  25.557  1.00  0.00     0.010 C 
BRANCH  14  16
ATOM     16  C   UNL     1      18.206 -36.166  25.937  1.00  0.00     0.002 C 
ATOM     17  C   UNL     1      19.418 -36.941  25.436  1.00  0.00     0.004 C 
ENDBRANCH  14  16
ENDBRANCH  12  14
ENDBRANCH   9  12
ENDBRANCH   7   8
BRANCH   7  18
ATOM     18  C   UNL     1      21.187 -30.710  26.003  1.00  0.00     0.073 C 
BRANCH  18  19
ATOM     19  C   UNL     1      22.503 -30.207  25.454  1.00  0.00    -0.016 A 
ATOM     20  C   UNL     1      23.452 -31.134  25.034  1.00  0.00     0.134 A 
ATOM     21  C   UNL     1      22.750 -29.073  24.678  1.00  0.00     0.006 A 
ATOM     22  N   UNL     1      24.227 -30.638  24.052  1.00  0.00    -0.191 N 
ATOM     23  C   UNL     1      23.783 -29.381  23.822  1.00  0.00     0.087 A 
ATOM     24  C   UNL     1      22.157 -27.802  24.647  1.00  0.00     0.011 A 
ATOM     25  C   UNL     1      24.293 -28.441  22.915  1.00  0.00     0.030 A 
ATOM     26  C   UNL     1      22.633 -26.859  23.718  1.00  0.00     0.001 A 
ATOM     27  C   UNL     1      23.685 -27.180  22.847  1.00  0.00     0.002 A 
BRANCH  22  28
ATOM     28  O   UNL     1      24.941 -31.458  23.200  1.00  0.00    -0.417 OA
ATOM     29  C   UNL     1      26.195 -32.046  23.547  1.00  0.00     0.313 C 
ENDBRANCH  22  28
ENDBRANCH  18  19
ENDBRANCH   7  18
ENDBRANCH   4   7
ENDBRANCH   2   3
BRANCH   2  30
ATOM     30  N   UNL     1      19.221 -31.523  20.515  1.00  0.00    -0.343 N 
ATOM     31  C   UNL     1      18.010 -31.952  21.174  1.00  0.00     0.243 C 
ATOM     32  H   UNL     1      19.485 -31.971  19.604  1.00  0.00     0.164 HD
ATOM     33  O   UNL     1      17.590 -31.348  22.202  1.00  0.00    -0.273 OA
BRANCH  31  34
ATOM     34  C   UNL     1      17.273 -33.159  20.673  1.00  0.00     0.174 C 
ATOM     35  N   UNL     1      17.184 -34.269  21.643  1.00  0.00    -0.329 N 
ATOM     36  C   UNL     1      17.867 -33.683  19.351  1.00  0.00     0.035 C 
ATOM     37  C   UNL     1      16.265 -35.329  21.182  1.00  0.00     0.120 C 
ATOM     38  C   UNL     1      16.982 -34.813  18.798  1.00  0.00     0.004 C 
ATOM     39  C   UNL     1      16.739 -35.909  19.838  1.00  0.00     0.022 C 
BRANCH  35  40
ATOM     40  C   UNL     1      18.327 -34.700  22.427  1.00  0.00     0.246 CG0
ATOM     41  O   UNL     1      19.203 -35.425  21.877  1.00  0.00    -0.272 OA
ATOM     42  G   UNL     1      18.504 -34.472  23.927  1.00  0.00     0.000 G0
ENDBRANCH  35  40
ENDBRANCH  31  34
ENDBRANCH   2  30
ENDBRANCH   1   2
BRANCH   1  43
ATOM     43  C   UNL     1      20.614 -28.084  20.976  1.00  0.00     0.003 C 
BRANCH  43  44
ATOM     44  C   UNL     1      20.036 -26.873  20.236  1.00  0.00     0.001 C 
BRANCH  44  45
ATOM     45  C   UNL     1      20.815 -25.577  20.504  1.00  0.00     0.008 C 
BRANCH  45  46
ATOM     46  C   UNL     1      22.268 -25.680  20.003  1.00  0.00     0.075 C 
BRANCH  46  47
ATOM     47  C   UNL     1      23.030 -24.389  20.206  1.00  0.00     0.132 C 
ATOM     48  O   UNL     1      23.689 -23.950  19.276  1.00  0.00    -0.300 OA
BRANCH  47  49
ATOM     49  C   UNL     1      22.978 -23.572  21.483  1.00  0.00     0.072 C 
ATOM     50  C   UNL     1      24.098 -22.540  21.652  1.00  0.00     0.012 C 
ENDBRANCH  47  49
ENDBRANCH  46  47
ENDBRANCH  45  46
ENDBRANCH  44  45
ENDBRANCH  43  44
ENDBRANCH   1  43
TORSDOF 12
ENDMDL
MODEL 2
REMARK VINA RESULT:    -5.901      2.874      4.867
REMARK INTER + INTRA:         -15.723
REMARK INTER:                 -14.060
REMARK INTRA:                  -1.663
REMARK UNBOUND:                -3.268
REMARK SMILES CCC(=O)CCCCC[C@@H]1NC(=O)[C@H]2CCCCN2C(=O)[C@H]([C@H](C)CC)NC(=O)[C@@H](Cc2cn(OC)c3ccccc23)NC1=O
REMARK SMILES IDX 9 1 10 2 44 3 43 4 45 6 30 7 28 8 27 9 29 11 22 12 23 14
REMARK SMILES IDX 24 15 25 16 26 17 31 18 32 19 33 20 42 21 34 22 37 23 41 24
REMARK SMILES IDX 38 25 40 26 39 27 35 28 36 29 11 30 12 31 13 33 14 34 19 35
REMARK SMILES IDX 15 36 18 37 16 38 17 39 20 40 21 41 8 43 7 44 6 45 5 46 3 47
REMARK SMILES IDX 4 48 2 49 1 50
REMARK H PARENT 43 5 27 10 11 32
REMARK Flexibility Score: 80.00
ROOT
ATOM      1  C   UNL     1      16.906 -29.884  22.364  1.00  0.00     0.035 C 
ENDROOT
BRANCH   1   2
ATOM      2  C   UNL     1      17.890 -30.378  21.285  1.00  0.00     0.171 C 
BRANCH   2   3
ATOM      3  C   UNL     1      19.272 -30.552  21.845  1.00  0.00     0.243 C 
ATOM      4  N   UNL     1      19.495 -30.595  23.275  1.00  0.00    -0.342 N 
ATOM      5  H   UNL     1      18.728 -30.235  23.891  1.00  0.00     0.164 HD
ATOM      6  O   UNL     1      20.233 -30.586  21.031  1.00  0.00    -0.273 OA
BRANCH   4   7
ATOM      7  C   UNL     1      20.590 -31.299  23.974  1.00  0.00     0.175 C 
BRANCH   7   8
ATOM      8  C   UNL     1      20.443 -32.797  23.838  1.00  0.00     0.243 C 
ATOM      9  N   UNL     1      19.227 -33.489  24.205  1.00  0.00    -0.342 N 
ATOM     10  H   UNL     1      18.609 -33.073  24.933  1.00  0.00     0.164 HD
ATOM     11  O   UNL     1      21.436 -33.457  23.401  1.00  0.00    -0.273 OA
BRANCH   9  12
ATOM     12  C   UNL     1      19.002 -34.889  23.845  1.00  0.00     0.174 CG0
ATOM     13  G   UNL     1      18.809 -35.087  22.343  1.00  0.00     0.000 G0
BRANCH  12  14
ATOM     14  C   UNL     1      17.957 -35.565  24.786  1.00  0.00     0.018 C 
ATOM     15  C   UNL     1      16.872 -34.602  25.282  1.00  0.00     0.010 C 
BRANCH  14  16
ATOM     16  C   UNL     1      18.517 -36.468  25.917  1.00  0.00     0.002 C 
ATOM     17  C   UNL     1      17.587 -37.570  26.407  1.00  0.00     0.004 C 
ENDBRANCH  14  16
ENDBRANCH  12  14
ENDBRANCH   9  12
ENDBRANCH   7   8
BRANCH   7  18
ATOM     18  C   UNL     1      21.982 -30.827  23.508  1.00  0.00     0.073 C 
BRANCH  18  19
ATOM     19  C   UNL     1      22.490 -29.459  23.907  1.00  0.00    -0.016 A 
ATOM     20  C   UNL     1      22.914 -28.585  22.910  1.00  0.00     0.134 A 
ATOM     21  C   UNL     1      22.049 -28.630  24.940  1.00  0.00     0.006 A 
ATOM     22  N   UNL     1      22.735 -27.301  23.270  1.00  0.00    -0.191 N 
ATOM     23  C   UNL     1      22.187 -27.331  24.508  1.00  0.00     0.087 A 
ATOM     24  C   UNL     1      21.538 -28.904  26.217  1.00  0.00     0.011 A 
ATOM     25  C   UNL     1      21.850 -26.243  25.325  1.00  0.00     0.030 A 
ATOM     26  C   UNL     1      21.161 -27.824  27.037  1.00  0.00     0.001 A 
ATOM     27  C   UNL     1      21.302 -26.501  26.589  1.00  0.00     0.002 A 
BRANCH  22  28
ATOM     28  O   UNL     1      22.681 -26.282  22.340  1.00  0.00    -0.417 OA
ATOM     29  C   UNL     1      23.191 -26.405  21.012  1.00  0.00     0.313 C 
ENDBRANCH  22  28
ENDBRANCH  18  19
ENDBRANCH   7  18
ENDBRANCH   4   7
ENDBRANCH   2   3
BRANCH   2  30
ATOM     30  N   UNL     1      17.433 -31.635  20.677  1.00  0.00    -0.343 N 
ATOM     31  C   UNL     1      17.064 -32.778  21.477  1.00  0.00     0.243 C 
ATOM     32  H   UNL     1      17.474 -31.742  19.634  1.00  0.00     0.164 HD
ATOM     33  O   UNL     1      16.876 -32.657  22.722  1.00  0.00    -0.273 OA
BRANCH  31  34
ATOM     34  C   UNL     1      16.957 -34.134  20.842  1.00  0.00     0.174 C 
ATOM     35  N   UNL     1      17.516 -35.236  21.651  1.00  0.00    -0.329 N 
ATOM     36  C   UNL     1      17.594 -34.158  19.439  1.00  0.00     0.035 C 
ATOM     37  C   UNL     1      17.185 -36.557  21.082  1.00  0.00     0.120 C 
ATOM     38  C   UNL     1      17.318 -35.514  18.768  1.00  0.00     0.004 C 
ATOM     39  C   UNL     1      17.742 -36.687  19.655  1.00  0.00     0.022 C 
BRANCH  35  40
ATOM     40  C   UNL     1      18.798 -35.124  22.324  1.00  0.00     0.246 CG0
ATOM     41  O   UNL     1      19.852 -35.342  21.664  1.00  0.00    -0.272 OA
ATOM     42  G   UNL     1      18.989 -34.900  23.823  1.00  0.00     0.000 G0
ENDBRANCH  35  40
ENDBRANCH  31  34
ENDBRANCH   2  30
ENDBRANCH   1   2
BRANCH   1  43
ATOM     43  C   UNL     1      15.831 -28.950  21.766  1.00  0.00     0.003 C 
BRANCH  43  44
ATOM     44  C   UNL     1      14.547 -29.691  21.374  1.00  0.00     0.001 C 
BRANCH  44  45
ATOM     45  C   UNL     1      14.053 -30.653  22.465  1.00  0.00     0.008 C 
BRANCH  45  46
ATOM     46  C   UNL     1      13.385 -29.893  23.625  1.00  0.00     0.075 C 
BRANCH  46  47
ATOM     47  C   UNL     1      12.205 -29.068  23.158  1.00  0.00     0.132 C 
ATOM     48  O   UNL     1      11.399 -29.584  22.400  1.00  0.00    -0.300 OA
BRANCH  47  49
ATOM     49  C   UNL     1      11.932 -27.650  23.623  1.00  0.00     0.072 C 
ATOM     50  C   UNL     1      13.067 -26.981  24.405  1.00  0.00     0.012 C 
ENDBRANCH  47  49
ENDBRANCH  46  47
ENDBRANCH  45  46
ENDBRANCH  44  45
ENDBRANCH  43  44
ENDBRANCH   1  43
TORSDOF 12
ENDMDL
MODEL 3
REMARK VINA RESULT:    -5.827      3.155      4.986
REMARK INTER + INTRA:         -15.567
REMARK INTER:                 -13.078
REMARK INTRA:                  -2.490
REMARK UNBOUND:                -3.268
REMARK SMILES CCC(=O)CCCCC[C@@H]1NC(=O)[C@H]2CCCCN2C(=O)[C@H]([C@H](C)CC)NC(=O)[C@@H](Cc2cn(OC)c3ccccc23)NC1=O
REMARK SMILES IDX 9 1 10 2 44 3 43 4 45 6 30 7 28 8 27 9 29 11 22 12 23 14
REMARK SMILES IDX 24 15 25 16 26 17 31 18 32 19 33 20 42 21 34 22 37 23 41 24
REMARK SMILES IDX 38 25 40 26 39 27 35 28 36 29 11 30 12 31 13 33 14 34 19 35
REMARK SMILES IDX 15 36 18 37 16 38 17 39 20 40 21 41 8 43 7 44 6 45 5 46 3 47
REMARK SMILES IDX 4 48 2 49 1 50
REMARK H PARENT 43 5 27 10 11 32
REMARK Flexibility Score: 80.00
ROOT
ATOM      1  C   UNL     1      16.578 -29.913  22.828  1.00  0.00     0.035 C 
ENDROOT
BRANCH   1   2
ATOM      2  C   UNL     1      17.860 -30.558  22.266  1.00  0.00     0.171 C 
BRANCH   2   3
ATOM      3  C   UNL     1      18.769 -31.017  23.368  1.00  0.00     0.243 C 
ATOM      4  N   UNL     1      18.362 -30.926  24.754  1.00  0.00    -0.342 N 
ATOM      5  H   UNL     1      17.555 -30.295  24.977  1.00  0.00     0.164 HD
ATOM      6  O   UNL     1      19.921 -31.414  23.049  1.00  0.00    -0.273 OA
BRANCH   4   7
ATOM      7  C   UNL     1      18.809 -31.795  25.862  1.00  0.00     0.175 C 
BRANCH   7   8
ATOM      8  C   UNL     1      19.275 -33.137  25.342  1.00  0.00     0.243 C 
ATOM      9  N   UNL     1      18.384 -34.051  24.662  1.00  0.00    -0.342 N 
ATOM     10  H   UNL     1      17.365 -34.015  24.874  1.00  0.00     0.164 HD
ATOM     11  O   UNL     1      20.487 -33.463  25.533  1.00  0.00    -0.273 OA
BRANCH   9  12
ATOM     12  C   UNL     1      18.887 -35.226  23.950  1.00  0.00     0.174 CG0
ATOM     13  G   UNL     1      18.691 -35.126  22.438  1.00  0.00     0.000 G0
BRANCH  12  14
ATOM     14  C   UNL     1      18.435 -36.552  24.634  1.00  0.00     0.018 C 
ATOM     15  C   UNL     1      17.237 -36.374  25.575  1.00  0.00     0.010 C 
BRANCH  14  16
ATOM     16  C   UNL     1      19.552 -37.436  25.250  1.00  0.00     0.002 C 
ATOM     17  C   UNL     1      20.979 -36.952  25.029  1.00  0.00     0.004 C 
ENDBRANCH  14  16
ENDBRANCH  12  14
ENDBRANCH   9  12
ENDBRANCH   7   8
BRANCH   7  18
ATOM     18  C   UNL     1      19.891 -31.125  26.732  1.00  0.00     0.073 C 
BRANCH  18  19
ATOM     19  C   UNL     1      20.791 -30.065  26.138  1.00  0.00    -0.016 A 
ATOM     20  C   UNL     1      20.510 -28.727  26.395  1.00  0.00     0.134 A 
ATOM     21  C   UNL     1      22.172 -30.103  25.936  1.00  0.00     0.006 A 
ATOM     22  N   UNL     1      21.626 -27.975  26.381  1.00  0.00    -0.191 N 
ATOM     23  C   UNL     1      22.647 -28.825  26.119  1.00  0.00     0.087 A 
ATOM     24  C   UNL     1      23.050 -31.148  25.612  1.00  0.00     0.011 A 
ATOM     25  C   UNL     1      24.006 -28.515  25.965  1.00  0.00     0.030 A 
ATOM     26  C   UNL     1      24.422 -30.861  25.489  1.00  0.00     0.001 A 
ATOM     27  C   UNL     1      24.900 -29.555  25.679  1.00  0.00     0.002 A 
BRANCH  22  28
ATOM     28  O   UNL     1      21.683 -26.740  26.997  1.00  0.00    -0.417 OA
ATOM     29  C   UNL     1      21.495 -25.508  26.301  1.00  0.00     0.313 C 
ENDBRANCH  22  28
ENDBRANCH  18  19
ENDBRANCH   7  18
ENDBRANCH   4   7
ENDBRANCH   2   3
BRANCH   2  30
ATOM     30  N   UNL     1      17.547 -31.681  21.372  1.00  0.00    -0.343 N 
ATOM     31  C   UNL     1      16.817 -32.839  21.829  1.00  0.00     0.243 C 
ATOM     32  H   UNL     1      17.953 -31.691  20.404  1.00  0.00     0.164 HD
ATOM     33  O   UNL     1      16.203 -32.815  22.935  1.00  0.00    -0.273 OA
BRANCH  31  34
ATOM     34  C   UNL     1      16.832 -34.102  21.019  1.00  0.00     0.174 C 
ATOM     35  N   UNL     1      17.461 -35.256  21.693  1.00  0.00    -0.329 N 
ATOM     36  C   UNL     1      17.495 -33.891  19.644  1.00  0.00     0.035 C 
ATOM     37  C   UNL     1      17.248 -36.511  20.947  1.00  0.00     0.120 C 
ATOM     38  C   UNL     1      17.341 -35.162  18.794  1.00  0.00     0.004 C 
ATOM     39  C   UNL     1      17.841 -36.407  19.531  1.00  0.00     0.022 C 
BRANCH  35  40
ATOM     40  C   UNL     1      18.717 -35.136  22.413  1.00  0.00     0.246 CG0
ATOM     41  O   UNL     1      19.791 -35.064  21.753  1.00  0.00    -0.272 OA
ATOM     42  G   UNL     1      18.876 -35.233  23.928  1.00  0.00     0.000 G0
ENDBRANCH  35  40
ENDBRANCH  31  34
ENDBRANCH   2  30
ENDBRANCH   1   2
BRANCH   1  43
ATOM     43  C   UNL     1      15.820 -29.116  21.744  1.00  0.00     0.003 C 
BRANCH  43  44
ATOM     44  C   UNL     1      14.359 -28.841  22.118  1.00  0.00     0.001 C 
BRANCH  44  45
ATOM     45  C   UNL     1      13.624 -30.089  22.626  1.00  0.00     0.008 C 
BRANCH  45  46
ATOM     46  C   UNL     1      12.770 -29.774  23.869  1.00  0.00     0.075 C 
BRANCH  46  47
ATOM     47  C   UNL     1      12.110 -28.416  23.773  1.00  0.00     0.132 C 
ATOM     48  O   UNL     1      11.289 -28.229  22.888  1.00  0.00    -0.300 OA
BRANCH  47  49
ATOM     49  C   UNL     1      12.367 -27.284  24.750  1.00  0.00     0.072 C 
ATOM     50  C   UNL     1      13.374 -26.227  24.286  1.00  0.00     0.012 C 
ENDBRANCH  47  49
ENDBRANCH  46  47
ENDBRANCH  45  46
ENDBRANCH  44  45
ENDBRANCH  43  44
ENDBRANCH   1  43
TORSDOF 12
ENDMDL
MODEL 4
REMARK VINA RESULT:    -5.755      3.428      8.148
REMARK INTER + INTRA:         -15.415
REMARK INTER:                 -11.610
REMARK INTRA:                  -3.805
REMARK UNBOUND:                -3.268
REMARK SMILES CCC(=O)CCCCC[C@@H]1NC(=O)[C@H]2CCCCN2C(=O)[C@H]([C@H](C)CC)NC(=O)[C@@H](Cc2cn(OC)c3ccccc23)NC1=O
REMARK SMILES IDX 9 1 10 2 44 3 43 4 45 6 30 7 28 8 27 9 29 11 22 12 23 14
REMARK SMILES IDX 24 15 25 16 26 17 31 18 32 19 33 20 42 21 34 22 37 23 41 24
REMARK SMILES IDX 38 25 40 26 39 27 35 28 36 29 11 30 12 31 13 33 14 34 19 35
REMARK SMILES IDX 15 36 18 37 16 38 17 39 20 40 21 41 8 43 7 44 6 45 5 46 3 47
REMARK SMILES IDX 4 48 2 49 1 50
REMARK H PARENT 43 5 27 10 11 32
REMARK Flexibility Score: 80.00
ROOT
ATOM      1  C   UNL     1      19.453 -30.658  22.540  1.00  0.00     0.035 C 
ENDROOT
BRANCH   1   2
ATOM      2  C   UNL     1      19.778 -31.099  23.981  1.00  0.00     0.171 C 
BRANCH   2   3
ATOM      3  C   UNL     1      20.238 -32.528  24.023  1.00  0.00     0.243 C 
ATOM      4  N   UNL     1      20.547 -33.246  22.805  1.00  0.00    -0.342 N 
ATOM      5  H   UNL     1      20.188 -32.844  21.907  1.00  0.00     0.164 HD
ATOM      6  O   UNL     1      20.273 -33.097  25.147  1.00  0.00    -0.273 OA
BRANCH   4   7
ATOM      7  C   UNL     1      21.506 -34.361  22.660  1.00  0.00     0.175 C 
BRANCH   7   8
ATOM      8  C   UNL     1      22.488 -34.383  23.810  1.00  0.00     0.243 C 
ATOM      9  N   UNL     1      23.437 -33.314  24.033  1.00  0.00    -0.342 N 
ATOM     10  H   UNL     1      23.754 -32.743  23.222  1.00  0.00     0.164 HD
ATOM     11  O   UNL     1      22.477 -35.388  24.585  1.00  0.00    -0.273 OA
BRANCH   9  12
ATOM     12  C   UNL     1      24.208 -33.219  25.272  1.00  0.00     0.174 CG0
ATOM     13  G   UNL     1      23.959 -31.912  26.021  1.00  0.00     0.000 G0
BRANCH  12  14
ATOM     14  C   UNL     1      25.696 -33.638  25.059  1.00  0.00     0.018 C 
ATOM     15  C   UNL     1      26.158 -33.518  23.602  1.00  0.00     0.010 C 
BRANCH  14  16
ATOM     16  C   UNL     1      26.150 -34.965  25.723  1.00  0.00     0.002 C 
ATOM     17  C   UNL     1      26.043 -36.211  24.854  1.00  0.00     0.004 C 
ENDBRANCH  14  16
ENDBRANCH  12  14
ENDBRANCH   9  12
ENDBRANCH   7   8
BRANCH   7  18
ATOM     18  C   UNL     1      20.800 -35.723  22.500  1.00  0.00     0.073 C 
BRANCH  18  19
ATOM     19  C   UNL     1      19.289 -35.794  22.480  1.00  0.00    -0.016 A 
ATOM     20  C   UNL     1      18.607 -35.889  23.690  1.00  0.00     0.134 A 
ATOM     21  C   UNL     1      18.395 -35.154  21.620  1.00  0.00     0.006 A 
ATOM     22  N   UNL     1      17.385 -35.332  23.614  1.00  0.00    -0.191 N 
ATOM     23  C   UNL     1      17.264 -34.865  22.349  1.00  0.00     0.087 A 
ATOM     24  C   UNL     1      18.478 -34.798  20.266  1.00  0.00     0.011 A 
ATOM     25  C   UNL     1      16.154 -34.235  21.767  1.00  0.00     0.030 A 
ATOM     26  C   UNL     1      17.387 -34.133  19.676  1.00  0.00     0.001 A 
ATOM     27  C   UNL     1      16.237 -33.839  20.425  1.00  0.00     0.002 A 
BRANCH  22  28
ATOM     28  O   UNL     1      16.692 -34.930  24.739  1.00  0.00    -0.417 OA
ATOM     29  C   UNL     1      17.038 -33.773  25.500  1.00  0.00     0.313 C 
ENDBRANCH  22  28
ENDBRANCH  18  19
ENDBRANCH   7  18
ENDBRANCH   4   7
ENDBRANCH   2   3
BRANCH   2  30
ATOM     30  N   UNL     1      20.790 -30.227  24.592  1.00  0.00    -0.343 N 
ATOM     31  C   UNL     1      22.167 -30.236  24.158  1.00  0.00     0.243 C 
ATOM     32  H   UNL     1      20.531 -29.660  25.436  1.00  0.00     0.164 HD
ATOM     33  O   UNL     1      22.494 -30.800  23.074  1.00  0.00    -0.273 OA
BRANCH  31  34
ATOM     34  C   UNL     1      23.229 -29.623  25.023  1.00  0.00     0.174 C 
ATOM     35  N   UNL     1      24.264 -30.570  25.487  1.00  0.00    -0.329 N 
ATOM     36  C   UNL     1      22.625 -28.893  26.238  1.00  0.00     0.035 C 
ATOM     37  C   UNL     1      25.390 -29.875  26.139  1.00  0.00     0.120 C 
ATOM     38  C   UNL     1      23.734 -28.149  27.000  1.00  0.00     0.004 C 
ATOM     39  C   UNL     1      24.900 -29.074  27.357  1.00  0.00     0.022 C 
BRANCH  35  40
ATOM     40  C   UNL     1      23.928 -31.885  26.002  1.00  0.00     0.246 CG0
ATOM     41  O   UNL     1      23.485 -31.981  27.180  1.00  0.00    -0.272 OA
ATOM     42  G   UNL     1      24.200 -33.207  25.287  1.00  0.00     0.000 G0
ENDBRANCH  35  40
ENDBRANCH  31  34
ENDBRANCH   2  30
ENDBRANCH   1   2
BRANCH   1  43
ATOM     43  C   UNL     1      18.003 -31.019  22.149  1.00  0.00     0.003 C 
BRANCH  43  44
ATOM     44  C   UNL     1      16.978 -30.608  23.213  1.00  0.00     0.001 C 
BRANCH  44  45
ATOM     45  C   UNL     1      15.878 -29.689  22.662  1.00  0.00     0.008 C 
BRANCH  45  46
ATOM     46  C   UNL     1      15.183 -30.314  21.437  1.00  0.00     0.075 C 
BRANCH  46  47
ATOM     47  C   UNL     1      13.971 -31.130  21.828  1.00  0.00     0.132 C 
ATOM     48  O   UNL     1      13.404 -31.780  20.963  1.00  0.00    -0.300 OA
BRANCH  47  49
ATOM     49  C   UNL     1      13.450 -31.238  23.249  1.00  0.00     0.072 C 
ATOM     50  C   UNL     1      13.866 -32.500  24.011  1.00  0.00     0.012 C 
ENDBRANCH  47  49
ENDBRANCH  46  47
ENDBRANCH  45  46
ENDBRANCH  44  45
ENDBRANCH  43  44
ENDBRANCH   1  43
TORSDOF 12
ENDMDL
MODEL 5
REMARK VINA RESULT:    -5.738      3.008      8.677
REMARK INTER + INTRA:         -15.380
REMARK INTER:                 -11.628
REMARK INTRA:                  -3.752
REMARK UNBOUND:                -3.268
REMARK SMILES CCC(=O)CCCCC[C@@H]1NC(=O)[C@H]2CCCCN2C(=O)[C@H]([C@H](C)CC)NC(=O)[C@@H](Cc2cn(OC)c3ccccc23)NC1=O
REMARK SMILES IDX 9 1 10 2 44 3 43 4 45 6 30 7 28 8 27 9 29 11 22 12 23 14
REMARK SMILES IDX 24 15 25 16 26 17 31 18 32 19 33 20 42 21 34 22 37 23 41 24
REMARK SMILES IDX 38 25 40 26 39 27 35 28 36 29 11 30 12 31 13 33 14 34 19 35
REMARK SMILES IDX 15 36 18 37 16 38 17 39 20 40 21 41 8 43 7 44 6 45 5 46 3 47
REMARK SMILES IDX 4 48 2 49 1 50
REMARK H PARENT 43 5 27 10 11 32
REMARK Flexibility Score: 80.00
ROOT
ATOM      1  C   UNL     1      21.897 -35.249  24.022  1.00  0.00     0.035 C 
ENDROOT
BRANCH   1   2
ATOM      2  C   UNL     1      22.992 -34.266  23.562  1.00  0.00     0.171 C 
BRANCH   2   3
ATOM      3  C   UNL     1      22.399 -33.072  22.872  1.00  0.00     0.243 C 
ATOM      4  N   UNL     1      20.972 -32.835  22.891  1.00  0.00    -0.342 N 
ATOM      5  H   UNL     1      20.355 -33.640  23.155  1.00  0.00     0.164 HD
ATOM      6  O   UNL     1      23.178 -32.329  22.216  1.00  0.00    -0.273 OA
BRANCH   4   7
ATOM      7  C   UNL     1      20.296 -31.524  22.802  1.00  0.00     0.175 C 
BRANCH   7   8
ATOM      8  C   UNL     1      21.177 -30.423  23.349  1.00  0.00     0.243 C 
ATOM      9  N   UNL     1      21.423 -30.265  24.765  1.00  0.00    -0.342 N 
ATOM     10  H   UNL     1      20.710 -30.606  25.443  1.00  0.00     0.164 HD
ATOM     11  O   UNL     1      21.696 -29.609  22.524  1.00  0.00    -0.273 OA
BRANCH   9  12
ATOM     12  C   UNL     1      22.460 -29.365  25.268  1.00  0.00     0.174 CG0
ATOM     13  G   UNL     1      23.764 -30.091  25.592  1.00  0.00     0.000 G0
BRANCH  12  14
ATOM     14  C   UNL     1      21.903 -28.395  26.356  1.00  0.00     0.018 C 
ATOM     15  C   UNL     1      20.474 -28.731  26.796  1.00  0.00     0.010 C 
BRANCH  14  16
ATOM     16  C   UNL     1      22.113 -26.877  26.112  1.00  0.00     0.002 C 
ATOM     17  C   UNL     1      22.191 -26.445  24.654  1.00  0.00     0.004 C 
ENDBRANCH  14  16
ENDBRANCH  12  14
ENDBRANCH   9  12
ENDBRANCH   7   8
BRANCH   7  18
ATOM     18  C   UNL     1      19.824 -31.205  21.369  1.00  0.00     0.073 C 
BRANCH  18  19
ATOM     19  C   UNL     1      18.427 -31.582  20.931  1.00  0.00    -0.016 A 
ATOM     20  C   UNL     1      18.234 -32.800  20.286  1.00  0.00     0.134 A 
ATOM     21  C   UNL     1      17.211 -31.322  21.566  1.00  0.00     0.006 A 
ATOM     22  N   UNL     1      17.001 -33.289  20.511  1.00  0.00    -0.191 N 
ATOM     23  C   UNL     1      16.382 -32.390  21.313  1.00  0.00     0.087 A 
ATOM     24  C   UNL     1      16.765 -30.244  22.345  1.00  0.00     0.011 A 
ATOM     25  C   UNL     1      15.065 -32.431  21.795  1.00  0.00     0.030 A 
ATOM     26  C   UNL     1      15.459 -30.287  22.867  1.00  0.00     0.001 A 
ATOM     27  C   UNL     1      14.618 -31.380  22.607  1.00  0.00     0.002 A 
BRANCH  22  28
ATOM     28  O   UNL     1      16.703 -34.627  20.344  1.00  0.00    -0.417 OA
ATOM     29  C   UNL     1      17.480 -35.508  19.533  1.00  0.00     0.313 C 
ENDBRANCH  22  28
ENDBRANCH  18  19
ENDBRANCH   7  18
ENDBRANCH   4   7
ENDBRANCH   2   3
BRANCH   2  30
ATOM     30  N   UNL     1      23.829 -33.831  24.689  1.00  0.00    -0.343 N 
ATOM     31  C   UNL     1      23.287 -33.078  25.794  1.00  0.00     0.243 C 
ATOM     32  H   UNL     1      24.866 -33.979  24.640  1.00  0.00     0.164 HD
ATOM     33  O   UNL     1      22.036 -32.988  25.958  1.00  0.00    -0.273 OA
BRANCH  31  34
ATOM     34  C   UNL     1      24.209 -32.345  26.725  1.00  0.00     0.174 C 
ATOM     35  N   UNL     1      23.981 -30.888  26.792  1.00  0.00    -0.329 N 
ATOM     36  C   UNL     1      25.689 -32.615  26.391  1.00  0.00     0.035 C 
ATOM     37  C   UNL     1      24.758 -30.260  27.879  1.00  0.00     0.120 C 
ATOM     38  C   UNL     1      26.586 -31.978  27.465  1.00  0.00     0.004 C 
ATOM     39  C   UNL     1      26.264 -30.496  27.673  1.00  0.00     0.022 C 
BRANCH  35  40
ATOM     40  C   UNL     1      23.769 -30.085  25.601  1.00  0.00     0.246 CG0
ATOM     41  O   UNL     1      24.748 -29.867  24.834  1.00  0.00    -0.272 OA
ATOM     42  G   UNL     1      22.479 -29.346  25.254  1.00  0.00     0.000 G0
ENDBRANCH  35  40
ENDBRANCH  31  34
ENDBRANCH   2  30
ENDBRANCH   1   2
BRANCH   1  43
ATOM     43  C   UNL     1      21.601 -36.314  22.944  1.00  0.00     0.003 C 
BRANCH  43  44
ATOM     44  C   UNL     1      20.121 -36.362  22.543  1.00  0.00     0.001 C 
BRANCH  44  45
ATOM     45  C   UNL     1      19.173 -36.357  23.751  1.00  0.00     0.008 C 
BRANCH  45  46
ATOM     46  C   UNL     1      17.916 -35.510  23.476  1.00  0.00     0.075 C 
BRANCH  46  47
ATOM     47  C   UNL     1      17.579 -34.602  24.638  1.00  0.00     0.132 C 
ATOM     48  O   UNL     1      17.131 -35.104  25.657  1.00  0.00    -0.300 OA
BRANCH  47  49
ATOM     49  C   UNL     1      17.819 -33.104  24.634  1.00  0.00     0.072 C 
ATOM     50  C   UNL     1      18.524 -32.545  25.874  1.00  0.00     0.012 C 
ENDBRANCH  47  49
ENDBRANCH  46  47
ENDBRANCH  45  46
ENDBRANCH  44  45
ENDBRANCH  43  44
ENDBRANCH   1  43
TORSDOF 12
ENDMDL
MODEL 6
REMARK VINA RESULT:    -5.727      2.734      4.099
REMARK INTER + INTRA:         -15.357
REMARK INTER:                 -11.644
REMARK INTRA:                  -3.713
REMARK UNBOUND:                -3.268
REMARK SMILES CCC(=O)CCCCC[C@@H]1NC(=O)[C@H]2CCCCN2C(=O)[C@H]([C@H](C)CC)NC(=O)[C@@H](Cc2cn(OC)c3ccccc23)NC1=O
REMARK SMILES IDX 9 1 10 2 44 3 43 4 45 6 30 7 28 8 27 9 29 11 22 12 23 14
REMARK SMILES IDX 24 15 25 16 26 17 31 18 32 19 33 20 42 21 34 22 37 23 41 24
REMARK SMILES IDX 38 25 40 26 39 27 35 28 36 29 11 30 12 31 13 33 14 34 19 35
REMARK SMILES IDX 15 36 18 37 16 38 17 39 20 40 21 41 8 43 7 44 6 45 5 46 3 47
REMARK SMILES IDX 4 48 2 49 1 50
REMARK H PARENT 43 5 27 10 11 32
REMARK Flexibility Score: 80.00
ROOT
ATOM      1  C   UNL     1      22.514 -33.420  22.531  1.00  0.00     0.035 C 
ENDROOT
BRANCH   1   2
ATOM      2  C   UNL     1      21.469 -34.389  23.117  1.00  0.00     0.171 C 
BRANCH   2   3
ATOM      3  C   UNL     1      20.781 -33.795  24.311  1.00  0.00     0.243 C 
ATOM      4  N   UNL     1      20.919 -32.389  24.625  1.00  0.00    -0.342 N 
ATOM      5  H   UNL     1      21.710 -31.871  24.171  1.00  0.00     0.164 HD
ATOM      6  O   UNL     1      20.143 -34.575  25.067  1.00  0.00    -0.273 OA
BRANCH   4   7
ATOM      7  C   UNL     1      19.937 -31.545  25.336  1.00  0.00     0.175 C 
BRANCH   7   8
ATOM      8  C   UNL     1      18.524 -31.998  25.045  1.00  0.00     0.243 C 
ATOM      9  N   UNL     1      17.850 -31.672  23.808  1.00  0.00    -0.342 N 
ATOM     10  H   UNL     1      18.127 -30.809  23.293  1.00  0.00     0.164 HD
ATOM     11  O   UNL     1      17.918 -32.671  25.935  1.00  0.00    -0.273 OA
BRANCH   9  12
ATOM     12  C   UNL     1      16.590 -32.311  23.429  1.00  0.00     0.174 CG0
ATOM     13  G   UNL     1      16.800 -33.615  22.662  1.00  0.00     0.000 G0
BRANCH  12  14
ATOM     14  C   UNL     1      15.585 -31.287  22.818  1.00  0.00     0.018 C 
ATOM     15  C   UNL     1      15.998 -29.826  23.034  1.00  0.00     0.010 C 
BRANCH  14  16
ATOM     16  C   UNL     1      14.079 -31.530  23.104  1.00  0.00     0.002 C 
ATOM     17  C   UNL     1      13.763 -32.310  24.374  1.00  0.00     0.004 C 
ENDBRANCH  14  16
ENDBRANCH  12  14
ENDBRANCH   9  12
ENDBRANCH   7   8
BRANCH   7  18
ATOM     18  C   UNL     1      20.206 -31.486  26.854  1.00  0.00     0.073 C 
BRANCH  18  19
ATOM     19  C   UNL     1      21.327 -30.625  27.391  1.00  0.00    -0.016 A 
ATOM     20  C   UNL     1      22.561 -31.215  27.648  1.00  0.00     0.134 A 
ATOM     21  C   UNL     1      21.627 -29.294  27.092  1.00  0.00     0.006 A 
ATOM     22  N   UNL     1      23.569 -30.336  27.501  1.00  0.00    -0.191 N 
ATOM     23  C   UNL     1      22.996 -29.163  27.142  1.00  0.00     0.087 A 
ATOM     24  C   UNL     1      20.819 -28.192  26.779  1.00  0.00     0.011 A 
ATOM     25  C   UNL     1      23.627 -27.933  26.909  1.00  0.00     0.030 A 
ATOM     26  C   UNL     1      21.438 -26.958  26.507  1.00  0.00     0.001 A 
ATOM     27  C   UNL     1      22.835 -26.831  26.557  1.00  0.00     0.002 A 
BRANCH  22  28
ATOM     28  O   UNL     1      24.872 -30.746  27.292  1.00  0.00    -0.417 OA
ATOM     29  C   UNL     1      25.282 -32.112  27.348  1.00  0.00     0.313 C 
ENDBRANCH  22  28
ENDBRANCH  18  19
ENDBRANCH   7  18
ENDBRANCH   4   7
ENDBRANCH   2   3
BRANCH   2  30
ATOM     30  N   UNL     1      20.475 -34.779  22.107  1.00  0.00    -0.343 N 
ATOM     31  C   UNL     1      19.587 -33.817  21.501  1.00  0.00     0.243 C 
ATOM     32  H   UNL     1      20.335 -35.798  21.897  1.00  0.00     0.164 HD
ATOM     33  O   UNL     1      19.802 -32.577  21.625  1.00  0.00    -0.273 OA
BRANCH  31  34
ATOM     34  C   UNL     1      18.365 -34.285  20.766  1.00  0.00     0.174 C 
ATOM     35  N   UNL     1      17.096 -33.710  21.258  1.00  0.00    -0.329 N 
ATOM     36  C   UNL     1      18.258 -35.822  20.757  1.00  0.00     0.035 C 
ATOM     37  C   UNL     1      15.966 -34.029  20.364  1.00  0.00     0.120 C 
ATOM     38  C   UNL     1      17.086 -36.255  19.860  1.00  0.00     0.004 C 
ATOM     39  C   UNL     1      15.782 -35.552  20.245  1.00  0.00     0.022 C 
BRANCH  35  40
ATOM     40  C   UNL     1      16.793 -33.613  22.675  1.00  0.00     0.246 CG0
ATOM     41  O   UNL     1      16.571 -34.673  23.323  1.00  0.00    -0.272 OA
ATOM     42  G   UNL     1      16.574 -32.310  23.442  1.00  0.00     0.000 G0
ENDBRANCH  35  40
ENDBRANCH  31  34
ENDBRANCH   2  30
ENDBRANCH   1   2
BRANCH   1  43
ATOM     43  C   UNL     1      23.928 -33.711  23.079  1.00  0.00     0.003 C 
BRANCH  43  44
ATOM     44  C   UNL     1      24.565 -32.497  23.765  1.00  0.00     0.001 C 
BRANCH  44  45
ATOM     45  C   UNL     1      24.337 -31.186  22.997  1.00  0.00     0.008 C 
BRANCH  45  46
ATOM     46  C   UNL     1      24.136 -29.999  23.957  1.00  0.00     0.075 C 
BRANCH  46  47
ATOM     47  C   UNL     1      23.210 -28.952  23.378  1.00  0.00     0.132 C 
ATOM     48  O   UNL     1      23.669 -27.852  23.112  1.00  0.00    -0.300 OA
BRANCH  47  49
ATOM     49  C   UNL     1      21.750 -29.207  23.053  1.00  0.00     0.072 C 
ATOM     50  C   UNL     1      21.327 -28.882  21.616  1.00  0.00     0.012 C 
ENDBRANCH  47  49
ENDBRANCH  46  47
ENDBRANCH  45  46
ENDBRANCH  44  45
ENDBRANCH  43  44
ENDBRANCH   1  43
TORSDOF 12
ENDMDL
MODEL 7
REMARK VINA RESULT:    -5.702      2.606      6.884
REMARK INTER + INTRA:         -15.304
REMARK INTER:                 -14.037
REMARK INTRA:                  -1.267
REMARK UNBOUND:                -3.268
REMARK SMILES CCC(=O)CCCCC[C@@H]1NC(=O)[C@H]2CCCCN2C(=O)[C@H]([C@H](C)CC)NC(=O)[C@@H](Cc2cn(OC)c3ccccc23)NC1=O
REMARK SMILES IDX 9 1 10 2 44 3 43 4 45 6 30 7 28 8 27 9 29 11 22 12 23 14
REMARK SMILES IDX 24 15 25 16 26 17 31 18 32 19 33 20 42 21 34 22 37 23 41 24
REMARK SMILES IDX 38 25 40 26 39 27 35 28 36 29 11 30 12 31 13 33 14 34 19 35
REMARK SMILES IDX 15 36 18 37 16 38 17 39 20 40 21 41 8 43 7 44 6 45 5 46 3 47
REMARK SMILES IDX 4 48 2 49 1 50
REMARK H PARENT 43 5 27 10 11 32
REMARK Flexibility Score: 80.00
ROOT
ATOM      1  C   UNL     1      23.041 -26.818  19.943  1.00  0.00     0.035 C 
ENDROOT
BRANCH   1   2
ATOM      2  C   UNL     1      22.379 -27.248  21.267  1.00  0.00     0.171 C 
BRANCH   2   3
ATOM      3  C   UNL     1      21.156 -28.083  21.021  1.00  0.00     0.243 C 
ATOM      4  N   UNL     1      21.265 -29.502  20.763  1.00  0.00    -0.342 N 
ATOM      5  H   UNL     1      22.206 -29.869  20.486  1.00  0.00     0.164 HD
ATOM      6  O   UNL     1      20.044 -27.491  20.975  1.00  0.00    -0.273 OA
BRANCH   4   7
ATOM      7  C   UNL     1      20.249 -30.532  21.064  1.00  0.00     0.175 C 
BRANCH   7   8
ATOM      8  C   UNL     1      20.638 -31.331  22.288  1.00  0.00     0.243 C 
ATOM      9  N   UNL     1      22.018 -31.595  22.630  1.00  0.00    -0.342 N 
ATOM     10  H   UNL     1      22.731 -31.619  21.871  1.00  0.00     0.164 HD
ATOM     11  O   UNL     1      19.708 -31.794  23.019  1.00  0.00    -0.273 OA
BRANCH   9  12
ATOM     12  C   UNL     1      22.394 -32.149  23.930  1.00  0.00     0.174 CG0
ATOM     13  G   UNL     1      22.956 -31.093  24.880  1.00  0.00     0.000 G0
BRANCH  12  14
ATOM     14  C   UNL     1      23.211 -33.470  23.780  1.00  0.00     0.018 C 
ATOM     15  C   UNL     1      23.979 -33.562  22.457  1.00  0.00     0.010 C 
BRANCH  14  16
ATOM     16  C   UNL     1      22.477 -34.790  24.138  1.00  0.00     0.002 C 
ATOM     17  C   UNL     1      21.124 -34.632  24.819  1.00  0.00     0.004 C 
ENDBRANCH  14  16
ENDBRANCH  12  14
ENDBRANCH   9  12
ENDBRANCH   7   8
BRANCH   7  18
ATOM     18  C   UNL     1      18.835 -29.935  21.210  1.00  0.00     0.073 C 
BRANCH  18  19
ATOM     19  C   UNL     1      17.623 -30.768  20.859  1.00  0.00    -0.016 A 
ATOM     20  C   UNL     1      17.814 -32.005  20.249  1.00  0.00     0.134 A 
ATOM     21  C   UNL     1      16.421 -30.901  21.557  1.00  0.00     0.006 A 
ATOM     22  N   UNL     1      16.824 -32.865  20.553  1.00  0.00    -0.191 N 
ATOM     23  C   UNL     1      15.981 -32.191  21.371  1.00  0.00     0.087 A 
ATOM     24  C   UNL     1      15.680 -30.003  22.339  1.00  0.00     0.011 A 
ATOM     25  C   UNL     1      14.777 -32.647  21.928  1.00  0.00     0.030 A 
ATOM     26  C   UNL     1      14.488 -30.455  22.936  1.00  0.00     0.001 A 
ATOM     27  C   UNL     1      14.046 -31.773  22.744  1.00  0.00     0.002 A 
BRANCH  22  28
ATOM     28  O   UNL     1      16.979 -34.231  20.429  1.00  0.00    -0.417 OA
ATOM     29  C   UNL     1      16.817 -34.929  19.194  1.00  0.00     0.313 C 
ENDBRANCH  22  28
ENDBRANCH  18  19
ENDBRANCH   7  18
ENDBRANCH   4   7
ENDBRANCH   2   3
BRANCH   2  30
ATOM     30  N   UNL     1      23.322 -27.979  22.125  1.00  0.00    -0.343 N 
ATOM     31  C   UNL     1      22.967 -28.405  23.457  1.00  0.00     0.243 C 
ATOM     32  H   UNL     1      24.313 -28.103  21.803  1.00  0.00     0.164 HD
ATOM     33  O   UNL     1      21.760 -28.392  23.835  1.00  0.00    -0.273 OA
BRANCH  31  34
ATOM     34  C   UNL     1      24.040 -28.811  24.425  1.00  0.00     0.174 C 
ATOM     35  N   UNL     1      24.132 -30.266  24.664  1.00  0.00    -0.329 N 
ATOM     36  C   UNL     1      23.899 -28.081  25.774  1.00  0.00     0.035 C 
ATOM     37  C   UNL     1      25.335 -30.620  25.441  1.00  0.00     0.120 C 
ATOM     38  C   UNL     1      25.107 -28.406  26.668  1.00  0.00     0.004 C 
ATOM     39  C   UNL     1      25.325 -29.914  26.807  1.00  0.00     0.022 C 
BRANCH  35  40
ATOM     40  C   UNL     1      22.954 -31.085  24.886  1.00  0.00     0.246 CG0
ATOM     41  O   UNL     1      22.376 -31.027  26.008  1.00  0.00    -0.272 OA
ATOM     42  G   UNL     1      22.418 -32.139  23.920  1.00  0.00     0.000 G0
ENDBRANCH  35  40
ENDBRANCH  31  34
ENDBRANCH   2  30
ENDBRANCH   1   2
BRANCH   1  43
ATOM     43  C   UNL     1      22.933 -25.294  19.723  1.00  0.00     0.003 C 
BRANCH  43  44
ATOM     44  C   UNL     1      21.974 -24.614  20.707  1.00  0.00     0.001 C 
BRANCH  44  45
ATOM     45  C   UNL     1      22.690 -24.021  21.929  1.00  0.00     0.008 C 
BRANCH  45  46
ATOM     46  C   UNL     1      23.632 -22.871  21.526  1.00  0.00     0.075 C 
BRANCH  46  47
ATOM     47  C   UNL     1      23.963 -21.973  22.698  1.00  0.00     0.132 C 
ATOM     48  O   UNL     1      25.125 -21.635  22.862  1.00  0.00    -0.300 OA
BRANCH  47  49
ATOM     49  C   UNL     1      22.924 -21.417  23.653  1.00  0.00     0.072 C 
ATOM     50  C   UNL     1      21.573 -21.058  23.024  1.00  0.00     0.012 C 
ENDBRANCH  47  49
ENDBRANCH  46  47
ENDBRANCH  45  46
ENDBRANCH  44  45
ENDBRANCH  43  44
ENDBRANCH   1  43
TORSDOF 12
ENDMDL
MODEL 8
REMARK VINA RESULT:    -5.644      1.613      2.480
REMARK INTER + INTRA:         -15.181
REMARK INTER:                 -12.952
REMARK INTRA:                  -2.229
REMARK UNBOUND:                -3.268
REMARK SMILES CCC(=O)CCCCC[C@@H]1NC(=O)[C@H]2CCCCN2C(=O)[C@H]([C@H](C)CC)NC(=O)[C@@H](Cc2cn(OC)c3ccccc23)NC1=O
REMARK SMILES IDX 9 1 10 2 44 3 43 4 45 6 30 7 28 8 27 9 29 11 22 12 23 14
REMARK SMILES IDX 24 15 25 16 26 17 31 18 32 19 33 20 42 21 34 22 37 23 41 24
REMARK SMILES IDX 38 25 40 26 39 27 35 28 36 29 11 30 12 31 13 33 14 34 19 35
REMARK SMILES IDX 15 36 18 37 16 38 17 39 20 40 21 41 8 43 7 44 6 45 5 46 3 47
REMARK SMILES IDX 4 48 2 49 1 50
REMARK H PARENT 43 5 27 10 11 32
REMARK Flexibility Score: 80.00
ROOT
ATOM      1  C   UNL     1      20.607 -29.511  22.306  1.00  0.00     0.035 C 
ENDROOT
BRANCH   1   2
ATOM      2  C   UNL     1      20.950 -30.910  21.756  1.00  0.00     0.171 C 
BRANCH   2   3
ATOM      3  C   UNL     1      21.423 -31.825  22.848  1.00  0.00     0.243 C 
ATOM      4  N   UNL     1      21.334 -31.432  24.238  1.00  0.00    -0.342 N 
ATOM      5  H   UNL     1      21.192 -30.413  24.441  1.00  0.00     0.164 HD
ATOM      6  O   UNL     1      21.965 -32.910  22.508  1.00  0.00    -0.273 OA
BRANCH   4   7
ATOM      7  C   UNL     1      21.194 -32.332  25.401  1.00  0.00     0.175 C 
BRANCH   7   8
ATOM      8  C   UNL     1      20.588 -33.656  24.989  1.00  0.00     0.243 C 
ATOM      9  N   UNL     1      19.219 -33.770  24.540  1.00  0.00    -0.342 N 
ATOM     10  H   UNL     1      18.518 -33.075  24.873  1.00  0.00     0.164 HD
ATOM     11  O   UNL     1      21.316 -34.694  25.063  1.00  0.00    -0.273 OA
BRANCH   9  12
ATOM     12  C   UNL     1      18.715 -34.992  23.914  1.00  0.00     0.174 CG0
ATOM     13  G   UNL     1      18.421 -34.814  22.426  1.00  0.00     0.000 G0
BRANCH  12  14
ATOM     14  C   UNL     1      17.604 -35.666  24.777  1.00  0.00     0.018 C 
ATOM     15  C   UNL     1      16.728 -34.660  25.534  1.00  0.00     0.010 C 
BRANCH  14  16
ATOM     16  C   UNL     1      18.037 -36.865  25.662  1.00  0.00     0.002 C 
ATOM     17  C   UNL     1      16.976 -37.407  26.611  1.00  0.00     0.004 C 
ENDBRANCH  14  16
ENDBRANCH  12  14
ENDBRANCH   9  12
ENDBRANCH   7   8
BRANCH   7  18
ATOM     18  C   UNL     1      22.527 -32.535  26.149  1.00  0.00     0.073 C 
BRANCH  18  19
ATOM     19  C   UNL     1      23.662 -31.556  25.950  1.00  0.00    -0.016 A 
ATOM     20  C   UNL     1      24.030 -30.731  27.010  1.00  0.00     0.134 A 
ATOM     21  C   UNL     1      24.831 -31.713  25.203  1.00  0.00     0.006 A 
ATOM     22  N   UNL     1      25.335 -30.408  26.955  1.00  0.00    -0.191 N 
ATOM     23  C   UNL     1      25.829 -31.027  25.857  1.00  0.00     0.087 A 
ATOM     24  C   UNL     1      25.105 -32.400  24.011  1.00  0.00     0.011 A 
ATOM     25  C   UNL     1      27.135 -30.967  25.351  1.00  0.00     0.030 A 
ATOM     26  C   UNL     1      26.419 -32.380  23.509  1.00  0.00     0.001 A 
ATOM     27  C   UNL     1      27.432 -31.680  24.182  1.00  0.00     0.002 A 
BRANCH  22  28
ATOM     28  O   UNL     1      26.026 -29.967  28.067  1.00  0.00    -0.417 OA
ATOM     29  C   UNL     1      25.535 -28.952  28.942  1.00  0.00     0.313 C 
ENDBRANCH  22  28
ENDBRANCH  18  19
ENDBRANCH   7  18
ENDBRANCH   4   7
ENDBRANCH   2   3
BRANCH   2  30
ATOM     30  N   UNL     1      19.801 -31.509  21.062  1.00  0.00    -0.343 N 
ATOM     31  C   UNL     1      18.582 -31.846  21.756  1.00  0.00     0.243 C 
ATOM     32  H   UNL     1      19.906 -31.795  20.058  1.00  0.00     0.164 HD
ATOM     33  O   UNL     1      18.365 -31.407  22.922  1.00  0.00    -0.273 OA
BRANCH  31  34
ATOM     34  C   UNL     1      17.589 -32.772  21.118  1.00  0.00     0.174 C 
ATOM     35  N   UNL     1      17.351 -34.025  21.864  1.00  0.00    -0.329 N 
ATOM     36  C   UNL     1      17.974 -33.109  19.665  1.00  0.00     0.035 C 
ATOM     37  C   UNL     1      16.212 -34.784  21.311  1.00  0.00     0.120 C 
ATOM     38  C   UNL     1      16.848 -33.924  19.006  1.00  0.00     0.004 C 
ATOM     39  C   UNL     1      16.467 -35.149  19.839  1.00  0.00     0.022 C 
BRANCH  35  40
ATOM     40  C   UNL     1      18.439 -34.806  22.424  1.00  0.00     0.246 CG0
ATOM     41  O   UNL     1      19.166 -35.482  21.643  1.00  0.00    -0.272 OA
ATOM     42  G   UNL     1      18.706 -35.003  23.914  1.00  0.00     0.000 G0
ENDBRANCH  35  40
ENDBRANCH  31  34
ENDBRANCH   2  30
ENDBRANCH   1   2
BRANCH   1  43
ATOM     43  C   UNL     1      21.814 -28.553  22.210  1.00  0.00     0.003 C 
BRANCH  43  44
ATOM     44  C   UNL     1      21.768 -27.656  20.967  1.00  0.00     0.001 C 
BRANCH  44  45
ATOM     45  C   UNL     1      20.921 -26.391  21.171  1.00  0.00     0.008 C 
BRANCH  45  46
ATOM     46  C   UNL     1      21.110 -25.394  20.013  1.00  0.00     0.075 C 
BRANCH  46  47
ATOM     47  C   UNL     1      22.503 -24.805  19.994  1.00  0.00     0.132 C 
ATOM     48  O   UNL     1      23.044 -24.627  18.913  1.00  0.00    -0.300 OA
BRANCH  47  49
ATOM     49  C   UNL     1      23.250 -24.367  21.240  1.00  0.00     0.072 C 
ATOM     50  C   UNL     1      22.777 -23.050  21.864  1.00  0.00     0.012 C 
ENDBRANCH  47  49
ENDBRANCH  46  47
ENDBRANCH  45  46
ENDBRANCH  44  45
ENDBRANCH  43  44
ENDBRANCH   1  43
TORSDOF 12
ENDMDL
MODEL 9
REMARK VINA RESULT:    -5.622      2.417      7.053
REMARK INTER + INTRA:         -15.136
REMARK INTER:                 -13.301
REMARK INTRA:                  -1.835
REMARK UNBOUND:                -3.268
REMARK SMILES CCC(=O)CCCCC[C@@H]1NC(=O)[C@H]2CCCCN2C(=O)[C@H]([C@H](C)CC)NC(=O)[C@@H](Cc2cn(OC)c3ccccc23)NC1=O
REMARK SMILES IDX 9 1 10 2 44 3 43 4 45 6 30 7 28 8 27 9 29 11 22 12 23 14
REMARK SMILES IDX 24 15 25 16 26 17 31 18 32 19 33 20 42 21 34 22 37 23 41 24
REMARK SMILES IDX 38 25 40 26 39 27 35 28 36 29 11 30 12 31 13 33 14 34 19 35
REMARK SMILES IDX 15 36 18 37 16 38 17 39 20 40 21 41 8 43 7 44 6 45 5 46 3 47
REMARK SMILES IDX 4 48 2 49 1 50
REMARK H PARENT 43 5 27 10 11 32
REMARK Flexibility Score: 80.00
ROOT
ATOM      1  C   UNL     1      20.926 -29.280  20.908  1.00  0.00     0.035 C 
ENDROOT
BRANCH   1   2
ATOM      2  C   UNL     1      20.853 -29.751  22.374  1.00  0.00     0.171 C 
BRANCH   2   3
ATOM      3  C   UNL     1      19.902 -30.902  22.531  1.00  0.00     0.243 C 
ATOM      4  N   UNL     1      20.307 -32.252  22.200  1.00  0.00    -0.342 N 
ATOM      5  H   UNL     1      21.162 -32.364  21.604  1.00  0.00     0.164 HD
ATOM      6  O   UNL     1      18.722 -30.642  22.889  1.00  0.00    -0.273 OA
BRANCH   4   7
ATOM      7  C   UNL     1      19.783 -33.499  22.793  1.00  0.00     0.175 C 
BRANCH   7   8
ATOM      8  C   UNL     1      20.746 -34.057  23.817  1.00  0.00     0.243 C 
ATOM      9  N   UNL     1      22.172 -33.831  23.736  1.00  0.00    -0.342 N 
ATOM     10  H   UNL     1      22.605 -33.659  22.804  1.00  0.00     0.164 HD
ATOM     11  O   UNL     1      20.272 -34.759  24.762  1.00  0.00    -0.273 OA
BRANCH   9  12
ATOM     12  C   UNL     1      23.065 -34.157  24.848  1.00  0.00     0.174 CG0
ATOM     13  G   UNL     1      23.577 -32.916  25.576  1.00  0.00     0.000 G0
BRANCH  12  14
ATOM     14  C   UNL     1      24.128 -35.224  24.440  1.00  0.00     0.018 C 
ATOM     15  C   UNL     1      24.362 -35.300  22.927  1.00  0.00     0.010 C 
BRANCH  14  16
ATOM     16  C   UNL     1      23.999 -36.625  25.096  1.00  0.00     0.002 C 
ATOM     17  C   UNL     1      22.879 -36.778  26.117  1.00  0.00     0.004 C 
ENDBRANCH  14  16
ENDBRANCH  12  14
ENDBRANCH   9  12
ENDBRANCH   7   8
BRANCH   7  18
ATOM     18  C   UNL     1      18.373 -33.316  23.391  1.00  0.00     0.073 C 
BRANCH  18  19
ATOM     19  C   UNL     1      17.182 -33.976  22.735  1.00  0.00    -0.016 A 
ATOM     20  C   UNL     1      16.044 -33.213  22.489  1.00  0.00     0.134 A 
ATOM     21  C   UNL     1      17.163 -34.965  21.749  1.00  0.00     0.006 A 
ATOM     22  N   UNL     1      15.367 -33.665  21.418  1.00  0.00    -0.191 N 
ATOM     23  C   UNL     1      16.065 -34.728  20.954  1.00  0.00     0.087 A 
ATOM     24  C   UNL     1      18.014 -36.047  21.482  1.00  0.00     0.011 A 
ATOM     25  C   UNL     1      15.744 -35.563  19.874  1.00  0.00     0.030 A 
ATOM     26  C   UNL     1      17.726 -36.874  20.380  1.00  0.00     0.001 A 
ATOM     27  C   UNL     1      16.607 -36.626  19.572  1.00  0.00     0.002 A 
BRANCH  22  28
ATOM     28  O   UNL     1      14.470 -32.870  20.731  1.00  0.00    -0.417 OA
ATOM     29  C   UNL     1      13.741 -31.805  21.340  1.00  0.00     0.313 C 
ENDBRANCH  22  28
ENDBRANCH  18  19
ENDBRANCH   7  18
ENDBRANCH   4   7
ENDBRANCH   2   3
BRANCH   2  30
ATOM     30  N   UNL     1      22.180 -30.122  22.885  1.00  0.00    -0.343 N 
ATOM     31  C   UNL     1      22.393 -30.473  24.269  1.00  0.00     0.243 C 
ATOM     32  H   UNL     1      23.013 -30.029  22.254  1.00  0.00     0.164 HD
ATOM     33  O   UNL     1      21.411 -30.722  25.026  1.00  0.00    -0.273 OA
BRANCH  31  34
ATOM     34  C   UNL     1      23.783 -30.487  24.832  1.00  0.00     0.174 C 
ATOM     35  N   UNL     1      24.357 -31.836  25.015  1.00  0.00    -0.329 N 
ATOM     36  C   UNL     1      23.869 -29.712  26.161  1.00  0.00     0.035 C 
ATOM     37  C   UNL     1      25.792 -31.780  25.357  1.00  0.00     0.120 C 
ATOM     38  C   UNL     1      25.336 -29.617  26.612  1.00  0.00     0.004 C 
ATOM     39  C   UNL     1      26.008 -30.991  26.659  1.00  0.00     0.022 C 
BRANCH  35  40
ATOM     40  C   UNL     1      23.595 -32.924  25.600  1.00  0.00     0.246 CG0
ATOM     41  O   UNL     1      23.432 -32.948  26.852  1.00  0.00    -0.272 OA
ATOM     42  G   UNL     1      23.080 -34.146  24.843  1.00  0.00     0.000 G0
ENDBRANCH  35  40
ENDBRANCH  31  34
ENDBRANCH   2  30
ENDBRANCH   1   2
BRANCH   1  43
ATOM     43  C   UNL     1      19.918 -28.146  20.625  1.00  0.00     0.003 C 
BRANCH  43  44
ATOM     44  C   UNL     1      20.564 -26.755  20.637  1.00  0.00     0.001 C 
BRANCH  44  45
ATOM     45  C   UNL     1      22.053 -26.783  20.264  1.00  0.00     0.008 C 
BRANCH  45  46
ATOM     46  C   UNL     1      22.907 -26.022  21.295  1.00  0.00     0.075 C 
BRANCH  46  47
ATOM     47  C   UNL     1      22.989 -24.544  20.983  1.00  0.00     0.132 C 
ATOM     48  O   UNL     1      23.343 -24.205  19.865  1.00  0.00    -0.300 OA
BRANCH  47  49
ATOM     49  C   UNL     1      22.601 -23.453  21.963  1.00  0.00     0.072 C 
ATOM     50  C   UNL     1      21.297 -23.690  22.733  1.00  0.00     0.012 C 
ENDBRANCH  47  49
ENDBRANCH  46  47
ENDBRANCH  45  46
ENDBRANCH  44  45
ENDBRANCH  43  44
ENDBRANCH   1  43
TORSDOF 12
ENDMDL
