MODEL 1
REMARK VINA RESULT:    -4.108      0.000      0.000
REMARK INTER + INTRA:          -4.919
REMARK INTER:                  -4.828
REMARK INTRA:                  -0.091
REMARK UNBOUND:                -0.091
REMARK SMILES Oc1ccc(-c2[o+]c3cc(O)cc(O)c3cc2O)cc1
REMARK SMILES IDX 6 1 7 2 8 3 9 4 10 5 12 6 13 7 15 8 16 9 17 10 5 11 4 12
REMARK SMILES IDX 3 13 2 14 19 15 20 16 1 17 18 19 11 21 14 23
REMARK H PARENT 1 18 18 20 11 22 14 24
REMARK Flexibility Score: inf
ROOT
ATOM      1  C   UNL     1       6.826   4.769  13.488  1.00  0.00     0.401 A 
ATOM      2  O   UNL     1       6.510   5.209  14.703  1.00  0.00    -0.202 OA
ATOM      3  C   UNL     1       6.549   6.491  15.050  1.00  0.00     0.368 A 
ATOM      4  C   UNL     1       6.197   6.854  16.352  1.00  0.00     0.162 A 
ATOM      5  C   UNL     1       6.226   8.197  16.742  1.00  0.00     0.128 A 
ATOM      6  C   UNL     1       6.608   9.179  15.825  1.00  0.00     0.093 A 
ATOM      7  C   UNL     1       6.966   8.841  14.514  1.00  0.00     0.136 A 
ATOM      8  C   UNL     1       6.941   7.479  14.115  1.00  0.00     0.125 A 
ATOM      9  C   UNL     1       7.296   7.046  12.826  1.00  0.00     0.078 A 
ATOM     10  C   UNL     1       7.251   5.686  12.507  1.00  0.00     0.223 A 
ENDROOT
BRANCH   1  11
ATOM     11  C   UNL     1       6.732   3.317  13.221  1.00  0.00     0.084 A 
ATOM     12  C   UNL     1       5.969   2.814  12.152  1.00  0.00     0.022 A 
ATOM     13  C   UNL     1       5.878   1.435  11.935  1.00  0.00     0.047 A 
ATOM     14  C   UNL     1       6.537   0.542  12.791  1.00  0.00     0.115 A 
ATOM     15  C   UNL     1       7.374   2.412  14.086  1.00  0.00     0.022 A 
ATOM     16  C   UNL     1       7.282   1.035  13.866  1.00  0.00     0.047 A 
BRANCH  14  17
ATOM     17  O   UNL     1       6.454  -0.832  12.583  1.00  0.00    -0.508 OA
ATOM     18  H   UNL     1       6.045  -1.218  11.739  1.00  0.00     0.293 HD
ENDBRANCH  14  17
ENDBRANCH   1  11
BRANCH  10  19
ATOM     19  O   UNL     1       7.651   5.250  11.243  1.00  0.00    -0.500 OA
ATOM     20  H   UNL     1       8.025   5.890  10.553  1.00  0.00     0.294 HD
ENDBRANCH  10  19
BRANCH   5  21
ATOM     21  O   UNL     1       5.875   8.567  18.038  1.00  0.00    -0.507 OA
ATOM     22  H   UNL     1       6.230   9.416  18.462  1.00  0.00     0.293 HD
ENDBRANCH   5  21
BRANCH   7  23
ATOM     23  O   UNL     1       7.334   9.882  13.658  1.00  0.00    -0.507 OA
ATOM     24  H   UNL     1       7.167   9.889  12.662  1.00  0.00     0.293 HD
ENDBRANCH   7  23
TORSDOF 5
ENDMDL
MODEL 2
REMARK VINA RESULT:    -3.601      3.236      8.801
REMARK INTER + INTRA:          -4.324
REMARK INTER:                  -4.682
REMARK INTRA:                   0.358
REMARK UNBOUND:                -0.091
REMARK SMILES Oc1ccc(-c2[o+]c3cc(O)cc(O)c3cc2O)cc1
REMARK SMILES IDX 6 1 7 2 8 3 9 4 10 5 12 6 13 7 15 8 16 9 17 10 5 11 4 12
REMARK SMILES IDX 3 13 2 14 19 15 20 16 1 17 18 19 11 21 14 23
REMARK H PARENT 1 18 18 20 11 22 14 24
REMARK Flexibility Score: inf
ROOT
ATOM      1  C   UNL     1       6.504  -0.138  12.557  1.00  0.00     0.401 A 
ATOM      2  O   UNL     1       6.749  -0.877  13.637  1.00  0.00    -0.202 OA
ATOM      3  C   UNL     1       6.755  -2.206  13.628  1.00  0.00     0.368 A 
ATOM      4  C   UNL     1       7.024  -2.893  14.814  1.00  0.00     0.162 A 
ATOM      5  C   UNL     1       7.040  -4.291  14.831  1.00  0.00     0.128 A 
ATOM      6  C   UNL     1       6.786  -5.004  13.657  1.00  0.00     0.093 A 
ATOM      7  C   UNL     1       6.514  -4.338  12.455  1.00  0.00     0.136 A 
ATOM      8  C   UNL     1       6.494  -2.920  12.434  1.00  0.00     0.125 A 
ATOM      9  C   UNL     1       6.216  -2.168  11.278  1.00  0.00     0.078 A 
ATOM     10  C   UNL     1       6.211  -0.772  11.335  1.00  0.00     0.223 A 
ENDROOT
BRANCH   1  11
ATOM     11  C   UNL     1       6.537   1.335  12.694  1.00  0.00     0.084 A 
ATOM     12  C   UNL     1       5.881   2.172  11.774  1.00  0.00     0.022 A 
ATOM     13  C   UNL     1       5.947   3.563  11.912  1.00  0.00     0.047 A 
ATOM     14  C   UNL     1       6.678   4.133  12.963  1.00  0.00     0.115 A 
ATOM     15  C   UNL     1       7.284   1.916  13.734  1.00  0.00     0.022 A 
ATOM     16  C   UNL     1       7.346   3.306  13.870  1.00  0.00     0.047 A 
BRANCH  14  17
ATOM     17  O   UNL     1       6.747   5.516  13.111  1.00  0.00    -0.508 OA
ATOM     18  H   UNL     1       6.605   6.141  12.326  1.00  0.00     0.293 HD
ENDBRANCH  14  17
ENDBRANCH   1  11
BRANCH  10  19
ATOM     19  O   UNL     1       5.887  -0.027  10.201  1.00  0.00    -0.500 OA
ATOM     20  H   UNL     1       5.502  -0.461   9.371  1.00  0.00     0.294 HD
ENDBRANCH  10  19
BRANCH   5  21
ATOM     21  O   UNL     1       7.307  -4.983  16.010  1.00  0.00    -0.507 OA
ATOM     22  H   UNL     1       8.237  -5.005  16.412  1.00  0.00     0.293 HD
ENDBRANCH   5  21
BRANCH   7  23
ATOM     23  O   UNL     1       6.273  -5.124  11.325  1.00  0.00    -0.507 OA
ATOM     24  H   UNL     1       6.243  -6.133  11.327  1.00  0.00     0.293 HD
ENDBRANCH   7  23
TORSDOF 5
ENDMDL
MODEL 3
REMARK VINA RESULT:    -3.281      3.217      9.291
REMARK INTER + INTRA:          -3.948
REMARK INTER:                  -4.136
REMARK INTRA:                   0.189
REMARK UNBOUND:                -0.091
REMARK SMILES Oc1ccc(-c2[o+]c3cc(O)cc(O)c3cc2O)cc1
REMARK SMILES IDX 6 1 7 2 8 3 9 4 10 5 12 6 13 7 15 8 16 9 17 10 5 11 4 12
REMARK SMILES IDX 3 13 2 14 19 15 20 16 1 17 18 19 11 21 14 23
REMARK H PARENT 1 18 18 20 11 22 14 24
REMARK Flexibility Score: inf
ROOT
ATOM      1  C   UNL     1       6.305   0.011  12.360  1.00  0.00     0.401 A 
ATOM      2  O   UNL     1       6.520  -0.505  11.152  1.00  0.00    -0.202 OA
ATOM      3  C   UNL     1       6.478  -1.808  10.897  1.00  0.00     0.368 A 
ATOM      4  C   UNL     1       6.717  -2.253   9.594  1.00  0.00     0.162 A 
ATOM      5  C   UNL     1       6.676  -3.620   9.297  1.00  0.00     0.128 A 
ATOM      6  C   UNL     1       6.395  -4.543  10.307  1.00  0.00     0.093 A 
ATOM      7  C   UNL     1       6.152  -4.122  11.620  1.00  0.00     0.136 A 
ATOM      8  C   UNL     1       6.195  -2.737  11.927  1.00  0.00     0.125 A 
ATOM      9  C   UNL     1       5.978  -2.224  13.218  1.00  0.00     0.078 A 
ATOM     10  C   UNL     1       6.041  -0.847  13.444  1.00  0.00     0.223 A 
ENDROOT
BRANCH   1  11
ATOM     11  C   UNL     1       6.368   1.482  12.515  1.00  0.00     0.084 A 
ATOM     12  C   UNL     1       5.876   2.346  11.520  1.00  0.00     0.022 A 
ATOM     13  C   UNL     1       5.968   3.733  11.681  1.00  0.00     0.047 A 
ATOM     14  C   UNL     1       6.564   4.271  12.829  1.00  0.00     0.115 A 
ATOM     15  C   UNL     1       6.982   2.031  13.654  1.00  0.00     0.022 A 
ATOM     16  C   UNL     1       7.072   3.417  13.811  1.00  0.00     0.047 A 
BRANCH  14  17
ATOM     17  O   UNL     1       6.660   5.650  12.999  1.00  0.00    -0.508 OA
ATOM     18  H   UNL     1       7.071   6.055  13.832  1.00  0.00     0.293 HD
ENDBRANCH  14  17
ENDBRANCH   1  11
BRANCH  10  19
ATOM     19  O   UNL     1       5.875  -0.341  14.734  1.00  0.00    -0.500 OA
ATOM     20  H   UNL     1       5.032   0.148  15.009  1.00  0.00     0.294 HD
ENDBRANCH  10  19
BRANCH   5  21
ATOM     21  O   UNL     1       6.913  -4.071   8.001  1.00  0.00    -0.507 OA
ATOM     22  H   UNL     1       6.586  -3.556   7.192  1.00  0.00     0.293 HD
ENDBRANCH   5  21
BRANCH   7  23
ATOM     23  O   UNL     1       5.875  -5.108  12.572  1.00  0.00    -0.507 OA
ATOM     24  H   UNL     1       5.091  -5.742  12.524  1.00  0.00     0.293 HD
ENDBRANCH   7  23
TORSDOF 5
ENDMDL
MODEL 4
REMARK VINA RESULT:    -2.618      1.893      7.029
REMARK INTER + INTRA:          -3.169
REMARK INTER:                  -3.042
REMARK INTRA:                  -0.127
REMARK UNBOUND:                -0.091
REMARK SMILES Oc1ccc(-c2[o+]c3cc(O)cc(O)c3cc2O)cc1
REMARK SMILES IDX 6 1 7 2 8 3 9 4 10 5 12 6 13 7 15 8 16 9 17 10 5 11 4 12
REMARK SMILES IDX 3 13 2 14 19 15 20 16 1 17 18 19 11 21 14 23
REMARK H PARENT 1 18 18 20 11 22 14 24
REMARK Flexibility Score: inf
ROOT
ATOM      1  C   UNL     1       6.635   3.392  12.776  1.00  0.00     0.401 A 
ATOM      2  O   UNL     1       6.516   2.419  13.676  1.00  0.00    -0.202 OA
ATOM      3  C   UNL     1       6.309   1.147  13.353  1.00  0.00     0.368 A 
ATOM      4  C   UNL     1       6.199   0.197  14.372  1.00  0.00     0.162 A 
ATOM      5  C   UNL     1       5.986  -1.150  14.059  1.00  0.00     0.128 A 
ATOM      6  C   UNL     1       5.882  -1.546  12.724  1.00  0.00     0.093 A 
ATOM      7  C   UNL     1       5.988  -0.613  11.686  1.00  0.00     0.136 A 
ATOM      8  C   UNL     1       6.202   0.755  11.997  1.00  0.00     0.125 A 
ATOM      9  C   UNL     1       6.308   1.762  11.022  1.00  0.00     0.078 A 
ATOM     10  C   UNL     1       6.515   3.090  11.407  1.00  0.00     0.223 A 
ENDROOT
BRANCH   1  11
ATOM     11  C   UNL     1       6.874   4.770  13.262  1.00  0.00     0.084 A 
ATOM     12  C   UNL     1       5.962   5.809  13.003  1.00  0.00     0.022 A 
ATOM     13  C   UNL     1       6.223   7.108  13.453  1.00  0.00     0.047 A 
ATOM     14  C   UNL     1       7.403   7.386  14.155  1.00  0.00     0.115 A 
ATOM     15  C   UNL     1       8.065   5.063  13.950  1.00  0.00     0.022 A 
ATOM     16  C   UNL     1       8.322   6.362  14.400  1.00  0.00     0.047 A 
BRANCH  14  17
ATOM     17  O   UNL     1       7.671   8.675  14.609  1.00  0.00    -0.508 OA
ATOM     18  H   UNL     1       7.325   9.492  14.120  1.00  0.00     0.293 HD
ENDBRANCH  14  17
ENDBRANCH   1  11
BRANCH  10  19
ATOM     19  O   UNL     1       6.570   4.097  10.443  1.00  0.00    -0.500 OA
ATOM     20  H   UNL     1       6.825   3.900   9.482  1.00  0.00     0.294 HD
ENDBRANCH  10  19
BRANCH   5  21
ATOM     21  O   UNL     1       5.876  -2.103  15.069  1.00  0.00    -0.507 OA
ATOM     22  H   UNL     1       4.976  -2.470  15.356  1.00  0.00     0.293 HD
ENDBRANCH   5  21
BRANCH   7  23
ATOM     23  O   UNL     1       5.875  -1.090  10.377  1.00  0.00    -0.507 OA
ATOM     24  H   UNL     1       5.799  -0.502   9.559  1.00  0.00     0.293 HD
ENDBRANCH   7  23
TORSDOF 5
ENDMDL
MODEL 5
REMARK VINA RESULT:    -2.292      2.307      4.455
REMARK INTER + INTRA:          -2.785
REMARK INTER:                  -2.821
REMARK INTRA:                   0.037
REMARK UNBOUND:                -0.091
REMARK SMILES Oc1ccc(-c2[o+]c3cc(O)cc(O)c3cc2O)cc1
REMARK SMILES IDX 6 1 7 2 8 3 9 4 10 5 12 6 13 7 15 8 16 9 17 10 5 11 4 12
REMARK SMILES IDX 3 13 2 14 19 15 20 16 1 17 18 19 11 21 14 23
REMARK H PARENT 1 18 18 20 11 22 14 24
REMARK Flexibility Score: inf
ROOT
ATOM      1  C   UNL     1       6.682   1.447  13.011  1.00  0.00     0.401 A 
ATOM      2  O   UNL     1       7.097   2.407  12.187  1.00  0.00    -0.202 OA
ATOM      3  C   UNL     1       7.262   3.671  12.562  1.00  0.00     0.368 A 
ATOM      4  C   UNL     1       7.703   4.607  11.624  1.00  0.00     0.162 A 
ATOM      5  C   UNL     1       7.888   5.943  11.993  1.00  0.00     0.128 A 
ATOM      6  C   UNL     1       7.632   6.343  13.306  1.00  0.00     0.093 A 
ATOM      7  C   UNL     1       7.189   5.424  14.266  1.00  0.00     0.136 A 
ATOM      8  C   UNL     1       6.997   4.068  13.895  1.00  0.00     0.125 A 
ATOM      9  C   UNL     1       6.542   3.080  14.786  1.00  0.00     0.078 A 
ATOM     10  C   UNL     1       6.373   1.765  14.346  1.00  0.00     0.223 A 
ENDROOT
BRANCH   1  11
ATOM     11  C   UNL     1       6.548   0.074  12.475  1.00  0.00     0.084 A 
ATOM     12  C   UNL     1       7.014  -1.043  13.192  1.00  0.00     0.022 A 
ATOM     13  C   UNL     1       6.896  -2.329  12.653  1.00  0.00     0.047 A 
ATOM     14  C   UNL     1       6.323  -2.512  11.388  1.00  0.00     0.115 A 
ATOM     15  C   UNL     1       5.993  -0.119  11.197  1.00  0.00     0.022 A 
ATOM     16  C   UNL     1       5.875  -1.405  10.663  1.00  0.00     0.047 A 
BRANCH  14  17
ATOM     17  O   UNL     1       6.199  -3.788  10.843  1.00  0.00    -0.508 OA
ATOM     18  H   UNL     1       6.369  -3.964   9.859  1.00  0.00     0.293 HD
ENDBRANCH  14  17
ENDBRANCH   1  11
BRANCH  10  19
ATOM     19  O   UNL     1       5.875   0.795  15.217  1.00  0.00    -0.500 OA
ATOM     20  H   UNL     1       5.258   0.057  14.896  1.00  0.00     0.294 HD
ENDBRANCH  10  19
BRANCH   5  21
ATOM     21  O   UNL     1       8.328   6.881  11.063  1.00  0.00    -0.507 OA
ATOM     22  H   UNL     1       9.192   7.393  11.194  1.00  0.00     0.293 HD
ENDBRANCH   5  21
BRANCH   7  23
ATOM     23  O   UNL     1       6.958   5.904  15.558  1.00  0.00    -0.507 OA
ATOM     24  H   UNL     1       6.318   5.483  16.217  1.00  0.00     0.293 HD
ENDBRANCH   7  23
TORSDOF 5
ENDMDL
