MODEL 1
REMARK VINA RESULT:    -8.099      0.000      0.000
REMARK INTER + INTRA:          -8.809
REMARK INTER:                  -8.809
REMARK INTRA:                   0.000
REMARK UNBOUND:                 0.000
REMARK SMILES C[C@H]1CC[C@H]2[N@@H+](C1)C[C@H]1[C@@H]3C[C@H]4[C@H](C[C@H](O)[C@H]5C[C@@H](O)CC[C@]54C)[C@@H]3CC[C@@H]1[C@]2(C)O
REMARK SMILES IDX 5 1 6 2 8 3 7 4 4 5 29 6 3 7 28 8 30 9 2 10 27 11 9 12 1 13
REMARK SMILES IDX 26 14 10 15 25 16 11 17 13 18 12 19 14 20 23 21 15 22 17 23
REMARK SMILES IDX 22 24 24 25 18 26 21 27 19 28 31 30 16 32 20 34
REMARK H PARENT 6 29 31 31 16 33 20 35
REMARK Flexibility Score: inf
ROOT
ATOM      1  C   UNL     1      13.171  19.234  21.959  1.00  0.00     0.216 C 
ATOM      2  N   UNL     1      12.558  18.784  20.661  1.00  0.00    -0.330 N 
ATOM      3  C   UNL     1      13.402  19.000  19.451  1.00  0.00     0.266 C 
ATOM      4  C   UNL     1      11.176  19.275  20.417  1.00  0.00     0.265 C 
ATOM      5  C   UNL     1      12.201  19.142  23.169  1.00  0.00     0.069 C 
ATOM      6  C   UNL     1      14.047  20.554  21.908  1.00  0.00     0.117 C 
ATOM      7  C   UNL     1      10.777  19.626  22.874  1.00  0.00     0.015 C 
ATOM      8  C   UNL     1      14.887  20.655  20.574  1.00  0.00     0.036 C 
ATOM      9  C   UNL     1      13.190  21.835  22.041  1.00  0.00     0.049 C 
ATOM     10  C   UNL     1      10.219  19.006  21.595  1.00  0.00     0.041 C 
ATOM     11  C   UNL     1      16.332  21.255  20.726  1.00  0.00     0.007 C 
ATOM     12  C   UNL     1      14.868  19.318  19.789  1.00  0.00     0.054 C 
ATOM     13  C   UNL     1       9.875  17.515  21.760  1.00  0.00     0.013 C 
ATOM     14  C   UNL     1      17.426  20.253  20.344  1.00  0.00     0.004 C 
ATOM     15  C   UNL     1      15.763  19.415  18.528  1.00  0.00     0.002 C 
ATOM     16  C   UNL     1      17.226  19.806  18.871  1.00  0.00    -0.004 C 
ATOM     17  C   UNL     1      15.854  18.093  17.750  1.00  0.00     0.009 C 
ATOM     18  C   UNL     1      18.125  18.648  18.366  1.00  0.00    -0.001 C 
ATOM     19  C   UNL     1      17.294  18.039  17.230  1.00  0.00    -0.001 C 
ATOM     20  C   UNL     1      18.448  17.594  19.440  1.00  0.00     0.036 C 
ATOM     21  C   UNL     1      17.824  16.659  16.631  1.00  0.00    -0.024 C 
ATOM     22  C   UNL     1      19.083  16.296  18.875  1.00  0.00     0.118 C 
ATOM     23  C   UNL     1      19.168  16.255  17.319  1.00  0.00     0.026 C 
ATOM     24  C   UNL     1      16.795  15.486  16.803  1.00  0.00     0.010 C 
ATOM     25  C   UNL     1      18.069  16.903  15.113  1.00  0.00     0.012 C 
ATOM     26  C   UNL     1      19.691  14.873  16.824  1.00  0.00     0.038 C 
ATOM     27  C   UNL     1      17.305  14.136  16.265  1.00  0.00     0.032 C 
ATOM     28  C   UNL     1      18.650  13.728  16.878  1.00  0.00     0.114 C 
ATOM     29  H   UNL     1      12.473  17.738  20.745  1.00  0.00     0.348 HD
ENDROOT
BRANCH   6  30
ATOM     30  O   UNL     1      14.901  20.533  23.034  1.00  0.00    -0.384 OA
ATOM     31  H   UNL     1      14.362  20.286  23.835  1.00  0.00     0.211 HD
ENDBRANCH   6  30
BRANCH  22  32
ATOM     32  O   UNL     1      20.375  16.130  19.408  1.00  0.00    -0.393 OA
ATOM     33  H   UNL     1      20.424  16.708  20.213  1.00  0.00     0.210 HD
ENDBRANCH  22  32
BRANCH  28  34
ATOM     34  O   UNL     1      18.461  13.273  18.193  1.00  0.00    -0.393 OA
ATOM     35  H   UNL     1      18.529  14.068  18.782  1.00  0.00     0.210 HD
ENDBRANCH  28  34
TORSDOF 3
ENDMDL
MODEL 2
REMARK VINA RESULT:    -7.720      5.030      7.417
REMARK INTER + INTRA:          -8.397
REMARK INTER:                  -8.397
REMARK INTRA:                   0.000
REMARK UNBOUND:                 0.000
REMARK SMILES C[C@H]1CC[C@H]2[N@@H+](C1)C[C@H]1[C@@H]3C[C@H]4[C@H](C[C@H](O)[C@H]5C[C@@H](O)CC[C@]54C)[C@@H]3CC[C@@H]1[C@]2(C)O
REMARK SMILES IDX 5 1 6 2 8 3 7 4 4 5 29 6 3 7 28 8 30 9 2 10 27 11 9 12 1 13
REMARK SMILES IDX 26 14 10 15 25 16 11 17 13 18 12 19 14 20 23 21 15 22 17 23
REMARK SMILES IDX 22 24 24 25 18 26 21 27 19 28 31 30 16 32 20 34
REMARK H PARENT 6 29 31 31 16 33 20 35
REMARK Flexibility Score: inf
ROOT
ATOM      1  C   UNL     1      20.813  15.655  21.450  1.00  0.00     0.216 C 
ATOM      2  N   UNL     1      20.473  14.210  21.692  1.00  0.00    -0.330 N 
ATOM      3  C   UNL     1      19.488  13.620  20.741  1.00  0.00     0.266 C 
ATOM      4  C   UNL     1      20.096  13.879  23.092  1.00  0.00     0.265 C 
ATOM      5  C   UNL     1      21.714  16.275  22.554  1.00  0.00     0.069 C 
ATOM      6  C   UNL     1      19.629  16.587  20.959  1.00  0.00     0.117 C 
ATOM      7  C   UNL     1      21.316  15.888  23.983  1.00  0.00     0.015 C 
ATOM      8  C   UNL     1      18.661  15.837  19.959  1.00  0.00     0.036 C 
ATOM      9  C   UNL     1      18.784  17.136  22.133  1.00  0.00     0.049 C 
ATOM     10  C   UNL     1      21.118  14.381  24.130  1.00  0.00     0.041 C 
ATOM     11  C   UNL     1      18.107  16.705  18.773  1.00  0.00     0.007 C 
ATOM     12  C   UNL     1      19.266  14.488  19.490  1.00  0.00     0.054 C 
ATOM     13  C   UNL     1      22.445  13.602  24.092  1.00  0.00     0.013 C 
ATOM     14  C   UNL     1      18.555  16.181  17.404  1.00  0.00     0.004 C 
ATOM     15  C   UNL     1      18.340  13.809  18.451  1.00  0.00     0.002 C 
ATOM     16  C   UNL     1      18.062  14.720  17.224  1.00  0.00    -0.004 C 
ATOM     17  C   UNL     1      18.923  12.507  17.883  1.00  0.00     0.009 C 
ATOM     18  C   UNL     1      18.584  13.958  15.979  1.00  0.00    -0.001 C 
ATOM     19  C   UNL     1      18.493  12.489  16.412  1.00  0.00    -0.001 C 
ATOM     20  C   UNL     1      20.023  14.326  15.578  1.00  0.00     0.036 C 
ATOM     21  C   UNL     1      19.179  11.425  15.442  1.00  0.00    -0.024 C 
ATOM     22  C   UNL     1      20.651  13.364  14.536  1.00  0.00     0.118 C 
ATOM     23  C   UNL     1      19.754  12.140  14.178  1.00  0.00     0.026 C 
ATOM     24  C   UNL     1      20.334  10.622  16.139  1.00  0.00     0.010 C 
ATOM     25  C   UNL     1      18.057  10.433  15.015  1.00  0.00     0.012 C 
ATOM     26  C   UNL     1      20.503  11.155  13.233  1.00  0.00     0.038 C 
ATOM     27  C   UNL     1      21.034   9.617  15.208  1.00  0.00     0.032 C 
ATOM     28  C   UNL     1      21.568  10.272  13.928  1.00  0.00     0.114 C 
ATOM     29  H   UNL     1      21.368  13.683  21.511  1.00  0.00     0.348 HD
ENDROOT
BRANCH   6  30
ATOM     30  O   UNL     1      20.213  17.713  20.335  1.00  0.00    -0.384 OA
ATOM     31  H   UNL     1      20.061  18.510  20.915  1.00  0.00     0.211 HD
ENDBRANCH   6  30
BRANCH  22  32
ATOM     32  O   UNL     1      20.951  14.071  13.357  1.00  0.00    -0.393 OA
ATOM     33  H   UNL     1      21.897  13.867  13.139  1.00  0.00     0.210 HD
ENDBRANCH  22  32
BRANCH  28  34
ATOM     34  O   UNL     1      22.731  11.006  14.212  1.00  0.00    -0.393 OA
ATOM     35  H   UNL     1      22.459  11.957  14.272  1.00  0.00     0.210 HD
ENDBRANCH  28  34
TORSDOF 3
ENDMDL
MODEL 3
REMARK VINA RESULT:    -7.720      2.753      7.987
REMARK INTER + INTRA:          -8.396
REMARK INTER:                  -8.396
REMARK INTRA:                   0.000
REMARK UNBOUND:                 0.000
REMARK SMILES C[C@H]1CC[C@H]2[N@@H+](C1)C[C@H]1[C@@H]3C[C@H]4[C@H](C[C@H](O)[C@H]5C[C@@H](O)CC[C@]54C)[C@@H]3CC[C@@H]1[C@]2(C)O
REMARK SMILES IDX 5 1 6 2 8 3 7 4 4 5 29 6 3 7 28 8 30 9 2 10 27 11 9 12 1 13
REMARK SMILES IDX 26 14 10 15 25 16 11 17 13 18 12 19 14 20 23 21 15 22 17 23
REMARK SMILES IDX 22 24 24 25 18 26 21 27 19 28 31 30 16 32 20 34
REMARK H PARENT 6 29 31 31 16 33 20 35
REMARK Flexibility Score: inf
ROOT
ATOM      1  C   UNL     1      18.953  14.107  19.995  1.00  0.00     0.216 C 
ATOM      2  N   UNL     1      19.417  15.028  21.090  1.00  0.00    -0.330 N 
ATOM      3  C   UNL     1      19.382  16.480  20.757  1.00  0.00     0.266 C 
ATOM      4  C   UNL     1      20.728  14.672  21.696  1.00  0.00     0.265 C 
ATOM      5  C   UNL     1      19.157  12.601  20.321  1.00  0.00     0.069 C 
ATOM      6  C   UNL     1      19.332  14.522  18.513  1.00  0.00     0.117 C 
ATOM      7  C   UNL     1      20.505  12.275  20.974  1.00  0.00     0.015 C 
ATOM      8  C   UNL     1      19.255  16.086  18.299  1.00  0.00     0.036 C 
ATOM      9  C   UNL     1      20.747  14.046  18.111  1.00  0.00     0.049 C 
ATOM     10  C   UNL     1      20.808  13.201  22.149  1.00  0.00     0.041 C 
ATOM     11  C   UNL     1      18.699  16.554  16.906  1.00  0.00     0.007 C 
ATOM     12  C   UNL     1      18.558  16.788  19.495  1.00  0.00     0.054 C 
ATOM     13  C   UNL     1      19.932  12.903  23.379  1.00  0.00     0.013 C 
ATOM     14  C   UNL     1      17.400  17.356  17.033  1.00  0.00     0.004 C 
ATOM     15  C   UNL     1      18.422  18.308  19.228  1.00  0.00     0.002 C 
ATOM     16  C   UNL     1      17.651  18.610  17.914  1.00  0.00    -0.004 C 
ATOM     17  C   UNL     1      17.664  19.050  20.339  1.00  0.00     0.009 C 
ATOM     18  C   UNL     1      16.404  19.442  18.312  1.00  0.00    -0.001 C 
ATOM     19  C   UNL     1      16.849  20.124  19.612  1.00  0.00    -0.001 C 
ATOM     20  C   UNL     1      15.136  18.600  18.537  1.00  0.00     0.036 C 
ATOM     21  C   UNL     1      15.712  20.887  20.431  1.00  0.00    -0.024 C 
ATOM     22  C   UNL     1      13.980  19.375  19.220  1.00  0.00     0.118 C 
ATOM     23  C   UNL     1      14.356  20.824  19.657  1.00  0.00     0.026 C 
ATOM     24  C   UNL     1      15.501  20.298  21.871  1.00  0.00     0.010 C 
ATOM     25  C   UNL     1      16.176  22.369  20.551  1.00  0.00     0.012 C 
ATOM     26  C   UNL     1      13.193  21.489  20.451  1.00  0.00     0.038 C 
ATOM     27  C   UNL     1      14.381  20.996  22.663  1.00  0.00     0.032 C 
ATOM     28  C   UNL     1      13.044  21.002  21.913  1.00  0.00     0.114 C 
ATOM     29  H   UNL     1      18.711  14.914  21.863  1.00  0.00     0.348 HD
ENDROOT
BRANCH   6  30
ATOM     30  O   UNL     1      18.432  13.858  17.649  1.00  0.00    -0.384 OA
ATOM     31  H   UNL     1      18.698  12.898  17.594  1.00  0.00     0.211 HD
ENDBRANCH   6  30
BRANCH  22  32
ATOM     32  O   UNL     1      12.871  19.432  18.356  1.00  0.00    -0.393 OA
ATOM     33  H   UNL     1      12.243  20.094  18.748  1.00  0.00     0.210 HD
ENDBRANCH  22  32
BRANCH  28  34
ATOM     34  O   UNL     1      12.456  19.727  21.968  1.00  0.00    -0.393 OA
ATOM     35  H   UNL     1      13.178  19.092  22.210  1.00  0.00     0.210 HD
ENDBRANCH  28  34
TORSDOF 3
ENDMDL
MODEL 4
REMARK VINA RESULT:    -7.490      9.208     11.535
REMARK INTER + INTRA:          -8.147
REMARK INTER:                  -8.147
REMARK INTRA:                   0.000
REMARK UNBOUND:                 0.000
REMARK SMILES C[C@H]1CC[C@H]2[N@@H+](C1)C[C@H]1[C@@H]3C[C@H]4[C@H](C[C@H](O)[C@H]5C[C@@H](O)CC[C@]54C)[C@@H]3CC[C@@H]1[C@]2(C)O
REMARK SMILES IDX 5 1 6 2 8 3 7 4 4 5 29 6 3 7 28 8 30 9 2 10 27 11 9 12 1 13
REMARK SMILES IDX 26 14 10 15 25 16 11 17 13 18 12 19 14 20 23 21 15 22 17 23
REMARK SMILES IDX 22 24 24 25 18 26 21 27 19 28 31 30 16 32 20 34
REMARK H PARENT 6 29 31 31 16 33 20 35
REMARK Flexibility Score: inf
ROOT
ATOM      1  C   UNL     1      19.729  14.501  23.394  1.00  0.00     0.216 C 
ATOM      2  N   UNL     1      21.189  14.680  23.082  1.00  0.00    -0.330 N 
ATOM      3  C   UNL     1      21.952  15.509  24.058  1.00  0.00     0.266 C 
ATOM      4  C   UNL     1      21.484  15.123  21.693  1.00  0.00     0.265 C 
ATOM      5  C   UNL     1      18.939  13.771  22.273  1.00  0.00     0.069 C 
ATOM      6  C   UNL     1      18.983  15.747  24.029  1.00  0.00     0.117 C 
ATOM      7  C   UNL     1      19.290  14.230  20.853  1.00  0.00     0.015 C 
ATOM      8  C   UNL     1      19.905  16.535  25.042  1.00  0.00     0.036 C 
ATOM      9  C   UNL     1      18.480  16.741  22.957  1.00  0.00     0.049 C 
ATOM     10  C   UNL     1      20.799  14.254  20.620  1.00  0.00     0.041 C 
ATOM     11  C   UNL     1      19.184  17.096  26.320  1.00  0.00     0.007 C 
ATOM     12  C   UNL     1      21.192  15.736  25.376  1.00  0.00     0.054 C 
ATOM     13  C   UNL     1      21.405  12.844  20.513  1.00  0.00     0.013 C 
ATOM     14  C   UNL     1      19.724  16.482  27.615  1.00  0.00     0.004 C 
ATOM     15  C   UNL     1      22.041  16.489  26.431  1.00  0.00     0.002 C 
ATOM     16  C   UNL     1      21.244  16.778  27.733  1.00  0.00    -0.004 C 
ATOM     17  C   UNL     1      23.290  15.709  26.869  1.00  0.00     0.009 C 
ATOM     18  C   UNL     1      22.004  16.071  28.885  1.00  0.00    -0.001 C 
ATOM     19  C   UNL     1      23.445  16.017  28.362  1.00  0.00    -0.001 C 
ATOM     20  C   UNL     1      21.481  14.661  29.206  1.00  0.00     0.036 C 
ATOM     21  C   UNL     1      24.469  15.133  29.208  1.00  0.00    -0.024 C 
ATOM     22  C   UNL     1      22.414  13.841  30.135  1.00  0.00     0.118 C 
ATOM     23  C   UNL     1      23.760  14.552  30.473  1.00  0.00     0.026 C 
ATOM     24  C   UNL     1      25.078  13.947  28.379  1.00  0.00     0.010 C 
ATOM     25  C   UNL     1      25.617  16.090  29.647  1.00  0.00     0.012 C 
ATOM     26  C   UNL     1      24.695  13.617  31.295  1.00  0.00     0.038 C 
ATOM     27  C   UNL     1      26.039  13.059  29.190  1.00  0.00     0.032 C 
ATOM     28  C   UNL     1      25.396  12.511  30.470  1.00  0.00     0.114 C 
ATOM     29  H   UNL     1      21.609  13.717  23.163  1.00  0.00     0.348 HD
ENDROOT
BRANCH   6  30
ATOM     30  O   UNL     1      17.831  15.256  24.683  1.00  0.00    -0.384 OA
ATOM     31  H   UNL     1      18.064  14.396  25.131  1.00  0.00     0.211 HD
ENDBRANCH   6  30
BRANCH  22  32
ATOM     32  O   UNL     1      21.743  13.538  31.334  1.00  0.00    -0.393 OA
ATOM     33  H   UNL     1      22.036  12.627  31.598  1.00  0.00     0.210 HD
ENDBRANCH  22  32
BRANCH  28  34
ATOM     34  O   UNL     1      24.506  11.471  30.153  1.00  0.00    -0.393 OA
ATOM     35  H   UNL     1      23.609  11.883  30.063  1.00  0.00     0.210 HD
ENDBRANCH  28  34
TORSDOF 3
ENDMDL
MODEL 5
REMARK VINA RESULT:    -7.442      4.531      7.214
REMARK INTER + INTRA:          -8.095
REMARK INTER:                  -8.095
REMARK INTRA:                   0.000
REMARK UNBOUND:                 0.000
REMARK SMILES C[C@H]1CC[C@H]2[N@@H+](C1)C[C@H]1[C@@H]3C[C@H]4[C@H](C[C@H](O)[C@H]5C[C@@H](O)CC[C@]54C)[C@@H]3CC[C@@H]1[C@]2(C)O
REMARK SMILES IDX 5 1 6 2 8 3 7 4 4 5 29 6 3 7 28 8 30 9 2 10 27 11 9 12 1 13
REMARK SMILES IDX 26 14 10 15 25 16 11 17 13 18 12 19 14 20 23 21 15 22 17 23
REMARK SMILES IDX 22 24 24 25 18 26 21 27 19 28 31 30 16 32 20 34
REMARK H PARENT 6 29 31 31 16 33 20 35
REMARK Flexibility Score: inf
ROOT
ATOM      1  C   UNL     1      16.415  15.231  17.267  1.00  0.00     0.216 C 
ATOM      2  N   UNL     1      17.598  14.390  16.872  1.00  0.00    -0.330 N 
ATOM      3  C   UNL     1      18.891  14.772  17.508  1.00  0.00     0.266 C 
ATOM      4  C   UNL     1      17.779  14.213  15.406  1.00  0.00     0.265 C 
ATOM      5  C   UNL     1      15.125  14.906  16.464  1.00  0.00     0.069 C 
ATOM      6  C   UNL     1      16.688  16.776  17.490  1.00  0.00     0.117 C 
ATOM      7  C   UNL     1      15.353  14.699  14.963  1.00  0.00     0.015 C 
ATOM      8  C   UNL     1      18.091  17.037  18.169  1.00  0.00     0.036 C 
ATOM      9  C   UNL     1      16.630  17.580  16.170  1.00  0.00     0.049 C 
ATOM     10  C   UNL     1      16.503  13.731  14.690  1.00  0.00     0.041 C 
ATOM     11  C   UNL     1      18.129  18.205  19.219  1.00  0.00     0.007 C 
ATOM     12  C   UNL     1      18.715  15.722  18.704  1.00  0.00     0.054 C 
ATOM     13  C   UNL     1      16.141  12.273  15.024  1.00  0.00     0.013 C 
ATOM     14  C   UNL     1      18.485  17.716  20.627  1.00  0.00     0.004 C 
ATOM     15  C   UNL     1      20.049  16.012  19.436  1.00  0.00     0.002 C 
ATOM     16  C   UNL     1      19.876  17.027  20.599  1.00  0.00    -0.004 C 
ATOM     17  C   UNL     1      20.678  14.759  20.065  1.00  0.00     0.009 C 
ATOM     18  C   UNL     1      20.320  16.299  21.893  1.00  0.00    -0.001 C 
ATOM     19  C   UNL     1      21.306  15.246  21.374  1.00  0.00    -0.001 C 
ATOM     20  C   UNL     1      19.165  15.640  22.667  1.00  0.00     0.036 C 
ATOM     21  C   UNL     1      21.787  14.150  22.429  1.00  0.00    -0.024 C 
ATOM     22  C   UNL     1      19.630  14.667  23.782  1.00  0.00     0.118 C 
ATOM     23  C   UNL     1      21.173  14.450  23.834  1.00  0.00     0.026 C 
ATOM     24  C   UNL     1      21.398  12.689  22.008  1.00  0.00     0.010 C 
ATOM     25  C   UNL     1      23.339  14.263  22.503  1.00  0.00     0.012 C 
ATOM     26  C   UNL     1      21.550  13.365  24.886  1.00  0.00     0.038 C 
ATOM     27  C   UNL     1      21.820  11.620  23.033  1.00  0.00     0.032 C 
ATOM     28  C   UNL     1      21.279  11.907  24.439  1.00  0.00     0.114 C 
ATOM     29  H   UNL     1      17.389  13.428  17.246  1.00  0.00     0.348 HD
ENDROOT
BRANCH   6  30
ATOM     30  O   UNL     1      15.643  17.274  18.300  1.00  0.00    -0.384 OA
ATOM     31  H   UNL     1      14.943  16.568  18.382  1.00  0.00     0.211 HD
ENDBRANCH   6  30
BRANCH  22  32
ATOM     32  O   UNL     1      19.192  15.137  25.034  1.00  0.00    -0.393 OA
ATOM     33  H   UNL     1      18.200  15.104  25.015  1.00  0.00     0.210 HD
ENDBRANCH  22  32
BRANCH  28  34
ATOM     34  O   UNL     1      19.910  11.601  24.500  1.00  0.00    -0.393 OA
ATOM     35  H   UNL     1      19.458  12.395  24.886  1.00  0.00     0.210 HD
ENDBRANCH  28  34
TORSDOF 3
ENDMDL
MODEL 6
REMARK VINA RESULT:    -7.343      9.358     11.828
REMARK INTER + INTRA:          -7.987
REMARK INTER:                  -7.987
REMARK INTRA:                   0.000
REMARK UNBOUND:                 0.000
REMARK SMILES C[C@H]1CC[C@H]2[N@@H+](C1)C[C@H]1[C@@H]3C[C@H]4[C@H](C[C@H](O)[C@H]5C[C@@H](O)CC[C@]54C)[C@@H]3CC[C@@H]1[C@]2(C)O
REMARK SMILES IDX 5 1 6 2 8 3 7 4 4 5 29 6 3 7 28 8 30 9 2 10 27 11 9 12 1 13
REMARK SMILES IDX 26 14 10 15 25 16 11 17 13 18 12 19 14 20 23 21 15 22 17 23
REMARK SMILES IDX 22 24 24 25 18 26 21 27 19 28 31 30 16 32 20 34
REMARK H PARENT 6 29 31 31 16 33 20 35
REMARK Flexibility Score: inf
ROOT
ATOM      1  C   UNL     1      19.718  15.480  24.513  1.00  0.00     0.216 C 
ATOM      2  N   UNL     1      21.020  16.161  24.193  1.00  0.00    -0.330 N 
ATOM      3  C   UNL     1      21.334  17.358  25.024  1.00  0.00     0.266 C 
ATOM      4  C   UNL     1      21.231  16.467  22.753  1.00  0.00     0.265 C 
ATOM      5  C   UNL     1      19.353  14.340  23.522  1.00  0.00     0.069 C 
ATOM      6  C   UNL     1      18.509  16.421  24.919  1.00  0.00     0.117 C 
ATOM      7  C   UNL     1      19.611  14.678  22.050  1.00  0.00     0.015 C 
ATOM      8  C   UNL     1      18.982  17.648  25.795  1.00  0.00     0.036 C 
ATOM      9  C   UNL     1      17.749  16.967  23.688  1.00  0.00     0.049 C 
ATOM     10  C   UNL     1      21.011  15.250  21.834  1.00  0.00     0.041 C 
ATOM     11  C   UNL     1      18.006  18.072  26.951  1.00  0.00     0.007 C 
ATOM     12  C   UNL     1      20.446  17.470  26.276  1.00  0.00     0.054 C 
ATOM     13  C   UNL     1      22.114  14.185  21.974  1.00  0.00     0.013 C 
ATOM     14  C   UNL     1      18.638  17.919  28.338  1.00  0.00     0.004 C 
ATOM     15  C   UNL     1      20.862  18.643  27.198  1.00  0.00     0.002 C 
ATOM     16  C   UNL     1      19.918  18.794  28.422  1.00  0.00    -0.004 C 
ATOM     17  C   UNL     1      22.276  18.483  27.777  1.00  0.00     0.009 C 
ATOM     18  C   UNL     1      20.799  18.620  29.686  1.00  0.00    -0.001 C 
ATOM     19  C   UNL     1      22.188  19.049  29.198  1.00  0.00    -0.001 C 
ATOM     20  C   UNL     1      20.828  17.183  30.236  1.00  0.00     0.036 C 
ATOM     21  C   UNL     1      23.403  18.770  30.193  1.00  0.00    -0.024 C 
ATOM     22  C   UNL     1      21.928  16.940  31.301  1.00  0.00     0.118 C 
ATOM     23  C   UNL     1      22.873  18.159  31.530  1.00  0.00     0.026 C 
ATOM     24  C   UNL     1      24.478  17.801  29.585  1.00  0.00     0.010 C 
ATOM     25  C   UNL     1      24.065  20.151  30.478  1.00  0.00     0.012 C 
ATOM     26  C   UNL     1      24.027  17.795  32.510  1.00  0.00     0.038 C 
ATOM     27  C   UNL     1      25.639  17.489  30.546  1.00  0.00     0.032 C 
ATOM     28  C   UNL     1      25.157  16.935  31.892  1.00  0.00     0.114 C 
ATOM     29  H   UNL     1      21.767  15.460  24.441  1.00  0.00     0.348 HD
ENDROOT
BRANCH   6  30
ATOM     30  O   UNL     1      17.583  15.627  25.633  1.00  0.00    -0.384 OA
ATOM     31  H   UNL     1      17.142  16.198  26.321  1.00  0.00     0.211 HD
ENDBRANCH   6  30
BRANCH  22  32
ATOM     32  O   UNL     1      21.333  16.586  32.526  1.00  0.00    -0.393 OA
ATOM     33  H   UNL     1      21.962  15.964  32.975  1.00  0.00     0.210 HD
ENDBRANCH  22  32
BRANCH  28  34
ATOM     34  O   UNL     1      24.756  15.597  31.746  1.00  0.00    -0.393 OA
ATOM     35  H   UNL     1      23.800  15.614  31.481  1.00  0.00     0.210 HD
ENDBRANCH  28  34
TORSDOF 3
ENDMDL
MODEL 7
REMARK VINA RESULT:    -7.310      5.635      9.148
REMARK INTER + INTRA:          -7.951
REMARK INTER:                  -7.951
REMARK INTRA:                   0.000
REMARK UNBOUND:                 0.000
REMARK SMILES C[C@H]1CC[C@H]2[N@@H+](C1)C[C@H]1[C@@H]3C[C@H]4[C@H](C[C@H](O)[C@H]5C[C@@H](O)CC[C@]54C)[C@@H]3CC[C@@H]1[C@]2(C)O
REMARK SMILES IDX 5 1 6 2 8 3 7 4 4 5 29 6 3 7 28 8 30 9 2 10 27 11 9 12 1 13
REMARK SMILES IDX 26 14 10 15 25 16 11 17 13 18 12 19 14 20 23 21 15 22 17 23
REMARK SMILES IDX 22 24 24 25 18 26 21 27 19 28 31 30 16 32 20 34
REMARK H PARENT 6 29 31 31 16 33 20 35
REMARK Flexibility Score: inf
ROOT
ATOM      1  C   UNL     1      17.937  11.806  16.355  1.00  0.00     0.216 C 
ATOM      2  N   UNL     1      19.403  11.475  16.397  1.00  0.00    -0.330 N 
ATOM      3  C   UNL     1      20.264  12.483  17.080  1.00  0.00     0.266 C 
ATOM      4  C   UNL     1      19.999  11.095  15.088  1.00  0.00     0.265 C 
ATOM      5  C   UNL     1      17.101  10.817  15.497  1.00  0.00     0.069 C 
ATOM      6  C   UNL     1      17.562  13.334  16.161  1.00  0.00     0.117 C 
ATOM      7  C   UNL     1      17.758  10.422  14.170  1.00  0.00     0.015 C 
ATOM      8  C   UNL     1      18.554  14.290  16.936  1.00  0.00     0.036 C 
ATOM      9  C   UNL     1      17.548  13.753  14.672  1.00  0.00     0.049 C 
ATOM     10  C   UNL     1      19.210   9.990  14.360  1.00  0.00     0.041 C 
ATOM     11  C   UNL     1      17.898  15.554  17.599  1.00  0.00     0.007 C 
ATOM     12  C   UNL     1      19.459  13.495  17.913  1.00  0.00     0.054 C 
ATOM     13  C   UNL     1      19.334   8.615  15.042  1.00  0.00     0.013 C 
ATOM     14  C   UNL     1      18.042  15.556  19.125  1.00  0.00     0.004 C 
ATOM     15  C   UNL     1      20.365  14.458  18.720  1.00  0.00     0.002 C 
ATOM     16  C   UNL     1      19.548  15.522  19.502  1.00  0.00    -0.004 C 
ATOM     17  C   UNL     1      21.228  13.739  19.768  1.00  0.00     0.009 C 
ATOM     18  C   UNL     1      19.886  15.326  21.003  1.00  0.00    -0.001 C 
ATOM     19  C   UNL     1      21.285  14.699  20.960  1.00  0.00    -0.001 C 
ATOM     20  C   UNL     1      18.897  14.418  21.753  1.00  0.00     0.036 C 
ATOM     21  C   UNL     1      21.851  14.145  22.345  1.00  0.00    -0.024 C 
ATOM     22  C   UNL     1      19.388  13.978  23.157  1.00  0.00     0.118 C 
ATOM     23  C   UNL     1      20.838  14.441  23.497  1.00  0.00     0.026 C 
ATOM     24  C   UNL     1      22.141  12.602  22.309  1.00  0.00     0.010 C 
ATOM     25  C   UNL     1      23.182  14.907  22.612  1.00  0.00     0.012 C 
ATOM     26  C   UNL     1      21.308  13.851  24.860  1.00  0.00     0.038 C 
ATOM     27  C   UNL     1      22.652  12.041  23.649  1.00  0.00     0.032 C 
ATOM     28  C   UNL     1      21.709  12.357  24.817  1.00  0.00     0.114 C 
ATOM     29  H   UNL     1      19.474  10.612  16.998  1.00  0.00     0.348 HD
ENDROOT
BRANCH   6  30
ATOM     30  O   UNL     1      16.240  13.503  16.630  1.00  0.00    -0.384 OA
ATOM     31  H   UNL     1      15.861  12.605  16.839  1.00  0.00     0.211 HD
ENDBRANCH   6  30
BRANCH  22  32
ATOM     32  O   UNL     1      18.510  14.466  24.142  1.00  0.00    -0.393 OA
ATOM     33  H   UNL     1      17.803  13.778  24.253  1.00  0.00     0.210 HD
ENDBRANCH  22  32
BRANCH  28  34
ATOM     34  O   UNL     1      20.578  11.526  24.760  1.00  0.00    -0.393 OA
ATOM     35  H   UNL     1      19.811  12.069  25.078  1.00  0.00     0.210 HD
ENDBRANCH  28  34
TORSDOF 3
ENDMDL
MODEL 8
REMARK VINA RESULT:    -7.281      4.381      8.888
REMARK INTER + INTRA:          -7.919
REMARK INTER:                  -7.919
REMARK INTRA:                   0.000
REMARK UNBOUND:                 0.000
REMARK SMILES C[C@H]1CC[C@H]2[N@@H+](C1)C[C@H]1[C@@H]3C[C@H]4[C@H](C[C@H](O)[C@H]5C[C@@H](O)CC[C@]54C)[C@@H]3CC[C@@H]1[C@]2(C)O
REMARK SMILES IDX 5 1 6 2 8 3 7 4 4 5 29 6 3 7 28 8 30 9 2 10 27 11 9 12 1 13
REMARK SMILES IDX 26 14 10 15 25 16 11 17 13 18 12 19 14 20 23 21 15 22 17 23
REMARK SMILES IDX 22 24 24 25 18 26 21 27 19 28 31 30 16 32 20 34
REMARK H PARENT 6 29 31 31 16 33 20 35
REMARK Flexibility Score: inf
ROOT
ATOM      1  C   UNL     1      20.846  12.037  21.283  1.00  0.00     0.216 C 
ATOM      2  N   UNL     1      21.308  13.468  21.271  1.00  0.00    -0.330 N 
ATOM      3  C   UNL     1      21.286  14.133  19.937  1.00  0.00     0.266 C 
ATOM      4  C   UNL     1      22.612  13.712  21.945  1.00  0.00     0.265 C 
ATOM      5  C   UNL     1      21.036  11.334  22.655  1.00  0.00     0.069 C 
ATOM      6  C   UNL     1      21.239  11.156  20.025  1.00  0.00     0.117 C 
ATOM      7  C   UNL     1      22.377  11.632  23.336  1.00  0.00     0.015 C 
ATOM      8  C   UNL     1      21.175  11.984  18.680  1.00  0.00     0.036 C 
ATOM      9  C   UNL     1      22.653  10.545  20.153  1.00  0.00     0.049 C 
ATOM     10  C   UNL     1      22.677  13.129  23.369  1.00  0.00     0.041 C 
ATOM     11  C   UNL     1      20.633  11.204  17.429  1.00  0.00     0.007 C 
ATOM     12  C   UNL     1      20.475  13.352  18.889  1.00  0.00     0.054 C 
ATOM     13  C   UNL     1      21.790  13.889  24.371  1.00  0.00     0.013 C 
ATOM     14  C   UNL     1      19.339  11.809  16.876  1.00  0.00     0.004 C 
ATOM     15  C   UNL     1      20.351  14.111  17.545  1.00  0.00     0.002 C 
ATOM     16  C   UNL     1      19.592  13.286  16.469  1.00  0.00    -0.004 C 
ATOM     17  C   UNL     1      19.590  15.439  17.669  1.00  0.00     0.009 C 
ATOM     18  C   UNL     1      18.349  14.121  16.066  1.00  0.00    -0.001 C 
ATOM     19  C   UNL     1      18.788  15.559  16.368  1.00  0.00    -0.001 C 
ATOM     20  C   UNL     1      17.073  13.758  16.846  1.00  0.00     0.036 C 
ATOM     21  C   UNL     1      17.651  16.674  16.288  1.00  0.00    -0.024 C 
ATOM     22  C   UNL     1      15.917  14.777  16.669  1.00  0.00     0.118 C 
ATOM     23  C   UNL     1      16.301  16.035  15.830  1.00  0.00     0.026 C 
ATOM     24  C   UNL     1      17.424  17.413  17.655  1.00  0.00     0.010 C 
ATOM     25  C   UNL     1      18.125  17.708  15.223  1.00  0.00     0.012 C 
ATOM     26  C   UNL     1      15.137  17.069  15.809  1.00  0.00     0.038 C 
ATOM     27  C   UNL     1      16.304  18.467  17.607  1.00  0.00     0.032 C 
ATOM     28  C   UNL     1      14.972  17.889  17.112  1.00  0.00     0.114 C 
ATOM     29  H   UNL     1      20.595  13.992  21.843  1.00  0.00     0.348 HD
ENDROOT
BRANCH   6  30
ATOM     30  O   UNL     1      20.341  10.066  19.981  1.00  0.00    -0.384 OA
ATOM     31  H   UNL     1      19.569  10.315  19.400  1.00  0.00     0.211 HD
ENDBRANCH   6  30
BRANCH  22  32
ATOM     32  O   UNL     1      14.815  14.144  16.065  1.00  0.00    -0.393 OA
ATOM     33  H   UNL     1      14.384  14.824  15.485  1.00  0.00     0.210 HD
ENDBRANCH  22  32
BRANCH  28  34
ATOM     34  O   UNL     1      14.375  17.121  18.125  1.00  0.00    -0.393 OA
ATOM     35  H   UNL     1      13.719  17.711  18.578  1.00  0.00     0.210 HD
ENDBRANCH  28  34
TORSDOF 3
ENDMDL
MODEL 9
REMARK VINA RESULT:    -7.187      7.108      8.847
REMARK INTER + INTRA:          -7.817
REMARK INTER:                  -7.817
REMARK INTRA:                   0.000
REMARK UNBOUND:                 0.000
REMARK SMILES C[C@H]1CC[C@H]2[N@@H+](C1)C[C@H]1[C@@H]3C[C@H]4[C@H](C[C@H](O)[C@H]5C[C@@H](O)CC[C@]54C)[C@@H]3CC[C@@H]1[C@]2(C)O
REMARK SMILES IDX 5 1 6 2 8 3 7 4 4 5 29 6 3 7 28 8 30 9 2 10 27 11 9 12 1 13
REMARK SMILES IDX 26 14 10 15 25 16 11 17 13 18 12 19 14 20 23 21 15 22 17 23
REMARK SMILES IDX 22 24 24 25 18 26 21 27 19 28 31 30 16 32 20 34
REMARK H PARENT 6 29 31 31 16 33 20 35
REMARK Flexibility Score: inf
ROOT
ATOM      1  C   UNL     1      20.499  19.274  28.022  1.00  0.00     0.216 C 
ATOM      2  N   UNL     1      21.231  18.015  28.397  1.00  0.00    -0.330 N 
ATOM      3  C   UNL     1      20.750  16.774  27.725  1.00  0.00     0.266 C 
ATOM      4  C   UNL     1      21.372  17.783  29.860  1.00  0.00     0.265 C 
ATOM      5  C   UNL     1      20.920  20.511  28.861  1.00  0.00     0.069 C 
ATOM      6  C   UNL     1      18.939  19.138  27.774  1.00  0.00     0.117 C 
ATOM      7  C   UNL     1      21.086  20.230  30.359  1.00  0.00     0.015 C 
ATOM      8  C   UNL     1      18.570  17.778  27.057  1.00  0.00     0.036 C 
ATOM      9  C   UNL     1      18.124  19.232  29.085  1.00  0.00     0.049 C 
ATOM     10  C   UNL     1      21.950  18.997  30.613  1.00  0.00     0.041 C 
ATOM     11  C   UNL     1      17.418  17.865  25.992  1.00  0.00     0.007 C 
ATOM     12  C   UNL     1      19.835  17.059  26.522  1.00  0.00     0.054 C 
ATOM     13  C   UNL     1      23.438  19.241  30.306  1.00  0.00     0.013 C 
ATOM     14  C   UNL     1      17.895  17.503  24.582  1.00  0.00     0.004 C 
ATOM     15  C   UNL     1      19.444  15.772  25.753  1.00  0.00     0.002 C 
ATOM     16  C   UNL     1      18.463  16.058  24.583  1.00  0.00    -0.004 C 
ATOM     17  C   UNL     1      20.648  15.055  25.124  1.00  0.00     0.009 C 
ATOM     18  C   UNL     1      19.169  15.586  23.286  1.00  0.00    -0.001 C 
ATOM     19  C   UNL     1      20.128  14.502  23.793  1.00  0.00    -0.001 C 
ATOM     20  C   UNL     1      19.934  16.699  22.550  1.00  0.00     0.036 C 
ATOM     21  C   UNL     1      21.194  13.956  22.739  1.00  0.00    -0.024 C 
ATOM     22  C   UNL     1      20.880  16.181  21.435  1.00  0.00     0.118 C 
ATOM     23  C   UNL     1      20.966  14.627  21.346  1.00  0.00     0.026 C 
ATOM     24  C   UNL     1      22.677  14.209  23.187  1.00  0.00     0.010 C 
ATOM     25  C   UNL     1      20.952  12.421  22.624  1.00  0.00     0.012 C 
ATOM     26  C   UNL     1      22.030  14.185  20.299  1.00  0.00     0.038 C 
ATOM     27  C   UNL     1      23.720  13.723  22.165  1.00  0.00     0.032 C 
ATOM     28  C   UNL     1      23.499  14.320  20.769  1.00  0.00     0.114 C 
ATOM     29  H   UNL     1      22.213  18.150  28.040  1.00  0.00     0.348 HD
ENDROOT
BRANCH   6  30
ATOM     30  O   UNL     1      18.543  20.241  26.985  1.00  0.00    -0.384 OA
ATOM     31  H   UNL     1      17.553  20.337  27.050  1.00  0.00     0.211 HD
ENDBRANCH   6  30
BRANCH  22  32
ATOM     32  O   UNL     1      20.466  16.687  20.189  1.00  0.00    -0.393 OA
ATOM     33  H   UNL     1      19.534  16.374  20.054  1.00  0.00     0.210 HD
ENDBRANCH  22  32
BRANCH  28  34
ATOM     34  O   UNL     1      23.921  15.659  20.747  1.00  0.00    -0.393 OA
ATOM     35  H   UNL     1      23.099  16.215  20.729  1.00  0.00     0.210 HD
ENDBRANCH  28  34
TORSDOF 3
ENDMDL
