MODEL 1
REMARK VINA RESULT:    44.248      0.000      0.000
REMARK INTER + INTRA:          61.575
REMARK INTER:                  61.061
REMARK INTRA:                   0.514
REMARK UNBOUND:                 0.514
REMARK SMILES CC[C@@H](CC[C@H](C)[C@H]1CC[C@@H]2[C@H]3CC=C4C[C@@H](O)CC[C@@]4(C)[C@@H]3CC[C@@]21C)C(C)C
REMARK SMILES IDX 5 1 4 2 3 3 2 4 1 5 28 6 29 7 30 8 6 9 7 10 8 11 9 12 26 13
REMARK SMILES IDX 10 14 11 15 25 16 27 17 12 18 24 19 23 20 13 21 21 22 14 23
REMARK SMILES IDX 15 24 20 25 22 26 16 27 19 28 17 29 18 30
REMARK H PARENT 18 31
REMARK Flexibility Score: inf
ROOT
ATOM      1  C   UNL     1       4.327 -13.534   8.677  1.00  0.00     0.004 C 
ENDROOT
BRANCH   1   2
ATOM      2  C   UNL     1       5.052 -12.580   9.655  1.00  0.00     0.004 C 
BRANCH   2   3
ATOM      3  C   UNL     1       4.178 -12.171  10.876  1.00  0.00    -0.009 C 
BRANCH   3   4
ATOM      4  C   UNL     1       5.076 -11.935  12.125  1.00  0.00     0.000 C 
ATOM      5  C   UNL     1       6.369 -12.752  12.124  1.00  0.00     0.004 C 
ENDBRANCH   3   4
BRANCH   3   6
ATOM      6  C   UNL     1       3.014 -13.186  11.142  1.00  0.00    -0.014 C 
ATOM      7  C   UNL     1       3.500 -14.472  11.835  1.00  0.00     0.007 C 
ATOM      8  C   UNL     1       1.837 -12.579  11.925  1.00  0.00     0.007 C 
ENDBRANCH   3   6
ENDBRANCH   2   3
ENDBRANCH   1   2
BRANCH   1   9
ATOM      9  C   UNL     1       3.501 -12.793   7.585  1.00  0.00    -0.011 C 
ATOM     10  C   UNL     1       2.414 -11.907   8.234  1.00  0.00     0.008 C 
BRANCH   9  11
ATOM     11  C   UNL     1       2.964 -13.826   6.517  1.00  0.00    -0.002 C 
ATOM     12  C   UNL     1       2.793 -15.247   7.084  1.00  0.00     0.005 C 
ATOM     13  C   UNL     1       1.602 -13.529   5.795  1.00  0.00    -0.026 C 
ATOM     14  C   UNL     1       1.292 -15.510   7.204  1.00  0.00     0.005 C 
ATOM     15  C   UNL     1       0.563 -14.257   6.691  1.00  0.00    -0.001 C 
ATOM     16  C   UNL     1       1.649 -14.143   4.335  1.00  0.00     0.007 C 
ATOM     17  C   UNL     1       1.303 -12.010   5.692  1.00  0.00     0.012 C 
ATOM     18  C   UNL     1      -0.827 -14.589   6.045  1.00  0.00     0.000 C 
ATOM     19  C   UNL     1       0.437 -14.996   3.922  1.00  0.00     0.005 C 
ATOM     20  C   UNL     1      -0.861 -14.432   4.509  1.00  0.00     0.003 C 
ATOM     21  C   UNL     1      -1.958 -13.741   6.637  1.00  0.00     0.031 C 
ATOM     22  C   UNL     1      -2.192 -15.010   3.898  1.00  0.00    -0.008 C 
ATOM     23  C   UNL     1      -3.281 -14.044   5.983  1.00  0.00    -0.027 C 
ATOM     24  C   UNL     1      -3.401 -14.535   4.728  1.00  0.00    -0.065 C 
ATOM     25  C   UNL     1      -2.356 -14.476   2.438  1.00  0.00     0.014 C 
ATOM     26  C   UNL     1      -2.176 -16.562   3.875  1.00  0.00     0.016 C 
ATOM     27  C   UNL     1      -4.790 -14.700   4.144  1.00  0.00     0.063 C 
ATOM     28  C   UNL     1      -3.758 -14.706   1.843  1.00  0.00     0.033 C 
ATOM     29  C   UNL     1      -4.855 -14.104   2.735  1.00  0.00     0.118 C 
BRANCH  29  30
ATOM     30  O   UNL     1      -4.698 -12.705   2.806  1.00  0.00    -0.393 OA
ATOM     31  H   UNL     1      -4.754 -12.357   1.877  1.00  0.00     0.210 HD
ENDBRANCH  29  30
ENDBRANCH   9  11
ENDBRANCH   1   9
TORSDOF 7
ENDMDL
MODEL 2
REMARK VINA RESULT:    45.355      0.652      1.460
REMARK INTER + INTRA:          63.103
REMARK INTER:                  62.165
REMARK INTRA:                   0.939
REMARK UNBOUND:                 0.514
REMARK SMILES CC[C@@H](CC[C@H](C)[C@H]1CC[C@@H]2[C@H]3CC=C4C[C@@H](O)CC[C@@]4(C)[C@@H]3CC[C@@]21C)C(C)C
REMARK SMILES IDX 5 1 4 2 3 3 2 4 1 5 28 6 29 7 30 8 6 9 7 10 8 11 9 12 26 13
REMARK SMILES IDX 10 14 11 15 25 16 27 17 12 18 24 19 23 20 13 21 21 22 14 23
REMARK SMILES IDX 15 24 20 25 22 26 16 27 19 28 17 29 18 30
REMARK H PARENT 18 31
REMARK Flexibility Score: inf
ROOT
ATOM      1  C   UNL     1       4.458 -13.283   8.581  1.00  0.00     0.004 C 
ENDROOT
BRANCH   1   2
ATOM      2  C   UNL     1       4.609 -12.546   9.932  1.00  0.00     0.004 C 
BRANCH   2   3
ATOM      3  C   UNL     1       4.181 -13.408  11.154  1.00  0.00    -0.009 C 
BRANCH   3   4
ATOM      4  C   UNL     1       2.961 -12.758  11.870  1.00  0.00     0.000 C 
ATOM      5  C   UNL     1       2.051 -11.953  10.941  1.00  0.00     0.004 C 
ENDBRANCH   3   4
BRANCH   3   6
ATOM      6  C   UNL     1       5.376 -13.701  12.125  1.00  0.00    -0.014 C 
ATOM      7  C   UNL     1       5.862 -15.159  12.038  1.00  0.00     0.007 C 
ATOM      8  C   UNL     1       6.562 -12.738  11.946  1.00  0.00     0.007 C 
ENDBRANCH   3   6
ENDBRANCH   2   3
ENDBRANCH   1   2
BRANCH   1   9
ATOM      9  C   UNL     1       3.457 -12.596   7.607  1.00  0.00    -0.011 C 
ATOM     10  C   UNL     1       2.304 -11.930   8.393  1.00  0.00     0.008 C 
BRANCH   9  11
ATOM     11  C   UNL     1       2.996 -13.616   6.493  1.00  0.00    -0.002 C 
ATOM     12  C   UNL     1       2.912 -15.067   7.001  1.00  0.00     0.005 C 
ATOM     13  C   UNL     1       1.624 -13.378   5.768  1.00  0.00    -0.026 C 
ATOM     14  C   UNL     1       1.429 -15.430   7.094  1.00  0.00     0.005 C 
ATOM     15  C   UNL     1       0.626 -14.206   6.623  1.00  0.00    -0.001 C 
ATOM     16  C   UNL     1       1.723 -13.928   4.286  1.00  0.00     0.007 C 
ATOM     17  C   UNL     1       1.230 -11.877   5.722  1.00  0.00     0.012 C 
ATOM     18  C   UNL     1      -0.735 -14.600   5.948  1.00  0.00     0.000 C 
ATOM     19  C   UNL     1       0.572 -14.839   3.825  1.00  0.00     0.005 C 
ATOM     20  C   UNL     1      -0.764 -14.383   4.419  1.00  0.00     0.003 C 
ATOM     21  C   UNL     1      -1.922 -13.849   6.561  1.00  0.00     0.031 C 
ATOM     22  C   UNL     1      -2.051 -15.019   3.771  1.00  0.00    -0.008 C 
ATOM     23  C   UNL     1      -3.217 -14.209   5.880  1.00  0.00    -0.027 C 
ATOM     24  C   UNL     1      -3.295 -14.656   4.605  1.00  0.00    -0.065 C 
ATOM     25  C   UNL     1      -2.236 -14.437   2.331  1.00  0.00     0.014 C 
ATOM     26  C   UNL     1      -1.935 -16.565   3.686  1.00  0.00     0.016 C 
ATOM     27  C   UNL     1      -4.665 -14.884   4.000  1.00  0.00     0.063 C 
ATOM     28  C   UNL     1      -3.615 -14.732   1.712  1.00  0.00     0.033 C 
ATOM     29  C   UNL     1      -4.756 -14.237   2.615  1.00  0.00     0.118 C 
BRANCH  29  30
ATOM     30  O   UNL     1      -4.690 -12.836   2.743  1.00  0.00    -0.393 OA
ATOM     31  H   UNL     1      -3.728 -12.590   2.777  1.00  0.00     0.210 HD
ENDBRANCH  29  30
ENDBRANCH   9  11
ENDBRANCH   1   9
TORSDOF 7
ENDMDL
