MODEL 1
REMARK VINA RESULT:    -7.110      0.000      0.000
REMARK INTER + INTRA:         -11.159
REMARK INTER:                  -9.812
REMARK INTRA:                  -1.348
REMARK UNBOUND:                -1.348
REMARK SMILES CC[C@H](CC[C@@H](C)[C@@H]1CC[C@@H]2[C@@H]3CC=C4C[C@H](O)CC[C@@]4(C)[C@H]3CC[C@]21C)C(C)C
REMARK SMILES IDX 5 1 4 2 3 3 2 4 1 5 28 6 29 7 30 8 6 9 7 10 8 11 9 12 26 13
REMARK SMILES IDX 10 14 11 15 25 16 27 17 12 18 24 19 23 20 13 21 21 22 14 23
REMARK SMILES IDX 15 24 20 25 22 26 16 27 19 28 17 29 18 30
REMARK H PARENT 18 31
REMARK Flexibility Score: inf
ROOT
ATOM      1  C   UNL     1       0.810  -5.906  -4.323  1.00  0.00     0.004 C 
ENDROOT
BRANCH   1   2
ATOM      2  C   UNL     1       1.292  -7.191  -3.597  1.00  0.00     0.004 C 
BRANCH   2   3
ATOM      3  C   UNL     1       1.035  -7.170  -2.062  1.00  0.00    -0.009 C 
BRANCH   3   4
ATOM      4  C   UNL     1       0.047  -8.283  -1.611  1.00  0.00     0.000 C 
ATOM      5  C   UNL     1      -0.689  -9.030  -2.728  1.00  0.00     0.004 C 
ENDBRANCH   3   4
BRANCH   3   6
ATOM      6  C   UNL     1       2.358  -7.046  -1.237  1.00  0.00    -0.014 C 
ATOM      7  C   UNL     1       2.196  -7.548   0.205  1.00  0.00     0.007 C 
ATOM      8  C   UNL     1       3.606  -7.669  -1.890  1.00  0.00     0.007 C 
ENDBRANCH   3   6
ENDBRANCH   2   3
ENDBRANCH   1   2
BRANCH   1   9
ATOM      9  C   UNL     1      -0.366  -6.106  -5.323  1.00  0.00    -0.011 C 
ATOM     10  C   UNL     1      -0.290  -7.466  -6.039  1.00  0.00     0.008 C 
BRANCH   9  11
ATOM     11  C   UNL     1      -1.761  -5.643  -4.749  1.00  0.00    -0.002 C 
ATOM     12  C   UNL     1      -2.855  -6.710  -4.493  1.00  0.00     0.005 C 
ATOM     13  C   UNL     1      -2.550  -4.464  -5.402  1.00  0.00    -0.026 C 
ATOM     14  C   UNL     1      -4.188  -5.936  -4.362  1.00  0.00     0.005 C 
ATOM     15  C   UNL     1      -3.789  -4.464  -4.482  1.00  0.00    -0.001 C 
ATOM     16  C   UNL     1      -1.839  -3.078  -5.296  1.00  0.00     0.007 C 
ATOM     17  C   UNL     1      -2.936  -4.801  -6.884  1.00  0.00     0.012 C 
ATOM     18  C   UNL     1      -4.860  -3.362  -4.761  1.00  0.00     0.000 C 
ATOM     19  C   UNL     1      -2.806  -1.879  -5.058  1.00  0.00     0.005 C 
ATOM     20  C   UNL     1      -4.259  -2.158  -5.535  1.00  0.00     0.003 C 
ATOM     21  C   UNL     1      -6.150  -3.817  -5.453  1.00  0.00     0.031 C 
ATOM     22  C   UNL     1      -5.234  -0.918  -5.521  1.00  0.00    -0.008 C 
ATOM     23  C   UNL     1      -7.101  -2.659  -5.590  1.00  0.00    -0.027 C 
ATOM     24  C   UNL     1      -6.708  -1.361  -5.626  1.00  0.00    -0.065 C 
ATOM     25  C   UNL     1      -5.091  -0.084  -4.211  1.00  0.00     0.014 C 
ATOM     26  C   UNL     1      -4.892  -0.025  -6.745  1.00  0.00     0.016 C 
ATOM     27  C   UNL     1      -7.764  -0.285  -5.523  1.00  0.00     0.063 C 
ATOM     28  C   UNL     1      -6.163   1.017  -4.056  1.00  0.00     0.033 C 
ATOM     29  C   UNL     1      -7.592   0.464  -4.195  1.00  0.00     0.118 C 
BRANCH  29  30
ATOM     30  O   UNL     1      -8.505   1.531  -4.149  1.00  0.00    -0.393 OA
ATOM     31  H   UNL     1      -8.134   2.270  -4.700  1.00  0.00     0.210 HD
ENDBRANCH  29  30
ENDBRANCH   9  11
ENDBRANCH   1   9
TORSDOF 7
ENDMDL
MODEL 2
REMARK VINA RESULT:    -6.539      3.043      9.498
REMARK INTER + INTRA:         -10.371
REMARK INTER:                  -8.935
REMARK INTRA:                  -1.436
REMARK UNBOUND:                -1.348
REMARK SMILES CC[C@H](CC[C@@H](C)[C@@H]1CC[C@@H]2[C@@H]3CC=C4C[C@H](O)CC[C@@]4(C)[C@H]3CC[C@]21C)C(C)C
REMARK SMILES IDX 5 1 4 2 3 3 2 4 1 5 28 6 29 7 30 8 6 9 7 10 8 11 9 12 26 13
REMARK SMILES IDX 10 14 11 15 25 16 27 17 12 18 24 19 23 20 13 21 21 22 14 23
REMARK SMILES IDX 15 24 20 25 22 26 16 27 19 28 17 29 18 30
REMARK H PARENT 18 31
REMARK Flexibility Score: inf
ROOT
ATOM      1  C   UNL     1      -7.355  -1.372  -4.553  1.00  0.00     0.004 C 
ENDROOT
BRANCH   1   2
ATOM      2  C   UNL     1      -8.283  -0.195  -4.958  1.00  0.00     0.004 C 
BRANCH   2   3
ATOM      3  C   UNL     1      -7.880   1.163  -4.314  1.00  0.00    -0.009 C 
BRANCH   3   4
ATOM      4  C   UNL     1      -6.348   1.272  -4.068  1.00  0.00     0.000 C 
ATOM      5  C   UNL     1      -5.562   2.133  -5.060  1.00  0.00     0.004 C 
ENDBRANCH   3   4
BRANCH   3   6
ATOM      6  C   UNL     1      -8.554   2.384  -5.023  1.00  0.00    -0.014 C 
ATOM      7  C   UNL     1      -9.501   1.953  -6.153  1.00  0.00     0.007 C 
ATOM      8  C   UNL     1      -9.250   3.390  -4.088  1.00  0.00     0.007 C 
ENDBRANCH   3   6
ENDBRANCH   2   3
ENDBRANCH   1   2
BRANCH   1   9
ATOM      9  C   UNL     1      -6.410  -1.893  -5.675  1.00  0.00    -0.011 C 
ATOM     10  C   UNL     1      -6.633  -1.155  -7.006  1.00  0.00     0.008 C 
BRANCH   9  11
ATOM     11  C   UNL     1      -4.927  -2.123  -5.189  1.00  0.00    -0.002 C 
ATOM     12  C   UNL     1      -3.859  -1.049  -5.518  1.00  0.00     0.005 C 
ATOM     13  C   UNL     1      -4.186  -3.469  -5.468  1.00  0.00    -0.026 C 
ATOM     14  C   UNL     1      -2.486  -1.732  -5.312  1.00  0.00     0.005 C 
ATOM     15  C   UNL     1      -2.829  -3.137  -4.814  1.00  0.00    -0.001 C 
ATOM     16  C   UNL     1      -4.809  -4.707  -4.748  1.00  0.00     0.007 C 
ATOM     17  C   UNL     1      -4.035  -3.717  -7.010  1.00  0.00     0.012 C 
ATOM     18  C   UNL     1      -1.759  -4.275  -4.822  1.00  0.00     0.000 C 
ATOM     19  C   UNL     1      -3.762  -5.739  -4.232  1.00  0.00     0.005 C 
ATOM     20  C   UNL     1      -2.408  -5.675  -4.992  1.00  0.00     0.003 C 
ATOM     21  C   UNL     1      -0.605  -4.126  -5.821  1.00  0.00     0.031 C 
ATOM     22  C   UNL     1      -1.384  -6.830  -4.666  1.00  0.00    -0.008 C 
ATOM     23  C   UNL     1       0.370  -5.261  -5.660  1.00  0.00    -0.027 C 
ATOM     24  C   UNL     1       0.037  -6.474  -5.150  1.00  0.00    -0.065 C 
ATOM     25  C   UNL     1      -1.297  -7.111  -3.135  1.00  0.00     0.014 C 
ATOM     26  C   UNL     1      -1.857  -8.113  -5.403  1.00  0.00     0.016 C 
ATOM     27  C   UNL     1       1.147  -7.444  -4.816  1.00  0.00     0.063 C 
ATOM     28  C   UNL     1      -0.162  -8.084  -2.746  1.00  0.00     0.033 C 
ATOM     29  C   UNL     1       1.203  -7.639  -3.295  1.00  0.00     0.118 C 
BRANCH  29  30
ATOM     30  O   UNL     1       2.163  -8.621  -2.995  1.00  0.00    -0.393 OA
ATOM     31  H   UNL     1       2.555  -8.399  -2.110  1.00  0.00     0.210 HD
ENDBRANCH  29  30
ENDBRANCH   9  11
ENDBRANCH   1   9
TORSDOF 7
ENDMDL
MODEL 3
REMARK VINA RESULT:    -6.070      1.719      3.801
REMARK INTER + INTRA:          -9.724
REMARK INTER:                  -8.567
REMARK INTRA:                  -1.157
REMARK UNBOUND:                -1.348
REMARK SMILES CC[C@H](CC[C@@H](C)[C@@H]1CC[C@@H]2[C@@H]3CC=C4C[C@H](O)CC[C@@]4(C)[C@H]3CC[C@]21C)C(C)C
REMARK SMILES IDX 5 1 4 2 3 3 2 4 1 5 28 6 29 7 30 8 6 9 7 10 8 11 9 12 26 13
REMARK SMILES IDX 10 14 11 15 25 16 27 17 12 18 24 19 23 20 13 21 21 22 14 23
REMARK SMILES IDX 15 24 20 25 22 26 16 27 19 28 17 29 18 30
REMARK H PARENT 18 31
REMARK Flexibility Score: inf
ROOT
ATOM      1  C   UNL     1      -3.229  -6.310  -4.368  1.00  0.00     0.004 C 
ENDROOT
BRANCH   1   2
ATOM      2  C   UNL     1      -1.874  -7.065  -4.291  1.00  0.00     0.004 C 
BRANCH   2   3
ATOM      3  C   UNL     1      -0.636  -6.122  -4.303  1.00  0.00    -0.009 C 
BRANCH   3   4
ATOM      4  C   UNL     1       0.036  -6.008  -2.905  1.00  0.00     0.000 C 
ATOM      5  C   UNL     1      -0.366  -7.064  -1.871  1.00  0.00     0.004 C 
ENDBRANCH   3   4
BRANCH   3   6
ATOM      6  C   UNL     1       0.320  -6.406  -5.508  1.00  0.00    -0.014 C 
ATOM      7  C   UNL     1      -0.374  -7.188  -6.632  1.00  0.00     0.007 C 
ATOM      8  C   UNL     1       1.051  -5.175  -6.076  1.00  0.00     0.007 C 
ENDBRANCH   3   6
ENDBRANCH   2   3
ENDBRANCH   1   2
BRANCH   1   9
ATOM      9  C   UNL     1      -3.858  -6.211  -5.789  1.00  0.00    -0.011 C 
ATOM     10  C   UNL     1      -5.153  -7.034  -5.906  1.00  0.00     0.008 C 
BRANCH   9  11
ATOM     11  C   UNL     1      -3.848  -4.748  -6.377  1.00  0.00    -0.002 C 
ATOM     12  C   UNL     1      -2.495  -4.124  -6.804  1.00  0.00     0.005 C 
ATOM     13  C   UNL     1      -4.571  -3.577  -5.640  1.00  0.00    -0.026 C 
ATOM     14  C   UNL     1      -2.741  -2.601  -6.917  1.00  0.00     0.005 C 
ATOM     15  C   UNL     1      -4.231  -2.431  -6.616  1.00  0.00    -0.001 C 
ATOM     16  C   UNL     1      -6.123  -3.730  -5.557  1.00  0.00     0.007 C 
ATOM     17  C   UNL     1      -3.941  -3.331  -4.225  1.00  0.00     0.012 C 
ATOM     18  C   UNL     1      -4.826  -1.028  -6.273  1.00  0.00     0.000 C 
ATOM     19  C   UNL     1      -6.907  -2.392  -5.711  1.00  0.00     0.005 C 
ATOM     20  C   UNL     1      -6.064  -1.139  -5.342  1.00  0.00     0.003 C 
ATOM     21  C   UNL     1      -3.854   0.009  -5.701  1.00  0.00     0.031 C 
ATOM     22  C   UNL     1      -6.857   0.222  -5.269  1.00  0.00    -0.008 C 
ATOM     23  C   UNL     1      -4.560   1.320  -5.486  1.00  0.00    -0.027 C 
ATOM     24  C   UNL     1      -5.898   1.431  -5.288  1.00  0.00    -0.065 C 
ATOM     25  C   UNL     1      -7.837   0.386  -6.471  1.00  0.00     0.014 C 
ATOM     26  C   UNL     1      -7.658   0.240  -3.938  1.00  0.00     0.016 C 
ATOM     27  C   UNL     1      -6.521   2.808  -5.326  1.00  0.00     0.063 C 
ATOM     28  C   UNL     1      -8.482   1.787  -6.559  1.00  0.00     0.033 C 
ATOM     29  C   UNL     1      -7.436   2.913  -6.553  1.00  0.00     0.118 C 
BRANCH  29  30
ATOM     30  O   UNL     1      -8.094   4.155  -6.528  1.00  0.00    -0.393 OA
ATOM     31  H   UNL     1      -8.839   4.087  -5.874  1.00  0.00     0.210 HD
ENDBRANCH  29  30
ENDBRANCH   9  11
ENDBRANCH   1   9
TORSDOF 7
ENDMDL
MODEL 4
REMARK VINA RESULT:    -6.044      3.321      9.909
REMARK INTER + INTRA:          -9.688
REMARK INTER:                  -8.913
REMARK INTRA:                  -0.775
REMARK UNBOUND:                -1.348
REMARK SMILES CC[C@H](CC[C@@H](C)[C@@H]1CC[C@@H]2[C@@H]3CC=C4C[C@H](O)CC[C@@]4(C)[C@H]3CC[C@]21C)C(C)C
REMARK SMILES IDX 5 1 4 2 3 3 2 4 1 5 28 6 29 7 30 8 6 9 7 10 8 11 9 12 26 13
REMARK SMILES IDX 10 14 11 15 25 16 27 17 12 18 24 19 23 20 13 21 21 22 14 23
REMARK SMILES IDX 15 24 20 25 22 26 16 27 19 28 17 29 18 30
REMARK H PARENT 18 31
REMARK Flexibility Score: inf
ROOT
ATOM      1  C   UNL     1      -6.525   1.752  -4.972  1.00  0.00     0.004 C 
ENDROOT
BRANCH   1   2
ATOM      2  C   UNL     1      -7.013   2.693  -6.107  1.00  0.00     0.004 C 
BRANCH   2   3
ATOM      3  C   UNL     1      -8.392   3.353  -5.817  1.00  0.00    -0.009 C 
BRANCH   3   4
ATOM      4  C   UNL     1      -9.194   2.594  -4.720  1.00  0.00     0.000 C 
ATOM      5  C   UNL     1     -10.715   2.555  -4.898  1.00  0.00     0.004 C 
ENDBRANCH   3   4
BRANCH   3   6
ATOM      6  C   UNL     1      -8.289   4.904  -5.647  1.00  0.00    -0.014 C 
ATOM      7  C   UNL     1      -7.745   5.306  -4.268  1.00  0.00     0.007 C 
ATOM      8  C   UNL     1      -7.528   5.642  -6.765  1.00  0.00     0.007 C 
ENDBRANCH   3   6
ENDBRANCH   2   3
ENDBRANCH   1   2
BRANCH   1   9
ATOM      9  C   UNL     1      -6.395   0.250  -5.361  1.00  0.00    -0.011 C 
ATOM     10  C   UNL     1      -7.431  -0.163  -6.421  1.00  0.00     0.008 C 
BRANCH   9  11
ATOM     11  C   UNL     1      -4.902  -0.220  -5.554  1.00  0.00    -0.002 C 
ATOM     12  C   UNL     1      -4.099   0.324  -6.764  1.00  0.00     0.005 C 
ATOM     13  C   UNL     1      -4.521  -1.733  -5.516  1.00  0.00    -0.026 C 
ATOM     14  C   UNL     1      -2.880  -0.615  -6.926  1.00  0.00     0.005 C 
ATOM     15  C   UNL     1      -3.004  -1.607  -5.768  1.00  0.00    -0.001 C 
ATOM     16  C   UNL     1      -4.751  -2.420  -4.133  1.00  0.00     0.007 C 
ATOM     17  C   UNL     1      -5.231  -2.519  -6.673  1.00  0.00     0.012 C 
ATOM     18  C   UNL     1      -2.186  -2.937  -5.760  1.00  0.00     0.000 C 
ATOM     19  C   UNL     1      -3.667  -3.472  -3.753  1.00  0.00     0.005 C 
ATOM     20  C   UNL     1      -2.924  -4.062  -4.984  1.00  0.00     0.003 C 
ATOM     21  C   UNL     1      -1.734  -3.474  -7.122  1.00  0.00     0.031 C 
ATOM     22  C   UNL     1      -1.969  -5.282  -4.688  1.00  0.00    -0.008 C 
ATOM     23  C   UNL     1      -0.906  -4.718  -6.941  1.00  0.00    -0.027 C 
ATOM     24  C   UNL     1      -1.003  -5.536  -5.863  1.00  0.00    -0.065 C 
ATOM     25  C   UNL     1      -1.101  -5.042  -3.415  1.00  0.00     0.014 C 
ATOM     26  C   UNL     1      -2.852  -6.544  -4.484  1.00  0.00     0.016 C 
ATOM     27  C   UNL     1       0.043  -6.613  -5.680  1.00  0.00     0.063 C 
ATOM     28  C   UNL     1      -0.006  -6.110  -3.200  1.00  0.00     0.033 C 
ATOM     29  C   UNL     1       0.886  -6.291  -4.439  1.00  0.00     0.118 C 
BRANCH  29  30
ATOM     30  O   UNL     1       1.785  -7.346  -4.211  1.00  0.00    -0.393 OA
ATOM     31  H   UNL     1       1.253  -8.147  -3.963  1.00  0.00     0.210 HD
ENDBRANCH  29  30
ENDBRANCH   9  11
ENDBRANCH   1   9
TORSDOF 7
ENDMDL
MODEL 5
REMARK VINA RESULT:    -5.976      1.424      2.355
REMARK INTER + INTRA:          -9.595
REMARK INTER:                  -8.653
REMARK INTRA:                  -0.942
REMARK UNBOUND:                -1.348
REMARK SMILES CC[C@H](CC[C@@H](C)[C@@H]1CC[C@@H]2[C@@H]3CC=C4C[C@H](O)CC[C@@]4(C)[C@H]3CC[C@]21C)C(C)C
REMARK SMILES IDX 5 1 4 2 3 3 2 4 1 5 28 6 29 7 30 8 6 9 7 10 8 11 9 12 26 13
REMARK SMILES IDX 10 14 11 15 25 16 27 17 12 18 24 19 23 20 13 21 21 22 14 23
REMARK SMILES IDX 15 24 20 25 22 26 16 27 19 28 17 29 18 30
REMARK H PARENT 18 31
REMARK Flexibility Score: inf
ROOT
ATOM      1  C   UNL     1      -1.465  -6.554  -5.561  1.00  0.00     0.004 C 
ENDROOT
BRANCH   1   2
ATOM      2  C   UNL     1      -0.769  -7.496  -4.541  1.00  0.00     0.004 C 
BRANCH   2   3
ATOM      3  C   UNL     1       0.760  -7.652  -4.784  1.00  0.00    -0.009 C 
BRANCH   3   4
ATOM      4  C   UNL     1       1.157  -7.380  -6.263  1.00  0.00     0.000 C 
ATOM      5  C   UNL     1       2.345  -6.439  -6.483  1.00  0.00     0.004 C 
ENDBRANCH   3   4
BRANCH   3   6
ATOM      6  C   UNL     1       1.615  -6.925  -3.694  1.00  0.00    -0.014 C 
ATOM      7  C   UNL     1       0.746  -6.272  -2.610  1.00  0.00     0.007 C 
ATOM      8  C   UNL     1       2.732  -7.773  -3.056  1.00  0.00     0.007 C 
ENDBRANCH   3   6
ENDBRANCH   2   3
ENDBRANCH   1   2
BRANCH   1   9
ATOM      9  C   UNL     1      -1.598  -5.069  -5.113  1.00  0.00    -0.011 C 
ATOM     10  C   UNL     1      -0.704  -4.132  -5.945  1.00  0.00     0.008 C 
BRANCH   9  11
ATOM     11  C   UNL     1      -3.087  -4.628  -4.837  1.00  0.00    -0.002 C 
ATOM     12  C   UNL     1      -4.225  -5.653  -5.078  1.00  0.00     0.005 C 
ATOM     13  C   UNL     1      -3.660  -3.303  -5.431  1.00  0.00    -0.026 C 
ATOM     14  C   UNL     1      -5.534  -4.832  -5.147  1.00  0.00     0.005 C 
ATOM     15  C   UNL     1      -5.097  -3.391  -4.877  1.00  0.00    -0.001 C 
ATOM     16  C   UNL     1      -2.982  -2.007  -4.884  1.00  0.00     0.007 C 
ATOM     17  C   UNL     1      -3.647  -3.341  -6.999  1.00  0.00     0.012 C 
ATOM     18  C   UNL     1      -6.041  -2.191  -5.203  1.00  0.00     0.000 C 
ATOM     19  C   UNL     1      -3.961  -0.813  -4.676  1.00  0.00     0.005 C 
ATOM     20  C   UNL     1      -5.241  -0.907  -5.553  1.00  0.00     0.003 C 
ATOM     21  C   UNL     1      -7.110  -2.430  -6.276  1.00  0.00     0.031 C 
ATOM     22  C   UNL     1      -6.168   0.370  -5.551  1.00  0.00    -0.008 C 
ATOM     23  C   UNL     1      -7.976  -1.208  -6.427  1.00  0.00    -0.027 C 
ATOM     24  C   UNL     1      -7.568   0.047  -6.112  1.00  0.00    -0.065 C 
ATOM     25  C   UNL     1      -6.362   0.942  -4.114  1.00  0.00     0.014 C 
ATOM     26  C   UNL     1      -5.503   1.446  -6.453  1.00  0.00     0.016 C 
ATOM     27  C   UNL     1      -8.599   1.152  -6.078  1.00  0.00     0.063 C 
ATOM     28  C   UNL     1      -7.422   2.062  -4.030  1.00  0.00     0.033 C 
ATOM     29  C   UNL     1      -8.771   1.636  -4.632  1.00  0.00     0.118 C 
BRANCH  29  30
ATOM     30  O   UNL     1      -9.649   2.733  -4.619  1.00  0.00    -0.393 OA
ATOM     31  H   UNL     1     -10.079   2.787  -5.512  1.00  0.00     0.210 HD
ENDBRANCH  29  30
ENDBRANCH   9  11
ENDBRANCH   1   9
TORSDOF 7
ENDMDL
MODEL 6
REMARK VINA RESULT:    -5.881      1.599      3.658
REMARK INTER + INTRA:          -9.464
REMARK INTER:                  -8.545
REMARK INTRA:                  -0.919
REMARK UNBOUND:                -1.348
REMARK SMILES CC[C@H](CC[C@@H](C)[C@@H]1CC[C@@H]2[C@@H]3CC=C4C[C@H](O)CC[C@@]4(C)[C@H]3CC[C@]21C)C(C)C
REMARK SMILES IDX 5 1 4 2 3 3 2 4 1 5 28 6 29 7 30 8 6 9 7 10 8 11 9 12 26 13
REMARK SMILES IDX 10 14 11 15 25 16 27 17 12 18 24 19 23 20 13 21 21 22 14 23
REMARK SMILES IDX 15 24 20 25 22 26 16 27 19 28 17 29 18 30
REMARK H PARENT 18 31
REMARK Flexibility Score: inf
ROOT
ATOM      1  C   UNL     1      -1.830  -6.466  -6.447  1.00  0.00     0.004 C 
ENDROOT
BRANCH   1   2
ATOM      2  C   UNL     1      -1.105  -7.116  -5.237  1.00  0.00     0.004 C 
BRANCH   2   3
ATOM      3  C   UNL     1       0.321  -6.547  -4.987  1.00  0.00    -0.009 C 
BRANCH   3   4
ATOM      4  C   UNL     1       0.766  -5.552  -6.099  1.00  0.00     0.000 C 
ATOM      5  C   UNL     1       2.038  -5.920  -6.867  1.00  0.00     0.004 C 
ENDBRANCH   3   4
BRANCH   3   6
ATOM      6  C   UNL     1       0.524  -6.068  -3.512  1.00  0.00    -0.014 C 
ATOM      7  C   UNL     1      -0.789  -5.613  -2.860  1.00  0.00     0.007 C 
ATOM      8  C   UNL     1       1.271  -7.055  -2.594  1.00  0.00     0.007 C 
ENDBRANCH   3   6
ENDBRANCH   2   3
ENDBRANCH   1   2
BRANCH   1   9
ATOM      9  C   UNL     1      -3.236  -5.873  -6.141  1.00  0.00    -0.011 C 
ATOM     10  C   UNL     1      -3.712  -6.219  -4.719  1.00  0.00     0.008 C 
BRANCH   9  11
ATOM     11  C   UNL     1      -3.413  -4.388  -6.646  1.00  0.00    -0.002 C 
ATOM     12  C   UNL     1      -2.154  -3.588  -7.067  1.00  0.00     0.005 C 
ATOM     13  C   UNL     1      -4.245  -3.351  -5.828  1.00  0.00    -0.026 C 
ATOM     14  C   UNL     1      -2.578  -2.101  -7.088  1.00  0.00     0.005 C 
ATOM     15  C   UNL     1      -4.069  -2.123  -6.745  1.00  0.00    -0.001 C 
ATOM     16  C   UNL     1      -5.766  -3.690  -5.718  1.00  0.00     0.007 C 
ATOM     17  C   UNL     1      -3.607  -3.110  -4.416  1.00  0.00     0.012 C 
ATOM     18  C   UNL     1      -4.812  -0.821  -6.309  1.00  0.00     0.000 C 
ATOM     19  C   UNL     1      -6.704  -2.447  -5.779  1.00  0.00     0.005 C 
ATOM     20  C   UNL     1      -6.001  -1.126  -5.359  1.00  0.00     0.003 C 
ATOM     21  C   UNL     1      -3.950   0.292  -5.702  1.00  0.00     0.031 C 
ATOM     22  C   UNL     1      -6.944   0.128  -5.191  1.00  0.00    -0.008 C 
ATOM     23  C   UNL     1      -4.798   1.498  -5.398  1.00  0.00    -0.027 C 
ATOM     24  C   UNL     1      -6.133   1.440  -5.164  1.00  0.00    -0.065 C 
ATOM     25  C   UNL     1      -7.971   0.240  -6.359  1.00  0.00     0.014 C 
ATOM     26  C   UNL     1      -7.703  -0.019  -3.844  1.00  0.00     0.016 C 
ATOM     27  C   UNL     1      -6.912   2.735  -5.110  1.00  0.00     0.063 C 
ATOM     28  C   UNL     1      -8.777   1.558  -6.353  1.00  0.00     0.033 C 
ATOM     29  C   UNL     1      -7.868   2.797  -6.308  1.00  0.00     0.118 C 
BRANCH  29  30
ATOM     30  O   UNL     1      -8.665   3.949  -6.198  1.00  0.00    -0.393 OA
ATOM     31  H   UNL     1      -8.073   4.701  -5.932  1.00  0.00     0.210 HD
ENDBRANCH  29  30
ENDBRANCH   9  11
ENDBRANCH   1   9
TORSDOF 7
ENDMDL
MODEL 7
REMARK VINA RESULT:    -5.849      3.443      9.765
REMARK INTER + INTRA:          -9.419
REMARK INTER:                  -8.101
REMARK INTRA:                  -1.318
REMARK UNBOUND:                -1.348
REMARK SMILES CC[C@H](CC[C@@H](C)[C@@H]1CC[C@@H]2[C@@H]3CC=C4C[C@H](O)CC[C@@]4(C)[C@H]3CC[C@]21C)C(C)C
REMARK SMILES IDX 5 1 4 2 3 3 2 4 1 5 28 6 29 7 30 8 6 9 7 10 8 11 9 12 26 13
REMARK SMILES IDX 10 14 11 15 25 16 27 17 12 18 24 19 23 20 13 21 21 22 14 23
REMARK SMILES IDX 15 24 20 25 22 26 16 27 19 28 17 29 18 30
REMARK H PARENT 18 31
REMARK Flexibility Score: inf
ROOT
ATOM      1  C   UNL     1      -5.881   2.420  -6.293  1.00  0.00     0.004 C 
ENDROOT
BRANCH   1   2
ATOM      2  C   UNL     1      -7.201   2.467  -7.110  1.00  0.00     0.004 C 
BRANCH   2   3
ATOM      3  C   UNL     1      -8.155   3.620  -6.684  1.00  0.00    -0.009 C 
BRANCH   3   4
ATOM      4  C   UNL     1      -9.434   3.098  -5.968  1.00  0.00     0.000 C 
ATOM      5  C   UNL     1      -9.790   1.627  -6.204  1.00  0.00     0.004 C 
ENDBRANCH   3   4
BRANCH   3   6
ATOM      6  C   UNL     1      -7.398   4.792  -5.978  1.00  0.00    -0.014 C 
ATOM      7  C   UNL     1      -7.434   6.089  -6.799  1.00  0.00     0.007 C 
ATOM      8  C   UNL     1      -7.813   5.063  -4.519  1.00  0.00     0.007 C 
ENDBRANCH   3   6
ENDBRANCH   2   3
ENDBRANCH   1   2
BRANCH   1   9
ATOM      9  C   UNL     1      -5.792   1.281  -5.236  1.00  0.00    -0.011 C 
ATOM     10  C   UNL     1      -6.755   1.509  -4.058  1.00  0.00     0.008 C 
BRANCH   9  11
ATOM     11  C   UNL     1      -5.722  -0.161  -5.873  1.00  0.00    -0.002 C 
ATOM     12  C   UNL     1      -7.042  -0.860  -6.284  1.00  0.00     0.005 C 
ATOM     13  C   UNL     1      -4.901  -1.303  -5.196  1.00  0.00    -0.026 C 
ATOM     14  C   UNL     1      -6.699  -2.359  -6.455  1.00  0.00     0.005 C 
ATOM     15  C   UNL     1      -5.192  -2.438  -6.201  1.00  0.00    -0.001 C 
ATOM     16  C   UNL     1      -3.361  -1.048  -5.150  1.00  0.00     0.007 C 
ATOM     17  C   UNL     1      -5.471  -1.636  -3.774  1.00  0.00     0.012 C 
ATOM     18  C   UNL     1      -4.495  -3.807  -5.921  1.00  0.00     0.000 C 
ATOM     19  C   UNL     1      -2.494  -2.324  -5.370  1.00  0.00     0.005 C 
ATOM     20  C   UNL     1      -3.241  -3.642  -5.021  1.00  0.00     0.003 C 
ATOM     21  C   UNL     1      -5.379  -4.926  -5.359  1.00  0.00     0.031 C 
ATOM     22  C   UNL     1      -2.357  -4.949  -5.016  1.00  0.00    -0.008 C 
ATOM     23  C   UNL     1      -4.581  -6.192  -5.208  1.00  0.00    -0.027 C 
ATOM     24  C   UNL     1      -3.233  -6.218  -5.050  1.00  0.00    -0.065 C 
ATOM     25  C   UNL     1      -1.404  -5.008  -6.249  1.00  0.00     0.014 C 
ATOM     26  C   UNL     1      -1.518  -4.955  -3.709  1.00  0.00     0.016 C 
ATOM     27  C   UNL     1      -2.522  -7.548  -5.152  1.00  0.00     0.063 C 
ATOM     28  C   UNL     1      -0.670  -6.358  -6.402  1.00  0.00     0.033 C 
ATOM     29  C   UNL     1      -1.638  -7.552  -6.406  1.00  0.00     0.118 C 
BRANCH  29  30
ATOM     30  O   UNL     1      -0.898  -8.746  -6.441  1.00  0.00    -0.393 OA
ATOM     31  H   UNL     1      -0.550  -8.911  -5.525  1.00  0.00     0.210 HD
ENDBRANCH  29  30
ENDBRANCH   9  11
ENDBRANCH   1   9
TORSDOF 7
ENDMDL
MODEL 8
REMARK VINA RESULT:    -5.423      1.983      4.724
REMARK INTER + INTRA:          -8.831
REMARK INTER:                  -7.906
REMARK INTRA:                  -0.925
REMARK UNBOUND:                -1.348
REMARK SMILES CC[C@H](CC[C@@H](C)[C@@H]1CC[C@@H]2[C@@H]3CC=C4C[C@H](O)CC[C@@]4(C)[C@H]3CC[C@]21C)C(C)C
REMARK SMILES IDX 5 1 4 2 3 3 2 4 1 5 28 6 29 7 30 8 6 9 7 10 8 11 9 12 26 13
REMARK SMILES IDX 10 14 11 15 25 16 27 17 12 18 24 19 23 20 13 21 21 22 14 23
REMARK SMILES IDX 15 24 20 25 22 26 16 27 19 28 17 29 18 30
REMARK H PARENT 18 31
REMARK Flexibility Score: inf
ROOT
ATOM      1  C   UNL     1      -2.567  -4.140  -4.859  1.00  0.00     0.004 C 
ENDROOT
BRANCH   1   2
ATOM      2  C   UNL     1      -1.158  -4.725  -5.150  1.00  0.00     0.004 C 
BRANCH   2   3
ATOM      3  C   UNL     1      -0.942  -6.148  -4.560  1.00  0.00    -0.009 C 
BRANCH   3   4
ATOM      4  C   UNL     1      -1.559  -6.301  -3.140  1.00  0.00     0.000 C 
ATOM      5  C   UNL     1      -0.750  -7.128  -2.136  1.00  0.00     0.004 C 
ENDBRANCH   3   4
BRANCH   3   6
ATOM      6  C   UNL     1      -1.283  -7.279  -5.586  1.00  0.00    -0.014 C 
ATOM      7  C   UNL     1      -0.141  -8.294  -5.736  1.00  0.00     0.007 C 
ATOM      8  C   UNL     1      -2.623  -8.001  -5.353  1.00  0.00     0.007 C 
ENDBRANCH   3   6
ENDBRANCH   2   3
ENDBRANCH   1   2
BRANCH   1   9
ATOM      9  C   UNL     1      -3.471  -3.925  -6.109  1.00  0.00    -0.011 C 
ATOM     10  C   UNL     1      -4.572  -4.994  -6.216  1.00  0.00     0.008 C 
BRANCH   9  11
ATOM     11  C   UNL     1      -3.870  -2.417  -6.341  1.00  0.00    -0.002 C 
ATOM     12  C   UNL     1      -2.810  -1.316  -6.086  1.00  0.00     0.005 C 
ATOM     13  C   UNL     1      -5.170  -1.821  -5.713  1.00  0.00    -0.026 C 
ATOM     14  C   UNL     1      -3.590   0.014  -5.973  1.00  0.00     0.005 C 
ATOM     15  C   UNL     1      -5.047  -0.373  -6.233  1.00  0.00    -0.001 C 
ATOM     16  C   UNL     1      -6.493  -2.447  -6.259  1.00  0.00     0.007 C 
ATOM     17  C   UNL     1      -5.112  -1.875  -4.147  1.00  0.00     0.012 C 
ATOM     18  C   UNL     1      -6.214   0.597  -5.866  1.00  0.00     0.000 C 
ATOM     19  C   UNL     1      -7.661  -1.429  -6.425  1.00  0.00     0.005 C 
ATOM     20  C   UNL     1      -7.517  -0.174  -5.518  1.00  0.00     0.003 C 
ATOM     21  C   UNL     1      -5.930   1.630  -4.770  1.00  0.00     0.031 C 
ATOM     22  C   UNL     1      -8.765   0.789  -5.478  1.00  0.00    -0.008 C 
ATOM     23  C   UNL     1      -7.123   2.527  -4.580  1.00  0.00    -0.027 C 
ATOM     24  C   UNL     1      -8.394   2.164  -4.887  1.00  0.00    -0.065 C 
ATOM     25  C   UNL     1      -9.351   1.037  -6.902  1.00  0.00     0.014 C 
ATOM     26  C   UNL     1      -9.848   0.133  -4.578  1.00  0.00     0.016 C 
ATOM     27  C   UNL     1      -9.469   3.228  -4.879  1.00  0.00     0.063 C 
ATOM     28  C   UNL     1     -10.441   2.130  -6.944  1.00  0.00     0.033 C 
ATOM     29  C   UNL     1      -9.967   3.451  -6.314  1.00  0.00     0.118 C 
BRANCH  29  30
ATOM     30  O   UNL     1     -11.037   4.361  -6.290  1.00  0.00    -0.393 OA
ATOM     31  H   UNL     1     -11.642   4.096  -5.548  1.00  0.00     0.210 HD
ENDBRANCH  29  30
ENDBRANCH   9  11
ENDBRANCH   1   9
TORSDOF 7
ENDMDL
MODEL 9
REMARK VINA RESULT:    -5.401      3.377      9.452
REMARK INTER + INTRA:          -8.801
REMARK INTER:                  -7.514
REMARK INTRA:                  -1.287
REMARK UNBOUND:                -1.348
REMARK SMILES CC[C@H](CC[C@@H](C)[C@@H]1CC[C@@H]2[C@@H]3CC=C4C[C@H](O)CC[C@@]4(C)[C@H]3CC[C@]21C)C(C)C
REMARK SMILES IDX 5 1 4 2 3 3 2 4 1 5 28 6 29 7 30 8 6 9 7 10 8 11 9 12 26 13
REMARK SMILES IDX 10 14 11 15 25 16 27 17 12 18 24 19 23 20 13 21 21 22 14 23
REMARK SMILES IDX 15 24 20 25 22 26 16 27 19 28 17 29 18 30
REMARK H PARENT 18 31
REMARK Flexibility Score: inf
ROOT
ATOM      1  C   UNL     1      -5.116  -1.771  -4.291  1.00  0.00     0.004 C 
ENDROOT
BRANCH   1   2
ATOM      2  C   UNL     1      -6.105  -0.756  -4.926  1.00  0.00     0.004 C 
BRANCH   2   3
ATOM      3  C   UNL     1      -5.406   0.488  -5.546  1.00  0.00    -0.009 C 
BRANCH   3   4
ATOM      4  C   UNL     1      -4.491   0.117  -6.748  1.00  0.00     0.000 C 
ATOM      5  C   UNL     1      -3.103   0.762  -6.769  1.00  0.00     0.004 C 
ENDBRANCH   3   4
BRANCH   3   6
ATOM      6  C   UNL     1      -6.395   1.679  -5.772  1.00  0.00    -0.014 C 
ATOM      7  C   UNL     1      -7.364   1.420  -6.934  1.00  0.00     0.007 C 
ATOM      8  C   UNL     1      -7.162   2.148  -4.521  1.00  0.00     0.007 C 
ENDBRANCH   3   6
ENDBRANCH   2   3
ENDBRANCH   1   2
BRANCH   1   9
ATOM      9  C   UNL     1      -4.933  -3.103  -5.075  1.00  0.00    -0.011 C 
ATOM     10  C   UNL     1      -6.010  -3.289  -6.157  1.00  0.00     0.008 C 
BRANCH   9  11
ATOM     11  C   UNL     1      -3.432  -3.403  -5.458  1.00  0.00    -0.002 C 
ATOM     12  C   UNL     1      -2.960  -3.119  -6.907  1.00  0.00     0.005 C 
ATOM     13  C   UNL     1      -2.774  -4.779  -5.125  1.00  0.00    -0.026 C 
ATOM     14  C   UNL     1      -1.632  -3.892  -7.085  1.00  0.00     0.005 C 
ATOM     15  C   UNL     1      -1.372  -4.526  -5.717  1.00  0.00    -0.001 C 
ATOM     16  C   UNL     1      -2.635  -5.073  -3.597  1.00  0.00     0.007 C 
ATOM     17  C   UNL     1      -3.509  -5.947  -5.870  1.00  0.00     0.012 C 
ATOM     18  C   UNL     1      -0.330  -5.677  -5.551  1.00  0.00     0.000 C 
ATOM     19  C   UNL     1      -1.325  -5.820  -3.207  1.00  0.00     0.005 C 
ATOM     20  C   UNL     1      -0.703  -6.627  -4.381  1.00  0.00     0.003 C 
ATOM     21  C   UNL     1      -0.021  -6.510  -6.800  1.00  0.00     0.031 C 
ATOM     22  C   UNL     1       0.500  -7.574  -3.999  1.00  0.00    -0.008 C 
ATOM     23  C   UNL     1       1.043  -7.529  -6.495  1.00  0.00    -0.027 C 
ATOM     24  C   UNL     1       1.284  -8.016  -5.252  1.00  0.00    -0.065 C 
ATOM     25  C   UNL     1       1.509  -6.871  -3.042  1.00  0.00     0.014 C 
ATOM     26  C   UNL     1      -0.084  -8.834  -3.304  1.00  0.00     0.016 C 
ATOM     27  C   UNL     1       2.528  -8.847  -5.033  1.00  0.00     0.063 C 
ATOM     28  C   UNL     1       2.805  -7.677  -2.804  1.00  0.00     0.033 C 
ATOM     29  C   UNL     1       3.493  -8.078  -4.120  1.00  0.00     0.118 C 
BRANCH  29  30
ATOM     30  O   UNL     1       4.599  -8.895  -3.832  1.00  0.00    -0.393 OA
ATOM     31  H   UNL     1       5.380  -8.529  -4.323  1.00  0.00     0.210 HD
ENDBRANCH  29  30
ENDBRANCH   9  11
ENDBRANCH   1   9
TORSDOF 7
ENDMDL
