MODEL 1
REMARK VINA RESULT:    -5.254      0.000      0.000
REMARK INTER + INTRA:          -7.935
REMARK INTER:                  -7.250
REMARK INTRA:                  -0.684
REMARK UNBOUND:                -0.684
REMARK SMILES CC[C@H](CC[C@H](C)[C@H]1CC[C@H]2[C@H]3CC=C4C[C@H](O)CC[C@]4(C)[C@H]3CC[C@]12C)C(C)C
REMARK SMILES IDX 5 1 4 2 3 3 2 4 1 5 28 6 29 7 30 8 6 9 7 10 8 11 9 12 26 13
REMARK SMILES IDX 10 14 11 15 25 16 27 17 12 18 24 19 23 20 13 21 21 22 14 23
REMARK SMILES IDX 15 24 20 25 22 26 16 27 19 28 17 29 18 30
REMARK H PARENT 18 31
REMARK Flexibility Score: inf
ROOT
ATOM      1  C   UNL     1      -2.244   9.173   8.265  1.00  0.00     0.004 C 
ENDROOT
BRANCH   1   2
ATOM      2  C   UNL     1      -3.110  10.401   8.618  1.00  0.00     0.004 C 
BRANCH   2   3
ATOM      3  C   UNL     1      -3.121  10.678  10.160  1.00  0.00    -0.009 C 
BRANCH   3   4
ATOM      4  C   UNL     1      -2.327   9.577  10.917  1.00  0.00     0.000 C 
ATOM      5  C   UNL     1      -3.125   8.923  12.049  1.00  0.00     0.004 C 
ENDBRANCH   3   4
BRANCH   3   6
ATOM      6  C   UNL     1      -2.598  12.127  10.463  1.00  0.00    -0.014 C 
ATOM      7  C   UNL     1      -3.033  13.106   9.352  1.00  0.00     0.007 C 
ATOM      8  C   UNL     1      -3.073  12.690  11.815  1.00  0.00     0.007 C 
ENDBRANCH   3   6
ENDBRANCH   2   3
ENDBRANCH   1   2
BRANCH   1   9
ATOM      9  C   UNL     1      -2.084   8.956   6.735  1.00  0.00    -0.011 C 
ATOM     10  C   UNL     1      -1.697   7.480   6.490  1.00  0.00     0.008 C 
BRANCH   9  11
ATOM     11  C   UNL     1      -1.098  10.002   6.099  1.00  0.00    -0.002 C 
ATOM     12  C   UNL     1      -0.078   9.465   5.053  1.00  0.00     0.005 C 
ATOM     13  C   UNL     1      -1.713  11.279   5.442  1.00  0.00    -0.026 C 
ATOM     14  C   UNL     1       0.209  10.625   4.083  1.00  0.00     0.005 C 
ATOM     15  C   UNL     1      -0.457  11.823   4.744  1.00  0.00    -0.001 C 
ATOM     16  C   UNL     1      -2.183  12.364   6.443  1.00  0.00     0.007 C 
ATOM     17  C   UNL     1      -2.879  10.904   4.481  1.00  0.00     0.012 C 
ATOM     18  C   UNL     1      -0.596  13.157   3.983  1.00  0.00     0.000 C 
ATOM     19  C   UNL     1      -2.394  13.744   5.755  1.00  0.00     0.005 C 
ATOM     20  C   UNL     1      -1.154  14.250   4.941  1.00  0.00     0.003 C 
ATOM     21  C   UNL     1      -1.406  13.118   2.684  1.00  0.00     0.031 C 
ATOM     22  C   UNL     1      -1.299  15.672   4.206  1.00  0.00    -0.008 C 
ATOM     23  C   UNL     1      -1.268  14.432   1.990  1.00  0.00    -0.027 C 
ATOM     24  C   UNL     1      -1.212  15.596   2.663  1.00  0.00    -0.065 C 
ATOM     25  C   UNL     1      -0.118  16.570   4.691  1.00  0.00     0.014 C 
ATOM     26  C   UNL     1      -2.643  16.369   4.558  1.00  0.00     0.016 C 
ATOM     27  C   UNL     1      -1.020  16.879   1.876  1.00  0.00     0.063 C 
ATOM     28  C   UNL     1       0.034  17.901   3.932  1.00  0.00     0.033 C 
ATOM     29  C   UNL     1       0.169  17.681   2.420  1.00  0.00     0.118 C 
BRANCH  29  30
ATOM     30  O   UNL     1       1.364  16.995   2.134  1.00  0.00    -0.393 OA
ATOM     31  H   UNL     1       1.159  16.023   2.156  1.00  0.00     0.210 HD
ENDBRANCH  29  30
ENDBRANCH   9  11
ENDBRANCH   1   9
TORSDOF 7
ENDMDL
MODEL 2
REMARK VINA RESULT:    -4.254      2.621      4.435
REMARK INTER + INTRA:          -6.555
REMARK INTER:                  -5.844
REMARK INTRA:                  -0.711
REMARK UNBOUND:                -0.684
REMARK SMILES CC[C@H](CC[C@H](C)[C@H]1CC[C@H]2[C@H]3CC=C4C[C@H](O)CC[C@]4(C)[C@H]3CC[C@]12C)C(C)C
REMARK SMILES IDX 5 1 4 2 3 3 2 4 1 5 28 6 29 7 30 8 6 9 7 10 8 11 9 12 26 13
REMARK SMILES IDX 10 14 11 15 25 16 27 17 12 18 24 19 23 20 13 21 21 22 14 23
REMARK SMILES IDX 15 24 20 25 22 26 16 27 19 28 17 29 18 30
REMARK H PARENT 18 31
REMARK Flexibility Score: inf
ROOT
ATOM      1  C   UNL     1      -0.788   9.359   5.046  1.00  0.00     0.004 C 
ENDROOT
BRANCH   1   2
ATOM      2  C   UNL     1      -0.947   7.882   4.626  1.00  0.00     0.004 C 
BRANCH   2   3
ATOM      3  C   UNL     1      -2.101   7.176   5.416  1.00  0.00    -0.009 C 
BRANCH   3   4
ATOM      4  C   UNL     1      -2.846   8.197   6.319  1.00  0.00     0.000 C 
ATOM      5  C   UNL     1      -2.544   8.022   7.810  1.00  0.00     0.004 C 
ENDBRANCH   3   4
BRANCH   3   6
ATOM      6  C   UNL     1      -3.059   6.418   4.429  1.00  0.00    -0.014 C 
ATOM      7  C   UNL     1      -3.123   7.144   3.068  1.00  0.00     0.007 C 
ATOM      8  C   UNL     1      -2.658   4.954   4.175  1.00  0.00     0.007 C 
ENDBRANCH   3   6
ENDBRANCH   2   3
ENDBRANCH   1   2
BRANCH   1   9
ATOM      9  C   UNL     1      -0.569  10.317   3.843  1.00  0.00    -0.011 C 
ATOM     10  C   UNL     1       0.475   9.681   2.896  1.00  0.00     0.008 C 
BRANCH   9  11
ATOM     11  C   UNL     1      -0.215  11.774   4.316  1.00  0.00    -0.002 C 
ATOM     12  C   UNL     1       1.275  12.062   4.660  1.00  0.00     0.005 C 
ATOM     13  C   UNL     1      -0.656  12.964   3.404  1.00  0.00    -0.026 C 
ATOM     14  C   UNL     1       1.515  13.552   4.359  1.00  0.00     0.005 C 
ATOM     15  C   UNL     1       0.119  14.098   4.093  1.00  0.00    -0.001 C 
ATOM     16  C   UNL     1      -2.160  13.325   3.487  1.00  0.00     0.007 C 
ATOM     17  C   UNL     1      -0.253  12.708   1.923  1.00  0.00     0.012 C 
ATOM     18  C   UNL     1      -0.069  15.521   3.532  1.00  0.00     0.000 C 
ATOM     19  C   UNL     1      -2.457  14.736   2.901  1.00  0.00     0.005 C 
ATOM     20  C   UNL     1      -1.583  15.882   3.517  1.00  0.00     0.003 C 
ATOM     21  C   UNL     1       0.563  15.803   2.165  1.00  0.00     0.031 C 
ATOM     22  C   UNL     1      -1.838  17.368   2.960  1.00  0.00    -0.008 C 
ATOM     23  C   UNL     1       0.455  17.263   1.875  1.00  0.00    -0.027 C 
ATOM     24  C   UNL     1      -0.621  17.987   2.233  1.00  0.00    -0.065 C 
ATOM     25  C   UNL     1      -2.154  18.278   4.189  1.00  0.00     0.014 C 
ATOM     26  C   UNL     1      -3.039  17.417   1.974  1.00  0.00     0.016 C 
ATOM     27  C   UNL     1      -0.621  19.477   1.942  1.00  0.00     0.063 C 
ATOM     28  C   UNL     1      -2.217  19.785   3.876  1.00  0.00     0.033 C 
ATOM     29  C   UNL     1      -0.926  20.282   3.211  1.00  0.00     0.118 C 
BRANCH  29  30
ATOM     30  O   UNL     1       0.154  20.170   4.106  1.00  0.00    -0.393 OA
ATOM     31  H   UNL     1       0.397  19.208   4.158  1.00  0.00     0.210 HD
ENDBRANCH  29  30
ENDBRANCH   9  11
ENDBRANCH   1   9
TORSDOF 7
ENDMDL
MODEL 3
REMARK VINA RESULT:    -3.170     13.125     16.819
REMARK INTER + INTRA:          -5.059
REMARK INTER:                  -4.923
REMARK INTRA:                  -0.136
REMARK UNBOUND:                -0.684
REMARK SMILES CC[C@H](CC[C@H](C)[C@H]1CC[C@H]2[C@H]3CC=C4C[C@H](O)CC[C@]4(C)[C@H]3CC[C@]12C)C(C)C
REMARK SMILES IDX 5 1 4 2 3 3 2 4 1 5 28 6 29 7 30 8 6 9 7 10 8 11 9 12 26 13
REMARK SMILES IDX 10 14 11 15 25 16 27 17 12 18 24 19 23 20 13 21 21 22 14 23
REMARK SMILES IDX 15 24 20 25 22 26 16 27 19 28 17 29 18 30
REMARK H PARENT 18 31
REMARK Flexibility Score: inf
ROOT
ATOM      1  C   UNL     1       8.001  19.389  18.003  1.00  0.00     0.004 C 
ENDROOT
BRANCH   1   2
ATOM      2  C   UNL     1       8.221  20.755  18.687  1.00  0.00     0.004 C 
BRANCH   2   3
ATOM      3  C   UNL     1       7.054  21.105  19.672  1.00  0.00    -0.009 C 
BRANCH   3   4
ATOM      4  C   UNL     1       5.726  20.453  19.196  1.00  0.00     0.000 C 
ATOM      5  C   UNL     1       5.131  21.125  17.956  1.00  0.00     0.004 C 
ENDBRANCH   3   4
BRANCH   3   6
ATOM      6  C   UNL     1       7.439  20.709  21.142  1.00  0.00    -0.014 C 
ATOM      7  C   UNL     1       7.302  19.185  21.349  1.00  0.00     0.007 C 
ATOM      8  C   UNL     1       8.866  21.124  21.544  1.00  0.00     0.007 C 
ENDBRANCH   3   6
ENDBRANCH   2   3
ENDBRANCH   1   2
BRANCH   1   9
ATOM      9  C   UNL     1       9.284  18.513  17.957  1.00  0.00    -0.011 C 
ATOM     10  C   UNL     1       9.909  18.638  16.548  1.00  0.00     0.008 C 
BRANCH   9  11
ATOM     11  C   UNL     1       8.997  17.037  18.414  1.00  0.00    -0.002 C 
ATOM     12  C   UNL     1       8.961  16.767  19.947  1.00  0.00     0.005 C 
ATOM     13  C   UNL     1       7.721  16.333  17.850  1.00  0.00    -0.026 C 
ATOM     14  C   UNL     1       7.992  15.590  20.162  1.00  0.00     0.005 C 
ATOM     15  C   UNL     1       7.711  15.089  18.753  1.00  0.00    -0.001 C 
ATOM     16  C   UNL     1       7.845  15.834  16.389  1.00  0.00     0.007 C 
ATOM     17  C   UNL     1       6.472  17.250  17.993  1.00  0.00     0.012 C 
ATOM     18  C   UNL     1       6.603  14.047  18.502  1.00  0.00     0.000 C 
ATOM     19  C   UNL     1       6.737  14.802  16.026  1.00  0.00     0.005 C 
ATOM     20  C   UNL     1       6.643  13.590  17.014  1.00  0.00     0.003 C 
ATOM     21  C   UNL     1       5.182  14.455  18.900  1.00  0.00     0.031 C 
ATOM     22  C   UNL     1       5.521  12.483  16.699  1.00  0.00    -0.008 C 
ATOM     23  C   UNL     1       4.286  13.267  18.774  1.00  0.00    -0.027 C 
ATOM     24  C   UNL     1       4.429  12.362  17.788  1.00  0.00    -0.065 C 
ATOM     25  C   UNL     1       6.241  11.100  16.613  1.00  0.00     0.014 C 
ATOM     26  C   UNL     1       4.798  12.760  15.351  1.00  0.00     0.016 C 
ATOM     27  C   UNL     1       3.504  11.159  17.770  1.00  0.00     0.063 C 
ATOM     28  C   UNL     1       5.298   9.886  16.529  1.00  0.00     0.033 C 
ATOM     29  C   UNL     1       4.306   9.854  17.699  1.00  0.00     0.118 C 
BRANCH  29  30
ATOM     30  O   UNL     1       4.992   9.661  18.912  1.00  0.00    -0.393 OA
ATOM     31  H   UNL     1       5.115  10.556  19.327  1.00  0.00     0.210 HD
ENDBRANCH  29  30
ENDBRANCH   9  11
ENDBRANCH   1   9
TORSDOF 7
ENDMDL
MODEL 4
REMARK VINA RESULT:    -2.973      2.043      5.003
REMARK INTER + INTRA:          -4.787
REMARK INTER:                  -3.860
REMARK INTRA:                  -0.926
REMARK UNBOUND:                -0.684
REMARK SMILES CC[C@H](CC[C@H](C)[C@H]1CC[C@H]2[C@H]3CC=C4C[C@H](O)CC[C@]4(C)[C@H]3CC[C@]12C)C(C)C
REMARK SMILES IDX 5 1 4 2 3 3 2 4 1 5 28 6 29 7 30 8 6 9 7 10 8 11 9 12 26 13
REMARK SMILES IDX 10 14 11 15 25 16 27 17 12 18 24 19 23 20 13 21 21 22 14 23
REMARK SMILES IDX 15 24 20 25 22 26 16 27 19 28 17 29 18 30
REMARK H PARENT 18 31
REMARK Flexibility Score: inf
ROOT
ATOM      1  C   UNL     1      -1.875  10.791   5.941  1.00  0.00     0.004 C 
ENDROOT
BRANCH   1   2
ATOM      2  C   UNL     1      -0.784   9.699   5.927  1.00  0.00     0.004 C 
BRANCH   2   3
ATOM      3  C   UNL     1      -0.428   9.254   4.468  1.00  0.00    -0.009 C 
BRANCH   3   4
ATOM      4  C   UNL     1      -1.602   8.451   3.842  1.00  0.00     0.000 C 
ATOM      5  C   UNL     1      -2.288   7.506   4.833  1.00  0.00     0.004 C 
ENDBRANCH   3   4
BRANCH   3   6
ATOM      6  C   UNL     1      -0.004  10.494   3.603  1.00  0.00    -0.014 C 
ATOM      7  C   UNL     1       0.982  11.389   4.382  1.00  0.00     0.007 C 
ATOM      8  C   UNL     1       0.643  10.120   2.257  1.00  0.00     0.007 C 
ENDBRANCH   3   6
ENDBRANCH   2   3
ENDBRANCH   1   2
BRANCH   1   9
ATOM      9  C   UNL     1      -1.907  11.608   7.262  1.00  0.00    -0.011 C 
ATOM     10  C   UNL     1      -2.661  10.780   8.328  1.00  0.00     0.008 C 
BRANCH   9  11
ATOM     11  C   UNL     1      -2.477  13.055   7.038  1.00  0.00    -0.002 C 
ATOM     12  C   UNL     1      -2.708  13.927   8.307  1.00  0.00     0.005 C 
ATOM     13  C   UNL     1      -1.722  13.990   6.039  1.00  0.00    -0.026 C 
ATOM     14  C   UNL     1      -2.523  15.392   7.873  1.00  0.00     0.005 C 
ATOM     15  C   UNL     1      -2.438  15.312   6.355  1.00  0.00    -0.001 C 
ATOM     16  C   UNL     1      -1.975  13.682   4.542  1.00  0.00     0.007 C 
ATOM     17  C   UNL     1      -0.193  13.994   6.328  1.00  0.00     0.012 C 
ATOM     18  C   UNL     1      -2.029  16.549   5.530  1.00  0.00     0.000 C 
ATOM     19  C   UNL     1      -1.551  14.863   3.621  1.00  0.00     0.005 C 
ATOM     20  C   UNL     1      -2.186  16.241   4.012  1.00  0.00     0.003 C 
ATOM     21  C   UNL     1      -0.642  17.131   5.818  1.00  0.00     0.031 C 
ATOM     22  C   UNL     1      -1.794  17.506   3.101  1.00  0.00    -0.008 C 
ATOM     23  C   UNL     1      -0.498  18.422   5.083  1.00  0.00    -0.027 C 
ATOM     24  C   UNL     1      -1.018  18.611   3.857  1.00  0.00    -0.065 C 
ATOM     25  C   UNL     1      -3.124  18.143   2.591  1.00  0.00     0.014 C 
ATOM     26  C   UNL     1      -0.930  17.090   1.878  1.00  0.00     0.016 C 
ATOM     27  C   UNL     1      -0.865  19.974   3.208  1.00  0.00     0.063 C 
ATOM     28  C   UNL     1      -2.958  19.496   1.875  1.00  0.00     0.033 C 
ATOM     29  C   UNL     1      -2.226  20.519   2.754  1.00  0.00     0.118 C 
BRANCH  29  30
ATOM     30  O   UNL     1      -3.003  20.831   3.885  1.00  0.00    -0.393 OA
ATOM     31  H   UNL     1      -3.117  19.993   4.406  1.00  0.00     0.210 HD
ENDBRANCH  29  30
ENDBRANCH   9  11
ENDBRANCH   1   9
TORSDOF 7
ENDMDL
