MODEL 1
REMARK VINA RESULT:    10.167      0.000      0.000
REMARK INTER + INTRA:          17.932
REMARK INTER:                  14.031
REMARK INTRA:                   3.901
REMARK UNBOUND:                 3.901
REMARK SMILES CC[C@@H](CC[C@H](C)[C@@H]1CC[C@@H]2[C@@H]3CC=C4C[C@H](O)CC[C@]4(C)[C@@H]3CC[C@]21C)C(C)C
REMARK SMILES IDX 5 1 4 2 3 3 2 4 1 5 28 6 29 7 30 8 6 9 7 10 8 11 9 12 26 13
REMARK SMILES IDX 10 14 11 15 25 16 27 17 12 18 24 19 23 20 13 21 21 22 14 23
REMARK SMILES IDX 15 24 20 25 22 26 16 27 19 28 17 29 18 30
REMARK H PARENT 18 31
REMARK Flexibility Score: inf
ROOT
ATOM      1  C   UNL     1       8.697 -37.514  14.430  1.00  0.00     0.004 C 
ENDROOT
BRANCH   1   2
ATOM      2  C   UNL     1       9.283 -37.556  13.002  1.00  0.00     0.004 C 
BRANCH   2   3
ATOM      3  C   UNL     1      10.659 -36.842  12.876  1.00  0.00    -0.009 C 
BRANCH   3   4
ATOM      4  C   UNL     1      11.667 -37.418  13.912  1.00  0.00     0.000 C 
ATOM      5  C   UNL     1      13.128 -37.226  13.498  1.00  0.00     0.004 C 
ENDBRANCH   3   4
BRANCH   3   6
ATOM      6  C   UNL     1      10.537 -35.284  12.969  1.00  0.00    -0.014 C 
ATOM      7  C   UNL     1       9.089 -34.771  12.875  1.00  0.00     0.007 C 
ATOM      8  C   UNL     1      11.216 -34.729  14.232  1.00  0.00     0.007 C 
ENDBRANCH   3   6
ENDBRANCH   2   3
ENDBRANCH   1   2
BRANCH   1   9
ATOM      9  C   UNL     1       7.147 -37.661  14.443  1.00  0.00    -0.011 C 
ATOM     10  C   UNL     1       6.672 -38.051  13.025  1.00  0.00     0.008 C 
BRANCH   9  11
ATOM     11  C   UNL     1       6.455 -36.342  14.939  1.00  0.00    -0.002 C 
ATOM     12  C   UNL     1       5.892 -35.486  13.769  1.00  0.00     0.005 C 
ATOM     13  C   UNL     1       7.302 -35.318  15.767  1.00  0.00    -0.026 C 
ATOM     14  C   UNL     1       5.979 -34.011  14.188  1.00  0.00     0.005 C 
ATOM     15  C   UNL     1       6.404 -34.075  15.644  1.00  0.00    -0.001 C 
ATOM     16  C   UNL     1       7.417 -35.625  17.277  1.00  0.00     0.007 C 
ATOM     17  C   UNL     1       8.716 -35.141  15.140  1.00  0.00     0.012 C 
ATOM     18  C   UNL     1       6.900 -32.790  16.347  1.00  0.00     0.000 C 
ATOM     19  C   UNL     1       7.957 -34.416  18.079  1.00  0.00     0.005 C 
ATOM     20  C   UNL     1       7.176 -33.076  17.862  1.00  0.00     0.003 C 
ATOM     21  C   UNL     1       8.023 -32.009  15.608  1.00  0.00     0.031 C 
ATOM     22  C   UNL     1       7.841 -31.824  18.561  1.00  0.00    -0.008 C 
ATOM     23  C   UNL     1       9.179 -31.562  16.468  1.00  0.00    -0.027 C 
ATOM     24  C   UNL     1       9.113 -31.434  17.808  1.00  0.00    -0.065 C 
ATOM     25  C   UNL     1       8.149 -32.122  20.067  1.00  0.00     0.014 C 
ATOM     26  C   UNL     1       6.862 -30.618  18.506  1.00  0.00     0.016 C 
ATOM     27  C   UNL     1      10.189 -30.607  18.492  1.00  0.00     0.063 C 
ATOM     28  C   UNL     1       9.091 -31.106  20.726  1.00  0.00     0.033 C 
ATOM     29  C   UNL     1      10.415 -30.995  19.962  1.00  0.00     0.118 C 
BRANCH  29  30
ATOM     30  O   UNL     1      11.174 -32.175  20.082  1.00  0.00    -0.393 OA
ATOM     31  H   UNL     1      10.629 -32.937  19.755  1.00  0.00     0.210 HD
ENDBRANCH  29  30
ENDBRANCH   9  11
ENDBRANCH   1   9
TORSDOF 7
ENDMDL
MODEL 2
REMARK VINA RESULT:    10.407      3.065      5.506
REMARK INTER + INTRA:          18.263
REMARK INTER:                  18.603
REMARK INTRA:                  -0.340
REMARK UNBOUND:                 3.901
REMARK SMILES CC[C@@H](CC[C@H](C)[C@@H]1CC[C@@H]2[C@@H]3CC=C4C[C@H](O)CC[C@]4(C)[C@@H]3CC[C@]21C)C(C)C
REMARK SMILES IDX 5 1 4 2 3 3 2 4 1 5 28 6 29 7 30 8 6 9 7 10 8 11 9 12 26 13
REMARK SMILES IDX 10 14 11 15 25 16 27 17 12 18 24 19 23 20 13 21 21 22 14 23
REMARK SMILES IDX 15 24 20 25 22 26 16 27 19 28 17 29 18 30
REMARK H PARENT 18 31
REMARK Flexibility Score: inf
ROOT
ATOM      1  C   UNL     1       5.893 -34.696  16.381  1.00  0.00     0.004 C 
ENDROOT
BRANCH   1   2
ATOM      2  C   UNL     1       6.057 -35.534  15.094  1.00  0.00     0.004 C 
BRANCH   2   3
ATOM      3  C   UNL     1       6.428 -37.020  15.364  1.00  0.00    -0.009 C 
BRANCH   3   4
ATOM      4  C   UNL     1       7.125 -37.163  16.747  1.00  0.00     0.000 C 
ATOM      5  C   UNL     1       6.319 -38.003  17.741  1.00  0.00     0.004 C 
ENDBRANCH   3   4
BRANCH   3   6
ATOM      6  C   UNL     1       7.274 -37.647  14.204  1.00  0.00    -0.014 C 
ATOM      7  C   UNL     1       6.453 -37.963  12.941  1.00  0.00     0.007 C 
ATOM      8  C   UNL     1       8.489 -36.776  13.844  1.00  0.00     0.007 C 
ENDBRANCH   3   6
ENDBRANCH   2   3
ENDBRANCH   1   2
BRANCH   1   9
ATOM      9  C   UNL     1       7.234 -34.065  16.857  1.00  0.00    -0.011 C 
ATOM     10  C   UNL     1       7.019 -33.431  18.250  1.00  0.00     0.008 C 
BRANCH   9  11
ATOM     11  C   UNL     1       7.765 -33.012  15.820  1.00  0.00    -0.002 C 
ATOM     12  C   UNL     1       7.191 -33.238  14.391  1.00  0.00     0.005 C 
ATOM     13  C   UNL     1       9.309 -32.908  15.583  1.00  0.00    -0.026 C 
ATOM     14  C   UNL     1       8.256 -32.778  13.385  1.00  0.00     0.005 C 
ATOM     15  C   UNL     1       9.318 -32.130  14.255  1.00  0.00    -0.001 C 
ATOM     16  C   UNL     1      10.077 -32.038  16.603  1.00  0.00     0.007 C 
ATOM     17  C   UNL     1       9.947 -34.325  15.489  1.00  0.00     0.012 C 
ATOM     18  C   UNL     1      10.704 -31.810  13.649  1.00  0.00     0.000 C 
ATOM     19  C   UNL     1      11.507 -31.697  16.120  1.00  0.00     0.005 C 
ATOM     20  C   UNL     1      11.589 -31.051  14.696  1.00  0.00     0.003 C 
ATOM     21  C   UNL     1      11.410 -32.990  12.923  1.00  0.00     0.031 C 
ATOM     22  C   UNL     1      13.063 -30.862  14.159  1.00  0.00    -0.008 C 
ATOM     23  C   UNL     1      12.866 -33.185  13.261  1.00  0.00    -0.027 C 
ATOM     24  C   UNL     1      13.651 -32.224  13.790  1.00  0.00    -0.065 C 
ATOM     25  C   UNL     1      13.956 -30.133  15.219  1.00  0.00     0.014 C 
ATOM     26  C   UNL     1      13.040 -29.985  12.876  1.00  0.00     0.016 C 
ATOM     27  C   UNL     1      15.155 -32.415  13.704  1.00  0.00     0.063 C 
ATOM     28  C   UNL     1      15.460 -30.212  14.930  1.00  0.00     0.033 C 
ATOM     29  C   UNL     1      15.929 -31.666  14.802  1.00  0.00     0.118 C 
BRANCH  29  30
ATOM     30  O   UNL     1      15.863 -32.335  16.040  1.00  0.00    -0.393 OA
ATOM     31  H   UNL     1      16.732 -32.787  16.202  1.00  0.00     0.210 HD
ENDBRANCH  29  30
ENDBRANCH   9  11
ENDBRANCH   1   9
TORSDOF 7
ENDMDL
MODEL 3
REMARK VINA RESULT:    11.507      4.106      6.889
REMARK INTER + INTRA:          19.781
REMARK INTER:                  17.665
REMARK INTRA:                   2.116
REMARK UNBOUND:                 3.901
REMARK SMILES CC[C@@H](CC[C@H](C)[C@@H]1CC[C@@H]2[C@@H]3CC=C4C[C@H](O)CC[C@]4(C)[C@@H]3CC[C@]21C)C(C)C
REMARK SMILES IDX 5 1 4 2 3 3 2 4 1 5 28 6 29 7 30 8 6 9 7 10 8 11 9 12 26 13
REMARK SMILES IDX 10 14 11 15 25 16 27 17 12 18 24 19 23 20 13 21 21 22 14 23
REMARK SMILES IDX 15 24 20 25 22 26 16 27 19 28 17 29 18 30
REMARK H PARENT 18 31
REMARK Flexibility Score: inf
ROOT
ATOM      1  C   UNL     1      13.995 -30.295  13.827  1.00  0.00     0.004 C 
ENDROOT
BRANCH   1   2
ATOM      2  C   UNL     1      15.445 -30.135  14.335  1.00  0.00     0.004 C 
BRANCH   2   3
ATOM      3  C   UNL     1      16.297 -31.428  14.193  1.00  0.00    -0.009 C 
BRANCH   3   4
ATOM      4  C   UNL     1      16.686 -31.979  15.595  1.00  0.00     0.000 C 
ATOM      5  C   UNL     1      16.533 -33.498  15.706  1.00  0.00     0.004 C 
ENDBRANCH   3   4
BRANCH   3   6
ATOM      6  C   UNL     1      17.545 -31.225  13.268  1.00  0.00    -0.014 C 
ATOM      7  C   UNL     1      18.380 -29.982  13.621  1.00  0.00     0.007 C 
ATOM      8  C   UNL     1      18.441 -32.473  13.230  1.00  0.00     0.007 C 
ENDBRANCH   3   6
ENDBRANCH   2   3
ENDBRANCH   1   2
BRANCH   1   9
ATOM      9  C   UNL     1      13.434 -31.728  14.065  1.00  0.00    -0.011 C 
ATOM     10  C   UNL     1      14.514 -32.758  13.665  1.00  0.00     0.008 C 
BRANCH   9  11
ATOM     11  C   UNL     1      12.099 -31.954  13.270  1.00  0.00    -0.002 C 
ATOM     12  C   UNL     1      11.394 -30.619  12.894  1.00  0.00     0.005 C 
ATOM     13  C   UNL     1      10.960 -32.793  13.941  1.00  0.00    -0.026 C 
ATOM     14  C   UNL     1       9.881 -30.881  12.876  1.00  0.00     0.005 C 
ATOM     15  C   UNL     1       9.774 -32.386  13.050  1.00  0.00    -0.001 C 
ATOM     16  C   UNL     1      11.102 -34.325  13.807  1.00  0.00     0.007 C 
ATOM     17  C   UNL     1      10.793 -32.393  15.437  1.00  0.00     0.012 C 
ATOM     18  C   UNL     1       8.403 -33.015  13.390  1.00  0.00     0.000 C 
ATOM     19  C   UNL     1       9.795 -35.067  14.176  1.00  0.00     0.005 C 
ATOM     20  C   UNL     1       8.518 -34.577  13.413  1.00  0.00     0.003 C 
ATOM     21  C   UNL     1       7.660 -32.391  14.605  1.00  0.00     0.031 C 
ATOM     22  C   UNL     1       7.173 -35.234  13.922  1.00  0.00    -0.008 C 
ATOM     23  C   UNL     1       7.078 -33.376  15.588  1.00  0.00    -0.027 C 
ATOM     24  C   UNL     1       6.813 -34.664  15.294  1.00  0.00    -0.065 C 
ATOM     25  C   UNL     1       7.299 -36.794  13.976  1.00  0.00     0.014 C 
ATOM     26  C   UNL     1       6.021 -34.886  12.939  1.00  0.00     0.016 C 
ATOM     27  C   UNL     1       5.876 -35.421  16.219  1.00  0.00     0.063 C 
ATOM     28  C   UNL     1       6.182 -37.484  14.770  1.00  0.00     0.033 C 
ATOM     29  C   UNL     1       6.098 -36.942  16.202  1.00  0.00     0.118 C 
BRANCH  29  30
ATOM     30  O   UNL     1       7.227 -37.317  16.956  1.00  0.00    -0.393 OA
ATOM     31  H   UNL     1       7.458 -36.572  17.571  1.00  0.00     0.210 HD
ENDBRANCH  29  30
ENDBRANCH   9  11
ENDBRANCH   1   9
TORSDOF 7
ENDMDL
MODEL 4
REMARK VINA RESULT:    12.080      1.520      2.441
REMARK INTER + INTRA:          20.571
REMARK INTER:                  17.317
REMARK INTRA:                   3.254
REMARK UNBOUND:                 3.901
REMARK SMILES CC[C@@H](CC[C@H](C)[C@@H]1CC[C@@H]2[C@@H]3CC=C4C[C@H](O)CC[C@]4(C)[C@@H]3CC[C@]21C)C(C)C
REMARK SMILES IDX 5 1 4 2 3 3 2 4 1 5 28 6 29 7 30 8 6 9 7 10 8 11 9 12 26 13
REMARK SMILES IDX 10 14 11 15 25 16 27 17 12 18 24 19 23 20 13 21 21 22 14 23
REMARK SMILES IDX 15 24 20 25 22 26 16 27 19 28 17 29 18 30
REMARK H PARENT 18 31
REMARK Flexibility Score: inf
ROOT
ATOM      1  C   UNL     1       9.489 -36.838  13.639  1.00  0.00     0.004 C 
ENDROOT
BRANCH   1   2
ATOM      2  C   UNL     1       8.971 -35.598  12.878  1.00  0.00     0.004 C 
BRANCH   2   3
ATOM      3  C   UNL     1       9.962 -34.399  12.901  1.00  0.00    -0.009 C 
BRANCH   3   4
ATOM      4  C   UNL     1      11.403 -34.891  13.221  1.00  0.00     0.000 C 
ATOM      5  C   UNL     1      11.430 -36.242  13.940  1.00  0.00     0.004 C 
ENDBRANCH   3   4
BRANCH   3   6
ATOM      6  C   UNL     1       9.497 -33.255  13.865  1.00  0.00    -0.014 C 
ATOM      7  C   UNL     1      10.651 -32.385  14.394  1.00  0.00     0.007 C 
ATOM      8  C   UNL     1       8.415 -32.369  13.225  1.00  0.00     0.007 C 
ENDBRANCH   3   6
ENDBRANCH   2   3
ENDBRANCH   1   2
BRANCH   1   9
ATOM      9  C   UNL     1       8.336 -37.775  14.106  1.00  0.00    -0.011 C 
ATOM     10  C   UNL     1       7.148 -37.627  13.129  1.00  0.00     0.008 C 
BRANCH   9  11
ATOM     11  C   UNL     1       7.910 -37.458  15.584  1.00  0.00    -0.002 C 
ATOM     12  C   UNL     1       6.441 -37.873  15.884  1.00  0.00     0.005 C 
ATOM     13  C   UNL     1       7.981 -35.976  16.082  1.00  0.00    -0.026 C 
ATOM     14  C   UNL     1       5.887 -36.897  16.932  1.00  0.00     0.005 C 
ATOM     15  C   UNL     1       7.100 -36.079  17.339  1.00  0.00    -0.001 C 
ATOM     16  C   UNL     1       9.372 -35.505  16.562  1.00  0.00     0.007 C 
ATOM     17  C   UNL     1       7.425 -35.005  14.999  1.00  0.00     0.012 C 
ATOM     18  C   UNL     1       6.900 -34.780  18.155  1.00  0.00     0.000 C 
ATOM     19  C   UNL     1       9.299 -34.177  17.351  1.00  0.00     0.005 C 
ATOM     20  C   UNL     1       8.289 -34.172  18.548  1.00  0.00     0.003 C 
ATOM     21  C   UNL     1       5.880 -33.766  17.565  1.00  0.00     0.031 C 
ATOM     22  C   UNL     1       8.112 -32.760  19.236  1.00  0.00    -0.008 C 
ATOM     23  C   UNL     1       6.335 -32.328  17.535  1.00  0.00    -0.027 C 
ATOM     24  C   UNL     1       7.323 -31.836  18.309  1.00  0.00    -0.065 C 
ATOM     25  C   UNL     1       9.503 -32.137  19.599  1.00  0.00     0.014 C 
ATOM     26  C   UNL     1       7.306 -32.922  20.555  1.00  0.00     0.016 C 
ATOM     27  C   UNL     1       7.405 -30.328  18.474  1.00  0.00     0.063 C 
ATOM     28  C   UNL     1       9.447 -30.645  19.950  1.00  0.00     0.033 C 
ATOM     29  C   UNL     1       8.818 -29.828  18.816  1.00  0.00     0.118 C 
BRANCH  29  30
ATOM     30  O   UNL     1       9.653 -29.800  17.683  1.00  0.00    -0.393 OA
ATOM     31  H   UNL     1      10.167 -30.649  17.648  1.00  0.00     0.210 HD
ENDBRANCH  29  30
ENDBRANCH   9  11
ENDBRANCH   1   9
TORSDOF 7
ENDMDL
MODEL 5
REMARK VINA RESULT:    12.219      3.906      6.412
REMARK INTER + INTRA:          20.763
REMARK INTER:                  17.832
REMARK INTRA:                   2.931
REMARK UNBOUND:                 3.901
REMARK SMILES CC[C@@H](CC[C@H](C)[C@@H]1CC[C@@H]2[C@@H]3CC=C4C[C@H](O)CC[C@]4(C)[C@@H]3CC[C@]21C)C(C)C
REMARK SMILES IDX 5 1 4 2 3 3 2 4 1 5 28 6 29 7 30 8 6 9 7 10 8 11 9 12 26 13
REMARK SMILES IDX 10 14 11 15 25 16 27 17 12 18 24 19 23 20 13 21 21 22 14 23
REMARK SMILES IDX 15 24 20 25 22 26 16 27 19 28 17 29 18 30
REMARK H PARENT 18 31
REMARK Flexibility Score: inf
ROOT
ATOM      1  C   UNL     1      13.721 -32.256  14.024  1.00  0.00     0.004 C 
ENDROOT
BRANCH   1   2
ATOM      2  C   UNL     1      14.926 -31.732  14.837  1.00  0.00     0.004 C 
BRANCH   2   3
ATOM      3  C   UNL     1      16.299 -32.224  14.297  1.00  0.00    -0.009 C 
BRANCH   3   4
ATOM      4  C   UNL     1      17.236 -32.617  15.475  1.00  0.00     0.000 C 
ATOM      5  C   UNL     1      18.707 -32.289  15.206  1.00  0.00     0.004 C 
ENDBRANCH   3   4
BRANCH   3   6
ATOM      6  C   UNL     1      16.966 -31.192  13.326  1.00  0.00    -0.014 C 
ATOM      7  C   UNL     1      16.400 -29.766  13.456  1.00  0.00     0.007 C 
ATOM      8  C   UNL     1      18.496 -31.171  13.473  1.00  0.00     0.007 C 
ENDBRANCH   3   6
ENDBRANCH   2   3
ENDBRANCH   1   2
BRANCH   1   9
ATOM      9  C   UNL     1      12.472 -31.335  14.148  1.00  0.00    -0.011 C 
ATOM     10  C   UNL     1      12.239 -31.010  15.640  1.00  0.00     0.008 C 
BRANCH   9  11
ATOM     11  C   UNL     1      11.208 -32.003  13.499  1.00  0.00    -0.002 C 
ATOM     12  C   UNL     1      10.235 -30.961  12.875  1.00  0.00     0.005 C 
ATOM     13  C   UNL     1      10.277 -32.879  14.403  1.00  0.00    -0.026 C 
ATOM     14  C   UNL     1       8.811 -31.522  13.001  1.00  0.00     0.005 C 
ATOM     15  C   UNL     1       9.024 -32.936  13.512  1.00  0.00    -0.001 C 
ATOM     16  C   UNL     1      10.736 -34.340  14.604  1.00  0.00     0.007 C 
ATOM     17  C   UNL     1      10.042 -32.190  15.779  1.00  0.00     0.012 C 
ATOM     18  C   UNL     1       7.819 -33.735  14.060  1.00  0.00     0.000 C 
ATOM     19  C   UNL     1       9.618 -35.227  15.202  1.00  0.00     0.005 C 
ATOM     20  C   UNL     1       8.259 -35.194  14.423  1.00  0.00     0.003 C 
ATOM     21  C   UNL     1       6.972 -33.013  15.145  1.00  0.00     0.031 C 
ATOM     22  C   UNL     1       7.087 -35.975  15.139  1.00  0.00    -0.008 C 
ATOM     23  C   UNL     1       6.618 -33.843  16.354  1.00  0.00    -0.027 C 
ATOM     24  C   UNL     1       6.628 -35.191  16.369  1.00  0.00    -0.065 C 
ATOM     25  C   UNL     1       7.539 -37.422  15.532  1.00  0.00     0.014 C 
ATOM     26  C   UNL     1       5.879 -36.102  14.171  1.00  0.00     0.016 C 
ATOM     27  C   UNL     1       5.878 -35.890  17.490  1.00  0.00     0.063 C 
ATOM     28  C   UNL     1       6.598 -38.123  16.521  1.00  0.00     0.033 C 
ATOM     29  C   UNL     1       6.415 -37.296  17.799  1.00  0.00     0.118 C 
BRANCH  29  30
ATOM     30  O   UNL     1       7.604 -37.251  18.553  1.00  0.00    -0.393 OA
ATOM     31  H   UNL     1       8.045 -36.376  18.396  1.00  0.00     0.210 HD
ENDBRANCH  29  30
ENDBRANCH   9  11
ENDBRANCH   1   9
TORSDOF 7
ENDMDL
