MODEL 1
REMARK VINA RESULT:    80.190      0.000      0.000
REMARK INTER + INTRA:         173.051
REMARK INTER:                 169.261
REMARK INTRA:                   3.790
REMARK UNBOUND:                 3.790
REMARK SMILES CCC(=O)CCCCC[C@H]1NC(=O)[C@H]2CCCCN2C(=O)[C@@H]([C@H](C)CC)NC(=O)[C@@H](Cc2cn(OC)c3ccccc23)NC1=O
REMARK SMILES IDX 9 1 10 2 44 3 43 4 45 6 30 7 28 8 27 9 29 11 22 12 23 14
REMARK SMILES IDX 24 15 25 16 26 17 31 18 32 19 33 20 42 21 34 22 37 23 41 24
REMARK SMILES IDX 38 25 40 26 39 27 35 28 36 29 11 30 12 31 13 33 14 34 19 35
REMARK SMILES IDX 15 36 18 37 16 38 17 39 20 40 21 41 8 43 7 44 6 45 5 46 3 47
REMARK SMILES IDX 4 48 2 49 1 50
REMARK H PARENT 43 5 27 10 11 32
REMARK Flexibility Score: 80.00
ROOT
ATOM      1  C   UNL     1     -12.297   2.920 -20.448  1.00  0.00     0.035 C 
ENDROOT
BRANCH   1   2
ATOM      2  C   UNL     1     -13.584   3.018 -19.603  1.00  0.00     0.171 C 
BRANCH   2   3
ATOM      3  C   UNL     1     -13.351   3.847 -18.364  1.00  0.00     0.243 C 
ATOM      4  N   UNL     1     -12.022   4.126 -17.905  1.00  0.00    -0.342 N 
ATOM      5  H   UNL     1     -11.242   4.092 -18.601  1.00  0.00     0.164 HD
ATOM      6  O   UNL     1     -14.340   4.258 -17.699  1.00  0.00    -0.273 OA
BRANCH   4   7
ATOM      7  C   UNL     1     -11.680   4.018 -16.485  1.00  0.00     0.175 C 
BRANCH   7   8
ATOM      8  C   UNL     1     -10.802   2.808 -16.281  1.00  0.00     0.243 C 
ATOM      9  N   UNL     1     -11.195   1.537 -16.820  1.00  0.00    -0.342 N 
ATOM     10  H   UNL     1     -12.016   1.506 -17.471  1.00  0.00     0.164 HD
ATOM     11  O   UNL     1      -9.712   2.929 -15.657  1.00  0.00    -0.273 OA
BRANCH   9  12
ATOM     12  C   UNL     1     -10.472   0.296 -16.532  1.00  0.00     0.174 CG0
ATOM     13  G   UNL     1     -11.220  -0.873 -17.132  1.00  0.00     0.000 G0
BRANCH  12  14
ATOM     14  C   UNL     1      -8.989   0.409 -16.994  1.00  0.00     0.018 C 
ATOM     15  C   UNL     1      -8.700  -0.393 -18.281  1.00  0.00     0.010 C 
BRANCH  14  16
ATOM     16  C   UNL     1      -8.016   0.023 -15.851  1.00  0.00     0.002 C 
ATOM     17  C   UNL     1      -7.317  -1.316 -16.096  1.00  0.00     0.004 C 
ENDBRANCH  14  16
ENDBRANCH  12  14
ENDBRANCH   9  12
ENDBRANCH   7   8
BRANCH   7  18
ATOM     18  C   UNL     1     -10.967   5.298 -16.006  1.00  0.00     0.073 C 
BRANCH  18  19
ATOM     19  C   UNL     1     -11.746   6.533 -16.365  1.00  0.00    -0.016 A 
ATOM     20  C   UNL     1     -11.335   7.545 -17.223  1.00  0.00     0.134 A 
ATOM     21  C   UNL     1     -12.924   6.976 -15.797  1.00  0.00     0.006 A 
ATOM     22  N   UNL     1     -12.226   8.560 -17.215  1.00  0.00    -0.191 N 
ATOM     23  C   UNL     1     -13.199   8.215 -16.333  1.00  0.00     0.087 A 
ATOM     24  C   UNL     1     -13.711   6.401 -14.798  1.00  0.00     0.011 A 
ATOM     25  C   UNL     1     -14.297   8.956 -15.871  1.00  0.00     0.030 A 
ATOM     26  C   UNL     1     -14.818   7.125 -14.332  1.00  0.00     0.001 A 
ATOM     27  C   UNL     1     -15.107   8.395 -14.867  1.00  0.00     0.002 A 
BRANCH  22  28
ATOM     28  O   UNL     1     -12.077   9.687 -18.006  1.00  0.00    -0.417 OA
ATOM     29  C   UNL     1     -11.455  10.894 -17.582  1.00  0.00     0.313 C 
ENDBRANCH  22  28
ENDBRANCH  18  19
ENDBRANCH   7  18
ENDBRANCH   4   7
ENDBRANCH   2   3
BRANCH   2  30
ATOM     30  N   UNL     1     -14.075   1.686 -19.223  1.00  0.00    -0.343 N 
ATOM     31  C   UNL     1     -13.200   0.694 -18.658  1.00  0.00     0.243 C 
ATOM     32  H   UNL     1     -15.095   1.471 -19.289  1.00  0.00     0.164 HD
ATOM     33  O   UNL     1     -11.966   0.730 -18.914  1.00  0.00    -0.273 OA
BRANCH  31  34
ATOM     34  C   UNL     1     -13.721  -0.374 -17.724  1.00  0.00     0.174 C 
ATOM     35  N   UNL     1     -12.697  -0.945 -16.829  1.00  0.00    -0.329 N 
ATOM     36  C   UNL     1     -14.410  -1.516 -18.494  1.00  0.00     0.035 C 
ATOM     37  C   UNL     1     -13.163  -1.933 -15.850  1.00  0.00     0.120 C 
ATOM     38  C   UNL     1     -14.977  -2.549 -17.511  1.00  0.00     0.004 C 
ATOM     39  C   UNL     1     -13.885  -3.082 -16.568  1.00  0.00     0.022 C 
BRANCH  35  40
ATOM     40  C   UNL     1     -11.292  -0.873 -17.123  1.00  0.00     0.246 CG0
ATOM     41  O   UNL     1     -10.784  -1.730 -17.898  1.00  0.00    -0.272 OA
ATOM     42  G   UNL     1     -10.451   0.250 -16.558  1.00  0.00     0.000 G0
ENDBRANCH  35  40
ENDBRANCH  31  34
ENDBRANCH   2  30
ENDBRANCH   1   2
BRANCH   1  43
ATOM     43  C   UNL     1     -12.428   3.597 -21.825  1.00  0.00     0.003 C 
BRANCH  43  44
ATOM     44  C   UNL     1     -12.389   5.141 -21.759  1.00  0.00     0.001 C 
BRANCH  44  45
ATOM     45  C   UNL     1     -13.707   5.742 -21.228  1.00  0.00     0.008 C 
BRANCH  45  46
ATOM     46  C   UNL     1     -13.894   7.202 -21.674  1.00  0.00     0.075 C 
BRANCH  46  47
ATOM     47  C   UNL     1     -14.152   8.119 -20.506  1.00  0.00     0.132 C 
ATOM     48  O   UNL     1     -13.319   8.966 -20.218  1.00  0.00    -0.300 OA
BRANCH  47  49
ATOM     49  C   UNL     1     -15.415   8.021 -19.699  1.00  0.00     0.072 C 
ATOM     50  C   UNL     1     -15.559   6.642 -19.060  1.00  0.00     0.012 C 
ENDBRANCH  47  49
ENDBRANCH  46  47
ENDBRANCH  45  46
ENDBRANCH  44  45
ENDBRANCH  43  44
ENDBRANCH   1  43
TORSDOF 12
ENDMDL
MODEL 2
REMARK VINA RESULT:    80.278      2.754      8.685
REMARK INTER + INTRA:         173.235
REMARK INTER:                 167.773
REMARK INTRA:                   5.462
REMARK UNBOUND:                 3.790
REMARK SMILES CCC(=O)CCCCC[C@H]1NC(=O)[C@H]2CCCCN2C(=O)[C@@H]([C@H](C)CC)NC(=O)[C@@H](Cc2cn(OC)c3ccccc23)NC1=O
REMARK SMILES IDX 9 1 10 2 44 3 43 4 45 6 30 7 28 8 27 9 29 11 22 12 23 14
REMARK SMILES IDX 24 15 25 16 26 17 31 18 32 19 33 20 42 21 34 22 37 23 41 24
REMARK SMILES IDX 38 25 40 26 39 27 35 28 36 29 11 30 12 31 13 33 14 34 19 35
REMARK SMILES IDX 15 36 18 37 16 38 17 39 20 40 21 41 8 43 7 44 6 45 5 46 3 47
REMARK SMILES IDX 4 48 2 49 1 50
REMARK H PARENT 43 5 27 10 11 32
REMARK Flexibility Score: 80.00
ROOT
ATOM      1  C   UNL     1     -11.000   7.533 -16.822  1.00  0.00     0.035 C 
ENDROOT
BRANCH   1   2
ATOM      2  C   UNL     1     -11.800   6.867 -15.683  1.00  0.00     0.171 C 
BRANCH   2   3
ATOM      3  C   UNL     1     -11.940   5.384 -15.920  1.00  0.00     0.243 C 
ATOM      4  N   UNL     1     -11.938   4.848 -17.250  1.00  0.00    -0.342 N 
ATOM      5  H   UNL     1     -11.473   5.404 -18.005  1.00  0.00     0.164 HD
ATOM      6  O   UNL     1     -12.109   4.613 -14.937  1.00  0.00    -0.273 OA
BRANCH   4   7
ATOM      7  C   UNL     1     -12.906   3.824 -17.648  1.00  0.00     0.175 C 
BRANCH   7   8
ATOM      8  C   UNL     1     -14.040   4.483 -18.394  1.00  0.00     0.243 C 
ATOM      9  N   UNL     1     -13.771   5.569 -19.294  1.00  0.00    -0.342 N 
ATOM     10  H   UNL     1     -12.772   5.787 -19.526  1.00  0.00     0.164 HD
ATOM     11  O   UNL     1     -15.217   4.057 -18.239  1.00  0.00    -0.273 OA
BRANCH   9  12
ATOM     12  C   UNL     1     -14.833   6.351 -19.931  1.00  0.00     0.174 CG0
ATOM     13  G   UNL     1     -14.999   7.665 -19.200  1.00  0.00     0.000 G0
BRANCH  12  14
ATOM     14  C   UNL     1     -14.558   6.501 -21.457  1.00  0.00     0.018 C 
ATOM     15  C   UNL     1     -13.732   7.762 -21.796  1.00  0.00     0.010 C 
BRANCH  14  16
ATOM     16  C   UNL     1     -15.876   6.449 -22.270  1.00  0.00     0.002 C 
ATOM     17  C   UNL     1     -16.022   5.160 -23.081  1.00  0.00     0.004 C 
ENDBRANCH  14  16
ENDBRANCH  12  14
ENDBRANCH   9  12
ENDBRANCH   7   8
BRANCH   7  18
ATOM     18  C   UNL     1     -12.225   2.754 -18.524  1.00  0.00     0.073 C 
BRANCH  18  19
ATOM     19  C   UNL     1     -12.487   1.367 -18.007  1.00  0.00    -0.016 A 
ATOM     20  C   UNL     1     -13.423   1.009 -17.045  1.00  0.00     0.134 A 
ATOM     21  C   UNL     1     -11.753   0.225 -18.261  1.00  0.00     0.006 A 
ATOM     22  N   UNL     1     -13.300  -0.299 -16.731  1.00  0.00    -0.191 N 
ATOM     23  C   UNL     1     -12.269  -0.780 -17.473  1.00  0.00     0.087 A 
ATOM     24  C   UNL     1     -10.630   0.040 -19.070  1.00  0.00     0.011 A 
ATOM     25  C   UNL     1     -11.659  -2.044 -17.451  1.00  0.00     0.030 A 
ATOM     26  C   UNL     1     -10.015  -1.220 -19.065  1.00  0.00     0.001 A 
ATOM     27  C   UNL     1     -10.528  -2.254 -18.260  1.00  0.00     0.002 A 
BRANCH  22  28
ATOM     28  O   UNL     1     -14.132  -0.927 -15.818  1.00  0.00    -0.417 OA
ATOM     29  C   UNL     1     -14.739  -2.196 -16.021  1.00  0.00     0.313 C 
ENDBRANCH  22  28
ENDBRANCH  18  19
ENDBRANCH   7  18
ENDBRANCH   4   7
ENDBRANCH   2   3
BRANCH   2  30
ATOM     30  N   UNL     1     -13.130   7.474 -15.541  1.00  0.00    -0.343 N 
ATOM     31  C   UNL     1     -13.772   8.148 -16.637  1.00  0.00     0.243 C 
ATOM     32  H   UNL     1     -13.663   7.352 -14.650  1.00  0.00     0.164 HD
ATOM     33  O   UNL     1     -13.071   8.661 -17.552  1.00  0.00    -0.273 OA
BRANCH  31  34
ATOM     34  C   UNL     1     -15.278   8.221 -16.744  1.00  0.00     0.174 C 
ATOM     35  N   UNL     1     -15.814   7.757 -18.037  1.00  0.00    -0.329 N 
ATOM     36  C   UNL     1     -15.799   9.643 -16.463  1.00  0.00     0.035 C 
ATOM     37  C   UNL     1     -17.276   7.737 -18.167  1.00  0.00     0.120 C 
ATOM     38  C   UNL     1     -17.332   9.664 -16.521  1.00  0.00     0.004 C 
ATOM     39  C   UNL     1     -17.848   9.129 -17.868  1.00  0.00     0.022 C 
BRANCH  35  40
ATOM     40  C   UNL     1     -15.013   7.707 -19.229  1.00  0.00     0.246 CG0
ATOM     41  O   UNL     1     -14.480   8.769 -19.653  1.00  0.00    -0.272 OA
ATOM     42  G   UNL     1     -14.768   6.389 -19.927  1.00  0.00     0.000 G0
ENDBRANCH  35  40
ENDBRANCH  31  34
ENDBRANCH   2  30
ENDBRANCH   1   2
BRANCH   1  43
ATOM     43  C   UNL     1     -10.669   9.010 -16.543  1.00  0.00     0.003 C 
BRANCH  43  44
ATOM     44  C   UNL     1     -11.532   9.999 -17.362  1.00  0.00     0.001 C 
BRANCH  44  45
ATOM     45  C   UNL     1     -11.491  11.431 -16.791  1.00  0.00     0.008 C 
BRANCH  45  46
ATOM     46  C   UNL     1     -12.867  12.115 -16.854  1.00  0.00     0.075 C 
BRANCH  46  47
ATOM     47  C   UNL     1     -12.759  13.563 -17.259  1.00  0.00     0.132 C 
ATOM     48  O   UNL     1     -13.441  13.976 -18.186  1.00  0.00    -0.300 OA
BRANCH  47  49
ATOM     49  C   UNL     1     -11.840  14.508 -16.539  1.00  0.00     0.072 C 
ATOM     50  C   UNL     1     -12.110  14.508 -15.037  1.00  0.00     0.012 C 
ENDBRANCH  47  49
ENDBRANCH  46  47
ENDBRANCH  45  46
ENDBRANCH  44  45
ENDBRANCH  43  44
ENDBRANCH   1  43
TORSDOF 12
ENDMDL
MODEL 3
REMARK VINA RESULT:    80.951      2.660      8.439
REMARK INTER + INTRA:         174.657
REMARK INTER:                 170.117
REMARK INTRA:                   4.539
REMARK UNBOUND:                 3.790
REMARK SMILES CCC(=O)CCCCC[C@H]1NC(=O)[C@H]2CCCCN2C(=O)[C@@H]([C@H](C)CC)NC(=O)[C@@H](Cc2cn(OC)c3ccccc23)NC1=O
REMARK SMILES IDX 9 1 10 2 44 3 43 4 45 6 30 7 28 8 27 9 29 11 22 12 23 14
REMARK SMILES IDX 24 15 25 16 26 17 31 18 32 19 33 20 42 21 34 22 37 23 41 24
REMARK SMILES IDX 38 25 40 26 39 27 35 28 36 29 11 30 12 31 13 33 14 34 19 35
REMARK SMILES IDX 15 36 18 37 16 38 17 39 20 40 21 41 8 43 7 44 6 45 5 46 3 47
REMARK SMILES IDX 4 48 2 49 1 50
REMARK H PARENT 43 5 27 10 11 32
REMARK Flexibility Score: 80.00
ROOT
ATOM      1  C   UNL     1     -11.019   7.075 -17.128  1.00  0.00     0.035 C 
ENDROOT
BRANCH   1   2
ATOM      2  C   UNL     1     -11.760   6.473 -15.915  1.00  0.00     0.171 C 
BRANCH   2   3
ATOM      3  C   UNL     1     -12.151   5.040 -16.182  1.00  0.00     0.243 C 
ATOM      4  N   UNL     1     -12.391   4.580 -17.519  1.00  0.00    -0.342 N 
ATOM      5  H   UNL     1     -11.941   5.100 -18.308  1.00  0.00     0.164 HD
ATOM      6  O   UNL     1     -12.315   4.253 -15.212  1.00  0.00    -0.273 OA
BRANCH   4   7
ATOM      7  C   UNL     1     -13.544   3.731 -17.824  1.00  0.00     0.175 C 
BRANCH   7   8
ATOM      8  C   UNL     1     -14.604   4.565 -18.501  1.00  0.00     0.243 C 
ATOM      9  N   UNL     1     -14.232   5.750 -19.221  1.00  0.00    -0.342 N 
ATOM     10  H   UNL     1     -13.213   5.932 -19.386  1.00  0.00     0.164 HD
ATOM     11  O   UNL     1     -15.810   4.201 -18.448  1.00  0.00    -0.273 OA
BRANCH   9  12
ATOM     12  C   UNL     1     -15.216   6.686 -19.769  1.00  0.00     0.174 CG0
ATOM     13  G   UNL     1     -15.181   7.975 -18.979  1.00  0.00     0.000 G0
BRANCH  12  14
ATOM     14  C   UNL     1     -14.999   6.871 -21.300  1.00  0.00     0.018 C 
ATOM     15  C   UNL     1     -15.833   5.885 -22.148  1.00  0.00     0.010 C 
BRANCH  14  16
ATOM     16  C   UNL     1     -13.494   6.801 -21.664  1.00  0.00     0.002 C 
ATOM     17  C   UNL     1     -13.187   5.733 -22.716  1.00  0.00     0.004 C 
ENDBRANCH  14  16
ENDBRANCH  12  14
ENDBRANCH   9  12
ENDBRANCH   7   8
BRANCH   7  18
ATOM     18  C   UNL     1     -13.120   2.553 -18.723  1.00  0.00     0.073 C 
BRANCH  18  19
ATOM     19  C   UNL     1     -12.199   1.609 -18.002  1.00  0.00    -0.016 A 
ATOM     20  C   UNL     1     -10.951   1.916 -17.475  1.00  0.00     0.134 A 
ATOM     21  C   UNL     1     -12.338   0.241 -17.868  1.00  0.00     0.006 A 
ATOM     22  N   UNL     1     -10.348   0.801 -17.010  1.00  0.00    -0.191 N 
ATOM     23  C   UNL     1     -11.196  -0.230 -17.258  1.00  0.00     0.087 A 
ATOM     24  C   UNL     1     -13.353  -0.606 -18.314  1.00  0.00     0.011 A 
ATOM     25  C   UNL     1     -11.013  -1.609 -17.072  1.00  0.00     0.030 A 
ATOM     26  C   UNL     1     -13.189  -1.987 -18.128  1.00  0.00     0.001 A 
ATOM     27  C   UNL     1     -12.024  -2.482 -17.511  1.00  0.00     0.002 A 
BRANCH  22  28
ATOM     28  O   UNL     1      -9.103   0.826 -16.404  1.00  0.00    -0.417 OA
ATOM     29  C   UNL     1      -8.320  -0.327 -16.120  1.00  0.00     0.313 C 
ENDBRANCH  22  28
ENDBRANCH  18  19
ENDBRANCH   7  18
ENDBRANCH   4   7
ENDBRANCH   2   3
BRANCH   2  30
ATOM     30  N   UNL     1     -12.954   7.259 -15.577  1.00  0.00    -0.343 N 
ATOM     31  C   UNL     1     -13.579   8.130 -16.535  1.00  0.00     0.243 C 
ATOM     32  H   UNL     1     -13.414   7.129 -14.647  1.00  0.00     0.164 HD
ATOM     33  O   UNL     1     -12.895   8.620 -17.474  1.00  0.00    -0.273 OA
BRANCH  31  34
ATOM     34  C   UNL     1     -15.057   8.443 -16.470  1.00  0.00     0.174 C 
ATOM     35  N   UNL     1     -15.795   8.129 -17.707  1.00  0.00    -0.329 N 
ATOM     36  C   UNL     1     -15.310   9.914 -16.091  1.00  0.00     0.035 C 
ATOM     37  C   UNL     1     -17.247   8.344 -17.673  1.00  0.00     0.120 C 
ATOM     38  C   UNL     1     -16.817  10.177 -15.975  1.00  0.00     0.004 C 
ATOM     39  C   UNL     1     -17.553   9.793 -17.270  1.00  0.00     0.022 C 
BRANCH  35  40
ATOM     40  C   UNL     1     -15.144   8.011 -18.983  1.00  0.00     0.246 CG0
ATOM     41  O   UNL     1     -14.485   8.990 -19.427  1.00  0.00    -0.272 OA
ATOM     42  G   UNL     1     -15.203   6.709 -19.750  1.00  0.00     0.000 G0
ENDBRANCH  35  40
ENDBRANCH  31  34
ENDBRANCH   2  30
ENDBRANCH   1   2
BRANCH   1  43
ATOM     43  C   UNL     1     -10.396   8.451 -16.831  1.00  0.00     0.003 C 
BRANCH  43  44
ATOM     44  C   UNL     1     -11.153   9.626 -17.493  1.00  0.00     0.001 C 
BRANCH  44  45
ATOM     45  C   UNL     1     -11.032  10.935 -16.687  1.00  0.00     0.008 C 
BRANCH  45  46
ATOM     46  C   UNL     1     -11.140  12.177 -17.587  1.00  0.00     0.075 C 
BRANCH  46  47
ATOM     47  C   UNL     1     -12.151  13.166 -17.065  1.00  0.00     0.132 C 
ATOM     48  O   UNL     1     -12.381  13.205 -15.864  1.00  0.00    -0.300 OA
BRANCH  47  49
ATOM     49  C   UNL     1     -12.870  14.108 -17.986  1.00  0.00     0.072 C 
ATOM     50  C   UNL     1     -14.383  13.949 -17.871  1.00  0.00     0.012 C 
ENDBRANCH  47  49
ENDBRANCH  46  47
ENDBRANCH  45  46
ENDBRANCH  44  45
ENDBRANCH  43  44
ENDBRANCH   1  43
TORSDOF 12
ENDMDL
MODEL 4
REMARK VINA RESULT:    80.966      3.040      6.978
REMARK INTER + INTRA:         174.688
REMARK INTER:                 169.658
REMARK INTRA:                   5.030
REMARK UNBOUND:                 3.790
REMARK SMILES CCC(=O)CCCCC[C@H]1NC(=O)[C@H]2CCCCN2C(=O)[C@@H]([C@H](C)CC)NC(=O)[C@@H](Cc2cn(OC)c3ccccc23)NC1=O
REMARK SMILES IDX 9 1 10 2 44 3 43 4 45 6 30 7 28 8 27 9 29 11 22 12 23 14
REMARK SMILES IDX 24 15 25 16 26 17 31 18 32 19 33 20 42 21 34 22 37 23 41 24
REMARK SMILES IDX 38 25 40 26 39 27 35 28 36 29 11 30 12 31 13 33 14 34 19 35
REMARK SMILES IDX 15 36 18 37 16 38 17 39 20 40 21 41 8 43 7 44 6 45 5 46 3 47
REMARK SMILES IDX 4 48 2 49 1 50
REMARK H PARENT 43 5 27 10 11 32
REMARK Flexibility Score: 80.00
ROOT
ATOM      1  C   UNL     1     -14.429  -2.109 -16.577  1.00  0.00     0.035 C 
ENDROOT
BRANCH   1   2
ATOM      2  C   UNL     1     -13.276  -1.192 -16.117  1.00  0.00     0.171 C 
BRANCH   2   3
ATOM      3  C   UNL     1     -13.681   0.260 -16.194  1.00  0.00     0.243 C 
ATOM      4  N   UNL     1     -14.078   0.847 -17.440  1.00  0.00    -0.342 N 
ATOM      5  H   UNL     1     -14.448   0.216 -18.188  1.00  0.00     0.164 HD
ATOM      6  O   UNL     1     -13.620   0.975 -15.158  1.00  0.00    -0.273 OA
BRANCH   4   7
ATOM      7  C   UNL     1     -13.586   2.168 -17.838  1.00  0.00     0.175 C 
BRANCH   7   8
ATOM      8  C   UNL     1     -12.624   2.008 -18.989  1.00  0.00     0.243 C 
ATOM      9  N   UNL     1     -12.162   0.701 -19.361  1.00  0.00    -0.342 N 
ATOM     10  H   UNL     1     -12.617  -0.132 -18.917  1.00  0.00     0.164 HD
ATOM     11  O   UNL     1     -12.250   3.026 -19.633  1.00  0.00    -0.273 OA
BRANCH   9  12
ATOM     12  C   UNL     1     -11.115   0.486 -20.363  1.00  0.00     0.174 CG0
ATOM     13  G   UNL     1     -10.277  -0.709 -19.968  1.00  0.00     0.000 G0
BRANCH  12  14
ATOM     14  C   UNL     1     -11.736   0.387 -21.787  1.00  0.00     0.018 C 
ATOM     15  C   UNL     1     -13.262   0.147 -21.760  1.00  0.00     0.010 C 
BRANCH  14  16
ATOM     16  C   UNL     1     -11.008  -0.681 -22.642  1.00  0.00     0.002 C 
ATOM     17  C   UNL     1     -11.972  -1.649 -23.329  1.00  0.00     0.004 C 
ENDBRANCH  14  16
ENDBRANCH  12  14
ENDBRANCH   9  12
ENDBRANCH   7   8
BRANCH   7  18
ATOM     18  C   UNL     1     -14.764   3.081 -18.233  1.00  0.00     0.073 C 
BRANCH  18  19
ATOM     19  C   UNL     1     -14.386   4.535 -18.159  1.00  0.00    -0.016 A 
ATOM     20  C   UNL     1     -13.844   5.190 -17.061  1.00  0.00     0.134 A 
ATOM     21  C   UNL     1     -14.652   5.519 -19.091  1.00  0.00     0.006 A 
ATOM     22  N   UNL     1     -13.749   6.516 -17.303  1.00  0.00    -0.191 N 
ATOM     23  C   UNL     1     -14.252   6.720 -18.547  1.00  0.00     0.087 A 
ATOM     24  C   UNL     1     -15.284   5.433 -20.332  1.00  0.00     0.011 A 
ATOM     25  C   UNL     1     -14.484   7.919 -19.237  1.00  0.00     0.030 A 
ATOM     26  C   UNL     1     -15.515   6.622 -21.038  1.00  0.00     0.001 A 
ATOM     27  C   UNL     1     -15.117   7.857 -20.491  1.00  0.00     0.002 A 
BRANCH  22  28
ATOM     28  O   UNL     1     -13.212   7.403 -16.384  1.00  0.00    -0.417 OA
ATOM     29  C   UNL     1     -13.954   8.408 -15.705  1.00  0.00     0.313 C 
ENDBRANCH  22  28
ENDBRANCH  18  19
ENDBRANCH   7  18
ENDBRANCH   4   7
ENDBRANCH   2   3
BRANCH   2  30
ATOM     30  N   UNL     1     -12.067  -1.413 -16.921  1.00  0.00    -0.343 N 
ATOM     31  C   UNL     1     -11.119  -0.359 -17.163  1.00  0.00     0.243 C 
ATOM     32  H   UNL     1     -11.841  -2.374 -17.265  1.00  0.00     0.164 HD
ATOM     33  O   UNL     1     -11.500   0.843 -17.133  1.00  0.00    -0.273 OA
BRANCH  31  34
ATOM     34  C   UNL     1      -9.658  -0.654 -17.411  1.00  0.00     0.174 C 
ATOM     35  N   UNL     1      -9.263  -0.599 -18.830  1.00  0.00    -0.329 N 
ATOM     36  C   UNL     1      -9.246  -2.019 -16.827  1.00  0.00     0.035 C 
ATOM     37  C   UNL     1      -7.839  -0.804 -19.120  1.00  0.00     0.120 C 
ATOM     38  C   UNL     1      -7.746  -2.256 -17.043  1.00  0.00     0.004 C 
ATOM     39  C   UNL     1      -7.372  -2.142 -18.532  1.00  0.00     0.022 C 
BRANCH  35  40
ATOM     40  C   UNL     1     -10.213  -0.739 -19.899  1.00  0.00     0.246 CG0
ATOM     41  O   UNL     1     -10.361  -1.868 -20.442  1.00  0.00    -0.272 OA
ATOM     42  G   UNL     1     -11.063   0.438 -20.323  1.00  0.00     0.000 G0
ENDBRANCH  35  40
ENDBRANCH  31  34
ENDBRANCH   2  30
ENDBRANCH   1   2
BRANCH   1  43
ATOM     43  C   UNL     1     -14.706  -3.265 -15.598  1.00  0.00     0.003 C 
BRANCH  43  44
ATOM     44  C   UNL     1     -14.419  -2.904 -14.122  1.00  0.00     0.001 C 
BRANCH  44  45
ATOM     45  C   UNL     1     -14.378  -4.145 -13.208  1.00  0.00     0.008 C 
BRANCH  45  46
ATOM     46  C   UNL     1     -14.079  -3.774 -11.746  1.00  0.00     0.075 C 
BRANCH  46  47
ATOM     47  C   UNL     1     -15.249  -3.089 -11.088  1.00  0.00     0.132 C 
ATOM     48  O   UNL     1     -16.349  -3.622 -11.121  1.00  0.00    -0.300 OA
BRANCH  47  49
ATOM     49  C   UNL     1     -15.088  -1.772 -10.384  1.00  0.00     0.072 C 
ATOM     50  C   UNL     1     -13.642  -1.549  -9.950  1.00  0.00     0.012 C 
ENDBRANCH  47  49
ENDBRANCH  46  47
ENDBRANCH  45  46
ENDBRANCH  44  45
ENDBRANCH  43  44
ENDBRANCH   1  43
TORSDOF 12
ENDMDL
MODEL 5
REMARK VINA RESULT:    81.387      1.608      2.359
REMARK INTER + INTRA:         175.576
REMARK INTER:                 165.852
REMARK INTRA:                   9.724
REMARK UNBOUND:                 3.790
REMARK SMILES CCC(=O)CCCCC[C@H]1NC(=O)[C@H]2CCCCN2C(=O)[C@@H]([C@H](C)CC)NC(=O)[C@@H](Cc2cn(OC)c3ccccc23)NC1=O
REMARK SMILES IDX 9 1 10 2 44 3 43 4 45 6 30 7 28 8 27 9 29 11 22 12 23 14
REMARK SMILES IDX 24 15 25 16 26 17 31 18 32 19 33 20 42 21 34 22 37 23 41 24
REMARK SMILES IDX 38 25 40 26 39 27 35 28 36 29 11 30 12 31 13 33 14 34 19 35
REMARK SMILES IDX 15 36 18 37 16 38 17 39 20 40 21 41 8 43 7 44 6 45 5 46 3 47
REMARK SMILES IDX 4 48 2 49 1 50
REMARK H PARENT 43 5 27 10 11 32
REMARK Flexibility Score: 80.00
ROOT
ATOM      1  C   UNL     1     -12.437   4.292 -21.258  1.00  0.00     0.035 C 
ENDROOT
BRANCH   1   2
ATOM      2  C   UNL     1     -13.148   3.479 -20.155  1.00  0.00     0.171 C 
BRANCH   2   3
ATOM      3  C   UNL     1     -13.288   4.294 -18.893  1.00  0.00     0.243 C 
ATOM      4  N   UNL     1     -12.133   4.685 -18.138  1.00  0.00    -0.342 N 
ATOM      5  H   UNL     1     -11.215   4.742 -18.636  1.00  0.00     0.164 HD
ATOM      6  O   UNL     1     -14.439   4.592 -18.474  1.00  0.00    -0.273 OA
BRANCH   4   7
ATOM      7  C   UNL     1     -12.119   4.573 -16.678  1.00  0.00     0.175 C 
BRANCH   7   8
ATOM      8  C   UNL     1     -11.382   3.315 -16.289  1.00  0.00     0.243 C 
ATOM      9  N   UNL     1     -11.790   2.049 -16.829  1.00  0.00    -0.342 N 
ATOM     10  H   UNL     1     -12.502   2.042 -17.599  1.00  0.00     0.164 HD
ATOM     11  O   UNL     1     -10.395   3.388 -15.508  1.00  0.00    -0.273 OA
BRANCH   9  12
ATOM     12  C   UNL     1     -11.223   0.775 -16.380  1.00  0.00     0.174 CG0
ATOM     13  G   UNL     1     -12.234  -0.329 -16.589  1.00  0.00     0.000 G0
BRANCH  12  14
ATOM     14  C   UNL     1      -9.848   0.519 -17.066  1.00  0.00     0.018 C 
ATOM     15  C   UNL     1      -9.936  -0.503 -18.220  1.00  0.00     0.010 C 
BRANCH  14  16
ATOM     16  C   UNL     1      -8.772   0.113 -16.028  1.00  0.00     0.002 C 
ATOM     17  C   UNL     1      -7.981  -1.128 -16.448  1.00  0.00     0.004 C 
ENDBRANCH  14  16
ENDBRANCH  12  14
ENDBRANCH   9  12
ENDBRANCH   7   8
BRANCH   7  18
ATOM     18  C   UNL     1     -11.450   5.813 -16.052  1.00  0.00     0.073 C 
BRANCH  18  19
ATOM     19  C   UNL     1     -12.380   6.994 -16.036  1.00  0.00    -0.016 A 
ATOM     20  C   UNL     1     -13.724   6.980 -15.686  1.00  0.00     0.134 A 
ATOM     21  C   UNL     1     -12.128   8.266 -16.512  1.00  0.00     0.006 A 
ATOM     22  N   UNL     1     -14.282   8.191 -15.906  1.00  0.00    -0.191 N 
ATOM     23  C   UNL     1     -13.304   8.979 -16.421  1.00  0.00     0.087 A 
ATOM     24  C   UNL     1     -10.972   8.798 -17.083  1.00  0.00     0.011 A 
ATOM     25  C   UNL     1     -13.375  10.288 -16.922  1.00  0.00     0.030 A 
ATOM     26  C   UNL     1     -11.024  10.109 -17.580  1.00  0.00     0.001 A 
ATOM     27  C   UNL     1     -12.221  10.847 -17.499  1.00  0.00     0.002 A 
BRANCH  22  28
ATOM     28  O   UNL     1     -15.608   8.463 -15.614  1.00  0.00    -0.417 OA
ATOM     29  C   UNL     1     -16.294   9.645 -16.007  1.00  0.00     0.313 C 
ENDBRANCH  22  28
ENDBRANCH  18  19
ENDBRANCH   7  18
ENDBRANCH   4   7
ENDBRANCH   2   3
BRANCH   2  30
ATOM     30  N   UNL     1     -12.427   2.233 -19.864  1.00  0.00    -0.343 N 
ATOM     31  C   UNL     1     -12.959   1.249 -18.960  1.00  0.00     0.243 C 
ATOM     32  H   UNL     1     -11.545   2.011 -20.378  1.00  0.00     0.164 HD
ATOM     33  O   UNL     1     -13.757   1.603 -18.050  1.00  0.00    -0.273 OA
BRANCH  31  34
ATOM     34  C   UNL     1     -12.617  -0.217 -19.100  1.00  0.00     0.174 C 
ATOM     35  N   UNL     1     -12.544  -0.945 -17.820  1.00  0.00    -0.329 N 
ATOM     36  C   UNL     1     -11.301  -0.422 -19.873  1.00  0.00     0.035 C 
ATOM     37  C   UNL     1     -12.289  -2.388 -17.903  1.00  0.00     0.120 C 
ATOM     38  C   UNL     1     -11.019  -1.920 -20.048  1.00  0.00     0.004 C 
ATOM     39  C   UNL     1     -10.998  -2.647 -18.692  1.00  0.00     0.022 C 
BRANCH  35  40
ATOM     40  C   UNL     1     -12.329  -0.277 -16.566  1.00  0.00     0.246 CG0
ATOM     41  O   UNL     1     -13.045  -0.590 -15.575  1.00  0.00    -0.272 OA
ATOM     42  G   UNL     1     -11.221   0.742 -16.425  1.00  0.00     0.000 G0
ENDBRANCH  35  40
ENDBRANCH  31  34
ENDBRANCH   2  30
ENDBRANCH   1   2
BRANCH   1  43
ATOM     43  C   UNL     1     -12.943   3.958 -22.674  1.00  0.00     0.003 C 
BRANCH  43  44
ATOM     44  C   UNL     1     -12.806   5.134 -23.669  1.00  0.00     0.001 C 
BRANCH  44  45
ATOM     45  C   UNL     1     -14.013   6.094 -23.617  1.00  0.00     0.008 C 
BRANCH  45  46
ATOM     46  C   UNL     1     -14.908   5.827 -22.396  1.00  0.00     0.075 C 
BRANCH  46  47
ATOM     47  C   UNL     1     -14.580   6.743 -21.245  1.00  0.00     0.132 C 
ATOM     48  O   UNL     1     -13.536   7.380 -21.269  1.00  0.00    -0.300 OA
BRANCH  47  49
ATOM     49  C   UNL     1     -15.512   6.897 -20.078  1.00  0.00     0.072 C 
ATOM     50  C   UNL     1     -15.079   8.043 -19.169  1.00  0.00     0.012 C 
ENDBRANCH  47  49
ENDBRANCH  46  47
ENDBRANCH  45  46
ENDBRANCH  44  45
ENDBRANCH  43  44
ENDBRANCH   1  43
TORSDOF 12
ENDMDL
MODEL 6
REMARK VINA RESULT:    82.355      2.700      7.093
REMARK INTER + INTRA:         177.620
REMARK INTER:                 172.668
REMARK INTRA:                   4.953
REMARK UNBOUND:                 3.790
REMARK SMILES CCC(=O)CCCCC[C@H]1NC(=O)[C@H]2CCCCN2C(=O)[C@@H]([C@H](C)CC)NC(=O)[C@@H](Cc2cn(OC)c3ccccc23)NC1=O
REMARK SMILES IDX 9 1 10 2 44 3 43 4 45 6 30 7 28 8 27 9 29 11 22 12 23 14
REMARK SMILES IDX 24 15 25 16 26 17 31 18 32 19 33 20 42 21 34 22 37 23 41 24
REMARK SMILES IDX 38 25 40 26 39 27 35 28 36 29 11 30 12 31 13 33 14 34 19 35
REMARK SMILES IDX 15 36 18 37 16 38 17 39 20 40 21 41 8 43 7 44 6 45 5 46 3 47
REMARK SMILES IDX 4 48 2 49 1 50
REMARK H PARENT 43 5 27 10 11 32
REMARK Flexibility Score: 80.00
ROOT
ATOM      1  C   UNL     1     -13.673   7.008 -19.462  1.00  0.00     0.035 C 
ENDROOT
BRANCH   1   2
ATOM      2  C   UNL     1     -14.989   6.241 -19.706  1.00  0.00     0.171 C 
BRANCH   2   3
ATOM      3  C   UNL     1     -14.999   4.937 -18.947  1.00  0.00     0.243 C 
ATOM      4  N   UNL     1     -14.004   4.657 -17.953  1.00  0.00    -0.342 N 
ATOM      5  H   UNL     1     -13.525   5.465 -17.493  1.00  0.00     0.164 HD
ATOM      6  O   UNL     1     -15.865   4.065 -19.227  1.00  0.00    -0.273 OA
BRANCH   4   7
ATOM      7  C   UNL     1     -13.353   3.347 -17.892  1.00  0.00     0.175 C 
BRANCH   7   8
ATOM      8  C   UNL     1     -13.166   2.825 -19.295  1.00  0.00     0.243 C 
ATOM      9  N   UNL     1     -12.184   3.419 -20.157  1.00  0.00    -0.342 N 
ATOM     10  H   UNL     1     -11.513   4.110 -19.743  1.00  0.00     0.164 HD
ATOM     11  O   UNL     1     -13.861   1.850 -19.695  1.00  0.00    -0.273 OA
BRANCH   9  12
ATOM     12  C   UNL     1     -12.054   3.067 -21.573  1.00  0.00     0.174 CG0
ATOM     13  G   UNL     1     -12.024   4.329 -22.405  1.00  0.00     0.000 G0
BRANCH  12  14
ATOM     14  C   UNL     1     -10.830   2.130 -21.792  1.00  0.00     0.018 C 
ATOM     15  C   UNL     1     -10.802   0.941 -20.806  1.00  0.00     0.010 C 
BRANCH  14  16
ATOM     16  C   UNL     1      -9.502   2.927 -21.759  1.00  0.00     0.002 C 
ATOM     17  C   UNL     1      -8.847   3.046 -23.137  1.00  0.00     0.004 C 
ENDBRANCH  14  16
ENDBRANCH  12  14
ENDBRANCH   9  12
ENDBRANCH   7   8
BRANCH   7  18
ATOM     18  C   UNL     1     -11.998   3.455 -17.165  1.00  0.00     0.073 C 
BRANCH  18  19
ATOM     19  C   UNL     1     -11.334   2.113 -17.027  1.00  0.00    -0.016 A 
ATOM     20  C   UNL     1      -9.977   1.881 -16.847  1.00  0.00     0.134 A 
ATOM     21  C   UNL     1     -11.908   0.871 -17.213  1.00  0.00     0.006 A 
ATOM     22  N   UNL     1      -9.715   0.556 -16.891  1.00  0.00    -0.191 N 
ATOM     23  C   UNL     1     -10.900  -0.065 -17.123  1.00  0.00     0.087 A 
ATOM     24  C   UNL     1     -13.223   0.527 -17.529  1.00  0.00     0.011 A 
ATOM     25  C   UNL     1     -11.172  -1.420 -17.363  1.00  0.00     0.030 A 
ATOM     26  C   UNL     1     -13.513  -0.825 -17.763  1.00  0.00     0.001 A 
ATOM     27  C   UNL     1     -12.491  -1.791 -17.680  1.00  0.00     0.002 A 
BRANCH  22  28
ATOM     28  O   UNL     1      -8.442   0.043 -16.709  1.00  0.00    -0.417 OA
ATOM     29  C   UNL     1      -8.128  -1.344 -16.679  1.00  0.00     0.313 C 
ENDBRANCH  22  28
ENDBRANCH  18  19
ENDBRANCH   7  18
ENDBRANCH   4   7
ENDBRANCH   2   3
BRANCH   2  30
ATOM     30  N   UNL     1     -15.199   5.985 -21.137  1.00  0.00    -0.343 N 
ATOM     31  C   UNL     1     -14.215   6.350 -22.120  1.00  0.00     0.243 C 
ATOM     32  H   UNL     1     -16.044   5.455 -21.450  1.00  0.00     0.164 HD
ATOM     33  O   UNL     1     -13.416   7.296 -21.883  1.00  0.00    -0.273 OA
BRANCH  31  34
ATOM     34  C   UNL     1     -14.086   5.596 -23.424  1.00  0.00     0.174 C 
ATOM     35  N   UNL     1     -13.159   4.452 -23.370  1.00  0.00    -0.329 N 
ATOM     36  C   UNL     1     -13.672   6.527 -24.579  1.00  0.00     0.035 C 
ATOM     37  C   UNL     1     -13.053   3.640 -24.588  1.00  0.00     0.120 C 
ATOM     38  C   UNL     1     -13.611   5.740 -25.895  1.00  0.00     0.004 C 
ATOM     39  C   UNL     1     -12.669   4.529 -25.778  1.00  0.00     0.022 C 
BRANCH  35  40
ATOM     40  C   UNL     1     -12.127   4.343 -22.375  1.00  0.00     0.246 CG0
ATOM     41  O   UNL     1     -11.396   5.344 -22.140  1.00  0.00    -0.272 OA
ATOM     42  G   UNL     1     -11.965   3.065 -21.583  1.00  0.00     0.000 G0
ENDBRANCH  35  40
ENDBRANCH  31  34
ENDBRANCH   2  30
ENDBRANCH   1   2
BRANCH   1  43
ATOM     43  C   UNL     1     -13.793   8.517 -19.744  1.00  0.00     0.003 C 
BRANCH  43  44
ATOM     44  C   UNL     1     -12.737   9.369 -19.001  1.00  0.00     0.001 C 
BRANCH  44  45
ATOM     45  C   UNL     1     -12.841   9.232 -17.469  1.00  0.00     0.008 C 
BRANCH  45  46
ATOM     46  C   UNL     1     -14.216   8.700 -17.030  1.00  0.00     0.075 C 
BRANCH  46  47
ATOM     47  C   UNL     1     -14.255   8.388 -15.556  1.00  0.00     0.132 C 
ATOM     48  O   UNL     1     -14.897   9.113 -14.810  1.00  0.00    -0.300 OA
BRANCH  47  49
ATOM     49  C   UNL     1     -13.534   7.199 -14.991  1.00  0.00     0.072 C 
ATOM     50  C   UNL     1     -12.309   6.843 -15.829  1.00  0.00     0.012 C 
ENDBRANCH  47  49
ENDBRANCH  46  47
ENDBRANCH  45  46
ENDBRANCH  44  45
ENDBRANCH  43  44
ENDBRANCH   1  43
TORSDOF 12
ENDMDL
MODEL 7
REMARK VINA RESULT:    82.449      2.953      8.606
REMARK INTER + INTRA:         177.819
REMARK INTER:                 168.806
REMARK INTRA:                   9.014
REMARK UNBOUND:                 3.790
REMARK SMILES CCC(=O)CCCCC[C@H]1NC(=O)[C@H]2CCCCN2C(=O)[C@@H]([C@H](C)CC)NC(=O)[C@@H](Cc2cn(OC)c3ccccc23)NC1=O
REMARK SMILES IDX 9 1 10 2 44 3 43 4 45 6 30 7 28 8 27 9 29 11 22 12 23 14
REMARK SMILES IDX 24 15 25 16 26 17 31 18 32 19 33 20 42 21 34 22 37 23 41 24
REMARK SMILES IDX 38 25 40 26 39 27 35 28 36 29 11 30 12 31 13 33 14 34 19 35
REMARK SMILES IDX 15 36 18 37 16 38 17 39 20 40 21 41 8 43 7 44 6 45 5 46 3 47
REMARK SMILES IDX 4 48 2 49 1 50
REMARK H PARENT 43 5 27 10 11 32
REMARK Flexibility Score: 80.00
ROOT
ATOM      1  C   UNL     1     -11.198   7.522 -17.047  1.00  0.00     0.035 C 
ENDROOT
BRANCH   1   2
ATOM      2  C   UNL     1     -11.858   6.875 -15.811  1.00  0.00     0.171 C 
BRANCH   2   3
ATOM      3  C   UNL     1     -12.072   5.397 -16.029  1.00  0.00     0.243 C 
ATOM      4  N   UNL     1     -12.095   4.845 -17.352  1.00  0.00    -0.342 N 
ATOM      5  H   UNL     1     -11.601   5.366 -18.113  1.00  0.00     0.164 HD
ATOM      6  O   UNL     1     -12.281   4.649 -15.036  1.00  0.00    -0.273 OA
BRANCH   4   7
ATOM      7  C   UNL     1     -13.113   3.866 -17.738  1.00  0.00     0.175 C 
BRANCH   7   8
ATOM      8  C   UNL     1     -14.237   4.579 -18.448  1.00  0.00     0.243 C 
ATOM      9  N   UNL     1     -14.020   5.885 -19.003  1.00  0.00    -0.342 N 
ATOM     10  H   UNL     1     -13.040   6.257 -19.031  1.00  0.00     0.164 HD
ATOM     11  O   UNL     1     -15.356   4.011 -18.570  1.00  0.00    -0.273 OA
BRANCH   9  12
ATOM     12  C   UNL     1     -15.101   6.696 -19.568  1.00  0.00     0.174 CG0
ATOM     13  G   UNL     1     -15.162   8.026 -18.850  1.00  0.00     0.000 G0
BRANCH  12  14
ATOM     14  C   UNL     1     -14.946   6.812 -21.113  1.00  0.00     0.018 C 
ATOM     15  C   UNL     1     -15.719   5.715 -21.877  1.00  0.00     0.010 C 
BRANCH  14  16
ATOM     16  C   UNL     1     -13.452   6.847 -21.524  1.00  0.00     0.002 C 
ATOM     17  C   UNL     1     -13.054   5.666 -22.412  1.00  0.00     0.004 C 
ENDBRANCH  14  16
ENDBRANCH  12  14
ENDBRANCH   9  12
ENDBRANCH   7   8
BRANCH   7  18
ATOM     18  C   UNL     1     -12.497   2.781 -18.644  1.00  0.00     0.073 C 
BRANCH  18  19
ATOM     19  C   UNL     1     -12.686   1.405 -18.067  1.00  0.00    -0.016 A 
ATOM     20  C   UNL     1     -13.473   1.072 -16.972  1.00  0.00     0.134 A 
ATOM     21  C   UNL     1     -12.000   0.254 -18.403  1.00  0.00     0.006 A 
ATOM     22  N   UNL     1     -13.310  -0.231 -16.654  1.00  0.00    -0.191 N 
ATOM     23  C   UNL     1     -12.399  -0.732 -17.527  1.00  0.00     0.087 A 
ATOM     24  C   UNL     1     -11.008   0.047 -19.362  1.00  0.00     0.011 A 
ATOM     25  C   UNL     1     -11.798  -1.999 -17.569  1.00  0.00     0.030 A 
ATOM     26  C   UNL     1     -10.403  -1.217 -19.423  1.00  0.00     0.001 A 
ATOM     27  C   UNL     1     -10.797  -2.232 -18.530  1.00  0.00     0.002 A 
BRANCH  22  28
ATOM     28  O   UNL     1     -14.002  -0.835 -15.617  1.00  0.00    -0.417 OA
ATOM     29  C   UNL     1     -14.369  -2.208 -15.585  1.00  0.00     0.313 C 
ENDBRANCH  22  28
ENDBRANCH  18  19
ENDBRANCH   7  18
ENDBRANCH   4   7
ENDBRANCH   2   3
BRANCH   2  30
ATOM     30  N   UNL     1     -13.138   7.519 -15.490  1.00  0.00    -0.343 N 
ATOM     31  C   UNL     1     -13.714   8.518 -16.350  1.00  0.00     0.243 C 
ATOM     32  H   UNL     1     -13.688   7.197 -14.663  1.00  0.00     0.164 HD
ATOM     33  O   UNL     1     -12.967   9.208 -17.095  1.00  0.00    -0.273 OA
BRANCH  31  34
ATOM     34  C   UNL     1     -15.209   8.734 -16.415  1.00  0.00     0.174 C 
ATOM     35  N   UNL     1     -15.837   8.240 -17.654  1.00  0.00    -0.329 N 
ATOM     36  C   UNL     1     -15.578  10.217 -16.219  1.00  0.00     0.035 C 
ATOM     37  C   UNL     1     -17.298   8.357 -17.737  1.00  0.00     0.120 C 
ATOM     38  C   UNL     1     -17.102  10.387 -16.230  1.00  0.00     0.004 C 
ATOM     39  C   UNL     1     -17.719   9.817 -17.519  1.00  0.00     0.022 C 
BRANCH  35  40
ATOM     40  C   UNL     1     -15.091   8.030 -18.864  1.00  0.00     0.246 CG0
ATOM     41  O   UNL     1     -14.418   8.984 -19.342  1.00  0.00    -0.272 OA
ATOM     42  G   UNL     1     -15.068   6.667 -19.518  1.00  0.00     0.000 G0
ENDBRANCH  35  40
ENDBRANCH  31  34
ENDBRANCH   2  30
ENDBRANCH   1   2
BRANCH   1  43
ATOM     43  C   UNL     1     -11.734   8.934 -17.345  1.00  0.00     0.003 C 
BRANCH  43  44
ATOM     44  C   UNL     1     -11.754   9.279 -18.853  1.00  0.00     0.001 C 
BRANCH  44  45
ATOM     45  C   UNL     1     -11.143  10.664 -19.149  1.00  0.00     0.008 C 
BRANCH  45  46
ATOM     46  C   UNL     1     -11.594  11.212 -20.513  1.00  0.00     0.075 C 
BRANCH  46  47
ATOM     47  C   UNL     1     -10.614  12.212 -21.071  1.00  0.00     0.132 C 
ATOM     48  O   UNL     1      -9.416  12.008 -20.943  1.00  0.00    -0.300 OA
BRANCH  47  49
ATOM     49  C   UNL     1     -11.081  13.445 -21.790  1.00  0.00     0.072 C 
ATOM     50  C   UNL     1      -9.985  14.011 -22.689  1.00  0.00     0.012 C 
ENDBRANCH  47  49
ENDBRANCH  46  47
ENDBRANCH  45  46
ENDBRANCH  44  45
ENDBRANCH  43  44
ENDBRANCH   1  43
TORSDOF 12
ENDMDL
