MODEL 1
REMARK VINA RESULT:    -3.014      0.000      0.000
REMARK INTER + INTRA:          -4.340
REMARK INTER:                  -6.361
REMARK INTRA:                   2.021
REMARK UNBOUND:                 2.021
REMARK SMILES CCC(=O)CCCCC[C@H]1NC(=O)[C@@H]2CCCCN2C(=O)[C@H]([C@@H](C)CC)NC(=O)[C@H](Cc2cn(OC)c3ccccc23)NC1=O
REMARK SMILES IDX 9 1 10 2 44 3 43 4 45 6 30 7 28 8 27 9 29 11 22 12 23 14
REMARK SMILES IDX 24 15 25 16 26 17 31 18 32 19 33 20 42 21 34 22 37 23 41 24
REMARK SMILES IDX 38 25 40 26 39 27 35 28 36 29 11 30 12 31 13 33 14 34 19 35
REMARK SMILES IDX 15 36 18 37 16 38 17 39 20 40 21 41 8 43 7 44 6 45 5 46 3 47
REMARK SMILES IDX 4 48 2 49 1 50
REMARK H PARENT 43 5 27 10 11 32
REMARK Flexibility Score: 80.00
ROOT
ATOM      1  C   UNL     1    -114.158  37.669 -13.120  1.00  0.00     0.035 C 
ENDROOT
BRANCH   1   2
ATOM      2  C   UNL     1    -113.320  38.870 -12.627  1.00  0.00     0.171 C 
BRANCH   2   3
ATOM      3  C   UNL     1    -114.122  39.912 -11.884  1.00  0.00     0.243 C 
ATOM      4  N   UNL     1    -115.391  40.380 -12.383  1.00  0.00    -0.342 N 
ATOM      5  H   UNL     1    -115.917  39.752 -13.029  1.00  0.00     0.164 HD
ATOM      6  O   UNL     1    -113.665  40.349 -10.797  1.00  0.00    -0.273 OA
BRANCH   4   7
ATOM      7  C   UNL     1    -115.850  41.779 -12.372  1.00  0.00     0.175 C 
BRANCH   7   8
ATOM      8  C   UNL     1    -114.708  42.697 -12.713  1.00  0.00     0.243 C 
ATOM      9  N   UNL     1    -113.531  42.211 -13.383  1.00  0.00    -0.342 N 
ATOM     10  H   UNL     1    -113.479  41.201 -13.621  1.00  0.00     0.164 HD
ATOM     11  O   UNL     1    -114.801  43.914 -12.400  1.00  0.00    -0.273 OA
BRANCH   9  12
ATOM     12  C   UNL     1    -112.425  43.089 -13.778  1.00  0.00     0.174 CG0
ATOM     13  G   UNL     1    -111.744  42.503 -15.003  1.00  0.00     0.000 G0
BRANCH  12  14
ATOM     14  C   UNL     1    -111.461  43.399 -12.590  1.00  0.00     0.018 C 
ATOM     15  C   UNL     1    -111.490  44.907 -12.278  1.00  0.00     0.010 C 
BRANCH  14  16
ATOM     16  C   UNL     1    -111.816  42.618 -11.284  1.00  0.00     0.002 C 
ATOM     17  C   UNL     1    -112.459  43.508 -10.219  1.00  0.00     0.004 C 
ENDBRANCH  14  16
ENDBRANCH  12  14
ENDBRANCH   9  12
ENDBRANCH   7   8
BRANCH   7  18
ATOM     18  C   UNL     1    -116.562  42.216 -11.077  1.00  0.00     0.073 C 
BRANCH  18  19
ATOM     19  C   UNL     1    -116.558  41.126 -10.042  1.00  0.00    -0.016 A 
ATOM     20  C   UNL     1    -116.876  39.791 -10.237  1.00  0.00     0.134 A 
ATOM     21  C   UNL     1    -116.214  41.236  -8.709  1.00  0.00     0.006 A 
ATOM     22  N   UNL     1    -116.758  39.101  -9.082  1.00  0.00    -0.191 N 
ATOM     23  C   UNL     1    -116.340  39.988  -8.143  1.00  0.00     0.087 A 
ATOM     24  C   UNL     1    -115.779  42.345  -7.979  1.00  0.00     0.011 A 
ATOM     25  C   UNL     1    -116.026  39.785  -6.789  1.00  0.00     0.030 A 
ATOM     26  C   UNL     1    -115.460  42.159  -6.627  1.00  0.00     0.001 A 
ATOM     27  C   UNL     1    -115.584  40.887  -6.037  1.00  0.00     0.002 A 
BRANCH  22  28
ATOM     28  O   UNL     1    -117.027  37.741  -9.006  1.00  0.00    -0.417 OA
ATOM     29  C   UNL     1    -116.072  36.717  -9.232  1.00  0.00     0.313 C 
ENDBRANCH  22  28
ENDBRANCH  18  19
ENDBRANCH   7  18
ENDBRANCH   4   7
ENDBRANCH   2   3
BRANCH   2  30
ATOM     30  N   UNL     1    -112.612  39.502 -13.749  1.00  0.00    -0.343 N 
ATOM     31  C   UNL     1    -111.257  39.957 -13.627  1.00  0.00     0.243 C 
ATOM     32  H   UNL     1    -113.071  39.543 -14.690  1.00  0.00     0.164 HD
ATOM     33  O   UNL     1    -110.728  40.064 -12.486  1.00  0.00    -0.273 OA
BRANCH  31  34
ATOM     34  C   UNL     1    -110.466  40.344 -14.852  1.00  0.00     0.174 C 
ATOM     35  N   UNL     1    -110.442  41.815 -15.036  1.00  0.00    -0.329 N 
ATOM     36  C   UNL     1    -109.046  39.746 -14.739  1.00  0.00     0.035 C 
ATOM     37  C   UNL     1    -109.443  42.387 -15.961  1.00  0.00     0.120 C 
ATOM     38  C   UNL     1    -108.144  40.247 -15.857  1.00  0.00     0.004 C 
ATOM     39  C   UNL     1    -108.058  41.766 -15.785  1.00  0.00     0.022 C 
BRANCH  35  40
ATOM     40  C   UNL     1    -111.720  42.492 -15.046  1.00  0.00     0.246 CG0
ATOM     41  O   UNL     1    -112.381  42.530 -16.124  1.00  0.00    -0.272 OA
ATOM     42  G   UNL     1    -112.355  43.085 -13.801  1.00  0.00     0.000 G0
ENDBRANCH  35  40
ENDBRANCH  31  34
ENDBRANCH   2  30
ENDBRANCH   1   2
BRANCH   1  43
ATOM     43  C   UNL     1    -115.455  38.053 -13.858  1.00  0.00     0.003 C 
BRANCH  43  44
ATOM     44  C   UNL     1    -116.047  36.885 -14.661  1.00  0.00     0.001 C 
BRANCH  44  45
ATOM     45  C   UNL     1    -116.417  35.682 -13.775  1.00  0.00     0.008 C 
BRANCH  45  46
ATOM     46  C   UNL     1    -115.209  34.866 -13.294  1.00  0.00     0.075 C 
BRANCH  46  47
ATOM     47  C   UNL     1    -115.611  33.707 -12.417  1.00  0.00     0.132 C 
ATOM     48  O   UNL     1    -115.711  33.880 -11.210  1.00  0.00    -0.300 OA
BRANCH  47  49
ATOM     49  C   UNL     1    -115.940  32.359 -13.013  1.00  0.00     0.072 C 
ATOM     50  C   UNL     1    -115.611  32.302 -14.502  1.00  0.00     0.012 C 
ENDBRANCH  47  49
ENDBRANCH  46  47
ENDBRANCH  45  46
ENDBRANCH  44  45
ENDBRANCH  43  44
ENDBRANCH   1  43
TORSDOF 12
ENDMDL
MODEL 2
REMARK VINA RESULT:    -1.996      2.020      2.977
REMARK INTER + INTRA:          -2.192
REMARK INTER:                  -4.849
REMARK INTRA:                   2.658
REMARK UNBOUND:                 2.021
REMARK SMILES CCC(=O)CCCCC[C@H]1NC(=O)[C@@H]2CCCCN2C(=O)[C@H]([C@@H](C)CC)NC(=O)[C@H](Cc2cn(OC)c3ccccc23)NC1=O
REMARK SMILES IDX 9 1 10 2 44 3 43 4 45 6 30 7 28 8 27 9 29 11 22 12 23 14
REMARK SMILES IDX 24 15 25 16 26 17 31 18 32 19 33 20 42 21 34 22 37 23 41 24
REMARK SMILES IDX 38 25 40 26 39 27 35 28 36 29 11 30 12 31 13 33 14 34 19 35
REMARK SMILES IDX 15 36 18 37 16 38 17 39 20 40 21 41 8 43 7 44 6 45 5 46 3 47
REMARK SMILES IDX 4 48 2 49 1 50
REMARK H PARENT 43 5 27 10 11 32
REMARK Flexibility Score: 80.00
ROOT
ATOM      1  C   UNL     1    -114.430  37.553 -14.708  1.00  0.00     0.035 C 
ENDROOT
BRANCH   1   2
ATOM      2  C   UNL     1    -113.706  38.612 -13.847  1.00  0.00     0.171 C 
BRANCH   2   3
ATOM      3  C   UNL     1    -114.380  38.890 -12.524  1.00  0.00     0.243 C 
ATOM      4  N   UNL     1    -115.816  38.927 -12.406  1.00  0.00    -0.342 N 
ATOM      5  H   UNL     1    -116.372  38.408 -13.119  1.00  0.00     0.164 HD
ATOM      6  O   UNL     1    -113.652  39.066 -11.513  1.00  0.00    -0.273 OA
BRANCH   4   7
ATOM      7  C   UNL     1    -116.583  39.903 -11.616  1.00  0.00     0.175 C 
BRANCH   7   8
ATOM      8  C   UNL     1    -116.266  41.300 -12.077  1.00  0.00     0.243 C 
ATOM      9  N   UNL     1    -115.671  41.547 -13.363  1.00  0.00    -0.342 N 
ATOM     10  H   UNL     1    -115.453  40.733 -13.972  1.00  0.00     0.164 HD
ATOM     11  O   UNL     1    -116.534  42.262 -11.309  1.00  0.00    -0.273 OA
BRANCH   9  12
ATOM     12  C   UNL     1    -115.399  42.898 -13.865  1.00  0.00     0.174 CG0
ATOM     13  G   UNL     1    -114.508  42.798 -15.091  1.00  0.00     0.000 G0
BRANCH  12  14
ATOM     14  C   UNL     1    -114.859  43.847 -12.750  1.00  0.00     0.018 C 
ATOM     15  C   UNL     1    -116.035  44.393 -11.919  1.00  0.00     0.010 C 
BRANCH  14  16
ATOM     16  C   UNL     1    -113.852  43.152 -11.779  1.00  0.00     0.002 C 
ATOM     17  C   UNL     1    -112.549  43.936 -11.615  1.00  0.00     0.004 C 
ENDBRANCH  14  16
ENDBRANCH  12  14
ENDBRANCH   9  12
ENDBRANCH   7   8
BRANCH   7  18
ATOM     18  C   UNL     1    -116.432  39.763 -10.089  1.00  0.00     0.073 C 
BRANCH  18  19
ATOM     19  C   UNL     1    -116.653  38.347  -9.633  1.00  0.00    -0.016 A 
ATOM     20  C   UNL     1    -116.733  37.218 -10.433  1.00  0.00     0.134 A 
ATOM     21  C   UNL     1    -116.790  37.895  -8.335  1.00  0.00     0.006 A 
ATOM     22  N   UNL     1    -116.932  36.115  -9.678  1.00  0.00    -0.191 N 
ATOM     23  C   UNL     1    -116.957  36.530  -8.386  1.00  0.00     0.087 A 
ATOM     24  C   UNL     1    -116.754  38.598  -7.128  1.00  0.00     0.011 A 
ATOM     25  C   UNL     1    -117.095  35.785  -7.203  1.00  0.00     0.030 A 
ATOM     26  C   UNL     1    -116.889  37.869  -5.939  1.00  0.00     0.001 A 
ATOM     27  C   UNL     1    -117.058  36.471  -5.978  1.00  0.00     0.002 A 
BRANCH  22  28
ATOM     28  O   UNL     1    -117.056  34.851 -10.240  1.00  0.00    -0.417 OA
ATOM     29  C   UNL     1    -116.004  33.903 -10.331  1.00  0.00     0.313 C 
ENDBRANCH  22  28
ENDBRANCH  18  19
ENDBRANCH   7  18
ENDBRANCH   4   7
ENDBRANCH   2   3
BRANCH   2  30
ATOM     30  N   UNL     1    -113.550  39.868 -14.594  1.00  0.00    -0.343 N 
ATOM     31  C   UNL     1    -112.484  40.786 -14.314  1.00  0.00     0.243 C 
ATOM     32  H   UNL     1    -114.177  40.062 -15.411  1.00  0.00     0.164 HD
ATOM     33  O   UNL     1    -111.810  40.666 -13.254  1.00  0.00    -0.273 OA
BRANCH  31  34
ATOM     34  C   UNL     1    -112.181  41.920 -15.262  1.00  0.00     0.174 C 
ATOM     35  N   UNL     1    -113.100  43.063 -15.047  1.00  0.00    -0.329 N 
ATOM     36  C   UNL     1    -110.699  42.323 -15.101  1.00  0.00     0.035 C 
ATOM     37  C   UNL     1    -112.737  44.370 -15.630  1.00  0.00     0.120 C 
ATOM     38  C   UNL     1    -110.376  43.577 -15.900  1.00  0.00     0.004 C 
ATOM     39  C   UNL     1    -111.264  44.717 -15.419  1.00  0.00     0.022 C 
BRANCH  35  40
ATOM     40  C   UNL     1    -114.517  42.773 -15.069  1.00  0.00     0.246 CG0
ATOM     41  O   UNL     1    -115.025  42.297 -16.125  1.00  0.00    -0.272 OA
ATOM     42  G   UNL     1    -115.415  42.929 -13.854  1.00  0.00     0.000 G0
ENDBRANCH  35  40
ENDBRANCH  31  34
ENDBRANCH   2  30
ENDBRANCH   1   2
BRANCH   1  43
ATOM     43  C   UNL     1    -114.444  36.136 -14.103  1.00  0.00     0.003 C 
BRANCH  43  44
ATOM     44  C   UNL     1    -115.640  35.300 -14.580  1.00  0.00     0.001 C 
BRANCH  44  45
ATOM     45  C   UNL     1    -115.322  34.473 -15.839  1.00  0.00     0.008 C 
BRANCH  45  46
ATOM     46  C   UNL     1    -116.272  33.288 -16.064  1.00  0.00     0.075 C 
BRANCH  46  47
ATOM     47  C   UNL     1    -115.772  32.021 -15.417  1.00  0.00     0.132 C 
ATOM     48  O   UNL     1    -115.712  30.996 -16.081  1.00  0.00    -0.300 OA
BRANCH  47  49
ATOM     49  C   UNL     1    -115.301  32.016 -13.982  1.00  0.00     0.072 C 
ATOM     50  C   UNL     1    -116.398  31.553 -13.027  1.00  0.00     0.012 C 
ENDBRANCH  47  49
ENDBRANCH  46  47
ENDBRANCH  45  46
ENDBRANCH  44  45
ENDBRANCH  43  44
ENDBRANCH   1  43
TORSDOF 12
ENDMDL
