MODEL 1
REMARK VINA RESULT:    10.903      0.000      0.000
REMARK INTER + INTRA:          15.582
REMARK INTER:                  15.046
REMARK INTRA:                   0.536
REMARK UNBOUND:                 0.536
REMARK SMILES CC[C@H](CC[C@H](C)[C@@H]1CC[C@H]2[C@H]3CC=C4C[C@H](O)CC[C@@]4(C)[C@H]3CC[C@]21C)C(C)C
REMARK SMILES IDX 5 1 4 2 3 3 2 4 1 5 28 6 29 7 30 8 6 9 7 10 8 11 9 12 26 13
REMARK SMILES IDX 10 14 11 15 25 16 27 17 12 18 24 19 23 20 13 21 21 22 14 23
REMARK SMILES IDX 15 24 20 25 22 26 16 27 19 28 17 29 18 30
REMARK H PARENT 18 31
REMARK Flexibility Score: inf
ROOT
ATOM      1  C   UNL     1     135.969 133.887 138.002  1.00  0.00     0.004 C 
ENDROOT
BRANCH   1   2
ATOM      2  C   UNL     1     137.171 134.411 138.841  1.00  0.00     0.004 C 
BRANCH   2   3
ATOM      3  C   UNL     1     137.260 133.914 140.391  1.00  0.00    -0.009 C 
BRANCH   3   4
ATOM      4  C   UNL     1     136.097 132.920 140.741  1.00  0.00     0.000 C 
ATOM      5  C   UNL     1     136.570 131.417 140.931  1.00  0.00     0.004 C 
ENDBRANCH   3   4
BRANCH   3   6
ATOM      6  C   UNL     1     138.669 133.355 140.908  1.00  0.00    -0.014 C 
ATOM      7  C   UNL     1     139.305 132.297 140.047  1.00  0.00     0.007 C 
ATOM      8  C   UNL     1     139.678 134.529 141.126  1.00  0.00     0.007 C 
ENDBRANCH   3   6
ENDBRANCH   2   3
ENDBRANCH   1   2
BRANCH   1   9
ATOM      9  C   UNL     1     134.872 134.990 137.743  1.00  0.00    -0.011 C 
ATOM     10  C   UNL     1     135.002 136.084 138.859  1.00  0.00     0.008 C 
BRANCH   9  11
ATOM     11  C   UNL     1     133.454 134.261 137.590  1.00  0.00    -0.002 C 
ATOM     12  C   UNL     1     132.711 134.246 138.835  1.00  0.00     0.005 C 
ATOM     13  C   UNL     1     133.369 132.716 137.154  1.00  0.00    -0.026 C 
ATOM     14  C   UNL     1     133.256 133.027 139.622  1.00  0.00     0.005 C 
ATOM     15  C   UNL     1     133.357 131.949 138.490  1.00  0.00    -0.001 C 
ATOM     16  C   UNL     1     132.029 132.498 136.412  1.00  0.00     0.007 C 
ATOM     17  C   UNL     1     134.537 132.248 136.238  1.00  0.00     0.012 C 
ATOM     18  C   UNL     1     132.368 130.775 138.611  1.00  0.00     0.000 C 
ATOM     19  C   UNL     1     131.784 130.970 136.111  1.00  0.00     0.005 C 
ATOM     20  C   UNL     1     132.215 130.015 137.299  1.00  0.00     0.003 C 
ATOM     21  C   UNL     1     130.948 131.068 139.136  1.00  0.00     0.031 C 
ATOM     22  C   UNL     1     131.514 128.607 137.480  1.00  0.00    -0.008 C 
ATOM     23  C   UNL     1     130.381 129.750 139.480  1.00  0.00    -0.027 C 
ATOM     24  C   UNL     1     130.564 128.614 138.664  1.00  0.00    -0.065 C 
ATOM     25  C   UNL     1     130.556 128.126 136.304  1.00  0.00     0.014 C 
ATOM     26  C   UNL     1     132.655 127.525 137.717  1.00  0.00     0.016 C 
ATOM     27  C   UNL     1     130.004 127.313 139.165  1.00  0.00     0.063 C 
ATOM     28  C   UNL     1     129.835 126.802 136.636  1.00  0.00     0.033 C 
ATOM     29  C   UNL     1     129.069 126.820 138.037  1.00  0.00     0.118 C 
BRANCH  29  30
ATOM     30  O   UNL     1     128.603 125.526 138.304  1.00  0.00    -0.393 OA
ATOM     31  H   UNL     1     127.974 125.550 139.083  1.00  0.00     0.210 HD
ENDBRANCH  29  30
ENDBRANCH   9  11
ENDBRANCH   1   9
TORSDOF 7
ENDMDL
MODEL 2
REMARK VINA RESULT:    11.986      3.119      8.213
REMARK INTER + INTRA:          17.076
REMARK INTER:                  16.729
REMARK INTRA:                   0.347
REMARK UNBOUND:                 0.536
REMARK SMILES CC[C@H](CC[C@H](C)[C@@H]1CC[C@H]2[C@H]3CC=C4C[C@H](O)CC[C@@]4(C)[C@H]3CC[C@]21C)C(C)C
REMARK SMILES IDX 5 1 4 2 3 3 2 4 1 5 28 6 29 7 30 8 6 9 7 10 8 11 9 12 26 13
REMARK SMILES IDX 10 14 11 15 25 16 27 17 12 18 24 19 23 20 13 21 21 22 14 23
REMARK SMILES IDX 15 24 20 25 22 26 16 27 19 28 17 29 18 30
REMARK H PARENT 18 31
REMARK Flexibility Score: inf
ROOT
ATOM      1  C   UNL     1     131.214 131.261 137.931  1.00  0.00     0.004 C 
ENDROOT
BRANCH   1   2
ATOM      2  C   UNL     1     131.834 129.932 137.410  1.00  0.00     0.004 C 
BRANCH   2   3
ATOM      3  C   UNL     1     131.445 128.571 138.216  1.00  0.00    -0.009 C 
BRANCH   3   4
ATOM      4  C   UNL     1     130.444 128.866 139.390  1.00  0.00     0.000 C 
ATOM      5  C   UNL     1     130.866 128.218 140.775  1.00  0.00     0.004 C 
ENDBRANCH   3   4
BRANCH   3   6
ATOM      6  C   UNL     1     130.961 127.312 137.352  1.00  0.00    -0.014 C 
ATOM      7  C   UNL     1     131.908 126.143 137.319  1.00  0.00     0.007 C 
ATOM      8  C   UNL     1     129.551 126.831 137.826  1.00  0.00     0.007 C 
ENDBRANCH   3   6
ENDBRANCH   2   3
ENDBRANCH   1   2
BRANCH   1   9
ATOM      9  C   UNL     1     131.281 132.429 136.873  1.00  0.00    -0.011 C 
ATOM     10  C   UNL     1     131.417 131.792 135.447  1.00  0.00     0.008 C 
BRANCH   9  11
ATOM     11  C   UNL     1     132.422 133.456 137.331  1.00  0.00    -0.002 C 
ATOM     12  C   UNL     1     133.444 133.624 136.316  1.00  0.00     0.005 C 
ATOM     13  C   UNL     1     133.317 133.159 138.633  1.00  0.00    -0.026 C 
ATOM     14  C   UNL     1     134.423 132.440 136.520  1.00  0.00     0.005 C 
ATOM     15  C   UNL     1     134.543 132.405 138.081  1.00  0.00    -0.001 C 
ATOM     16  C   UNL     1     133.761 134.514 139.231  1.00  0.00     0.007 C 
ATOM     17  C   UNL     1     132.589 132.334 139.733  1.00  0.00     0.012 C 
ATOM     18  C   UNL     1     135.920 132.807 138.643  1.00  0.00     0.000 C 
ATOM     19  C   UNL     1     134.794 134.311 140.404  1.00  0.00     0.005 C 
ATOM     20  C   UNL     1     135.853 133.166 140.123  1.00  0.00     0.003 C 
ATOM     21  C   UNL     1     136.697 133.934 137.935  1.00  0.00     0.031 C 
ATOM     22  C   UNL     1     137.278 133.217 140.810  1.00  0.00    -0.008 C 
ATOM     23  C   UNL     1     138.077 133.839 138.450  1.00  0.00    -0.027 C 
ATOM     24  C   UNL     1     138.358 133.594 139.811  1.00  0.00    -0.065 C 
ATOM     25  C   UNL     1     137.491 134.315 141.941  1.00  0.00     0.014 C 
ATOM     26  C   UNL     1     137.581 131.773 141.403  1.00  0.00     0.016 C 
ATOM     27  C   UNL     1     139.802 133.441 140.195  1.00  0.00     0.063 C 
ATOM     28  C   UNL     1     138.946 134.356 142.457  1.00  0.00     0.033 C 
ATOM     29  C   UNL     1     140.036 134.497 141.299  1.00  0.00     0.118 C 
BRANCH  29  30
ATOM     30  O   UNL     1     141.308 134.353 141.867  1.00  0.00    -0.393 OA
ATOM     31  H   UNL     1     141.291 133.619 142.548  1.00  0.00     0.210 HD
ENDBRANCH  29  30
ENDBRANCH   9  11
ENDBRANCH   1   9
TORSDOF 7
ENDMDL
