MODEL 1
REMARK VINA RESULT:    -4.290      0.000      0.000
REMARK INTER + INTRA:          -9.398
REMARK INTER:                  -9.056
REMARK INTRA:                  -0.342
REMARK UNBOUND:                -0.342
REMARK SMILES CCC(=O)CCCCC[C@@H]1NC(=O)[C@@H]2CCCCN2C(=O)[C@@H]([C@H](C)CC)NC(=O)[C@@H](Cc2cn(OC)c3ccccc23)NC1=O
REMARK SMILES IDX 9 1 10 2 44 3 43 4 45 6 30 7 28 8 27 9 29 11 22 12 23 14
REMARK SMILES IDX 24 15 25 16 26 17 31 18 32 19 33 20 42 21 34 22 37 23 41 24
REMARK SMILES IDX 38 25 40 26 39 27 35 28 36 29 11 30 12 31 13 33 14 34 19 35
REMARK SMILES IDX 15 36 18 37 16 38 17 39 20 40 21 41 8 43 7 44 6 45 5 46 3 47
REMARK SMILES IDX 4 48 2 49 1 50
REMARK H PARENT 43 5 27 10 11 32
REMARK Flexibility Score: 80.00
ROOT
ATOM      1  C   UNL     1      61.057  30.891  50.307  1.00  0.00     0.035 C 
ENDROOT
BRANCH   1   2
ATOM      2  C   UNL     1      60.310  29.899  51.221  1.00  0.00     0.171 C 
BRANCH   2   3
ATOM      3  C   UNL     1      59.452  28.905  50.471  1.00  0.00     0.243 C 
ATOM      4  N   UNL     1      58.812  27.835  51.183  1.00  0.00    -0.342 N 
ATOM      5  H   UNL     1      58.734  27.921  52.220  1.00  0.00     0.164 HD
ATOM      6  O   UNL     1      59.258  29.042  49.229  1.00  0.00    -0.273 OA
BRANCH   4   7
ATOM      7  C   UNL     1      58.305  26.622  50.542  1.00  0.00     0.175 C 
BRANCH   7   8
ATOM      8  C   UNL     1      59.121  25.439  51.012  1.00  0.00     0.243 C 
ATOM      9  N   UNL     1      60.341  25.095  50.327  1.00  0.00    -0.342 N 
ATOM     10  H   UNL     1      60.482  25.478  49.372  1.00  0.00     0.164 HD
ATOM     11  O   UNL     1      58.750  24.769  52.006  1.00  0.00    -0.273 OA
BRANCH   9  12
ATOM     12  C   UNL     1      61.471  24.387  50.945  1.00  0.00     0.174 CG0
ATOM     13  G   UNL     1      61.939  25.169  52.158  1.00  0.00     0.000 G0
BRANCH  12  14
ATOM     14  C   UNL     1      61.141  22.901  51.285  1.00  0.00     0.018 C 
ATOM     15  C   UNL     1      62.425  22.121  51.622  1.00  0.00     0.010 C 
BRANCH  14  16
ATOM     16  C   UNL     1      60.382  22.216  50.121  1.00  0.00     0.002 C 
ATOM     17  C   UNL     1      61.161  22.233  48.804  1.00  0.00     0.004 C 
ENDBRANCH  14  16
ENDBRANCH  12  14
ENDBRANCH   9  12
ENDBRANCH   7   8
BRANCH   7  18
ATOM     18  C   UNL     1      56.797  26.474  50.832  1.00  0.00     0.073 C 
BRANCH  18  19
ATOM     19  C   UNL     1      56.294  27.556  51.744  1.00  0.00    -0.016 A 
ATOM     20  C   UNL     1      56.786  27.872  53.007  1.00  0.00     0.134 A 
ATOM     21  C   UNL     1      55.243  28.433  51.518  1.00  0.00     0.006 A 
ATOM     22  N   UNL     1      56.066  28.888  53.537  1.00  0.00    -0.191 N 
ATOM     23  C   UNL     1      55.129  29.223  52.634  1.00  0.00     0.087 A 
ATOM     24  C   UNL     1      54.430  28.619  50.399  1.00  0.00     0.011 A 
ATOM     25  C   UNL     1      54.198  30.257  52.713  1.00  0.00     0.030 A 
ATOM     26  C   UNL     1      53.466  29.646  50.453  1.00  0.00     0.001 A 
ATOM     27  C   UNL     1      53.351  30.456  51.607  1.00  0.00     0.002 A 
BRANCH  22  28
ATOM     28  O   UNL     1      56.236  29.483  54.771  1.00  0.00    -0.417 OA
ATOM     29  C   UNL     1      56.835  28.792  55.863  1.00  0.00     0.313 C 
ENDBRANCH  22  28
ENDBRANCH  18  19
ENDBRANCH   7  18
ENDBRANCH   4   7
ENDBRANCH   2   3
BRANCH   2  30
ATOM     30  N   UNL     1      61.283  29.185  52.056  1.00  0.00    -0.343 N 
ATOM     31  C   UNL     1      62.113  28.123  51.554  1.00  0.00     0.243 C 
ATOM     32  H   UNL     1      61.312  29.401  53.072  1.00  0.00     0.164 HD
ATOM     33  O   UNL     1      62.066  27.794  50.332  1.00  0.00    -0.273 OA
BRANCH  31  34
ATOM     34  C   UNL     1      63.064  27.405  52.478  1.00  0.00     0.174 C 
ATOM     35  N   UNL     1      63.156  25.987  52.085  1.00  0.00    -0.329 N 
ATOM     36  C   UNL     1      64.448  28.078  52.466  1.00  0.00     0.035 C 
ATOM     37  C   UNL     1      64.441  25.409  51.672  1.00  0.00     0.120 C 
ATOM     38  C   UNL     1      65.214  27.808  51.163  1.00  0.00     0.004 C 
ATOM     39  C   UNL     1      65.134  26.344  50.674  1.00  0.00     0.022 C 
BRANCH  35  40
ATOM     40  C   UNL     1      61.971  25.179  52.161  1.00  0.00     0.246 CG0
ATOM     41  O   UNL     1      61.267  25.215  53.207  1.00  0.00    -0.272 OA
ATOM     42  G   UNL     1      61.464  24.427  50.944  1.00  0.00     0.000 G0
ENDBRANCH  35  40
ENDBRANCH  31  34
ENDBRANCH   2  30
ENDBRANCH   1   2
BRANCH   1  43
ATOM     43  C   UNL     1      62.219  31.616  51.013  1.00  0.00     0.003 C 
BRANCH  43  44
ATOM     44  C   UNL     1      63.322  32.074  50.048  1.00  0.00     0.001 C 
BRANCH  44  45
ATOM     45  C   UNL     1      64.173  30.901  49.536  1.00  0.00     0.008 C 
BRANCH  45  46
ATOM     46  C   UNL     1      65.294  31.363  48.596  1.00  0.00     0.075 C 
BRANCH  46  47
ATOM     47  C   UNL     1      66.072  30.203  48.030  1.00  0.00     0.132 C 
ATOM     48  O   UNL     1      67.247  30.358  47.739  1.00  0.00    -0.300 OA
BRANCH  47  49
ATOM     49  C   UNL     1      65.414  28.862  47.795  1.00  0.00     0.072 C 
ATOM     50  C   UNL     1      66.015  28.158  46.583  1.00  0.00     0.012 C 
ENDBRANCH  47  49
ENDBRANCH  46  47
ENDBRANCH  45  46
ENDBRANCH  44  45
ENDBRANCH  43  44
ENDBRANCH   1  43
TORSDOF 12
ENDMDL
MODEL 2
REMARK VINA RESULT:    -4.029      3.537      6.481
REMARK INTER + INTRA:          -8.846
REMARK INTER:                  -7.640
REMARK INTRA:                  -1.206
REMARK UNBOUND:                -0.342
REMARK SMILES CCC(=O)CCCCC[C@@H]1NC(=O)[C@@H]2CCCCN2C(=O)[C@@H]([C@H](C)CC)NC(=O)[C@@H](Cc2cn(OC)c3ccccc23)NC1=O
REMARK SMILES IDX 9 1 10 2 44 3 43 4 45 6 30 7 28 8 27 9 29 11 22 12 23 14
REMARK SMILES IDX 24 15 25 16 26 17 31 18 32 19 33 20 42 21 34 22 37 23 41 24
REMARK SMILES IDX 38 25 40 26 39 27 35 28 36 29 11 30 12 31 13 33 14 34 19 35
REMARK SMILES IDX 15 36 18 37 16 38 17 39 20 40 21 41 8 43 7 44 6 45 5 46 3 47
REMARK SMILES IDX 4 48 2 49 1 50
REMARK H PARENT 43 5 27 10 11 32
REMARK Flexibility Score: 80.00
ROOT
ATOM      1  C   UNL     1      63.109  29.547  50.190  1.00  0.00     0.035 C 
ENDROOT
BRANCH   1   2
ATOM      2  C   UNL     1      61.714  30.171  49.981  1.00  0.00     0.171 C 
BRANCH   2   3
ATOM      3  C   UNL     1      60.697  29.756  51.021  1.00  0.00     0.243 C 
ATOM      4  N   UNL     1      59.698  30.691  51.455  1.00  0.00    -0.342 N 
ATOM      5  H   UNL     1      59.531  31.533  50.860  1.00  0.00     0.164 HD
ATOM      6  O   UNL     1      60.694  28.574  51.471  1.00  0.00    -0.273 OA
BRANCH   4   7
ATOM      7  C   UNL     1      58.939  30.550  52.697  1.00  0.00     0.175 C 
BRANCH   7   8
ATOM      8  C   UNL     1      59.247  31.725  53.598  1.00  0.00     0.243 C 
ATOM      9  N   UNL     1      60.610  31.996  53.977  1.00  0.00    -0.342 N 
ATOM     10  H   UNL     1      61.304  31.232  53.863  1.00  0.00     0.164 HD
ATOM     11  O   UNL     1      58.324  32.472  54.001  1.00  0.00    -0.273 OA
BRANCH   9  12
ATOM     12  C   UNL     1      61.122  33.324  54.348  1.00  0.00     0.174 CG0
ATOM     13  G   UNL     1      61.136  34.209  53.116  1.00  0.00     0.000 G0
BRANCH  12  14
ATOM     14  C   UNL     1      60.338  33.965  55.533  1.00  0.00     0.018 C 
ATOM     15  C   UNL     1      60.992  35.290  55.966  1.00  0.00     0.010 C 
BRANCH  14  16
ATOM     16  C   UNL     1      60.243  32.991  56.735  1.00  0.00     0.002 C 
ATOM     17  C   UNL     1      61.428  33.109  57.696  1.00  0.00     0.004 C 
ENDBRANCH  14  16
ENDBRANCH  12  14
ENDBRANCH   9  12
ENDBRANCH   7   8
BRANCH   7  18
ATOM     18  C   UNL     1      57.437  30.409  52.374  1.00  0.00     0.073 C 
BRANCH  18  19
ATOM     19  C   UNL     1      57.028  28.969  52.235  1.00  0.00    -0.016 A 
ATOM     20  C   UNL     1      57.686  27.866  52.768  1.00  0.00     0.134 A 
ATOM     21  C   UNL     1      55.938  28.463  51.544  1.00  0.00     0.006 A 
ATOM     22  N   UNL     1      57.038  26.732  52.413  1.00  0.00    -0.191 N 
ATOM     23  C   UNL     1      55.981  27.097  51.668  1.00  0.00     0.087 A 
ATOM     24  C   UNL     1      54.899  29.108  50.873  1.00  0.00     0.011 A 
ATOM     25  C   UNL     1      54.989  26.277  51.133  1.00  0.00     0.030 A 
ATOM     26  C   UNL     1      53.887  28.305  50.306  1.00  0.00     0.001 A 
ATOM     27  C   UNL     1      53.939  26.898  50.434  1.00  0.00     0.002 A 
BRANCH  22  28
ATOM     28  O   UNL     1      57.378  25.434  52.737  1.00  0.00    -0.417 OA
ATOM     29  C   UNL     1      58.538  24.804  52.200  1.00  0.00     0.313 C 
ENDBRANCH  22  28
ENDBRANCH  18  19
ENDBRANCH   7  18
ENDBRANCH   4   7
ENDBRANCH   2   3
BRANCH   2  30
ATOM     30  N   UNL     1      61.838  31.633  49.965  1.00  0.00    -0.343 N 
ATOM     31  C   UNL     1      62.407  32.382  51.053  1.00  0.00     0.243 C 
ATOM     32  H   UNL     1      61.420  32.154  49.168  1.00  0.00     0.164 HD
ATOM     33  O   UNL     1      62.877  31.786  52.066  1.00  0.00    -0.273 OA
BRANCH  31  34
ATOM     34  C   UNL     1      62.466  33.888  50.986  1.00  0.00     0.174 C 
ATOM     35  N   UNL     1      62.347  34.446  52.346  1.00  0.00    -0.329 N 
ATOM     36  C   UNL     1      63.765  34.351  50.304  1.00  0.00     0.035 C 
ATOM     37  C   UNL     1      63.428  35.262  52.914  1.00  0.00     0.120 C 
ATOM     38  C   UNL     1      64.996  34.156  51.203  1.00  0.00     0.004 C 
ATOM     39  C   UNL     1      64.778  34.578  52.673  1.00  0.00     0.022 C 
BRANCH  35  40
ATOM     40  C   UNL     1      61.134  34.209  53.077  1.00  0.00     0.246 CG0
ATOM     41  O   UNL     1      60.041  34.630  52.609  1.00  0.00    -0.272 OA
ATOM     42  G   UNL     1      61.128  33.316  54.303  1.00  0.00     0.000 G0
ENDBRANCH  35  40
ENDBRANCH  31  34
ENDBRANCH   2  30
ENDBRANCH   1   2
BRANCH   1  43
ATOM     43  C   UNL     1      63.613  28.756  48.968  1.00  0.00     0.003 C 
BRANCH  43  44
ATOM     44  C   UNL     1      64.512  29.584  48.040  1.00  0.00     0.001 C 
BRANCH  44  45
ATOM     45  C   UNL     1      65.139  30.790  48.757  1.00  0.00     0.008 C 
BRANCH  45  46
ATOM     46  C   UNL     1      66.669  30.802  48.644  1.00  0.00     0.075 C 
BRANCH  46  47
ATOM     47  C   UNL     1      67.300  29.644  49.376  1.00  0.00     0.132 C 
ATOM     48  O   UNL     1      67.751  28.708  48.736  1.00  0.00    -0.300 OA
BRANCH  47  49
ATOM     49  C   UNL     1      67.360  29.616  50.886  1.00  0.00     0.072 C 
ATOM     50  C   UNL     1      66.430  28.549  51.454  1.00  0.00     0.012 C 
ENDBRANCH  47  49
ENDBRANCH  46  47
ENDBRANCH  45  46
ENDBRANCH  44  45
ENDBRANCH  43  44
ENDBRANCH   1  43
TORSDOF 12
ENDMDL
MODEL 3
REMARK VINA RESULT:    -4.025      3.738      6.894
REMARK INTER + INTRA:          -8.838
REMARK INTER:                  -8.348
REMARK INTRA:                  -0.490
REMARK UNBOUND:                -0.342
REMARK SMILES CCC(=O)CCCCC[C@@H]1NC(=O)[C@@H]2CCCCN2C(=O)[C@@H]([C@H](C)CC)NC(=O)[C@@H](Cc2cn(OC)c3ccccc23)NC1=O
REMARK SMILES IDX 9 1 10 2 44 3 43 4 45 6 30 7 28 8 27 9 29 11 22 12 23 14
REMARK SMILES IDX 24 15 25 16 26 17 31 18 32 19 33 20 42 21 34 22 37 23 41 24
REMARK SMILES IDX 38 25 40 26 39 27 35 28 36 29 11 30 12 31 13 33 14 34 19 35
REMARK SMILES IDX 15 36 18 37 16 38 17 39 20 40 21 41 8 43 7 44 6 45 5 46 3 47
REMARK SMILES IDX 4 48 2 49 1 50
REMARK H PARENT 43 5 27 10 11 32
REMARK Flexibility Score: 80.00
ROOT
ATOM      1  C   UNL     1      65.820  31.335  49.275  1.00  0.00     0.035 C 
ENDROOT
BRANCH   1   2
ATOM      2  C   UNL     1      64.357  31.815  49.366  1.00  0.00     0.171 C 
BRANCH   2   3
ATOM      3  C   UNL     1      63.397  30.757  49.861  1.00  0.00     0.243 C 
ATOM      4  N   UNL     1      61.995  31.052  49.951  1.00  0.00    -0.342 N 
ATOM      5  H   UNL     1      61.640  31.884  49.430  1.00  0.00     0.164 HD
ATOM      6  O   UNL     1      63.819  29.599  50.146  1.00  0.00    -0.273 OA
BRANCH   4   7
ATOM      7  C   UNL     1      61.053  30.280  50.762  1.00  0.00     0.175 C 
BRANCH   7   8
ATOM      8  C   UNL     1      60.755  31.045  52.031  1.00  0.00     0.243 C 
ATOM      9  N   UNL     1      61.833  31.653  52.768  1.00  0.00    -0.342 N 
ATOM     10  H   UNL     1      62.798  31.319  52.576  1.00  0.00     0.164 HD
ATOM     11  O   UNL     1      59.574  31.166  52.435  1.00  0.00    -0.273 OA
BRANCH   9  12
ATOM     12  C   UNL     1      61.686  32.826  53.643  1.00  0.00     0.174 CG0
ATOM     13  G   UNL     1      61.713  34.081  52.792  1.00  0.00     0.000 G0
BRANCH  12  14
ATOM     14  C   UNL     1      60.421  32.749  54.550  1.00  0.00     0.018 C 
ATOM     15  C   UNL     1      60.281  34.025  55.400  1.00  0.00     0.010 C 
BRANCH  14  16
ATOM     16  C   UNL     1      60.460  31.496  55.461  1.00  0.00     0.002 C 
ATOM     17  C   UNL     1      59.113  31.191  56.121  1.00  0.00     0.004 C 
ENDBRANCH  14  16
ENDBRANCH  12  14
ENDBRANCH   9  12
ENDBRANCH   7   8
BRANCH   7  18
ATOM     18  C   UNL     1      59.791  29.964  49.931  1.00  0.00     0.073 C 
BRANCH  18  19
ATOM     19  C   UNL     1      59.239  28.603  50.250  1.00  0.00    -0.016 A 
ATOM     20  C   UNL     1      59.954  27.411  50.306  1.00  0.00     0.134 A 
ATOM     21  C   UNL     1      57.923  28.269  50.529  1.00  0.00     0.006 A 
ATOM     22  N   UNL     1      59.116  26.389  50.597  1.00  0.00    -0.191 N 
ATOM     23  C   UNL     1      57.884  26.912  50.728  1.00  0.00     0.087 A 
ATOM     24  C   UNL     1      56.786  29.066  50.674  1.00  0.00     0.011 A 
ATOM     25  C   UNL     1      56.711  26.253  51.088  1.00  0.00     0.030 A 
ATOM     26  C   UNL     1      55.578  28.427  51.022  1.00  0.00     0.001 A 
ATOM     27  C   UNL     1      55.544  27.028  51.222  1.00  0.00     0.002 A 
BRANCH  22  28
ATOM     28  O   UNL     1      59.436  25.054  50.734  1.00  0.00    -0.417 OA
ATOM     29  C   UNL     1      60.757  24.570  50.510  1.00  0.00     0.313 C 
ENDBRANCH  22  28
ENDBRANCH  18  19
ENDBRANCH   7  18
ENDBRANCH   4   7
ENDBRANCH   2   3
BRANCH   2  30
ATOM     30  N   UNL     1      64.290  32.993  50.239  1.00  0.00    -0.343 N 
ATOM     31  C   UNL     1      63.213  33.945  50.186  1.00  0.00     0.243 C 
ATOM     32  H   UNL     1      65.097  33.190  50.863  1.00  0.00     0.164 HD
ATOM     33  O   UNL     1      62.238  33.769  49.399  1.00  0.00    -0.273 OA
BRANCH  31  34
ATOM     34  C   UNL     1      63.229  35.156  51.085  1.00  0.00     0.174 C 
ATOM     35  N   UNL     1      62.995  34.736  52.479  1.00  0.00    -0.329 N 
ATOM     36  C   UNL     1      64.559  35.918  50.948  1.00  0.00     0.035 C 
ATOM     37  C   UNL     1      64.005  34.991  53.515  1.00  0.00     0.120 C 
ATOM     38  C   UNL     1      65.727  35.176  51.614  1.00  0.00     0.004 C 
ATOM     39  C   UNL     1      65.390  34.582  53.001  1.00  0.00     0.022 C 
BRANCH  35  40
ATOM     40  C   UNL     1      61.740  34.117  52.804  1.00  0.00     0.246 CG0
ATOM     41  O   UNL     1      60.679  34.572  52.295  1.00  0.00    -0.272 OA
ATOM     42  G   UNL     1      61.694  32.828  53.602  1.00  0.00     0.000 G0
ENDBRANCH  35  40
ENDBRANCH  31  34
ENDBRANCH   2  30
ENDBRANCH   1   2
BRANCH   1  43
ATOM     43  C   UNL     1      66.193  30.772  47.890  1.00  0.00     0.003 C 
BRANCH  43  44
ATOM     44  C   UNL     1      66.931  31.785  47.004  1.00  0.00     0.001 C 
BRANCH  44  45
ATOM     45  C   UNL     1      66.937  33.197  47.610  1.00  0.00     0.008 C 
BRANCH  45  46
ATOM     46  C   UNL     1      68.351  33.669  47.971  1.00  0.00     0.075 C 
BRANCH  46  47
ATOM     47  C   UNL     1      68.333  34.928  48.800  1.00  0.00     0.132 C 
ATOM     48  O   UNL     1      67.586  35.839  48.484  1.00  0.00    -0.300 OA
BRANCH  47  49
ATOM     49  C   UNL     1      69.241  35.086  49.998  1.00  0.00     0.072 C 
ATOM     50  C   UNL     1      69.140  33.883  50.930  1.00  0.00     0.012 C 
ENDBRANCH  47  49
ENDBRANCH  46  47
ENDBRANCH  45  46
ENDBRANCH  44  45
ENDBRANCH  43  44
ENDBRANCH   1  43
TORSDOF 12
ENDMDL
MODEL 4
REMARK VINA RESULT:    -3.960      8.557     11.334
REMARK INTER + INTRA:          -8.701
REMARK INTER:                  -8.651
REMARK INTRA:                  -0.050
REMARK UNBOUND:                -0.342
REMARK SMILES CCC(=O)CCCCC[C@@H]1NC(=O)[C@@H]2CCCCN2C(=O)[C@@H]([C@H](C)CC)NC(=O)[C@@H](Cc2cn(OC)c3ccccc23)NC1=O
REMARK SMILES IDX 9 1 10 2 44 3 43 4 45 6 30 7 28 8 27 9 29 11 22 12 23 14
REMARK SMILES IDX 24 15 25 16 26 17 31 18 32 19 33 20 42 21 34 22 37 23 41 24
REMARK SMILES IDX 38 25 40 26 39 27 35 28 36 29 11 30 12 31 13 33 14 34 19 35
REMARK SMILES IDX 15 36 18 37 16 38 17 39 20 40 21 41 8 43 7 44 6 45 5 46 3 47
REMARK SMILES IDX 4 48 2 49 1 50
REMARK H PARENT 43 5 27 10 11 32
REMARK Flexibility Score: 80.00
ROOT
ATOM      1  C   UNL     1      67.743  27.667  59.563  1.00  0.00     0.035 C 
ENDROOT
BRANCH   1   2
ATOM      2  C   UNL     1      66.607  28.016  60.546  1.00  0.00     0.171 C 
BRANCH   2   3
ATOM      3  C   UNL     1      65.709  29.135  60.068  1.00  0.00     0.243 C 
ATOM      4  N   UNL     1      64.637  29.595  60.904  1.00  0.00    -0.342 N 
ATOM      5  H   UNL     1      64.665  29.337  61.915  1.00  0.00     0.164 HD
ATOM      6  O   UNL     1      65.931  29.699  58.958  1.00  0.00    -0.273 OA
BRANCH   4   7
ATOM      7  C   UNL     1      63.494  30.364  60.411  1.00  0.00     0.175 C 
BRANCH   7   8
ATOM      8  C   UNL     1      62.237  29.541  60.581  1.00  0.00     0.243 C 
ATOM      9  N   UNL     1      61.834  28.629  59.541  1.00  0.00    -0.342 N 
ATOM     10  H   UNL     1      62.244  28.763  58.596  1.00  0.00     0.164 HD
ATOM     11  O   UNL     1      61.555  29.637  61.629  1.00  0.00    -0.273 OA
BRANCH   9  12
ATOM     12  C   UNL     1      61.020  27.424  59.760  1.00  0.00     0.174 CG0
ATOM     13  G   UNL     1      61.833  26.420  60.555  1.00  0.00     0.000 G0
BRANCH  12  14
ATOM     14  C   UNL     1      59.644  27.735  60.424  1.00  0.00     0.018 C 
ATOM     15  C   UNL     1      59.034  26.461  61.035  1.00  0.00     0.010 C 
BRANCH  14  16
ATOM     16  C   UNL     1      58.662  28.370  59.406  1.00  0.00     0.002 C 
ATOM     17  C   UNL     1      57.208  27.954  59.637  1.00  0.00     0.004 C 
ENDBRANCH  14  16
ENDBRANCH  12  14
ENDBRANCH   9  12
ENDBRANCH   7   8
BRANCH   7  18
ATOM     18  C   UNL     1      63.433  31.725  61.134  1.00  0.00     0.073 C 
BRANCH  18  19
ATOM     19  C   UNL     1      63.704  32.868  60.198  1.00  0.00    -0.016 A 
ATOM     20  C   UNL     1      63.956  32.780  58.832  1.00  0.00     0.134 A 
ATOM     21  C   UNL     1      63.772  34.218  60.509  1.00  0.00     0.006 A 
ATOM     22  N   UNL     1      64.179  34.016  58.328  1.00  0.00    -0.191 N 
ATOM     23  C   UNL     1      64.070  34.885  59.348  1.00  0.00     0.087 A 
ATOM     24  C   UNL     1      63.540  34.895  61.707  1.00  0.00     0.011 A 
ATOM     25  C   UNL     1      64.156  36.275  59.297  1.00  0.00     0.030 A 
ATOM     26  C   UNL     1      63.635  36.302  61.694  1.00  0.00     0.001 A 
ATOM     27  C   UNL     1      63.946  36.984  60.494  1.00  0.00     0.002 A 
BRANCH  22  28
ATOM     28  O   UNL     1      64.470  34.350  57.021  1.00  0.00    -0.417 OA
ATOM     29  C   UNL     1      63.601  34.004  55.946  1.00  0.00     0.313 C 
ENDBRANCH  22  28
ENDBRANCH  18  19
ENDBRANCH   7  18
ENDBRANCH   4   7
ENDBRANCH   2   3
BRANCH   2  30
ATOM     30  N   UNL     1      65.807  26.814  60.805  1.00  0.00    -0.343 N 
ATOM     31  C   UNL     1      64.791  26.341  59.903  1.00  0.00     0.243 C 
ATOM     32  H   UNL     1      65.923  26.332  61.718  1.00  0.00     0.164 HD
ATOM     33  O   UNL     1      64.582  26.934  58.803  1.00  0.00    -0.273 OA
BRANCH  31  34
ATOM     34  C   UNL     1      63.978  25.120  60.251  1.00  0.00     0.174 C 
ATOM     35  N   UNL     1      62.568  25.347  59.886  1.00  0.00    -0.329 N 
ATOM     36  C   UNL     1      64.542  23.872  59.549  1.00  0.00     0.035 C 
ATOM     37  C   UNL     1      61.902  24.481  58.904  1.00  0.00     0.120 C 
ATOM     38  C   UNL     1      64.246  23.869  58.041  1.00  0.00     0.004 C 
ATOM     39  C   UNL     1      62.806  24.296  57.680  1.00  0.00     0.022 C 
BRANCH  35  40
ATOM     40  C   UNL     1      61.852  26.402  60.549  1.00  0.00     0.246 CG0
ATOM     41  O   UNL     1      62.024  26.580  61.786  1.00  0.00    -0.272 OA
ATOM     42  G   UNL     1      61.038  27.406  59.754  1.00  0.00     0.000 G0
ENDBRANCH  35  40
ENDBRANCH  31  34
ENDBRANCH   2  30
ENDBRANCH   1   2
BRANCH   1  43
ATOM     43  C   UNL     1      69.102  28.276  59.958  1.00  0.00     0.003 C 
BRANCH  43  44
ATOM     44  C   UNL     1      69.955  28.688  58.750  1.00  0.00     0.001 C 
BRANCH  44  45
ATOM     45  C   UNL     1      69.916  30.204  58.498  1.00  0.00     0.008 C 
BRANCH  45  46
ATOM     46  C   UNL     1      71.203  30.902  58.956  1.00  0.00     0.075 C 
BRANCH  46  47
ATOM     47  C   UNL     1      71.048  31.539  60.314  1.00  0.00     0.132 C 
ATOM     48  O   UNL     1      70.938  30.826  61.298  1.00  0.00    -0.300 OA
BRANCH  47  49
ATOM     49  C   UNL     1      71.003  33.042  60.470  1.00  0.00     0.072 C 
ATOM     50  C   UNL     1      70.092  33.678  59.425  1.00  0.00     0.012 C 
ENDBRANCH  47  49
ENDBRANCH  46  47
ENDBRANCH  45  46
ENDBRANCH  44  45
ENDBRANCH  43  44
ENDBRANCH   1  43
TORSDOF 12
ENDMDL
MODEL 5
REMARK VINA RESULT:    -3.905      8.338     11.174
REMARK INTER + INTRA:          -8.584
REMARK INTER:                  -8.561
REMARK INTRA:                  -0.023
REMARK UNBOUND:                -0.342
REMARK SMILES CCC(=O)CCCCC[C@@H]1NC(=O)[C@@H]2CCCCN2C(=O)[C@@H]([C@H](C)CC)NC(=O)[C@@H](Cc2cn(OC)c3ccccc23)NC1=O
REMARK SMILES IDX 9 1 10 2 44 3 43 4 45 6 30 7 28 8 27 9 29 11 22 12 23 14
REMARK SMILES IDX 24 15 25 16 26 17 31 18 32 19 33 20 42 21 34 22 37 23 41 24
REMARK SMILES IDX 38 25 40 26 39 27 35 28 36 29 11 30 12 31 13 33 14 34 19 35
REMARK SMILES IDX 15 36 18 37 16 38 17 39 20 40 21 41 8 43 7 44 6 45 5 46 3 47
REMARK SMILES IDX 4 48 2 49 1 50
REMARK H PARENT 43 5 27 10 11 32
REMARK Flexibility Score: 80.00
ROOT
ATOM      1  C   UNL     1      65.808  27.920  60.777  1.00  0.00     0.035 C 
ENDROOT
BRANCH   1   2
ATOM      2  C   UNL     1      64.425  28.585  60.938  1.00  0.00     0.171 C 
BRANCH   2   3
ATOM      3  C   UNL     1      64.144  29.663  59.915  1.00  0.00     0.243 C 
ATOM      4  N   UNL     1      62.894  30.367  59.947  1.00  0.00    -0.342 N 
ATOM      5  H   UNL     1      62.326  30.309  60.821  1.00  0.00     0.164 HD
ATOM      6  O   UNL     1      65.026  29.979  59.065  1.00  0.00    -0.273 OA
BRANCH   4   7
ATOM      7  C   UNL     1      62.356  31.121  58.814  1.00  0.00     0.175 C 
BRANCH   7   8
ATOM      8  C   UNL     1      61.244  30.321  58.174  1.00  0.00     0.243 C 
ATOM      9  N   UNL     1      61.437  28.920  57.903  1.00  0.00    -0.342 N 
ATOM     10  H   UNL     1      62.412  28.561  57.887  1.00  0.00     0.164 HD
ATOM     11  O   UNL     1      60.151  30.869  57.895  1.00  0.00    -0.273 OA
BRANCH   9  12
ATOM     12  C   UNL     1      60.352  27.932  57.818  1.00  0.00     0.174 CG0
ATOM     13  G   UNL     1      59.925  27.547  59.222  1.00  0.00     0.000 G0
BRANCH  12  14
ATOM     14  C   UNL     1      59.155  28.420  56.946  1.00  0.00     0.018 C 
ATOM     15  C   UNL     1      58.018  27.382  56.951  1.00  0.00     0.010 C 
BRANCH  14  16
ATOM     16  C   UNL     1      59.606  28.720  55.494  1.00  0.00     0.002 C 
ATOM     17  C   UNL     1      58.807  29.849  54.839  1.00  0.00     0.004 C 
ENDBRANCH  14  16
ENDBRANCH  12  14
ENDBRANCH   9  12
ENDBRANCH   7   8
BRANCH   7  18
ATOM     18  C   UNL     1      61.907  32.519  59.287  1.00  0.00     0.073 C 
BRANCH  18  19
ATOM     19  C   UNL     1      62.987  33.546  59.101  1.00  0.00    -0.016 A 
ATOM     20  C   UNL     1      63.920  33.591  58.071  1.00  0.00     0.134 A 
ATOM     21  C   UNL     1      63.274  34.630  59.919  1.00  0.00     0.006 A 
ATOM     22  N   UNL     1      64.750  34.645  58.250  1.00  0.00    -0.191 N 
ATOM     23  C   UNL     1      64.357  35.271  59.373  1.00  0.00     0.087 A 
ATOM     24  C   UNL     1      62.627  35.115  61.056  1.00  0.00     0.011 A 
ATOM     25  C   UNL     1      64.872  36.444  59.921  1.00  0.00     0.030 A 
ATOM     26  C   UNL     1      63.134  36.292  61.645  1.00  0.00     0.001 A 
ATOM     27  C   UNL     1      64.253  36.947  61.080  1.00  0.00     0.002 A 
BRANCH  22  28
ATOM     28  O   UNL     1      65.808  35.027  57.450  1.00  0.00    -0.417 OA
ATOM     29  C   UNL     1      66.307  34.189  56.412  1.00  0.00     0.313 C 
ENDBRANCH  22  28
ENDBRANCH  18  19
ENDBRANCH   7  18
ENDBRANCH   4   7
ENDBRANCH   2   3
BRANCH   2  30
ATOM     30  N   UNL     1      63.384  27.553  60.871  1.00  0.00    -0.343 N 
ATOM     31  C   UNL     1      62.052  27.752  61.376  1.00  0.00     0.243 C 
ATOM     32  H   UNL     1      63.646  26.611  60.518  1.00  0.00     0.164 HD
ATOM     33  O   UNL     1      61.710  28.870  61.864  1.00  0.00    -0.273 OA
BRANCH  31  34
ATOM     34  C   UNL     1      61.043  26.633  61.311  1.00  0.00     0.174 C 
ATOM     35  N   UNL     1      60.617  26.436  59.913  1.00  0.00    -0.329 N 
ATOM     36  C   UNL     1      61.626  25.339  61.904  1.00  0.00     0.035 C 
ATOM     37  C   UNL     1      60.841  25.151  59.239  1.00  0.00     0.120 C 
ATOM     38  C   UNL     1      62.675  24.698  60.983  1.00  0.00     0.004 C 
ATOM     39  C   UNL     1      62.277  24.676  59.491  1.00  0.00     0.022 C 
BRANCH  35  40
ATOM     40  C   UNL     1      59.939  27.513  59.248  1.00  0.00     0.246 CG0
ATOM     41  O   UNL     1      59.110  28.211  59.894  1.00  0.00    -0.272 OA
ATOM     42  G   UNL     1      60.332  27.929  57.843  1.00  0.00     0.000 G0
ENDBRANCH  35  40
ENDBRANCH  31  34
ENDBRANCH   2  30
ENDBRANCH   1   2
BRANCH   1  43
ATOM     43  C   UNL     1      66.881  28.510  61.712  1.00  0.00     0.003 C 
BRANCH  43  44
ATOM     44  C   UNL     1      68.298  28.443  61.124  1.00  0.00     0.001 C 
BRANCH  44  45
ATOM     45  C   UNL     1      69.320  29.215  61.973  1.00  0.00     0.008 C 
BRANCH  45  46
ATOM     46  C   UNL     1      70.734  29.151  61.382  1.00  0.00     0.075 C 
BRANCH  46  47
ATOM     47  C   UNL     1      71.132  30.447  60.724  1.00  0.00     0.132 C 
ATOM     48  O   UNL     1      72.294  30.815  60.785  1.00  0.00    -0.300 OA
BRANCH  47  49
ATOM     49  C   UNL     1      70.112  31.307  60.014  1.00  0.00     0.072 C 
ATOM     50  C   UNL     1      70.788  32.328  59.104  1.00  0.00     0.012 C 
ENDBRANCH  47  49
ENDBRANCH  46  47
ENDBRANCH  45  46
ENDBRANCH  44  45
ENDBRANCH  43  44
ENDBRANCH   1  43
TORSDOF 12
ENDMDL
MODEL 6
REMARK VINA RESULT:    -3.819      2.890      7.609
REMARK INTER + INTRA:          -8.403
REMARK INTER:                  -6.860
REMARK INTRA:                  -1.543
REMARK UNBOUND:                -0.342
REMARK SMILES CCC(=O)CCCCC[C@@H]1NC(=O)[C@@H]2CCCCN2C(=O)[C@@H]([C@H](C)CC)NC(=O)[C@@H](Cc2cn(OC)c3ccccc23)NC1=O
REMARK SMILES IDX 9 1 10 2 44 3 43 4 45 6 30 7 28 8 27 9 29 11 22 12 23 14
REMARK SMILES IDX 24 15 25 16 26 17 31 18 32 19 33 20 42 21 34 22 37 23 41 24
REMARK SMILES IDX 38 25 40 26 39 27 35 28 36 29 11 30 12 31 13 33 14 34 19 35
REMARK SMILES IDX 15 36 18 37 16 38 17 39 20 40 21 41 8 43 7 44 6 45 5 46 3 47
REMARK SMILES IDX 4 48 2 49 1 50
REMARK H PARENT 43 5 27 10 11 32
REMARK Flexibility Score: 80.00
ROOT
ATOM      1  C   UNL     1      59.785  31.263  52.483  1.00  0.00     0.035 C 
ENDROOT
BRANCH   1   2
ATOM      2  C   UNL     1      61.194  30.784  52.888  1.00  0.00     0.171 C 
BRANCH   2   3
ATOM      3  C   UNL     1      61.661  29.557  52.136  1.00  0.00     0.243 C 
ATOM      4  N   UNL     1      63.050  29.198  52.150  1.00  0.00    -0.342 N 
ATOM      5  H   UNL     1      63.656  29.629  52.883  1.00  0.00     0.164 HD
ATOM      6  O   UNL     1      60.824  28.821  51.539  1.00  0.00    -0.273 OA
BRANCH   4   7
ATOM      7  C   UNL     1      63.668  28.301  51.173  1.00  0.00     0.175 C 
BRANCH   7   8
ATOM      8  C   UNL     1      64.647  29.089  50.332  1.00  0.00     0.243 C 
ATOM      9  N   UNL     1      64.159  29.959  49.294  1.00  0.00    -0.342 N 
ATOM     10  H   UNL     1      63.186  29.813  48.959  1.00  0.00     0.164 HD
ATOM     11  O   UNL     1      65.880  29.000  50.547  1.00  0.00    -0.273 OA
BRANCH   9  12
ATOM     12  C   UNL     1      64.874  31.144  48.796  1.00  0.00     0.174 CG0
ATOM     13  G   UNL     1      65.078  32.114  49.944  1.00  0.00     0.000 G0
BRANCH  12  14
ATOM     14  C   UNL     1      66.209  30.786  48.074  1.00  0.00     0.018 C 
ATOM     15  C   UNL     1      66.776  32.014  47.339  1.00  0.00     0.010 C 
BRANCH  14  16
ATOM     16  C   UNL     1      66.013  29.607  47.087  1.00  0.00     0.002 C 
ATOM     17  C   UNL     1      67.285  28.782  46.879  1.00  0.00     0.004 C 
ENDBRANCH  14  16
ENDBRANCH  12  14
ENDBRANCH   9  12
ENDBRANCH   7   8
BRANCH   7  18
ATOM     18  C   UNL     1      64.315  27.105  51.902  1.00  0.00     0.073 C 
BRANCH  18  19
ATOM     19  C   UNL     1      63.295  26.277  52.631  1.00  0.00    -0.016 A 
ATOM     20  C   UNL     1      63.094  26.232  54.007  1.00  0.00     0.134 A 
ATOM     21  C   UNL     1      62.377  25.393  52.084  1.00  0.00     0.006 A 
ATOM     22  N   UNL     1      62.105  25.354  54.295  1.00  0.00    -0.191 N 
ATOM     23  C   UNL     1      61.675  24.844  53.128  1.00  0.00     0.087 A 
ATOM     24  C   UNL     1      62.082  25.084  50.756  1.00  0.00     0.011 A 
ATOM     25  C   UNL     1      60.627  23.949  52.922  1.00  0.00     0.030 A 
ATOM     26  C   UNL     1      61.037  24.168  50.513  1.00  0.00     0.001 A 
ATOM     27  C   UNL     1      60.319  23.604  51.593  1.00  0.00     0.002 A 
BRANCH  22  28
ATOM     28  O   UNL     1      61.614  25.022  55.542  1.00  0.00    -0.417 OA
ATOM     29  C   UNL     1      62.403  25.153  56.720  1.00  0.00     0.313 C 
ENDBRANCH  22  28
ENDBRANCH  18  19
ENDBRANCH   7  18
ENDBRANCH   4   7
ENDBRANCH   2   3
BRANCH   2  30
ATOM     30  N   UNL     1      62.151  31.879  52.692  1.00  0.00    -0.343 N 
ATOM     31  C   UNL     1      62.438  32.445  51.401  1.00  0.00     0.243 C 
ATOM     32  H   UNL     1      62.705  32.201  53.510  1.00  0.00     0.164 HD
ATOM     33  O   UNL     1      61.824  32.040  50.371  1.00  0.00    -0.273 OA
BRANCH  31  34
ATOM     34  C   UNL     1      63.464  33.543  51.268  1.00  0.00     0.174 C 
ATOM     35  N   UNL     1      64.255  33.331  50.042  1.00  0.00    -0.329 N 
ATOM     36  C   UNL     1      62.785  34.924  51.262  1.00  0.00     0.035 C 
ATOM     37  C   UNL     1      64.261  34.339  48.973  1.00  0.00     0.120 C 
ATOM     38  C   UNL     1      62.042  35.201  49.946  1.00  0.00     0.004 C 
ATOM     39  C   UNL     1      62.827  34.791  48.679  1.00  0.00     0.022 C 
BRANCH  35  40
ATOM     40  C   UNL     1      65.052  32.140  49.941  1.00  0.00     0.246 CG0
ATOM     41  O   UNL     1      65.825  31.834  50.890  1.00  0.00    -0.272 OA
ATOM     42  G   UNL     1      64.847  31.163  48.798  1.00  0.00     0.000 G0
ENDBRANCH  35  40
ENDBRANCH  31  34
ENDBRANCH   2  30
ENDBRANCH   1   2
BRANCH   1  43
ATOM     43  C   UNL     1      58.825  31.414  53.678  1.00  0.00     0.003 C 
BRANCH  43  44
ATOM     44  C   UNL     1      57.928  30.187  53.892  1.00  0.00     0.001 C 
BRANCH  44  45
ATOM     45  C   UNL     1      56.669  30.223  53.011  1.00  0.00     0.008 C 
BRANCH  45  46
ATOM     46  C   UNL     1      56.330  28.847  52.424  1.00  0.00     0.075 C 
BRANCH  46  47
ATOM     47  C   UNL     1      57.323  28.420  51.373  1.00  0.00     0.132 C 
ATOM     48  O   UNL     1      57.654  29.215  50.508  1.00  0.00    -0.300 OA
BRANCH  47  49
ATOM     49  C   UNL     1      57.893  27.020  51.361  1.00  0.00     0.072 C 
ATOM     50  C   UNL     1      58.472  26.672  49.993  1.00  0.00     0.012 C 
ENDBRANCH  47  49
ENDBRANCH  46  47
ENDBRANCH  45  46
ENDBRANCH  44  45
ENDBRANCH  43  44
ENDBRANCH   1  43
TORSDOF 12
ENDMDL
MODEL 7
REMARK VINA RESULT:    -3.808      8.786     13.208
REMARK INTER + INTRA:          -8.379
REMARK INTER:                  -7.627
REMARK INTRA:                  -0.752
REMARK UNBOUND:                -0.342
REMARK SMILES CCC(=O)CCCCC[C@@H]1NC(=O)[C@@H]2CCCCN2C(=O)[C@@H]([C@H](C)CC)NC(=O)[C@@H](Cc2cn(OC)c3ccccc23)NC1=O
REMARK SMILES IDX 9 1 10 2 44 3 43 4 45 6 30 7 28 8 27 9 29 11 22 12 23 14
REMARK SMILES IDX 24 15 25 16 26 17 31 18 32 19 33 20 42 21 34 22 37 23 41 24
REMARK SMILES IDX 38 25 40 26 39 27 35 28 36 29 11 30 12 31 13 33 14 34 19 35
REMARK SMILES IDX 15 36 18 37 16 38 17 39 20 40 21 41 8 43 7 44 6 45 5 46 3 47
REMARK SMILES IDX 4 48 2 49 1 50
REMARK H PARENT 43 5 27 10 11 32
REMARK Flexibility Score: 80.00
ROOT
ATOM      1  C   UNL     1      61.416  23.861  63.506  1.00  0.00     0.035 C 
ENDROOT
BRANCH   1   2
ATOM      2  C   UNL     1      60.610  25.172  63.611  1.00  0.00     0.171 C 
BRANCH   2   3
ATOM      3  C   UNL     1      60.759  26.078  62.409  1.00  0.00     0.243 C 
ATOM      4  N   UNL     1      59.687  26.959  62.043  1.00  0.00    -0.342 N 
ATOM      5  H   UNL     1      58.948  27.147  62.756  1.00  0.00     0.164 HD
ATOM      6  O   UNL     1      61.843  26.097  61.758  1.00  0.00    -0.273 OA
BRANCH   4   7
ATOM      7  C   UNL     1      59.553  27.570  60.720  1.00  0.00     0.175 C 
BRANCH   7   8
ATOM      8  C   UNL     1      58.279  27.071  60.075  1.00  0.00     0.243 C 
ATOM      9  N   UNL     1      58.157  25.681  59.717  1.00  0.00    -0.342 N 
ATOM     10  H   UNL     1      59.030  25.123  59.644  1.00  0.00     0.164 HD
ATOM     11  O   UNL     1      57.325  27.858  59.868  1.00  0.00    -0.273 OA
BRANCH   9  12
ATOM     12  C   UNL     1      56.882  24.957  59.614  1.00  0.00     0.174 CG0
ATOM     13  G   UNL     1      56.195  24.975  60.967  1.00  0.00     0.000 G0
BRANCH  12  14
ATOM     14  C   UNL     1      55.966  25.501  58.475  1.00  0.00     0.018 C 
ATOM     15  C   UNL     1      54.586  24.821  58.514  1.00  0.00     0.010 C 
BRANCH  14  16
ATOM     16  C   UNL     1      56.625  25.307  57.086  1.00  0.00     0.002 C 
ATOM     17  C   UNL     1      57.203  26.602  56.510  1.00  0.00     0.004 C 
ENDBRANCH  14  16
ENDBRANCH  12  14
ENDBRANCH   9  12
ENDBRANCH   7   8
BRANCH   7  18
ATOM     18  C   UNL     1      59.608  29.106  60.850  1.00  0.00     0.073 C 
BRANCH  18  19
ATOM     19  C   UNL     1      60.624  29.709  59.921  1.00  0.00    -0.016 A 
ATOM     20  C   UNL     1      60.377  30.263  58.669  1.00  0.00     0.134 A 
ATOM     21  C   UNL     1      61.992  29.815  60.119  1.00  0.00     0.006 A 
ATOM     22  N   UNL     1      61.540  30.681  58.117  1.00  0.00    -0.191 N 
ATOM     23  C   UNL     1      62.518  30.405  58.998  1.00  0.00     0.087 A 
ATOM     24  C   UNL     1      62.787  29.487  61.218  1.00  0.00     0.011 A 
ATOM     25  C   UNL     1      63.873  30.713  58.892  1.00  0.00     0.030 A 
ATOM     26  C   UNL     1      64.166  29.770  61.137  1.00  0.00     0.001 A 
ATOM     27  C   UNL     1      64.702  30.376  59.977  1.00  0.00     0.002 A 
BRANCH  22  28
ATOM     28  O   UNL     1      61.718  31.278  56.885  1.00  0.00    -0.417 OA
ATOM     29  C   UNL     1      60.795  32.233  56.371  1.00  0.00     0.313 C 
ENDBRANCH  22  28
ENDBRANCH  18  19
ENDBRANCH   7  18
ENDBRANCH   4   7
ENDBRANCH   2   3
BRANCH   2  30
ATOM     30  N   UNL     1      59.193  24.851  63.817  1.00  0.00    -0.343 N 
ATOM     31  C   UNL     1      58.406  24.128  62.853  1.00  0.00     0.243 C 
ATOM     32  H   UNL     1      58.718  25.235  64.658  1.00  0.00     0.164 HD
ATOM     33  O   UNL     1      58.936  23.690  61.790  1.00  0.00    -0.273 OA
BRANCH  31  34
ATOM     34  C   UNL     1      56.944  23.868  63.113  1.00  0.00     0.174 C 
ATOM     35  N   UNL     1      56.224  23.784  61.829  1.00  0.00    -0.329 N 
ATOM     36  C   UNL     1      56.758  22.585  63.942  1.00  0.00     0.035 C 
ATOM     37  C   UNL     1      55.516  22.553  61.449  1.00  0.00     0.120 C 
ATOM     38  C   UNL     1      57.030  21.316  63.120  1.00  0.00     0.004 C 
ATOM     39  C   UNL     1      56.416  21.339  61.702  1.00  0.00     0.022 C 
BRANCH  35  40
ATOM     40  C   UNL     1      56.193  24.946  60.986  1.00  0.00     0.246 CG0
ATOM     41  O   UNL     1      55.719  26.023  61.440  1.00  0.00    -0.272 OA
ATOM     42  G   UNL     1      56.877  24.942  59.632  1.00  0.00     0.000 G0
ENDBRANCH  35  40
ENDBRANCH  31  34
ENDBRANCH   2  30
ENDBRANCH   1   2
BRANCH   1  43
ATOM     43  C   UNL     1      61.625  23.163  64.863  1.00  0.00     0.003 C 
BRANCH  43  44
ATOM     44  C   UNL     1      62.442  21.866  64.757  1.00  0.00     0.001 C 
BRANCH  44  45
ATOM     45  C   UNL     1      61.590  20.676  64.289  1.00  0.00     0.008 C 
BRANCH  45  46
ATOM     46  C   UNL     1      60.374  20.440  65.194  1.00  0.00     0.075 C 
BRANCH  46  47
ATOM     47  C   UNL     1      59.529  19.286  64.717  1.00  0.00     0.132 C 
ATOM     48  O   UNL     1      58.750  18.757  65.493  1.00  0.00    -0.300 OA
BRANCH  47  49
ATOM     49  C   UNL     1      59.650  18.762  63.304  1.00  0.00     0.072 C 
ATOM     50  C   UNL     1      58.693  17.600  63.063  1.00  0.00     0.012 C 
ENDBRANCH  47  49
ENDBRANCH  46  47
ENDBRANCH  45  46
ENDBRANCH  44  45
ENDBRANCH  43  44
ENDBRANCH   1  43
TORSDOF 12
ENDMDL
MODEL 8
REMARK VINA RESULT:    -3.772      3.565      6.770
REMARK INTER + INTRA:          -8.305
REMARK INTER:                  -8.465
REMARK INTRA:                   0.161
REMARK UNBOUND:                -0.342
REMARK SMILES CCC(=O)CCCCC[C@@H]1NC(=O)[C@@H]2CCCCN2C(=O)[C@@H]([C@H](C)CC)NC(=O)[C@@H](Cc2cn(OC)c3ccccc23)NC1=O
REMARK SMILES IDX 9 1 10 2 44 3 43 4 45 6 30 7 28 8 27 9 29 11 22 12 23 14
REMARK SMILES IDX 24 15 25 16 26 17 31 18 32 19 33 20 42 21 34 22 37 23 41 24
REMARK SMILES IDX 38 25 40 26 39 27 35 28 36 29 11 30 12 31 13 33 14 34 19 35
REMARK SMILES IDX 15 36 18 37 16 38 17 39 20 40 21 41 8 43 7 44 6 45 5 46 3 47
REMARK SMILES IDX 4 48 2 49 1 50
REMARK H PARENT 43 5 27 10 11 32
REMARK Flexibility Score: 80.00
ROOT
ATOM      1  C   UNL     1      64.963  29.811  48.965  1.00  0.00     0.035 C 
ENDROOT
BRANCH   1   2
ATOM      2  C   UNL     1      63.715  30.689  49.194  1.00  0.00     0.171 C 
BRANCH   2   3
ATOM      3  C   UNL     1      62.684  30.058  50.103  1.00  0.00     0.243 C 
ATOM      4  N   UNL     1      61.446  30.738  50.356  1.00  0.00    -0.342 N 
ATOM      5  H   UNL     1      61.175  31.511  49.708  1.00  0.00     0.164 HD
ATOM      6  O   UNL     1      62.889  28.913  50.599  1.00  0.00    -0.273 OA
BRANCH   4   7
ATOM      7  C   UNL     1      60.569  30.437  51.488  1.00  0.00     0.175 C 
BRANCH   7   8
ATOM      8  C   UNL     1      60.791  31.470  52.570  1.00  0.00     0.243 C 
ATOM      9  N   UNL     1      62.127  31.920  52.865  1.00  0.00    -0.342 N 
ATOM     10  H   UNL     1      62.918  31.332  52.538  1.00  0.00     0.164 HD
ATOM     11  O   UNL     1      59.815  31.947  53.197  1.00  0.00    -0.273 OA
BRANCH   9  12
ATOM     12  C   UNL     1      62.454  33.233  53.441  1.00  0.00     0.174 CG0
ATOM     13  G   UNL     1      62.582  34.245  52.319  1.00  0.00     0.000 G0
BRANCH  12  14
ATOM     14  C   UNL     1      61.439  33.683  54.535  1.00  0.00     0.018 C 
ATOM     15  C   UNL     1      61.543  35.199  54.784  1.00  0.00     0.010 C 
BRANCH  14  16
ATOM     16  C   UNL     1      61.657  32.903  55.857  1.00  0.00     0.002 C 
ATOM     17  C   UNL     1      60.348  32.547  56.566  1.00  0.00     0.004 C 
ENDBRANCH  14  16
ENDBRANCH  12  14
ENDBRANCH   9  12
ENDBRANCH   7   8
BRANCH   7  18
ATOM     18  C   UNL     1      59.106  30.363  51.007  1.00  0.00     0.073 C 
BRANCH  18  19
ATOM     19  C   UNL     1      58.618  28.945  50.914  1.00  0.00    -0.016 A 
ATOM     20  C   UNL     1      59.403  27.796  50.917  1.00  0.00     0.134 A 
ATOM     21  C   UNL     1      57.308  28.507  50.791  1.00  0.00     0.006 A 
ATOM     22  N   UNL     1      58.615  26.703  50.792  1.00  0.00    -0.191 N 
ATOM     23  C   UNL     1      57.346  27.138  50.712  1.00  0.00     0.087 A 
ATOM     24  C   UNL     1      56.103  29.211  50.801  1.00  0.00     0.011 A 
ATOM     25  C   UNL     1      56.184  26.371  50.639  1.00  0.00     0.030 A 
ATOM     26  C   UNL     1      54.909  28.465  50.711  1.00  0.00     0.001 A 
ATOM     27  C   UNL     1      54.954  27.054  50.627  1.00  0.00     0.002 A 
BRANCH  22  28
ATOM     28  O   UNL     1      59.012  25.382  50.747  1.00  0.00    -0.417 OA
ATOM     29  C   UNL     1      60.372  25.012  50.538  1.00  0.00     0.313 C 
ENDBRANCH  22  28
ENDBRANCH  18  19
ENDBRANCH   7  18
ENDBRANCH   4   7
ENDBRANCH   2   3
BRANCH   2  30
ATOM     30  N   UNL     1      64.132  31.985  49.741  1.00  0.00    -0.343 N 
ATOM     31  C   UNL     1      63.343  33.181  49.606  1.00  0.00     0.243 C 
ATOM     32  H   UNL     1      65.076  32.059  50.170  1.00  0.00     0.164 HD
ATOM     33  O   UNL     1      62.211  33.143  49.040  1.00  0.00    -0.273 OA
BRANCH  31  34
ATOM     34  C   UNL     1      63.852  34.489  50.158  1.00  0.00     0.174 C 
ATOM     35  N   UNL     1      63.855  34.433  51.631  1.00  0.00    -0.329 N 
ATOM     36  C   UNL     1      65.255  34.803  49.609  1.00  0.00     0.035 C 
ATOM     37  C   UNL     1      65.108  34.589  52.382  1.00  0.00     0.120 C 
ATOM     38  C   UNL     1      66.336  33.905  50.229  1.00  0.00     0.004 C 
ATOM     39  C   UNL     1      66.200  33.714  51.756  1.00  0.00     0.022 C 
BRANCH  35  40
ATOM     40  C   UNL     1      62.600  34.270  52.311  1.00  0.00     0.246 CG0
ATOM     41  O   UNL     1      61.581  34.874  51.877  1.00  0.00    -0.272 OA
ATOM     42  G   UNL     1      62.447  33.252  53.426  1.00  0.00     0.000 G0
ENDBRANCH  35  40
ENDBRANCH  31  34
ENDBRANCH   2  30
ENDBRANCH   1   2
BRANCH   1  43
ATOM     43  C   UNL     1      64.825  28.855  47.765  1.00  0.00     0.003 C 
BRANCH  43  44
ATOM     44  C   UNL     1      65.958  29.005  46.739  1.00  0.00     0.001 C 
BRANCH  44  45
ATOM     45  C   UNL     1      66.768  27.710  46.571  1.00  0.00     0.008 C 
BRANCH  45  46
ATOM     46  C   UNL     1      68.227  27.875  47.018  1.00  0.00     0.075 C 
BRANCH  46  47
ATOM     47  C   UNL     1      68.498  27.180  48.329  1.00  0.00     0.132 C 
ATOM     48  O   UNL     1      67.843  27.484  49.312  1.00  0.00    -0.300 OA
BRANCH  47  49
ATOM     49  C   UNL     1      69.583  26.134  48.447  1.00  0.00     0.072 C 
ATOM     50  C   UNL     1      70.784  26.669  49.219  1.00  0.00     0.012 C 
ENDBRANCH  47  49
ENDBRANCH  46  47
ENDBRANCH  45  46
ENDBRANCH  44  45
ENDBRANCH  43  44
ENDBRANCH   1  43
TORSDOF 12
ENDMDL
MODEL 9
REMARK VINA RESULT:    -3.653      6.076     10.593
REMARK INTER + INTRA:          -8.053
REMARK INTER:                  -7.502
REMARK INTRA:                  -0.550
REMARK UNBOUND:                -0.342
REMARK SMILES CCC(=O)CCCCC[C@@H]1NC(=O)[C@@H]2CCCCN2C(=O)[C@@H]([C@H](C)CC)NC(=O)[C@@H](Cc2cn(OC)c3ccccc23)NC1=O
REMARK SMILES IDX 9 1 10 2 44 3 43 4 45 6 30 7 28 8 27 9 29 11 22 12 23 14
REMARK SMILES IDX 24 15 25 16 26 17 31 18 32 19 33 20 42 21 34 22 37 23 41 24
REMARK SMILES IDX 38 25 40 26 39 27 35 28 36 29 11 30 12 31 13 33 14 34 19 35
REMARK SMILES IDX 15 36 18 37 16 38 17 39 20 40 21 41 8 43 7 44 6 45 5 46 3 47
REMARK SMILES IDX 4 48 2 49 1 50
REMARK H PARENT 43 5 27 10 11 32
REMARK Flexibility Score: 80.00
ROOT
ATOM      1  C   UNL     1      58.262  28.310  58.519  1.00  0.00     0.035 C 
ENDROOT
BRANCH   1   2
ATOM      2  C   UNL     1      58.889  29.061  57.326  1.00  0.00     0.171 C 
BRANCH   2   3
ATOM      3  C   UNL     1      58.356  30.465  57.141  1.00  0.00     0.243 C 
ATOM      4  N   UNL     1      59.097  31.410  56.355  1.00  0.00    -0.342 N 
ATOM      5  H   UNL     1      59.837  31.039  55.719  1.00  0.00     0.164 HD
ATOM      6  O   UNL     1      57.238  30.791  57.633  1.00  0.00    -0.273 OA
BRANCH   4   7
ATOM      7  C   UNL     1      58.901  32.858  56.428  1.00  0.00     0.175 C 
BRANCH   7   8
ATOM      8  C   UNL     1      60.113  33.486  57.079  1.00  0.00     0.243 C 
ATOM      9  N   UNL     1      60.429  33.174  58.450  1.00  0.00    -0.342 N 
ATOM     10  H   UNL     1      59.678  32.763  59.037  1.00  0.00     0.164 HD
ATOM     11  O   UNL     1      60.851  34.261  56.426  1.00  0.00    -0.273 OA
BRANCH   9  12
ATOM     12  C   UNL     1      61.780  33.236  59.027  1.00  0.00     0.174 CG0
ATOM     13  G   UNL     1      62.608  32.096  58.466  1.00  0.00     0.000 G0
BRANCH  12  14
ATOM     14  C   UNL     1      62.463  34.623  58.822  1.00  0.00     0.018 C 
ATOM     15  C   UNL     1      63.913  34.598  59.338  1.00  0.00     0.010 C 
BRANCH  14  16
ATOM     16  C   UNL     1      61.661  35.751  59.520  1.00  0.00     0.002 C 
ATOM     17  C   UNL     1      61.868  35.783  61.036  1.00  0.00     0.004 C 
ENDBRANCH  14  16
ENDBRANCH  12  14
ENDBRANCH   9  12
ENDBRANCH   7   8
BRANCH   7  18
ATOM     18  C   UNL     1      58.610  33.415  55.019  1.00  0.00     0.073 C 
BRANCH  18  19
ATOM     19  C   UNL     1      59.031  32.456  53.942  1.00  0.00    -0.016 A 
ATOM     20  C   UNL     1      60.308  32.319  53.405  1.00  0.00     0.134 A 
ATOM     21  C   UNL     1      58.237  31.541  53.267  1.00  0.00     0.006 A 
ATOM     22  N   UNL     1      60.298  31.372  52.438  1.00  0.00    -0.191 N 
ATOM     23  C   UNL     1      59.040  30.904  52.355  1.00  0.00     0.087 A 
ATOM     24  C   UNL     1      56.895  31.194  53.433  1.00  0.00     0.011 A 
ATOM     25  C   UNL     1      58.565  29.876  51.544  1.00  0.00     0.030 A 
ATOM     26  C   UNL     1      56.378  30.168  52.616  1.00  0.00     0.001 A 
ATOM     27  C   UNL     1      57.210  29.518  51.675  1.00  0.00     0.002 A 
BRANCH  22  28
ATOM     28  O   UNL     1      61.361  30.949  51.666  1.00  0.00    -0.417 OA
ATOM     29  C   UNL     1      62.450  31.811  51.350  1.00  0.00     0.313 C 
ENDBRANCH  22  28
ENDBRANCH  18  19
ENDBRANCH   7  18
ENDBRANCH   4   7
ENDBRANCH   2   3
BRANCH   2  30
ATOM     30  N   UNL     1      60.346  29.102  57.495  1.00  0.00    -0.343 N 
ATOM     31  C   UNL     1      60.981  29.542  58.708  1.00  0.00     0.243 C 
ATOM     32  H   UNL     1      60.943  28.882  56.673  1.00  0.00     0.164 HD
ATOM     33  O   UNL     1      60.286  29.871  59.714  1.00  0.00    -0.273 OA
BRANCH  31  34
ATOM     34  C   UNL     1      62.485  29.597  58.797  1.00  0.00     0.174 C 
ATOM     35  N   UNL     1      62.902  30.925  59.283  1.00  0.00    -0.329 N 
ATOM     36  C   UNL     1      63.017  28.477  59.710  1.00  0.00     0.035 C 
ATOM     37  C   UNL     1      63.657  31.059  60.536  1.00  0.00     0.120 C 
ATOM     38  C   UNL     1      62.731  28.752  61.194  1.00  0.00     0.004 C 
ATOM     39  C   UNL     1      63.001  30.210  61.630  1.00  0.00     0.022 C 
BRANCH  35  40
ATOM     40  C   UNL     1      62.591  32.074  58.478  1.00  0.00     0.246 CG0
ATOM     41  O   UNL     1      62.876  32.060  57.249  1.00  0.00    -0.272 OA
ATOM     42  G   UNL     1      61.775  33.220  59.044  1.00  0.00     0.000 G0
ENDBRANCH  35  40
ENDBRANCH  31  34
ENDBRANCH   2  30
ENDBRANCH   1   2
BRANCH   1  43
ATOM     43  C   UNL     1      57.760  26.900  58.156  1.00  0.00     0.003 C 
BRANCH  43  44
ATOM     44  C   UNL     1      56.238  26.746  58.292  1.00  0.00     0.001 C 
BRANCH  44  45
ATOM     45  C   UNL     1      55.838  26.015  59.583  1.00  0.00     0.008 C 
BRANCH  45  46
ATOM     46  C   UNL     1      55.161  26.949  60.594  1.00  0.00     0.075 C 
BRANCH  46  47
ATOM     47  C   UNL     1      55.989  27.128  61.841  1.00  0.00     0.132 C 
ATOM     48  O   UNL     1      55.527  27.759  62.778  1.00  0.00    -0.300 OA
BRANCH  47  49
ATOM     49  C   UNL     1      57.386  26.559  61.938  1.00  0.00     0.072 C 
ATOM     50  C   UNL     1      58.437  27.627  61.660  1.00  0.00     0.012 C 
ENDBRANCH  47  49
ENDBRANCH  46  47
ENDBRANCH  45  46
ENDBRANCH  44  45
ENDBRANCH  43  44
ENDBRANCH   1  43
TORSDOF 12
ENDMDL
