MODEL 1
REMARK VINA RESULT:    -5.019      0.000      0.000
REMARK INTER + INTRA:          -8.918
REMARK INTER:                  -6.927
REMARK INTRA:                  -1.992
REMARK UNBOUND:                -1.992
REMARK SMILES CC[C@H](CC[C@@H](C)[C@H]1CC[C@H]2[C@H]3CC=C4C[C@@H](O)CC[C@]4(C)[C@@H]3CC[C@]12C)C(C)C
REMARK SMILES IDX 5 1 4 2 3 3 2 4 1 5 28 6 29 7 30 8 6 9 7 10 8 11 9 12 26 13
REMARK SMILES IDX 10 14 11 15 25 16 27 17 12 18 24 19 23 20 13 21 21 22 14 23
REMARK SMILES IDX 15 24 20 25 22 26 16 27 19 28 17 29 18 30
REMARK H PARENT 18 31
REMARK Flexibility Score: inf
ROOT
ATOM      1  C   UNL     1      -6.494  -7.728 -32.517  1.00  0.00     0.004 C 
ENDROOT
BRANCH   1   2
ATOM      2  C   UNL     1      -5.081  -7.108 -32.412  1.00  0.00     0.004 C 
BRANCH   2   3
ATOM      3  C   UNL     1      -4.997  -5.832 -31.530  1.00  0.00    -0.009 C 
BRANCH   3   4
ATOM      4  C   UNL     1      -4.593  -4.591 -32.374  1.00  0.00     0.000 C 
ATOM      5  C   UNL     1      -3.745  -4.941 -33.601  1.00  0.00     0.004 C 
ENDBRANCH   3   4
BRANCH   3   6
ATOM      6  C   UNL     1      -6.256  -5.655 -30.602  1.00  0.00    -0.014 C 
ATOM      7  C   UNL     1      -5.889  -5.801 -29.117  1.00  0.00     0.007 C 
ATOM      8  C   UNL     1      -7.051  -4.352 -30.812  1.00  0.00     0.007 C 
ENDBRANCH   3   6
ENDBRANCH   2   3
ENDBRANCH   1   2
BRANCH   1   9
ATOM      9  C   UNL     1      -7.125  -7.719 -33.943  1.00  0.00    -0.011 C 
ATOM     10  C   UNL     1      -7.156  -9.125 -34.569  1.00  0.00     0.008 C 
BRANCH   9  11
ATOM     11  C   UNL     1      -8.515  -6.997 -34.099  1.00  0.00    -0.002 C 
ATOM     12  C   UNL     1      -9.261  -6.557 -32.812  1.00  0.00     0.005 C 
ATOM     13  C   UNL     1      -8.548  -5.734 -35.011  1.00  0.00    -0.026 C 
ATOM     14  C   UNL     1     -10.166  -5.373 -33.211  1.00  0.00     0.005 C 
ATOM     15  C   UNL     1      -9.980  -5.253 -34.719  1.00  0.00    -0.001 C 
ATOM     16  C   UNL     1      -8.411  -6.040 -36.542  1.00  0.00     0.007 C 
ATOM     17  C   UNL     1      -7.461  -4.715 -34.547  1.00  0.00     0.012 C 
ATOM     18  C   UNL     1     -10.447  -3.983 -35.482  1.00  0.00     0.000 C 
ATOM     19  C   UNL     1      -9.394  -5.235 -37.447  1.00  0.00     0.005 C 
ATOM     20  C   UNL     1      -9.730  -3.841 -36.852  1.00  0.00     0.003 C 
ATOM     21  C   UNL     1     -10.338  -2.644 -34.751  1.00  0.00     0.031 C 
ATOM     22  C   UNL     1     -10.500  -2.836 -37.784  1.00  0.00    -0.008 C 
ATOM     23  C   UNL     1     -10.947  -1.561 -35.610  1.00  0.00    -0.027 C 
ATOM     24  C   UNL     1     -11.045  -1.644 -36.965  1.00  0.00    -0.065 C 
ATOM     25  C   UNL     1     -11.704  -3.524 -38.497  1.00  0.00     0.014 C 
ATOM     26  C   UNL     1      -9.504  -2.292 -38.846  1.00  0.00     0.016 C 
ATOM     27  C   UNL     1     -11.924  -0.650 -37.691  1.00  0.00     0.063 C 
ATOM     28  C   UNL     1     -12.623  -2.532 -39.240  1.00  0.00     0.033 C 
ATOM     29  C   UNL     1     -13.109  -1.395 -38.326  1.00  0.00     0.118 C 
BRANCH  29  30
ATOM     30  O   UNL     1     -13.885  -0.502 -39.081  1.00  0.00    -0.393 OA
ATOM     31  H   UNL     1     -14.778  -0.921 -39.191  1.00  0.00     0.210 HD
ENDBRANCH  29  30
ENDBRANCH   9  11
ENDBRANCH   1   9
TORSDOF 7
ENDMDL
MODEL 2
REMARK VINA RESULT:    -4.990      9.682     13.208
REMARK INTER + INTRA:          -8.878
REMARK INTER:                  -7.200
REMARK INTRA:                  -1.678
REMARK UNBOUND:                -1.992
REMARK SMILES CC[C@H](CC[C@@H](C)[C@H]1CC[C@H]2[C@H]3CC=C4C[C@@H](O)CC[C@]4(C)[C@@H]3CC[C@]12C)C(C)C
REMARK SMILES IDX 5 1 4 2 3 3 2 4 1 5 28 6 29 7 30 8 6 9 7 10 8 11 9 12 26 13
REMARK SMILES IDX 10 14 11 15 25 16 27 17 12 18 24 19 23 20 13 21 21 22 14 23
REMARK SMILES IDX 15 24 20 25 22 26 16 27 19 28 17 29 18 30
REMARK H PARENT 18 31
REMARK Flexibility Score: inf
ROOT
ATOM      1  C   UNL     1     -18.574  -7.561 -28.900  1.00  0.00     0.004 C 
ENDROOT
BRANCH   1   2
ATOM      2  C   UNL     1     -19.220  -6.200 -29.248  1.00  0.00     0.004 C 
BRANCH   2   3
ATOM      3  C   UNL     1     -18.701  -5.554 -30.562  1.00  0.00    -0.009 C 
BRANCH   3   4
ATOM      4  C   UNL     1     -19.859  -5.339 -31.578  1.00  0.00     0.000 C 
ATOM      5  C   UNL     1     -19.457  -5.631 -33.026  1.00  0.00     0.004 C 
ENDBRANCH   3   4
BRANCH   3   6
ATOM      6  C   UNL     1     -17.775  -4.309 -30.299  1.00  0.00    -0.014 C 
ATOM      7  C   UNL     1     -16.448  -4.420 -31.067  1.00  0.00     0.007 C 
ATOM      8  C   UNL     1     -18.419  -2.938 -30.577  1.00  0.00     0.007 C 
ENDBRANCH   3   6
ENDBRANCH   2   3
ENDBRANCH   1   2
BRANCH   1   9
ATOM      9  C   UNL     1     -17.991  -7.675 -27.458  1.00  0.00    -0.011 C 
ATOM     10  C   UNL     1     -18.181  -9.086 -26.870  1.00  0.00     0.008 C 
BRANCH   9  11
ATOM     11  C   UNL     1     -16.516  -7.166 -27.246  1.00  0.00    -0.002 C 
ATOM     12  C   UNL     1     -15.657  -6.866 -28.503  1.00  0.00     0.005 C 
ATOM     13  C   UNL     1     -16.335  -5.905 -26.350  1.00  0.00    -0.026 C 
ATOM     14  C   UNL     1     -14.604  -5.822 -28.077  1.00  0.00     0.005 C 
ATOM     15  C   UNL     1     -14.836  -5.648 -26.580  1.00  0.00    -0.001 C 
ATOM     16  C   UNL     1     -16.584  -6.158 -24.823  1.00  0.00     0.007 C 
ATOM     17  C   UNL     1     -17.237  -4.745 -26.876  1.00  0.00     0.012 C 
ATOM     18  C   UNL     1     -14.218  -4.447 -25.812  1.00  0.00     0.000 C 
ATOM     19  C   UNL     1     -15.533  -5.491 -23.883  1.00  0.00     0.005 C 
ATOM     20  C   UNL     1     -14.966  -4.174 -24.479  1.00  0.00     0.003 C 
ATOM     21  C   UNL     1     -14.094  -3.121 -26.564  1.00  0.00     0.031 C 
ATOM     22  C   UNL     1     -14.096  -3.277 -23.524  1.00  0.00    -0.008 C 
ATOM     23  C   UNL     1     -13.369  -2.124 -25.690  1.00  0.00    -0.027 C 
ATOM     24  C   UNL     1     -13.344  -2.195 -24.332  1.00  0.00    -0.065 C 
ATOM     25  C   UNL     1     -13.042  -4.122 -22.747  1.00  0.00     0.014 C 
ATOM     26  C   UNL     1     -15.046  -2.570 -22.517  1.00  0.00     0.016 C 
ATOM     27  C   UNL     1     -12.359  -1.329 -23.578  1.00  0.00     0.063 C 
ATOM     28  C   UNL     1     -12.019  -3.264 -21.975  1.00  0.00     0.033 C 
ATOM     29  C   UNL     1     -11.328  -2.229 -22.879  1.00  0.00     0.118 C 
BRANCH  29  30
ATOM     30  O   UNL     1     -10.462  -1.448 -22.100  1.00  0.00    -0.393 OA
ATOM     31  H   UNL     1      -9.557  -1.538 -22.499  1.00  0.00     0.210 HD
ENDBRANCH  29  30
ENDBRANCH   9  11
ENDBRANCH   1   9
TORSDOF 7
ENDMDL
MODEL 3
REMARK VINA RESULT:    -4.954      5.238      9.054
REMARK INTER + INTRA:          -8.829
REMARK INTER:                  -7.341
REMARK INTRA:                  -1.487
REMARK UNBOUND:                -1.992
REMARK SMILES CC[C@H](CC[C@@H](C)[C@H]1CC[C@H]2[C@H]3CC=C4C[C@@H](O)CC[C@]4(C)[C@@H]3CC[C@]12C)C(C)C
REMARK SMILES IDX 5 1 4 2 3 3 2 4 1 5 28 6 29 7 30 8 6 9 7 10 8 11 9 12 26 13
REMARK SMILES IDX 10 14 11 15 25 16 27 17 12 18 24 19 23 20 13 21 21 22 14 23
REMARK SMILES IDX 15 24 20 25 22 26 16 27 19 28 17 29 18 30
REMARK H PARENT 18 31
REMARK Flexibility Score: inf
ROOT
ATOM      1  C   UNL     1     -12.031  -2.153 -37.981  1.00  0.00     0.004 C 
ENDROOT
BRANCH   1   2
ATOM      2  C   UNL     1     -10.818  -2.445 -37.067  1.00  0.00     0.004 C 
BRANCH   2   3
ATOM      3  C   UNL     1      -9.581  -3.031 -37.801  1.00  0.00    -0.009 C 
BRANCH   3   4
ATOM      4  C   UNL     1      -8.422  -1.995 -37.864  1.00  0.00     0.000 C 
ATOM      5  C   UNL     1      -8.143  -1.483 -39.281  1.00  0.00     0.004 C 
ENDBRANCH   3   4
BRANCH   3   6
ATOM      6  C   UNL     1      -9.195  -4.467 -37.285  1.00  0.00    -0.014 C 
ATOM      7  C   UNL     1     -10.439  -5.340 -37.060  1.00  0.00     0.007 C 
ATOM      8  C   UNL     1      -8.179  -5.229 -38.157  1.00  0.00     0.007 C 
ENDBRANCH   3   6
ENDBRANCH   2   3
ENDBRANCH   1   2
BRANCH   1   9
ATOM      9  C   UNL     1     -11.809  -1.044 -39.054  1.00  0.00    -0.011 C 
ATOM     10  C   UNL     1     -11.907  -1.601 -40.487  1.00  0.00     0.008 C 
BRANCH   9  11
ATOM     11  C   UNL     1     -12.654   0.275 -38.898  1.00  0.00    -0.002 C 
ATOM     12  C   UNL     1     -13.561   0.421 -37.648  1.00  0.00     0.005 C 
ATOM     13  C   UNL     1     -11.869   1.619 -38.961  1.00  0.00    -0.026 C 
ATOM     14  C   UNL     1     -13.726   1.934 -37.399  1.00  0.00     0.005 C 
ATOM     15  C   UNL     1     -12.999   2.587 -38.570  1.00  0.00    -0.001 C 
ATOM     16  C   UNL     1     -11.343   1.994 -40.389  1.00  0.00     0.007 C 
ATOM     17  C   UNL     1     -10.702   1.600 -37.924  1.00  0.00     0.012 C 
ATOM     18  C   UNL     1     -12.632   4.096 -38.539  1.00  0.00     0.000 C 
ATOM     19  C   UNL     1     -11.549   3.491 -40.775  1.00  0.00     0.005 C 
ATOM     20  C   UNL     1     -11.492   4.429 -39.539  1.00  0.00     0.003 C 
ATOM     21  C   UNL     1     -12.264   4.702 -37.184  1.00  0.00     0.031 C 
ATOM     22  C   UNL     1     -11.428   5.974 -39.820  1.00  0.00    -0.008 C 
ATOM     23  C   UNL     1     -12.057   6.190 -37.349  1.00  0.00    -0.027 C 
ATOM     24  C   UNL     1     -11.705   6.773 -38.526  1.00  0.00    -0.065 C 
ATOM     25  C   UNL     1     -12.477   6.405 -40.890  1.00  0.00     0.014 C 
ATOM     26  C   UNL     1      -9.998   6.322 -40.319  1.00  0.00     0.016 C 
ATOM     27  C   UNL     1     -11.810   8.277 -38.651  1.00  0.00     0.063 C 
ATOM     28  C   UNL     1     -12.611   7.936 -41.033  1.00  0.00     0.033 C 
ATOM     29  C   UNL     1     -12.893   8.622 -39.686  1.00  0.00     0.118 C 
BRANCH  29  30
ATOM     30  O   UNL     1     -12.940  10.011 -39.883  1.00  0.00    -0.393 OA
ATOM     31  H   UNL     1     -12.303  10.219 -40.616  1.00  0.00     0.210 HD
ENDBRANCH  29  30
ENDBRANCH   9  11
ENDBRANCH   1   9
TORSDOF 7
ENDMDL
MODEL 4
REMARK VINA RESULT:    -4.899      3.133      8.755
REMARK INTER + INTRA:          -8.753
REMARK INTER:                  -6.998
REMARK INTRA:                  -1.755
REMARK UNBOUND:                -1.992
REMARK SMILES CC[C@H](CC[C@@H](C)[C@H]1CC[C@H]2[C@H]3CC=C4C[C@@H](O)CC[C@]4(C)[C@@H]3CC[C@]12C)C(C)C
REMARK SMILES IDX 5 1 4 2 3 3 2 4 1 5 28 6 29 7 30 8 6 9 7 10 8 11 9 12 26 13
REMARK SMILES IDX 10 14 11 15 25 16 27 17 12 18 24 19 23 20 13 21 21 22 14 23
REMARK SMILES IDX 15 24 20 25 22 26 16 27 19 28 17 29 18 30
REMARK H PARENT 18 31
REMARK Flexibility Score: inf
ROOT
ATOM      1  C   UNL     1     -12.246   0.120 -40.240  1.00  0.00     0.004 C 
ENDROOT
BRANCH   1   2
ATOM      2  C   UNL     1     -11.157   0.924 -40.989  1.00  0.00     0.004 C 
BRANCH   2   3
ATOM      3  C   UNL     1     -10.124   1.628 -40.067  1.00  0.00    -0.009 C 
BRANCH   3   4
ATOM      4  C   UNL     1      -8.678   1.137 -40.365  1.00  0.00     0.000 C 
ATOM      5  C   UNL     1      -7.803   1.034 -39.112  1.00  0.00     0.004 C 
ENDBRANCH   3   4
BRANCH   3   6
ATOM      6  C   UNL     1     -10.324   3.189 -40.014  1.00  0.00    -0.014 C 
ATOM      7  C   UNL     1     -11.283   3.672 -41.114  1.00  0.00     0.007 C 
ATOM      8  C   UNL     1     -10.776   3.749 -38.652  1.00  0.00     0.007 C 
ENDBRANCH   3   6
ENDBRANCH   2   3
ENDBRANCH   1   2
BRANCH   1   9
ATOM      9  C   UNL     1     -11.945  -0.177 -38.740  1.00  0.00    -0.011 C 
ATOM     10  C   UNL     1     -12.733   0.753 -37.799  1.00  0.00     0.008 C 
BRANCH   9  11
ATOM     11  C   UNL     1     -12.056  -1.678 -38.277  1.00  0.00    -0.002 C 
ATOM     12  C   UNL     1     -12.459  -2.743 -39.331  1.00  0.00     0.005 C 
ATOM     13  C   UNL     1     -10.805  -2.287 -37.577  1.00  0.00    -0.026 C 
ATOM     14  C   UNL     1     -11.874  -4.085 -38.846  1.00  0.00     0.005 C 
ATOM     15  C   UNL     1     -11.256  -3.756 -37.492  1.00  0.00    -0.001 C 
ATOM     16  C   UNL     1     -10.547  -1.745 -36.129  1.00  0.00     0.007 C 
ATOM     17  C   UNL     1      -9.545  -2.092 -38.478  1.00  0.00     0.012 C 
ATOM     18  C   UNL     1     -10.269  -4.740 -36.805  1.00  0.00     0.000 C 
ATOM     19  C   UNL     1     -10.165  -2.845 -35.092  1.00  0.00     0.005 C 
ATOM     20  C   UNL     1      -9.392  -4.023 -35.743  1.00  0.00     0.003 C 
ATOM     21  C   UNL     1      -9.344  -5.553 -37.712  1.00  0.00     0.031 C 
ATOM     22  C   UNL     1      -8.730  -5.066 -34.770  1.00  0.00    -0.008 C 
ATOM     23  C   UNL     1      -8.554  -6.526 -36.865  1.00  0.00    -0.027 C 
ATOM     24  C   UNL     1      -8.292  -6.329 -35.545  1.00  0.00    -0.065 C 
ATOM     25  C   UNL     1      -9.715  -5.504 -33.645  1.00  0.00     0.014 C 
ATOM     26  C   UNL     1      -7.469  -4.412 -34.138  1.00  0.00     0.016 C 
ATOM     27  C   UNL     1      -7.754  -7.487 -34.733  1.00  0.00     0.063 C 
ATOM     28  C   UNL     1      -9.195  -6.690 -32.804  1.00  0.00     0.033 C 
ATOM     29  C   UNL     1      -8.797  -7.890 -33.679  1.00  0.00     0.118 C 
BRANCH  29  30
ATOM     30  O   UNL     1      -8.278  -8.902 -32.856  1.00  0.00    -0.393 OA
ATOM     31  H   UNL     1      -7.554  -8.489 -32.316  1.00  0.00     0.210 HD
ENDBRANCH  29  30
ENDBRANCH   9  11
ENDBRANCH   1   9
TORSDOF 7
ENDMDL
MODEL 5
REMARK VINA RESULT:    -4.865     10.074     14.213
REMARK INTER + INTRA:          -8.705
REMARK INTER:                  -6.859
REMARK INTRA:                  -1.846
REMARK UNBOUND:                -1.992
REMARK SMILES CC[C@H](CC[C@@H](C)[C@H]1CC[C@H]2[C@H]3CC=C4C[C@@H](O)CC[C@]4(C)[C@@H]3CC[C@]12C)C(C)C
REMARK SMILES IDX 5 1 4 2 3 3 2 4 1 5 28 6 29 7 30 8 6 9 7 10 8 11 9 12 26 13
REMARK SMILES IDX 10 14 11 15 25 16 27 17 12 18 24 19 23 20 13 21 21 22 14 23
REMARK SMILES IDX 15 24 20 25 22 26 16 27 19 28 17 29 18 30
REMARK H PARENT 18 31
REMARK Flexibility Score: inf
ROOT
ATOM      1  C   UNL     1     -20.790   4.291 -35.824  1.00  0.00     0.004 C 
ENDROOT
BRANCH   1   2
ATOM      2  C   UNL     1     -21.560   5.466 -35.176  1.00  0.00     0.004 C 
BRANCH   2   3
ATOM      3  C   UNL     1     -20.694   6.392 -34.278  1.00  0.00    -0.009 C 
BRANCH   3   4
ATOM      4  C   UNL     1     -20.580   7.818 -34.887  1.00  0.00     0.000 C 
ATOM      5  C   UNL     1     -20.609   8.931 -33.835  1.00  0.00     0.004 C 
ENDBRANCH   3   4
BRANCH   3   6
ATOM      6  C   UNL     1     -21.106   6.320 -32.761  1.00  0.00    -0.014 C 
ATOM      7  C   UNL     1     -22.491   5.678 -32.580  1.00  0.00     0.007 C 
ATOM      8  C   UNL     1     -20.089   5.624 -31.835  1.00  0.00     0.007 C 
ENDBRANCH   3   6
ENDBRANCH   2   3
ENDBRANCH   1   2
BRANCH   1   9
ATOM      9  C   UNL     1     -19.449   3.907 -35.129  1.00  0.00    -0.011 C 
ATOM     10  C   UNL     1     -19.630   2.758 -34.120  1.00  0.00     0.008 C 
BRANCH   9  11
ATOM     11  C   UNL     1     -18.212   3.647 -36.069  1.00  0.00    -0.002 C 
ATOM     12  C   UNL     1     -18.441   3.658 -37.603  1.00  0.00     0.005 C 
ATOM     13  C   UNL     1     -16.972   4.566 -35.861  1.00  0.00    -0.026 C 
ATOM     14  C   UNL     1     -17.092   4.037 -38.247  1.00  0.00     0.005 C 
ATOM     15  C   UNL     1     -16.127   4.124 -37.069  1.00  0.00    -0.001 C 
ATOM     16  C   UNL     1     -16.171   4.282 -34.544  1.00  0.00     0.007 C 
ATOM     17  C   UNL     1     -17.402   6.064 -35.938  1.00  0.00     0.012 C 
ATOM     18  C   UNL     1     -14.739   4.803 -37.223  1.00  0.00     0.000 C 
ATOM     19  C   UNL     1     -14.621   4.271 -34.726  1.00  0.00     0.005 C 
ATOM     20  C   UNL     1     -14.156   5.234 -35.850  1.00  0.00     0.003 C 
ATOM     21  C   UNL     1     -14.644   5.998 -38.174  1.00  0.00     0.031 C 
ATOM     22  C   UNL     1     -12.612   5.509 -35.960  1.00  0.00    -0.008 C 
ATOM     23  C   UNL     1     -13.201   6.436 -38.272  1.00  0.00    -0.027 C 
ATOM     24  C   UNL     1     -12.278   6.205 -37.299  1.00  0.00    -0.065 C 
ATOM     25  C   UNL     1     -11.789   4.187 -35.883  1.00  0.00     0.014 C 
ATOM     26  C   UNL     1     -12.199   6.452 -34.797  1.00  0.00     0.016 C 
ATOM     27  C   UNL     1     -10.816   6.421 -37.621  1.00  0.00     0.063 C 
ATOM     28  C   UNL     1     -10.294   4.377 -36.213  1.00  0.00     0.033 C 
ATOM     29  C   UNL     1     -10.083   5.071 -37.569  1.00  0.00     0.118 C 
BRANCH  29  30
ATOM     30  O   UNL     1      -8.708   5.266 -37.774  1.00  0.00    -0.393 OA
ATOM     31  H   UNL     1      -8.240   4.809 -37.027  1.00  0.00     0.210 HD
ENDBRANCH  29  30
ENDBRANCH   9  11
ENDBRANCH   1   9
TORSDOF 7
ENDMDL
MODEL 6
REMARK VINA RESULT:    -4.863     11.761     14.157
REMARK INTER + INTRA:          -8.703
REMARK INTER:                  -6.878
REMARK INTRA:                  -1.824
REMARK UNBOUND:                -1.992
REMARK SMILES CC[C@H](CC[C@@H](C)[C@H]1CC[C@H]2[C@H]3CC=C4C[C@@H](O)CC[C@]4(C)[C@@H]3CC[C@]12C)C(C)C
REMARK SMILES IDX 5 1 4 2 3 3 2 4 1 5 28 6 29 7 30 8 6 9 7 10 8 11 9 12 26 13
REMARK SMILES IDX 10 14 11 15 25 16 27 17 12 18 24 19 23 20 13 21 21 22 14 23
REMARK SMILES IDX 15 24 20 25 22 26 16 27 19 28 17 29 18 30
REMARK H PARENT 18 31
REMARK Flexibility Score: inf
ROOT
ATOM      1  C   UNL     1      -4.524   3.803 -25.455  1.00  0.00     0.004 C 
ENDROOT
BRANCH   1   2
ATOM      2  C   UNL     1      -3.757   4.971 -26.120  1.00  0.00     0.004 C 
BRANCH   2   3
ATOM      3  C   UNL     1      -4.628   5.888 -27.022  1.00  0.00    -0.009 C 
BRANCH   3   4
ATOM      4  C   UNL     1      -4.656   7.345 -26.481  1.00  0.00     0.000 C 
ATOM      5  C   UNL     1      -3.275   8.006 -26.445  1.00  0.00     0.004 C 
ENDBRANCH   3   4
BRANCH   3   6
ATOM      6  C   UNL     1      -4.292   5.727 -28.551  1.00  0.00    -0.014 C 
ATOM      7  C   UNL     1      -2.993   4.933 -28.764  1.00  0.00     0.007 C 
ATOM      8  C   UNL     1      -5.416   5.117 -29.411  1.00  0.00     0.007 C 
ENDBRANCH   3   6
ENDBRANCH   2   3
ENDBRANCH   1   2
BRANCH   1   9
ATOM      9  C   UNL     1      -5.863   3.404 -26.145  1.00  0.00    -0.011 C 
ATOM     10  C   UNL     1      -5.683   2.221 -27.114  1.00  0.00     0.008 C 
BRANCH   9  11
ATOM     11  C   UNL     1      -7.108   3.184 -25.206  1.00  0.00    -0.002 C 
ATOM     12  C   UNL     1      -6.874   3.161 -23.673  1.00  0.00     0.005 C 
ATOM     13  C   UNL     1      -8.307   4.160 -25.395  1.00  0.00    -0.026 C 
ATOM     14  C   UNL     1      -8.203   3.589 -23.019  1.00  0.00     0.005 C 
ATOM     15  C   UNL     1      -9.167   3.737 -24.191  1.00  0.00    -0.001 C 
ATOM     16  C   UNL     1      -9.123   3.932 -26.714  1.00  0.00     0.007 C 
ATOM     17  C   UNL     1      -7.811   5.637 -25.296  1.00  0.00     0.012 C 
ATOM     18  C   UNL     1     -10.523   4.474 -24.022  1.00  0.00     0.000 C 
ATOM     19  C   UNL     1     -10.671   3.987 -26.527  1.00  0.00     0.005 C 
ATOM     20  C   UNL     1     -11.090   4.951 -25.386  1.00  0.00     0.003 C 
ATOM     21  C   UNL     1     -10.564   5.656 -23.053  1.00  0.00     0.031 C 
ATOM     22  C   UNL     1     -12.621   5.291 -25.267  1.00  0.00    -0.008 C 
ATOM     23  C   UNL     1     -11.986   6.156 -22.943  1.00  0.00    -0.027 C 
ATOM     24  C   UNL     1     -12.920   5.980 -23.916  1.00  0.00    -0.065 C 
ATOM     25  C   UNL     1     -13.501   4.008 -25.362  1.00  0.00     0.014 C 
ATOM     26  C   UNL     1     -12.995   6.270 -26.414  1.00  0.00     0.016 C 
ATOM     27  C   UNL     1     -14.371   6.255 -23.586  1.00  0.00     0.063 C 
ATOM     28  C   UNL     1     -14.986   4.259 -25.024  1.00  0.00     0.033 C 
ATOM     29  C   UNL     1     -15.162   4.940 -23.656  1.00  0.00     0.118 C 
BRANCH  29  30
ATOM     30  O   UNL     1     -16.526   5.192 -23.444  1.00  0.00    -0.393 OA
ATOM     31  H   UNL     1     -16.966   4.309 -23.329  1.00  0.00     0.210 HD
ENDBRANCH  29  30
ENDBRANCH   9  11
ENDBRANCH   1   9
TORSDOF 7
ENDMDL
MODEL 7
REMARK VINA RESULT:    -4.840      2.947      6.386
REMARK INTER + INTRA:          -8.671
REMARK INTER:                  -7.152
REMARK INTRA:                  -1.519
REMARK UNBOUND:                -1.992
REMARK SMILES CC[C@H](CC[C@@H](C)[C@H]1CC[C@H]2[C@H]3CC=C4C[C@@H](O)CC[C@]4(C)[C@@H]3CC[C@]12C)C(C)C
REMARK SMILES IDX 5 1 4 2 3 3 2 4 1 5 28 6 29 7 30 8 6 9 7 10 8 11 9 12 26 13
REMARK SMILES IDX 10 14 11 15 25 16 27 17 12 18 24 19 23 20 13 21 21 22 14 23
REMARK SMILES IDX 15 24 20 25 22 26 16 27 19 28 17 29 18 30
REMARK H PARENT 18 31
REMARK Flexibility Score: inf
ROOT
ATOM      1  C   UNL     1      -9.643  -4.998 -38.145  1.00  0.00     0.004 C 
ENDROOT
BRANCH   1   2
ATOM      2  C   UNL     1      -9.998  -5.938 -36.969  1.00  0.00     0.004 C 
BRANCH   2   3
ATOM      3  C   UNL     1      -9.126  -5.743 -35.698  1.00  0.00    -0.009 C 
BRANCH   3   4
ATOM      4  C   UNL     1      -9.996  -5.322 -34.480  1.00  0.00     0.000 C 
ATOM      5  C   UNL     1      -9.766  -3.873 -34.042  1.00  0.00     0.004 C 
ENDBRANCH   3   4
BRANCH   3   6
ATOM      6  C   UNL     1      -8.134  -6.941 -35.455  1.00  0.00    -0.014 C 
ATOM      7  C   UNL     1      -8.205  -7.450 -34.007  1.00  0.00     0.007 C 
ATOM      8  C   UNL     1      -8.283  -8.127 -36.427  1.00  0.00     0.007 C 
ENDBRANCH   3   6
ENDBRANCH   2   3
ENDBRANCH   1   2
BRANCH   1   9
ATOM      9  C   UNL     1      -9.892  -3.481 -37.887  1.00  0.00    -0.011 C 
ATOM     10  C   UNL     1      -8.640  -2.633 -38.181  1.00  0.00     0.008 C 
BRANCH   9  11
ATOM     11  C   UNL     1     -11.174  -2.849 -38.548  1.00  0.00    -0.002 C 
ATOM     12  C   UNL     1     -12.189  -3.801 -39.234  1.00  0.00     0.005 C 
ATOM     13  C   UNL     1     -12.055  -1.943 -37.637  1.00  0.00    -0.026 C 
ATOM     14  C   UNL     1     -13.557  -3.089 -39.191  1.00  0.00     0.005 C 
ATOM     15  C   UNL     1     -13.250  -1.726 -38.581  1.00  0.00    -0.001 C 
ATOM     16  C   UNL     1     -11.413  -0.555 -37.294  1.00  0.00     0.007 C 
ATOM     17  C   UNL     1     -12.442  -2.714 -36.336  1.00  0.00     0.012 C 
ATOM     18  C   UNL     1     -14.390  -0.815 -38.049  1.00  0.00     0.000 C 
ATOM     19  C   UNL     1     -12.401   0.649 -37.389  1.00  0.00     0.005 C 
ATOM     20  C   UNL     1     -13.858   0.241 -37.042  1.00  0.00     0.003 C 
ATOM     21  C   UNL     1     -15.601  -1.503 -37.416  1.00  0.00     0.031 C 
ATOM     22  C   UNL     1     -14.897   1.404 -36.851  1.00  0.00    -0.008 C 
ATOM     23  C   UNL     1     -16.638  -0.459 -37.073  1.00  0.00    -0.027 C 
ATOM     24  C   UNL     1     -16.339   0.848 -36.840  1.00  0.00    -0.065 C 
ATOM     25  C   UNL     1     -14.794   2.458 -37.995  1.00  0.00     0.014 C 
ATOM     26  C   UNL     1     -14.621   2.087 -35.483  1.00  0.00     0.016 C 
ATOM     27  C   UNL     1     -17.469   1.854 -36.796  1.00  0.00     0.063 C 
ATOM     28  C   UNL     1     -15.938   3.493 -37.979  1.00  0.00     0.033 C 
ATOM     29  C   UNL     1     -17.324   2.826 -37.977  1.00  0.00     0.118 C 
BRANCH  29  30
ATOM     30  O   UNL     1     -18.310   3.822 -37.899  1.00  0.00    -0.393 OA
ATOM     31  H   UNL     1     -17.978   4.504 -37.259  1.00  0.00     0.210 HD
ENDBRANCH  29  30
ENDBRANCH   9  11
ENDBRANCH   1   9
TORSDOF 7
ENDMDL
MODEL 8
REMARK VINA RESULT:    -4.741     10.494     13.020
REMARK INTER + INTRA:          -8.535
REMARK INTER:                  -6.890
REMARK INTRA:                  -1.644
REMARK UNBOUND:                -1.992
REMARK SMILES CC[C@H](CC[C@@H](C)[C@H]1CC[C@H]2[C@H]3CC=C4C[C@@H](O)CC[C@]4(C)[C@@H]3CC[C@]12C)C(C)C
REMARK SMILES IDX 5 1 4 2 3 3 2 4 1 5 28 6 29 7 30 8 6 9 7 10 8 11 9 12 26 13
REMARK SMILES IDX 10 14 11 15 25 16 27 17 12 18 24 19 23 20 13 21 21 22 14 23
REMARK SMILES IDX 15 24 20 25 22 26 16 27 19 28 17 29 18 30
REMARK H PARENT 18 31
REMARK Flexibility Score: inf
ROOT
ATOM      1  C   UNL     1      -9.777   6.383 -38.743  1.00  0.00     0.004 C 
ENDROOT
BRANCH   1   2
ATOM      2  C   UNL     1      -9.708   7.302 -39.985  1.00  0.00     0.004 C 
BRANCH   2   3
ATOM      3  C   UNL     1     -10.197   8.756 -39.743  1.00  0.00    -0.009 C 
BRANCH   3   4
ATOM      4  C   UNL     1     -10.005   9.633 -41.013  1.00  0.00     0.000 C 
ATOM      5  C   UNL     1      -9.523  11.053 -40.703  1.00  0.00     0.004 C 
ENDBRANCH   3   4
BRANCH   3   6
ATOM      6  C   UNL     1     -11.621   8.812 -39.076  1.00  0.00    -0.014 C 
ATOM      7  C   UNL     1     -11.592   9.577 -37.742  1.00  0.00     0.007 C 
ATOM      8  C   UNL     1     -12.745   9.373 -39.968  1.00  0.00     0.007 C 
ENDBRANCH   3   6
ENDBRANCH   2   3
ENDBRANCH   1   2
BRANCH   1   9
ATOM      9  C   UNL     1     -10.858   5.261 -38.801  1.00  0.00    -0.011 C 
ATOM     10  C   UNL     1     -10.267   3.914 -39.254  1.00  0.00     0.008 C 
BRANCH   9  11
ATOM     11  C   UNL     1     -11.766   5.083 -37.526  1.00  0.00    -0.002 C 
ATOM     12  C   UNL     1     -11.669   6.148 -36.402  1.00  0.00     0.005 C 
ATOM     13  C   UNL     1     -13.296   4.927 -37.774  1.00  0.00    -0.026 C 
ATOM     14  C   UNL     1     -13.022   6.131 -35.662  1.00  0.00     0.005 C 
ATOM     15  C   UNL     1     -13.793   4.992 -36.320  1.00  0.00    -0.001 C 
ATOM     16  C   UNL     1     -13.712   3.551 -38.399  1.00  0.00     0.007 C 
ATOM     17  C   UNL     1     -13.816   6.114 -38.646  1.00  0.00     0.012 C 
ATOM     18  C   UNL     1     -15.324   4.839 -36.109  1.00  0.00     0.000 C 
ATOM     19  C   UNL     1     -14.977   2.909 -37.749  1.00  0.00     0.005 C 
ATOM     20  C   UNL     1     -15.973   3.978 -37.226  1.00  0.00     0.003 C 
ATOM     21  C   UNL     1     -16.145   6.122 -35.965  1.00  0.00     0.031 C 
ATOM     22  C   UNL     1     -17.395   3.471 -36.786  1.00  0.00    -0.008 C 
ATOM     23  C   UNL     1     -17.578   5.759 -35.653  1.00  0.00    -0.027 C 
ATOM     24  C   UNL     1     -18.142   4.569 -35.996  1.00  0.00    -0.065 C 
ATOM     25  C   UNL     1     -17.297   2.205 -35.882  1.00  0.00     0.014 C 
ATOM     26  C   UNL     1     -18.214   3.139 -38.065  1.00  0.00     0.016 C 
ATOM     27  C   UNL     1     -19.476   4.196 -35.385  1.00  0.00     0.063 C 
ATOM     28  C   UNL     1     -18.642   1.806 -35.239  1.00  0.00     0.033 C 
ATOM     29  C   UNL     1     -19.289   2.973 -34.475  1.00  0.00     0.118 C 
BRANCH  29  30
ATOM     30  O   UNL     1     -20.531   2.557 -33.973  1.00  0.00    -0.393 OA
ATOM     31  H   UNL     1     -20.650   3.004 -33.095  1.00  0.00     0.210 HD
ENDBRANCH  29  30
ENDBRANCH   9  11
ENDBRANCH   1   9
TORSDOF 7
ENDMDL
MODEL 9
REMARK VINA RESULT:    -4.725      3.357      6.789
REMARK INTER + INTRA:          -8.513
REMARK INTER:                  -6.827
REMARK INTRA:                  -1.686
REMARK UNBOUND:                -1.992
REMARK SMILES CC[C@H](CC[C@@H](C)[C@H]1CC[C@H]2[C@H]3CC=C4C[C@@H](O)CC[C@]4(C)[C@@H]3CC[C@]12C)C(C)C
REMARK SMILES IDX 5 1 4 2 3 3 2 4 1 5 28 6 29 7 30 8 6 9 7 10 8 11 9 12 26 13
REMARK SMILES IDX 10 14 11 15 25 16 27 17 12 18 24 19 23 20 13 21 21 22 14 23
REMARK SMILES IDX 15 24 20 25 22 26 16 27 19 28 17 29 18 30
REMARK H PARENT 18 31
REMARK Flexibility Score: inf
ROOT
ATOM      1  C   UNL     1     -10.406  -4.442 -37.859  1.00  0.00     0.004 C 
ENDROOT
BRANCH   1   2
ATOM      2  C   UNL     1     -10.714  -5.074 -36.481  1.00  0.00     0.004 C 
BRANCH   2   3
ATOM      3  C   UNL     1      -9.510  -5.796 -35.816  1.00  0.00    -0.009 C 
BRANCH   3   4
ATOM      4  C   UNL     1      -8.574  -6.430 -36.884  1.00  0.00     0.000 C 
ATOM      5  C   UNL     1      -8.296  -7.916 -36.641  1.00  0.00     0.004 C 
ENDBRANCH   3   4
BRANCH   3   6
ATOM      6  C   UNL     1      -8.805  -4.912 -34.720  1.00  0.00    -0.014 C 
ATOM      7  C   UNL     1      -7.384  -4.509 -35.146  1.00  0.00     0.007 C 
ATOM      8  C   UNL     1      -9.588  -3.659 -34.282  1.00  0.00     0.007 C 
ENDBRANCH   3   6
ENDBRANCH   2   3
ENDBRANCH   1   2
BRANCH   1   9
ATOM      9  C   UNL     1      -9.926  -2.959 -37.822  1.00  0.00    -0.011 C 
ATOM     10  C   UNL     1      -8.460  -2.817 -38.272  1.00  0.00     0.008 C 
BRANCH   9  11
ATOM     11  C   UNL     1     -10.845  -1.898 -38.535  1.00  0.00    -0.002 C 
ATOM     12  C   UNL     1     -11.977  -2.413 -39.462  1.00  0.00     0.005 C 
ATOM     13  C   UNL     1     -11.547  -0.853 -37.618  1.00  0.00    -0.026 C 
ATOM     14  C   UNL     1     -13.062  -1.317 -39.482  1.00  0.00     0.005 C 
ATOM     15  C   UNL     1     -12.463  -0.183 -38.656  1.00  0.00    -0.001 C 
ATOM     16  C   UNL     1     -10.584   0.224 -37.011  1.00  0.00     0.007 C 
ATOM     17  C   UNL     1     -12.343  -1.586 -36.492  1.00  0.00     0.012 C 
ATOM     18  C   UNL     1     -13.350   0.982 -38.141  1.00  0.00     0.000 C 
ATOM     19  C   UNL     1     -11.144   1.680 -37.053  1.00  0.00     0.005 C 
ATOM     20  C   UNL     1     -12.691   1.717 -36.941  1.00  0.00     0.003 C 
ATOM     21  C   UNL     1     -14.793   0.651 -37.757  1.00  0.00     0.031 C 
ATOM     22  C   UNL     1     -13.356   3.123 -36.714  1.00  0.00    -0.008 C 
ATOM     23  C   UNL     1     -15.515   1.929 -37.397  1.00  0.00    -0.027 C 
ATOM     24  C   UNL     1     -14.882   3.047 -36.950  1.00  0.00    -0.065 C 
ATOM     25  C   UNL     1     -12.769   4.197 -37.680  1.00  0.00     0.014 C 
ATOM     26  C   UNL     1     -13.105   3.550 -35.241  1.00  0.00     0.016 C 
ATOM     27  C   UNL     1     -15.655   4.347 -36.900  1.00  0.00     0.063 C 
ATOM     28  C   UNL     1     -13.543   5.531 -37.655  1.00  0.00     0.033 C 
ATOM     29  C   UNL     1     -15.047   5.335 -37.909  1.00  0.00     0.118 C 
BRANCH  29  30
ATOM     30  O   UNL     1     -15.693   6.576 -37.810  1.00  0.00    -0.393 OA
ATOM     31  H   UNL     1     -16.494   6.530 -38.395  1.00  0.00     0.210 HD
ENDBRANCH  29  30
ENDBRANCH   9  11
ENDBRANCH   1   9
TORSDOF 7
ENDMDL
