MODEL 1
REMARK VINA RESULT:    36.345      0.000      0.000
REMARK INTER + INTRA:          81.022
REMARK INTER:                  76.715
REMARK INTRA:                   4.306
REMARK UNBOUND:                 4.306
REMARK SMILES CCC(=O)CCCCC[C@@H]1NC(=O)[C@H]2CCCCN2C(=O)[C@H]([C@@H](C)CC)NC(=O)[C@H](Cc2cn(OC)c3ccccc23)NC1=O
REMARK SMILES IDX 9 1 10 2 44 3 43 4 45 6 30 7 28 8 27 9 29 11 22 12 23 14
REMARK SMILES IDX 24 15 25 16 26 17 31 18 32 19 33 20 42 21 34 22 37 23 41 24
REMARK SMILES IDX 38 25 40 26 39 27 35 28 36 29 11 30 12 31 13 33 14 34 19 35
REMARK SMILES IDX 15 36 18 37 16 38 17 39 20 40 21 41 8 43 7 44 6 45 5 46 3 47
REMARK SMILES IDX 4 48 2 49 1 50
REMARK H PARENT 43 5 27 10 11 32
REMARK Flexibility Score: 80.00
ROOT
ATOM      1  C   UNL     1       3.872   3.127 -19.840  1.00  0.00     0.035 C 
ENDROOT
BRANCH   1   2
ATOM      2  C   UNL     1       4.616   2.526 -21.050  1.00  0.00     0.171 C 
BRANCH   2   3
ATOM      3  C   UNL     1       5.224   1.197 -20.686  1.00  0.00     0.243 C 
ATOM      4  N   UNL     1       6.583   1.126 -20.219  1.00  0.00    -0.342 N 
ATOM      5  H   UNL     1       7.055   2.020 -19.953  1.00  0.00     0.164 HD
ATOM      6  O   UNL     1       4.516   0.158 -20.772  1.00  0.00    -0.273 OA
BRANCH   4   7
ATOM      7  C   UNL     1       7.421  -0.079 -20.290  1.00  0.00     0.175 C 
BRANCH   7   8
ATOM      8  C   UNL     1       6.867  -1.030 -21.328  1.00  0.00     0.243 C 
ATOM      9  N   UNL     1       5.672  -0.724 -22.061  1.00  0.00    -0.342 N 
ATOM     10  H   UNL     1       4.997  -0.035 -21.662  1.00  0.00     0.164 HD
ATOM     11  O   UNL     1       7.505  -2.084 -21.585  1.00  0.00    -0.273 OA
BRANCH   9  12
ATOM     12  C   UNL     1       5.405  -1.281 -23.393  1.00  0.00     0.174 CG0
ATOM     13  G   UNL     1       4.112  -0.710 -23.931  1.00  0.00     0.000 G0
BRANCH  12  14
ATOM     14  C   UNL     1       5.426  -2.836 -23.374  1.00  0.00     0.018 C 
ATOM     15  C   UNL     1       4.062  -3.374 -22.900  1.00  0.00     0.010 C 
BRANCH  14  16
ATOM     16  C   UNL     1       5.812  -3.453 -24.743  1.00  0.00     0.002 C 
ATOM     17  C   UNL     1       4.819  -4.515 -25.215  1.00  0.00     0.004 C 
ENDBRANCH  14  16
ENDBRANCH  12  14
ENDBRANCH   9  12
ENDBRANCH   7   8
BRANCH   7  18
ATOM     18  C   UNL     1       7.653  -0.700 -18.894  1.00  0.00     0.073 C 
BRANCH  18  19
ATOM     19  C   UNL     1       7.399   0.279 -17.781  1.00  0.00    -0.016 A 
ATOM     20  C   UNL     1       6.588   0.067 -16.677  1.00  0.00     0.134 A 
ATOM     21  C   UNL     1       7.955   1.531 -17.601  1.00  0.00     0.006 A 
ATOM     22  N   UNL     1       6.643   1.119 -15.832  1.00  0.00    -0.191 N 
ATOM     23  C   UNL     1       7.484   2.027 -16.401  1.00  0.00     0.087 A 
ATOM     24  C   UNL     1       8.834   2.251 -18.410  1.00  0.00     0.011 A 
ATOM     25  C   UNL     1       7.895   3.290 -15.945  1.00  0.00     0.030 A 
ATOM     26  C   UNL     1       9.256   3.511 -17.965  1.00  0.00     0.001 A 
ATOM     27  C   UNL     1       8.790   4.027 -16.739  1.00  0.00     0.002 A 
BRANCH  22  28
ATOM     28  O   UNL     1       5.940   1.139 -14.638  1.00  0.00    -0.417 OA
ATOM     29  C   UNL     1       6.496   1.444 -13.370  1.00  0.00     0.313 C 
ENDBRANCH  22  28
ENDBRANCH  18  19
ENDBRANCH   7  18
ENDBRANCH   4   7
ENDBRANCH   2   3
BRANCH   2  30
ATOM     30  N   UNL     1       3.699   2.330 -22.179  1.00  0.00    -0.343 N 
ATOM     31  C   UNL     1       4.184   2.308 -23.531  1.00  0.00     0.243 C 
ATOM     32  H   UNL     1       2.722   2.002 -21.988  1.00  0.00     0.164 HD
ATOM     33  O   UNL     1       5.286   2.852 -23.812  1.00  0.00    -0.273 OA
BRANCH  31  34
ATOM     34  C   UNL     1       3.406   1.622 -24.624  1.00  0.00     0.174 C 
ATOM     35  N   UNL     1       4.026   0.307 -24.916  1.00  0.00    -0.329 N 
ATOM     36  C   UNL     1       3.305   2.560 -25.845  1.00  0.00     0.035 C 
ATOM     37  C   UNL     1       4.346  -0.195 -26.267  1.00  0.00     0.120 C 
ATOM     38  C   UNL     1       3.057   1.784 -27.130  1.00  0.00     0.004 C 
ATOM     39  C   UNL     1       4.238   0.858 -27.370  1.00  0.00     0.022 C 
BRANCH  35  40
ATOM     40  C   UNL     1       4.087  -0.647 -23.840  1.00  0.00     0.246 CG0
ATOM     41  O   UNL     1       3.028  -0.958 -23.227  1.00  0.00    -0.272 OA
ATOM     42  G   UNL     1       5.415  -1.217 -23.394  1.00  0.00     0.000 G0
ENDBRANCH  35  40
ENDBRANCH  31  34
ENDBRANCH   2  30
ENDBRANCH   1   2
BRANCH   1  43
ATOM     43  C   UNL     1       3.983   4.662 -19.819  1.00  0.00     0.003 C 
BRANCH  43  44
ATOM     44  C   UNL     1       4.390   5.212 -18.445  1.00  0.00     0.001 C 
BRANCH  44  45
ATOM     45  C   UNL     1       3.976   6.681 -18.253  1.00  0.00     0.008 C 
BRANCH  45  46
ATOM     46  C   UNL     1       5.173   7.598 -17.963  1.00  0.00     0.075 C 
BRANCH  46  47
ATOM     47  C   UNL     1       5.008   8.958 -18.589  1.00  0.00     0.132 C 
ATOM     48  O   UNL     1       5.995   9.649 -18.798  1.00  0.00    -0.300 OA
BRANCH  47  49
ATOM     49  C   UNL     1       3.645   9.479 -18.960  1.00  0.00     0.072 C 
ATOM     50  C   UNL     1       3.707  10.956 -19.335  1.00  0.00     0.012 C 
ENDBRANCH  47  49
ENDBRANCH  46  47
ENDBRANCH  45  46
ENDBRANCH  44  45
ENDBRANCH  43  44
ENDBRANCH   1  43
TORSDOF 12
ENDMDL
MODEL 2
REMARK VINA RESULT:    37.219      3.897      9.494
REMARK INTER + INTRA:          82.866
REMARK INTER:                  78.254
REMARK INTRA:                   4.612
REMARK UNBOUND:                 4.306
REMARK SMILES CCC(=O)CCCCC[C@@H]1NC(=O)[C@H]2CCCCN2C(=O)[C@H]([C@@H](C)CC)NC(=O)[C@H](Cc2cn(OC)c3ccccc23)NC1=O
REMARK SMILES IDX 9 1 10 2 44 3 43 4 45 6 30 7 28 8 27 9 29 11 22 12 23 14
REMARK SMILES IDX 24 15 25 16 26 17 31 18 32 19 33 20 42 21 34 22 37 23 41 24
REMARK SMILES IDX 38 25 40 26 39 27 35 28 36 29 11 30 12 31 13 33 14 34 19 35
REMARK SMILES IDX 15 36 18 37 16 38 17 39 20 40 21 41 8 43 7 44 6 45 5 46 3 47
REMARK SMILES IDX 4 48 2 49 1 50
REMARK H PARENT 43 5 27 10 11 32
REMARK Flexibility Score: 80.00
ROOT
ATOM      1  C   UNL     1       4.842   5.389 -22.171  1.00  0.00     0.035 C 
ENDROOT
BRANCH   1   2
ATOM      2  C   UNL     1       4.252   6.387 -21.155  1.00  0.00     0.171 C 
BRANCH   2   3
ATOM      3  C   UNL     1       4.829   6.146 -19.785  1.00  0.00     0.243 C 
ATOM      4  N   UNL     1       3.958   5.989 -18.650  1.00  0.00    -0.342 N 
ATOM      5  H   UNL     1       2.938   5.847 -18.833  1.00  0.00     0.164 HD
ATOM      6  O   UNL     1       6.079   6.057 -19.656  1.00  0.00    -0.273 OA
BRANCH   4   7
ATOM      7  C   UNL     1       4.363   6.224 -17.258  1.00  0.00     0.175 C 
BRANCH   7   8
ATOM      8  C   UNL     1       5.229   7.462 -17.176  1.00  0.00     0.243 C 
ATOM      9  N   UNL     1       5.254   8.428 -18.236  1.00  0.00    -0.342 N 
ATOM     10  H   UNL     1       4.959   8.136 -19.194  1.00  0.00     0.164 HD
ATOM     11  O   UNL     1       5.897   7.665 -16.128  1.00  0.00    -0.273 OA
BRANCH   9  12
ATOM     12  C   UNL     1       5.598   9.837 -18.004  1.00  0.00     0.174 CG0
ATOM     13  G   UNL     1       4.437  10.716 -18.412  1.00  0.00     0.000 G0
BRANCH  12  14
ATOM     14  C   UNL     1       6.931  10.220 -18.708  1.00  0.00     0.018 C 
ATOM     15  C   UNL     1       6.963  11.735 -18.986  1.00  0.00     0.010 C 
BRANCH  14  16
ATOM     16  C   UNL     1       8.186   9.784 -17.906  1.00  0.00     0.002 C 
ATOM     17  C   UNL     1       8.126  10.205 -16.438  1.00  0.00     0.004 C 
ENDBRANCH  14  16
ENDBRANCH  12  14
ENDBRANCH   9  12
ENDBRANCH   7   8
BRANCH   7  18
ATOM     18  C   UNL     1       4.972   4.957 -16.615  1.00  0.00     0.073 C 
BRANCH  18  19
ATOM     19  C   UNL     1       5.031   3.799 -17.573  1.00  0.00    -0.016 A 
ATOM     20  C   UNL     1       4.045   3.436 -18.476  1.00  0.00     0.134 A 
ATOM     21  C   UNL     1       6.076   2.922 -17.789  1.00  0.00     0.006 A 
ATOM     22  N   UNL     1       4.451   2.398 -19.238  1.00  0.00    -0.191 N 
ATOM     23  C   UNL     1       5.704   2.075 -18.815  1.00  0.00     0.087 A 
ATOM     24  C   UNL     1       7.314   2.822 -17.154  1.00  0.00     0.011 A 
ATOM     25  C   UNL     1       6.583   1.077 -19.265  1.00  0.00     0.030 A 
ATOM     26  C   UNL     1       8.204   1.833 -17.597  1.00  0.00     0.001 A 
ATOM     27  C   UNL     1       7.840   0.967 -18.647  1.00  0.00     0.002 A 
BRANCH  22  28
ATOM     28  O   UNL     1       3.652   1.864 -20.237  1.00  0.00    -0.417 OA
ATOM     29  C   UNL     1       3.809   0.574 -20.804  1.00  0.00     0.313 C 
ENDBRANCH  22  28
ENDBRANCH  18  19
ENDBRANCH   7  18
ENDBRANCH   4   7
ENDBRANCH   2   3
BRANCH   2  30
ATOM     30  N   UNL     1       4.546   7.769 -21.552  1.00  0.00    -0.343 N 
ATOM     31  C   UNL     1       4.141   8.877 -20.734  1.00  0.00     0.243 C 
ATOM     32  H   UNL     1       5.229   7.939 -22.329  1.00  0.00     0.164 HD
ATOM     33  O   UNL     1       3.197   8.736 -19.908  1.00  0.00    -0.273 OA
BRANCH  31  34
ATOM     34  C   UNL     1       4.841  10.208 -20.825  1.00  0.00     0.174 C 
ATOM     35  N   UNL     1       4.312  11.114 -19.777  1.00  0.00    -0.329 N 
ATOM     36  C   UNL     1       4.709  10.757 -22.261  1.00  0.00     0.035 C 
ATOM     37  C   UNL     1       3.878  12.506 -20.003  1.00  0.00     0.120 C 
ATOM     38  C   UNL     1       4.870  12.269 -22.302  1.00  0.00     0.004 C 
ATOM     39  C   UNL     1       3.757  12.895 -21.477  1.00  0.00     0.022 C 
BRANCH  35  40
ATOM     40  C   UNL     1       4.467  10.699 -18.407  1.00  0.00     0.246 CG0
ATOM     41  O   UNL     1       3.660  11.125 -17.535  1.00  0.00    -0.272 OA
ATOM     42  G   UNL     1       5.631   9.822 -17.999  1.00  0.00     0.000 G0
ENDBRANCH  35  40
ENDBRANCH  31  34
ENDBRANCH   2  30
ENDBRANCH   1   2
BRANCH   1  43
ATOM     43  C   UNL     1       3.846   4.260 -22.494  1.00  0.00     0.003 C 
BRANCH  43  44
ATOM     44  C   UNL     1       4.341   3.330 -23.610  1.00  0.00     0.001 C 
BRANCH  44  45
ATOM     45  C   UNL     1       3.478   3.426 -24.880  1.00  0.00     0.008 C 
BRANCH  45  46
ATOM     46  C   UNL     1       3.030   2.051 -25.395  1.00  0.00     0.075 C 
BRANCH  46  47
ATOM     47  C   UNL     1       4.199   1.183 -25.783  1.00  0.00     0.132 C 
ATOM     48  O   UNL     1       4.980   1.573 -26.639  1.00  0.00    -0.300 OA
BRANCH  47  49
ATOM     49  C   UNL     1       4.417  -0.157 -25.133  1.00  0.00     0.072 C 
ATOM     50  C   UNL     1       3.130  -0.975 -25.124  1.00  0.00     0.012 C 
ENDBRANCH  47  49
ENDBRANCH  46  47
ENDBRANCH  45  46
ENDBRANCH  44  45
ENDBRANCH  43  44
ENDBRANCH   1  43
TORSDOF 12
ENDMDL
MODEL 3
REMARK VINA RESULT:    37.305     15.614     18.928
REMARK INTER + INTRA:          83.047
REMARK INTER:                  82.580
REMARK INTRA:                   0.467
REMARK UNBOUND:                 4.306
REMARK SMILES CCC(=O)CCCCC[C@@H]1NC(=O)[C@H]2CCCCN2C(=O)[C@H]([C@@H](C)CC)NC(=O)[C@H](Cc2cn(OC)c3ccccc23)NC1=O
REMARK SMILES IDX 9 1 10 2 44 3 43 4 45 6 30 7 28 8 27 9 29 11 22 12 23 14
REMARK SMILES IDX 24 15 25 16 26 17 31 18 32 19 33 20 42 21 34 22 37 23 41 24
REMARK SMILES IDX 38 25 40 26 39 27 35 28 36 29 11 30 12 31 13 33 14 34 19 35
REMARK SMILES IDX 15 36 18 37 16 38 17 39 20 40 21 41 8 43 7 44 6 45 5 46 3 47
REMARK SMILES IDX 4 48 2 49 1 50
REMARK H PARENT 43 5 27 10 11 32
REMARK Flexibility Score: 80.00
ROOT
ATOM      1  C   UNL     1      17.270   8.545 -14.648  1.00  0.00     0.035 C 
ENDROOT
BRANCH   1   2
ATOM      2  C   UNL     1      17.778   8.519 -13.192  1.00  0.00     0.171 C 
BRANCH   2   3
ATOM      3  C   UNL     1      18.698   7.346 -12.977  1.00  0.00     0.243 C 
ATOM      4  N   UNL     1      18.243   6.194 -12.246  1.00  0.00    -0.342 N 
ATOM      5  H   UNL     1      17.219   6.112 -12.051  1.00  0.00     0.164 HD
ATOM      6  O   UNL     1      19.857   7.381 -13.470  1.00  0.00    -0.273 OA
BRANCH   4   7
ATOM      7  C   UNL     1      19.132   5.236 -11.573  1.00  0.00     0.175 C 
BRANCH   7   8
ATOM      8  C   UNL     1      19.934   5.945 -10.504  1.00  0.00     0.243 C 
ATOM      9  N   UNL     1      20.763   7.074 -10.815  1.00  0.00    -0.342 N 
ATOM     10  H   UNL     1      21.089   7.206 -11.797  1.00  0.00     0.164 HD
ATOM     11  O   UNL     1      19.824   5.560  -9.310  1.00  0.00    -0.273 OA
BRANCH   9  12
ATOM     12  C   UNL     1      21.097   8.099  -9.817  1.00  0.00     0.174 CG0
ATOM     13  G   UNL     1      21.026   9.469 -10.455  1.00  0.00     0.000 G0
BRANCH  12  14
ATOM     14  C   UNL     1      22.468   7.809  -9.142  1.00  0.00     0.018 C 
ATOM     15  C   UNL     1      23.124   9.129  -8.695  1.00  0.00     0.010 C 
BRANCH  14  16
ATOM     16  C   UNL     1      22.359   6.821  -7.951  1.00  0.00     0.002 C 
ATOM     17  C   UNL     1      22.916   5.436  -8.278  1.00  0.00     0.004 C 
ENDBRANCH  14  16
ENDBRANCH  12  14
ENDBRANCH   9  12
ENDBRANCH   7   8
BRANCH   7  18
ATOM     18  C   UNL     1      19.969   4.421 -12.585  1.00  0.00     0.073 C 
BRANCH  18  19
ATOM     19  C   UNL     1      19.794   2.938 -12.412  1.00  0.00    -0.016 A 
ATOM     20  C   UNL     1      19.529   2.281 -11.220  1.00  0.00     0.134 A 
ATOM     21  C   UNL     1      19.797   1.958 -13.385  1.00  0.00     0.006 A 
ATOM     22  N   UNL     1      19.354   0.959 -11.431  1.00  0.00    -0.191 N 
ATOM     23  C   UNL     1      19.521   0.755 -12.766  1.00  0.00     0.087 A 
ATOM     24  C   UNL     1      20.022   2.053 -14.759  1.00  0.00     0.011 A 
ATOM     25  C   UNL     1      19.445  -0.429 -13.518  1.00  0.00     0.030 A 
ATOM     26  C   UNL     1      19.944   0.880 -15.522  1.00  0.00     0.001 A 
ATOM     27  C   UNL     1      19.656  -0.353 -14.905  1.00  0.00     0.002 A 
BRANCH  22  28
ATOM     28  O   UNL     1      19.050   0.085 -10.398  1.00  0.00    -0.417 OA
ATOM     29  C   UNL     1      18.126  -0.986 -10.483  1.00  0.00     0.313 C 
ENDBRANCH  22  28
ENDBRANCH  18  19
ENDBRANCH   7  18
ENDBRANCH   4   7
ENDBRANCH   2   3
BRANCH   2  30
ATOM     30  N   UNL     1      18.506   9.752 -12.873  1.00  0.00    -0.343 N 
ATOM     31  C   UNL     1      18.332  10.409 -11.608  1.00  0.00     0.243 C 
ATOM     32  H   UNL     1      19.307  10.042 -13.485  1.00  0.00     0.164 HD
ATOM     33  O   UNL     1      17.287  10.203 -10.932  1.00  0.00    -0.273 OA
BRANCH  31  34
ATOM     34  C   UNL     1      19.390  11.330 -11.057  1.00  0.00     0.174 C 
ATOM     35  N   UNL     1      20.231  10.586 -10.087  1.00  0.00    -0.329 N 
ATOM     36  C   UNL     1      18.718  12.591 -10.476  1.00  0.00     0.035 C 
ATOM     37  C   UNL     1      20.595  11.068  -8.741  1.00  0.00     0.120 C 
ATOM     38  C   UNL     1      19.601  13.270  -9.439  1.00  0.00     0.004 C 
ATOM     39  C   UNL     1      19.820  12.304  -8.285  1.00  0.00     0.022 C 
BRANCH  35  40
ATOM     40  C   UNL     1      20.947   9.438 -10.580  1.00  0.00     0.246 CG0
ATOM     41  O   UNL     1      21.432   9.463 -11.745  1.00  0.00    -0.272 OA
ATOM     42  G   UNL     1      21.053   8.183  -9.742  1.00  0.00     0.000 G0
ENDBRANCH  35  40
ENDBRANCH  31  34
ENDBRANCH   2  30
ENDBRANCH   1   2
BRANCH   1  43
ATOM     43  C   UNL     1      17.151   9.987 -15.175  1.00  0.00     0.003 C 
BRANCH  43  44
ATOM     44  C   UNL     1      16.586  10.055 -16.601  1.00  0.00     0.001 C 
BRANCH  44  45
ATOM     45  C   UNL     1      16.476  11.499 -17.121  1.00  0.00     0.008 C 
BRANCH  45  46
ATOM     46  C   UNL     1      17.797  12.016 -17.709  1.00  0.00     0.075 C 
BRANCH  46  47
ATOM     47  C   UNL     1      18.913  11.015 -17.561  1.00  0.00     0.132 C 
ATOM     48  O   UNL     1      18.792   9.901 -18.048  1.00  0.00    -0.300 OA
BRANCH  47  49
ATOM     49  C   UNL     1      20.175  11.369 -16.819  1.00  0.00     0.072 C 
ATOM     50  C   UNL     1      20.247  12.868 -16.548  1.00  0.00     0.012 C 
ENDBRANCH  47  49
ENDBRANCH  46  47
ENDBRANCH  45  46
ENDBRANCH  44  45
ENDBRANCH  43  44
ENDBRANCH   1  43
TORSDOF 12
ENDMDL
MODEL 4
REMARK VINA RESULT:    38.902     14.655     18.200
REMARK INTER + INTRA:          86.418
REMARK INTER:                  85.489
REMARK INTRA:                   0.929
REMARK UNBOUND:                 4.306
REMARK SMILES CCC(=O)CCCCC[C@@H]1NC(=O)[C@H]2CCCCN2C(=O)[C@H]([C@@H](C)CC)NC(=O)[C@H](Cc2cn(OC)c3ccccc23)NC1=O
REMARK SMILES IDX 9 1 10 2 44 3 43 4 45 6 30 7 28 8 27 9 29 11 22 12 23 14
REMARK SMILES IDX 24 15 25 16 26 17 31 18 32 19 33 20 42 21 34 22 37 23 41 24
REMARK SMILES IDX 38 25 40 26 39 27 35 28 36 29 11 30 12 31 13 33 14 34 19 35
REMARK SMILES IDX 15 36 18 37 16 38 17 39 20 40 21 41 8 43 7 44 6 45 5 46 3 47
REMARK SMILES IDX 4 48 2 49 1 50
REMARK H PARENT 43 5 27 10 11 32
REMARK Flexibility Score: 80.00
ROOT
ATOM      1  C   UNL     1      19.335   6.989 -15.937  1.00  0.00     0.035 C 
ENDROOT
BRANCH   1   2
ATOM      2  C   UNL     1      19.865   6.093 -14.799  1.00  0.00     0.171 C 
BRANCH   2   3
ATOM      3  C   UNL     1      19.627   6.744 -13.462  1.00  0.00     0.243 C 
ATOM      4  N   UNL     1      20.704   7.412 -12.780  1.00  0.00    -0.342 N 
ATOM      5  H   UNL     1      21.579   7.602 -13.319  1.00  0.00     0.164 HD
ATOM      6  O   UNL     1      18.469   6.717 -12.968  1.00  0.00    -0.273 OA
BRANCH   4   7
ATOM      7  C   UNL     1      20.743   7.653 -11.331  1.00  0.00     0.175 C 
BRANCH   7   8
ATOM      8  C   UNL     1      20.653   6.338 -10.589  1.00  0.00     0.243 C 
ATOM      9  N   UNL     1      19.425   5.598 -10.522  1.00  0.00    -0.342 N 
ATOM     10  H   UNL     1      18.524   6.101 -10.677  1.00  0.00     0.164 HD
ATOM     11  O   UNL     1      21.698   5.865 -10.068  1.00  0.00    -0.273 OA
BRANCH   9  12
ATOM     12  C   UNL     1      19.397   4.143 -10.328  1.00  0.00     0.174 CG0
ATOM     13  G   UNL     1      18.378   3.528 -11.262  1.00  0.00     0.000 G0
BRANCH  12  14
ATOM     14  C   UNL     1      19.160   3.772  -8.836  1.00  0.00     0.018 C 
ATOM     15  C   UNL     1      18.391   4.904  -8.129  1.00  0.00     0.010 C 
BRANCH  14  16
ATOM     16  C   UNL     1      18.427   2.417  -8.658  1.00  0.00     0.002 C 
ATOM     17  C   UNL     1      19.354   1.300  -8.180  1.00  0.00     0.004 C 
ENDBRANCH  14  16
ENDBRANCH  12  14
ENDBRANCH   9  12
ENDBRANCH   7   8
BRANCH   7  18
ATOM     18  C   UNL     1      19.710   8.718 -10.899  1.00  0.00     0.073 C 
BRANCH  18  19
ATOM     19  C   UNL     1      20.327  10.078 -10.723  1.00  0.00    -0.016 A 
ATOM     20  C   UNL     1      19.985  11.226 -11.420  1.00  0.00     0.134 A 
ATOM     21  C   UNL     1      21.291  10.468  -9.813  1.00  0.00     0.006 A 
ATOM     22  N   UNL     1      20.680  12.290 -10.962  1.00  0.00    -0.191 N 
ATOM     23  C   UNL     1      21.489  11.825  -9.971  1.00  0.00     0.087 A 
ATOM     24  C   UNL     1      21.992   9.719  -8.868  1.00  0.00     0.011 A 
ATOM     25  C   UNL     1      22.412  12.507  -9.162  1.00  0.00     0.030 A 
ATOM     26  C   UNL     1      22.914  10.387  -8.049  1.00  0.00     0.001 A 
ATOM     27  C   UNL     1      23.121  11.773  -8.195  1.00  0.00     0.002 A 
BRANCH  22  28
ATOM     28  O   UNL     1      20.498  13.563 -11.480  1.00  0.00    -0.417 OA
ATOM     29  C   UNL     1      20.018  14.679 -10.748  1.00  0.00     0.313 C 
ENDBRANCH  22  28
ENDBRANCH  18  19
ENDBRANCH   7  18
ENDBRANCH   4   7
ENDBRANCH   2   3
BRANCH   2  30
ATOM     30  N   UNL     1      19.196   4.786 -14.811  1.00  0.00    -0.343 N 
ATOM     31  C   UNL     1      19.565   3.757 -13.881  1.00  0.00     0.243 C 
ATOM     32  H   UNL     1      18.311   4.675 -15.362  1.00  0.00     0.164 HD
ATOM     33  O   UNL     1      20.702   3.781 -13.335  1.00  0.00    -0.273 OA
BRANCH  31  34
ATOM     34  C   UNL     1      18.605   2.651 -13.524  1.00  0.00     0.174 C 
ATOM     35  N   UNL     1      18.684   2.384 -12.068  1.00  0.00    -0.329 N 
ATOM     36  C   UNL     1      18.892   1.420 -14.410  1.00  0.00     0.035 C 
ATOM     37  C   UNL     1      18.815   1.046 -11.459  1.00  0.00     0.120 C 
ATOM     38  C   UNL     1      18.392   0.136 -13.765  1.00  0.00     0.004 C 
ATOM     39  C   UNL     1      19.136  -0.068 -12.456  1.00  0.00     0.022 C 
BRANCH  35  40
ATOM     40  C   UNL     1      18.357   3.469 -11.180  1.00  0.00     0.246 CG0
ATOM     41  O   UNL     1      17.164   3.879 -11.116  1.00  0.00    -0.272 OA
ATOM     42  G   UNL     1      19.441   4.165 -10.387  1.00  0.00     0.000 G0
ENDBRANCH  35  40
ENDBRANCH  31  34
ENDBRANCH   2  30
ENDBRANCH   1   2
BRANCH   1  43
ATOM     43  C   UNL     1      18.972   6.160 -17.182  1.00  0.00     0.003 C 
BRANCH  43  44
ATOM     44  C   UNL     1      17.622   6.562 -17.793  1.00  0.00     0.001 C 
BRANCH  44  45
ATOM     45  C   UNL     1      17.636   7.992 -18.359  1.00  0.00     0.008 C 
BRANCH  45  46
ATOM     46  C   UNL     1      18.529   8.940 -17.546  1.00  0.00     0.075 C 
BRANCH  46  47
ATOM     47  C   UNL     1      17.726   9.979 -16.808  1.00  0.00     0.132 C 
ATOM     48  O   UNL     1      18.239  11.054 -16.533  1.00  0.00    -0.300 OA
BRANCH  47  49
ATOM     49  C   UNL     1      16.301   9.711 -16.402  1.00  0.00     0.072 C 
ATOM     50  C   UNL     1      16.237   8.684 -15.276  1.00  0.00     0.012 C 
ENDBRANCH  47  49
ENDBRANCH  46  47
ENDBRANCH  45  46
ENDBRANCH  44  45
ENDBRANCH  43  44
ENDBRANCH   1  43
TORSDOF 12
ENDMDL
MODEL 5
REMARK VINA RESULT:    39.089     14.216     18.322
REMARK INTER + INTRA:          86.813
REMARK INTER:                  88.459
REMARK INTRA:                  -1.646
REMARK UNBOUND:                 4.306
REMARK SMILES CCC(=O)CCCCC[C@@H]1NC(=O)[C@H]2CCCCN2C(=O)[C@H]([C@@H](C)CC)NC(=O)[C@H](Cc2cn(OC)c3ccccc23)NC1=O
REMARK SMILES IDX 9 1 10 2 44 3 43 4 45 6 30 7 28 8 27 9 29 11 22 12 23 14
REMARK SMILES IDX 24 15 25 16 26 17 31 18 32 19 33 20 42 21 34 22 37 23 41 24
REMARK SMILES IDX 38 25 40 26 39 27 35 28 36 29 11 30 12 31 13 33 14 34 19 35
REMARK SMILES IDX 15 36 18 37 16 38 17 39 20 40 21 41 8 43 7 44 6 45 5 46 3 47
REMARK SMILES IDX 4 48 2 49 1 50
REMARK H PARENT 43 5 27 10 11 32
REMARK Flexibility Score: 80.00
ROOT
ATOM      1  C   UNL     1      18.706   5.998 -16.367  1.00  0.00     0.035 C 
ENDROOT
BRANCH   1   2
ATOM      2  C   UNL     1      19.433   5.286 -15.209  1.00  0.00     0.171 C 
BRANCH   2   3
ATOM      3  C   UNL     1      19.394   6.133 -13.964  1.00  0.00     0.243 C 
ATOM      4  N   UNL     1      20.614   6.652 -13.403  1.00  0.00    -0.342 N 
ATOM      5  H   UNL     1      21.481   6.595 -13.984  1.00  0.00     0.164 HD
ATOM      6  O   UNL     1      18.279   6.401 -13.442  1.00  0.00    -0.273 OA
BRANCH   4   7
ATOM      7  C   UNL     1      20.772   7.059 -12.001  1.00  0.00     0.175 C 
BRANCH   7   8
ATOM      8  C   UNL     1      20.641   5.853 -11.097  1.00  0.00     0.243 C 
ATOM      9  N   UNL     1      19.371   5.453 -10.562  1.00  0.00    -0.342 N 
ATOM     10  H   UNL     1      18.603   6.157 -10.502  1.00  0.00     0.164 HD
ATOM     11  O   UNL     1      21.666   5.161 -10.859  1.00  0.00    -0.273 OA
BRANCH   9  12
ATOM     12  C   UNL     1      19.086   4.065 -10.176  1.00  0.00     0.174 CG0
ATOM     13  G   UNL     1      18.458   3.334 -11.343  1.00  0.00     0.000 G0
BRANCH  12  14
ATOM     14  C   UNL     1      18.227   4.000  -8.881  1.00  0.00     0.018 C 
ATOM     15  C   UNL     1      18.655   2.791  -8.026  1.00  0.00     0.010 C 
BRANCH  14  16
ATOM     16  C   UNL     1      18.288   5.307  -8.049  1.00  0.00     0.002 C 
ATOM     17  C   UNL     1      16.919   5.964  -7.876  1.00  0.00     0.004 C 
ENDBRANCH  14  16
ENDBRANCH  12  14
ENDBRANCH   9  12
ENDBRANCH   7   8
BRANCH   7  18
ATOM     18  C   UNL     1      19.851   8.247 -11.640  1.00  0.00     0.073 C 
BRANCH  18  19
ATOM     19  C   UNL     1      20.617   9.524 -11.431  1.00  0.00    -0.016 A 
ATOM     20  C   UNL     1      21.389  10.178 -12.378  1.00  0.00     0.134 A 
ATOM     21  C   UNL     1      20.656  10.321 -10.303  1.00  0.00     0.006 A 
ATOM     22  N   UNL     1      21.876  11.336 -11.883  1.00  0.00    -0.191 N 
ATOM     23  C   UNL     1      21.427  11.427 -10.601  1.00  0.00     0.087 A 
ATOM     24  C   UNL     1      20.067  10.141  -9.051  1.00  0.00     0.011 A 
ATOM     25  C   UNL     1      21.635  12.429  -9.638  1.00  0.00     0.030 A 
ATOM     26  C   UNL     1      20.262  11.135  -8.082  1.00  0.00     0.001 A 
ATOM     27  C   UNL     1      21.039  12.272  -8.375  1.00  0.00     0.002 A 
BRANCH  22  28
ATOM     28  O   UNL     1      22.658  12.189 -12.647  1.00  0.00    -0.417 OA
ATOM     29  C   UNL     1      23.021  11.968 -13.999  1.00  0.00     0.313 C 
ENDBRANCH  22  28
ENDBRANCH  18  19
ENDBRANCH   7  18
ENDBRANCH   4   7
ENDBRANCH   2   3
BRANCH   2  30
ATOM     30  N   UNL     1      18.804   3.992 -14.916  1.00  0.00    -0.343 N 
ATOM     31  C   UNL     1      19.478   3.005 -14.120  1.00  0.00     0.243 C 
ATOM     32  H   UNL     1      17.783   3.868 -15.116  1.00  0.00     0.164 HD
ATOM     33  O   UNL     1      20.734   3.038 -14.008  1.00  0.00    -0.273 OA
BRANCH  31  34
ATOM     34  C   UNL     1      18.705   1.935 -13.392  1.00  0.00     0.174 C 
ATOM     35  N   UNL     1      18.864   2.125 -11.930  1.00  0.00    -0.329 N 
ATOM     36  C   UNL     1      19.149   0.548 -13.902  1.00  0.00     0.035 C 
ATOM     37  C   UNL     1      19.211   1.058 -10.971  1.00  0.00     0.120 C 
ATOM     38  C   UNL     1      18.866  -0.543 -12.880  1.00  0.00     0.004 C 
ATOM     39  C   UNL     1      19.669  -0.247 -11.624  1.00  0.00     0.022 C 
BRANCH  35  40
ATOM     40  C   UNL     1      18.402   3.370 -11.373  1.00  0.00     0.246 CG0
ATOM     41  O   UNL     1      17.444   3.979 -11.926  1.00  0.00    -0.272 OA
ATOM     42  G   UNL     1      19.104   3.984 -10.182  1.00  0.00     0.000 G0
ENDBRANCH  35  40
ENDBRANCH  31  34
ENDBRANCH   2  30
ENDBRANCH   1   2
BRANCH   1  43
ATOM     43  C   UNL     1      19.517   5.918 -17.673  1.00  0.00     0.003 C 
BRANCH  43  44
ATOM     44  C   UNL     1      18.645   5.617 -18.900  1.00  0.00     0.001 C 
BRANCH  44  45
ATOM     45  C   UNL     1      18.170   4.154 -18.938  1.00  0.00     0.008 C 
BRANCH  45  46
ATOM     46  C   UNL     1      18.587   3.432 -20.228  1.00  0.00     0.075 C 
BRANCH  46  47
ATOM     47  C   UNL     1      18.710   4.381 -21.393  1.00  0.00     0.132 C 
ATOM     48  O   UNL     1      17.701   4.867 -21.882  1.00  0.00    -0.300 OA
BRANCH  47  49
ATOM     49  C   UNL     1      20.058   4.735 -21.962  1.00  0.00     0.072 C 
ATOM     50  C   UNL     1      21.137   3.793 -21.438  1.00  0.00     0.012 C 
ENDBRANCH  47  49
ENDBRANCH  46  47
ENDBRANCH  45  46
ENDBRANCH  44  45
ENDBRANCH  43  44
ENDBRANCH   1  43
TORSDOF 12
ENDMDL
