MODEL 1
REMARK VINA RESULT:    -5.666      0.000      0.000
REMARK INTER + INTRA:          -6.686
REMARK INTER:                  -6.660
REMARK INTRA:                  -0.026
REMARK UNBOUND:                -0.026
REMARK SMILES Oc1ccc(-c2[o+]c3cc(O)cc(O)c3cc2O)cc1
REMARK SMILES IDX 6 1 7 2 8 3 9 4 10 5 12 6 13 7 15 8 16 9 17 10 5 11 4 12
REMARK SMILES IDX 3 13 2 14 19 15 20 16 1 17 18 19 11 21 14 23
REMARK H PARENT 1 18 18 20 11 22 14 24
REMARK Flexibility Score: inf
ROOT
ATOM      1  C   UNL     1      15.099  17.254  30.820  1.00  0.00     0.401 A 
ATOM      2  O   UNL     1      15.289  17.644  32.078  1.00  0.00    -0.202 OA
ATOM      3  C   UNL     1      16.346  18.347  32.472  1.00  0.00     0.368 A 
ATOM      4  C   UNL     1      16.459  18.708  33.817  1.00  0.00     0.162 A 
ATOM      5  C   UNL     1      17.559  19.443  34.260  1.00  0.00     0.128 A 
ATOM      6  C   UNL     1      18.556  19.819  33.353  1.00  0.00     0.093 A 
ATOM      7  C   UNL     1      18.466  19.469  32.000  1.00  0.00     0.136 A 
ATOM      8  C   UNL     1      17.347  18.725  31.545  1.00  0.00     0.125 A 
ATOM      9  C   UNL     1      17.167  18.341  30.206  1.00  0.00     0.078 A 
ATOM     10  C   UNL     1      16.034  17.611  29.832  1.00  0.00     0.223 A 
ENDROOT
BRANCH   1  11
ATOM     11  C   UNL     1      13.884  16.466  30.507  1.00  0.00     0.084 A 
ATOM     12  C   UNL     1      13.954  15.274  29.764  1.00  0.00     0.022 A 
ATOM     13  C   UNL     1      12.796  14.536  29.501  1.00  0.00     0.047 A 
ATOM     14  C   UNL     1      11.558  14.970  29.990  1.00  0.00     0.115 A 
ATOM     15  C   UNL     1      12.641  16.884  31.012  1.00  0.00     0.022 A 
ATOM     16  C   UNL     1      11.484  16.143  30.747  1.00  0.00     0.047 A 
BRANCH  14  17
ATOM     17  O   UNL     1      10.397  14.243  29.733  1.00  0.00    -0.508 OA
ATOM     18  H   UNL     1      10.290  13.700  28.884  1.00  0.00     0.293 HD
ENDBRANCH  14  17
ENDBRANCH   1  11
BRANCH  10  19
ATOM     19  O   UNL     1      15.830  17.274  28.494  1.00  0.00    -0.500 OA
ATOM     20  H   UNL     1      15.845  16.311  28.179  1.00  0.00     0.294 HD
ENDBRANCH  10  19
BRANCH   5  21
ATOM     21  O   UNL     1      17.653  19.794  35.604  1.00  0.00    -0.507 OA
ATOM     22  H   UNL     1      18.546  20.003  36.037  1.00  0.00     0.293 HD
ENDBRANCH   5  21
BRANCH   7  23
ATOM     23  O   UNL     1      19.504  19.880  31.158  1.00  0.00    -0.507 OA
ATOM     24  H   UNL     1      19.789  19.390  30.322  1.00  0.00     0.293 HD
ENDBRANCH   7  23
TORSDOF 5
ENDMDL
MODEL 2
REMARK VINA RESULT:    -5.421      3.712      8.768
REMARK INTER + INTRA:          -6.398
REMARK INTER:                  -6.321
REMARK INTRA:                  -0.077
REMARK UNBOUND:                -0.026
REMARK SMILES Oc1ccc(-c2[o+]c3cc(O)cc(O)c3cc2O)cc1
REMARK SMILES IDX 6 1 7 2 8 3 9 4 10 5 12 6 13 7 15 8 16 9 17 10 5 11 4 12
REMARK SMILES IDX 3 13 2 14 19 15 20 16 1 17 18 19 11 21 14 23
REMARK H PARENT 1 18 18 20 11 22 14 24
REMARK Flexibility Score: inf
ROOT
ATOM      1  C   UNL     1      10.612  15.468  31.681  1.00  0.00     0.401 A 
ATOM      2  O   UNL     1       9.567  15.163  30.916  1.00  0.00    -0.202 OA
ATOM      3  C   UNL     1       8.339  14.990  31.394  1.00  0.00     0.368 A 
ATOM      4  C   UNL     1       7.305  14.669  30.511  1.00  0.00     0.162 A 
ATOM      5  C   UNL     1       6.006  14.478  30.984  1.00  0.00     0.128 A 
ATOM      6  C   UNL     1       5.737  14.609  32.351  1.00  0.00     0.093 A 
ATOM      7  C   UNL     1       6.756  14.930  33.257  1.00  0.00     0.136 A 
ATOM      8  C   UNL     1       8.077  15.127  32.778  1.00  0.00     0.125 A 
ATOM      9  C   UNL     1       9.157  15.464  33.611  1.00  0.00     0.078 A 
ATOM     10  C   UNL     1      10.432  15.648  33.065  1.00  0.00     0.223 A 
ENDROOT
BRANCH   1  11
ATOM     11  C   UNL     1      11.933  15.625  31.031  1.00  0.00     0.084 A 
ATOM     12  C   UNL     1      12.502  14.591  30.265  1.00  0.00     0.022 A 
ATOM     13  C   UNL     1      13.740  14.772  29.642  1.00  0.00     0.047 A 
ATOM     14  C   UNL     1      14.418  15.991  29.763  1.00  0.00     0.115 A 
ATOM     15  C   UNL     1      12.610  16.853  31.129  1.00  0.00     0.022 A 
ATOM     16  C   UNL     1      13.849  17.030  30.505  1.00  0.00     0.047 A 
BRANCH  14  17
ATOM     17  O   UNL     1      15.653  16.182  29.147  1.00  0.00    -0.508 OA
ATOM     18  H   UNL     1      16.507  15.804  29.543  1.00  0.00     0.293 HD
ENDBRANCH  14  17
ENDBRANCH   1  11
BRANCH  10  19
ATOM     19  O   UNL     1      11.494  16.032  33.883  1.00  0.00    -0.500 OA
ATOM     20  H   UNL     1      11.635  16.998  34.155  1.00  0.00     0.294 HD
ENDBRANCH  10  19
BRANCH   5  21
ATOM     21  O   UNL     1       4.989  14.159  30.088  1.00  0.00    -0.507 OA
ATOM     22  H   UNL     1       4.462  14.878  29.606  1.00  0.00     0.293 HD
ENDBRANCH   5  21
BRANCH   7  23
ATOM     23  O   UNL     1       6.407  15.039  34.606  1.00  0.00    -0.507 OA
ATOM     24  H   UNL     1       6.978  14.710  35.372  1.00  0.00     0.293 HD
ENDBRANCH   7  23
TORSDOF 5
ENDMDL
MODEL 3
REMARK VINA RESULT:    -5.388      1.810      2.449
REMARK INTER + INTRA:          -6.360
REMARK INTER:                  -6.094
REMARK INTRA:                  -0.265
REMARK UNBOUND:                -0.026
REMARK SMILES Oc1ccc(-c2[o+]c3cc(O)cc(O)c3cc2O)cc1
REMARK SMILES IDX 6 1 7 2 8 3 9 4 10 5 12 6 13 7 15 8 16 9 17 10 5 11 4 12
REMARK SMILES IDX 3 13 2 14 19 15 20 16 1 17 18 19 11 21 14 23
REMARK H PARENT 1 18 18 20 11 22 14 24
REMARK Flexibility Score: inf
ROOT
ATOM      1  C   UNL     1      14.148  16.210  30.881  1.00  0.00     0.401 A 
ATOM      2  O   UNL     1      14.763  17.106  31.649  1.00  0.00    -0.202 OA
ATOM      3  C   UNL     1      15.879  17.731  31.290  1.00  0.00     0.368 A 
ATOM      4  C   UNL     1      16.452  18.656  32.166  1.00  0.00     0.162 A 
ATOM      5  C   UNL     1      17.626  19.325  31.818  1.00  0.00     0.128 A 
ATOM      6  C   UNL     1      18.233  19.068  30.583  1.00  0.00     0.093 A 
ATOM      7  C   UNL     1      17.679  18.146  29.687  1.00  0.00     0.136 A 
ATOM      8  C   UNL     1      16.483  17.466  30.038  1.00  0.00     0.125 A 
ATOM      9  C   UNL     1      15.850  16.536  29.197  1.00  0.00     0.078 A 
ATOM     10  C   UNL     1      14.670  15.909  29.610  1.00  0.00     0.223 A 
ENDROOT
BRANCH   1  11
ATOM     11  C   UNL     1      12.914  15.574  31.398  1.00  0.00     0.084 A 
ATOM     12  C   UNL     1      12.963  14.575  32.386  1.00  0.00     0.022 A 
ATOM     13  C   UNL     1      11.783  14.006  32.875  1.00  0.00     0.047 A 
ATOM     14  C   UNL     1      10.540  14.438  32.394  1.00  0.00     0.115 A 
ATOM     15  C   UNL     1      11.663  16.017  30.936  1.00  0.00     0.022 A 
ATOM     16  C   UNL     1      10.484  15.446  31.427  1.00  0.00     0.047 A 
BRANCH  14  17
ATOM     17  O   UNL     1       9.358  13.877  32.872  1.00  0.00    -0.508 OA
ATOM     18  H   UNL     1       8.511  13.873  32.316  1.00  0.00     0.293 HD
ENDBRANCH  14  17
ENDBRANCH   1  11
BRANCH  10  19
ATOM     19  O   UNL     1      14.013  15.023  28.755  1.00  0.00    -0.500 OA
ATOM     20  H   UNL     1      13.361  15.347  28.051  1.00  0.00     0.294 HD
ENDBRANCH  10  19
BRANCH   5  21
ATOM     21  O   UNL     1      18.182  20.243  32.705  1.00  0.00    -0.507 OA
ATOM     22  H   UNL     1      18.163  21.239  32.518  1.00  0.00     0.293 HD
ENDBRANCH   5  21
BRANCH   7  23
ATOM     23  O   UNL     1      18.347  17.944  28.476  1.00  0.00    -0.507 OA
ATOM     24  H   UNL     1      19.150  18.474  28.172  1.00  0.00     0.293 HD
ENDBRANCH   7  23
TORSDOF 5
ENDMDL
MODEL 4
REMARK VINA RESULT:    -5.216      2.728      4.016
REMARK INTER + INTRA:          -6.158
REMARK INTER:                  -5.840
REMARK INTRA:                  -0.317
REMARK UNBOUND:                -0.026
REMARK SMILES Oc1ccc(-c2[o+]c3cc(O)cc(O)c3cc2O)cc1
REMARK SMILES IDX 6 1 7 2 8 3 9 4 10 5 12 6 13 7 15 8 16 9 17 10 5 11 4 12
REMARK SMILES IDX 3 13 2 14 19 15 20 16 1 17 18 19 11 21 14 23
REMARK H PARENT 1 18 18 20 11 22 14 24
REMARK Flexibility Score: inf
ROOT
ATOM      1  C   UNL     1      13.099  16.278  32.385  1.00  0.00     0.401 A 
ATOM      2  O   UNL     1      14.076  17.078  32.806  1.00  0.00    -0.202 OA
ATOM      3  C   UNL     1      15.038  17.535  32.012  1.00  0.00     0.368 A 
ATOM      4  C   UNL     1      16.023  18.369  32.548  1.00  0.00     0.162 A 
ATOM      5  C   UNL     1      17.048  18.861  31.739  1.00  0.00     0.128 A 
ATOM      6  C   UNL     1      17.090  18.517  30.382  1.00  0.00     0.093 A 
ATOM      7  C   UNL     1      16.115  17.683  29.821  1.00  0.00     0.136 A 
ATOM      8  C   UNL     1      15.070  17.183  30.641  1.00  0.00     0.125 A 
ATOM      9  C   UNL     1      14.043  16.353  30.162  1.00  0.00     0.078 A 
ATOM     10  C   UNL     1      13.043  15.903  31.031  1.00  0.00     0.223 A 
ENDROOT
BRANCH   1  11
ATOM     11  C   UNL     1      12.089  15.828  33.371  1.00  0.00     0.084 A 
ATOM     12  C   UNL     1      10.920  16.571  33.614  1.00  0.00     0.022 A 
ATOM     13  C   UNL     1       9.970  16.113  34.532  1.00  0.00     0.047 A 
ATOM     14  C   UNL     1      10.169  14.902  35.207  1.00  0.00     0.115 A 
ATOM     15  C   UNL     1      12.270  14.603  34.036  1.00  0.00     0.022 A 
ATOM     16  C   UNL     1      11.319  14.149  34.954  1.00  0.00     0.047 A 
BRANCH  14  17
ATOM     17  O   UNL     1       9.229  14.437  36.125  1.00  0.00    -0.508 OA
ATOM     18  H   UNL     1       9.033  13.448  36.227  1.00  0.00     0.293 HD
ENDBRANCH  14  17
ENDBRANCH   1  11
BRANCH  10  19
ATOM     19  O   UNL     1      11.996  15.119  30.545  1.00  0.00    -0.500 OA
ATOM     20  H   UNL     1      11.481  15.376  29.711  1.00  0.00     0.294 HD
ENDBRANCH  10  19
BRANCH   5  21
ATOM     21  O   UNL     1      18.020  19.691  32.291  1.00  0.00    -0.507 OA
ATOM     22  H   UNL     1      18.747  19.327  32.895  1.00  0.00     0.293 HD
ENDBRANCH   5  21
BRANCH   7  23
ATOM     23  O   UNL     1      16.229  17.384  28.461  1.00  0.00    -0.507 OA
ATOM     24  H   UNL     1      16.104  18.055  27.717  1.00  0.00     0.293 HD
ENDBRANCH   7  23
TORSDOF 5
ENDMDL
MODEL 5
REMARK VINA RESULT:    -5.080      3.120      4.659
REMARK INTER + INTRA:          -5.998
REMARK INTER:                  -5.761
REMARK INTRA:                  -0.236
REMARK UNBOUND:                -0.026
REMARK SMILES Oc1ccc(-c2[o+]c3cc(O)cc(O)c3cc2O)cc1
REMARK SMILES IDX 6 1 7 2 8 3 9 4 10 5 12 6 13 7 15 8 16 9 17 10 5 11 4 12
REMARK SMILES IDX 3 13 2 14 19 15 20 16 1 17 18 19 11 21 14 23
REMARK H PARENT 1 18 18 20 11 22 14 24
REMARK Flexibility Score: inf
ROOT
ATOM      1  C   UNL     1      13.533  16.931  33.723  1.00  0.00     0.401 A 
ATOM      2  O   UNL     1      13.782  16.755  32.428  1.00  0.00    -0.202 OA
ATOM      3  C   UNL     1      14.814  17.310  31.801  1.00  0.00     0.368 A 
ATOM      4  C   UNL     1      14.991  17.067  30.437  1.00  0.00     0.162 A 
ATOM      5  C   UNL     1      16.063  17.639  29.751  1.00  0.00     0.128 A 
ATOM      6  C   UNL     1      16.967  18.461  30.435  1.00  0.00     0.093 A 
ATOM      7  C   UNL     1      16.812  18.719  31.802  1.00  0.00     0.136 A 
ATOM      8  C   UNL     1      15.723  18.137  32.502  1.00  0.00     0.125 A 
ATOM      9  C   UNL     1      15.497  18.330  33.875  1.00  0.00     0.078 A 
ATOM     10  C   UNL     1      14.404  17.718  34.498  1.00  0.00     0.223 A 
ENDROOT
BRANCH   1  11
ATOM     11  C   UNL     1      12.344  16.266  34.305  1.00  0.00     0.084 A 
ATOM     12  C   UNL     1      12.470  15.157  35.161  1.00  0.00     0.022 A 
ATOM     13  C   UNL     1      11.333  14.560  35.716  1.00  0.00     0.047 A 
ATOM     14  C   UNL     1      10.060  15.072  35.435  1.00  0.00     0.115 A 
ATOM     15  C   UNL     1      11.065  16.786  34.045  1.00  0.00     0.022 A 
ATOM     16  C   UNL     1       9.930  16.187  34.601  1.00  0.00     0.047 A 
BRANCH  14  17
ATOM     17  O   UNL     1       8.921  14.485  35.981  1.00  0.00    -0.508 OA
ATOM     18  H   UNL     1       8.122  14.243  35.406  1.00  0.00     0.293 HD
ENDBRANCH  14  17
ENDBRANCH   1  11
BRANCH  10  19
ATOM     19  O   UNL     1      14.208  17.869  35.871  1.00  0.00    -0.500 OA
ATOM     20  H   UNL     1      13.935  17.090  36.459  1.00  0.00     0.294 HD
ENDBRANCH  10  19
BRANCH   5  21
ATOM     21  O   UNL     1      16.223  17.385  28.392  1.00  0.00    -0.507 OA
ATOM     22  H   UNL     1      16.553  16.488  28.055  1.00  0.00     0.293 HD
ENDBRANCH   5  21
BRANCH   7  23
ATOM     23  O   UNL     1      17.755  19.553  32.411  1.00  0.00    -0.507 OA
ATOM     24  H   UNL     1      18.600  19.228  32.856  1.00  0.00     0.293 HD
ENDBRANCH   7  23
TORSDOF 5
ENDMDL
MODEL 6
REMARK VINA RESULT:    -5.052      2.874      7.887
REMARK INTER + INTRA:          -5.965
REMARK INTER:                  -5.670
REMARK INTRA:                  -0.295
REMARK UNBOUND:                -0.026
REMARK SMILES Oc1ccc(-c2[o+]c3cc(O)cc(O)c3cc2O)cc1
REMARK SMILES IDX 6 1 7 2 8 3 9 4 10 5 12 6 13 7 15 8 16 9 17 10 5 11 4 12
REMARK SMILES IDX 3 13 2 14 19 15 20 16 1 17 18 19 11 21 14 23
REMARK H PARENT 1 18 18 20 11 22 14 24
REMARK Flexibility Score: inf
ROOT
ATOM      1  C   UNL     1      12.835  15.713  30.801  1.00  0.00     0.401 A 
ATOM      2  O   UNL     1      12.053  15.344  29.789  1.00  0.00    -0.202 OA
ATOM      3  C   UNL     1      10.780  14.995  29.941  1.00  0.00     0.368 A 
ATOM      4  C   UNL     1      10.040  14.620  28.817  1.00  0.00     0.162 A 
ATOM      5  C   UNL     1       8.702  14.245  28.946  1.00  0.00     0.128 A 
ATOM      6  C   UNL     1       8.097  14.245  30.208  1.00  0.00     0.093 A 
ATOM      7  C   UNL     1       8.818  14.617  31.351  1.00  0.00     0.136 A 
ATOM      8  C   UNL     1      10.178  15.001  31.222  1.00  0.00     0.125 A 
ATOM      9  C   UNL     1      10.973  15.401  32.309  1.00  0.00     0.078 A 
ATOM     10  C   UNL     1      12.306  15.771  32.103  1.00  0.00     0.223 A 
ENDROOT
BRANCH   1  11
ATOM     11  C   UNL     1      14.241  16.070  30.505  1.00  0.00     0.084 A 
ATOM     12  C   UNL     1      14.644  17.411  30.363  1.00  0.00     0.022 A 
ATOM     13  C   UNL     1      15.982  17.724  30.106  1.00  0.00     0.047 A 
ATOM     14  C   UNL     1      16.937  16.704  30.003  1.00  0.00     0.115 A 
ATOM     15  C   UNL     1      15.209  15.055  30.421  1.00  0.00     0.022 A 
ATOM     16  C   UNL     1      16.547  15.371  30.163  1.00  0.00     0.047 A 
BRANCH  14  17
ATOM     17  O   UNL     1      18.273  17.004  29.746  1.00  0.00    -0.508 OA
ATOM     18  H   UNL     1      18.999  16.301  29.828  1.00  0.00     0.293 HD
ENDBRANCH  14  17
ENDBRANCH   1  11
BRANCH  10  19
ATOM     19  O   UNL     1      13.081  16.217  33.174  1.00  0.00    -0.500 OA
ATOM     20  H   UNL     1      12.790  16.081  34.135  1.00  0.00     0.294 HD
ENDBRANCH  10  19
BRANCH   5  21
ATOM     21  O   UNL     1       7.980  13.875  27.814  1.00  0.00    -0.507 OA
ATOM     22  H   UNL     1       7.289  13.135  27.844  1.00  0.00     0.293 HD
ENDBRANCH   5  21
BRANCH   7  23
ATOM     23  O   UNL     1       8.144  14.588  32.575  1.00  0.00    -0.507 OA
ATOM     24  H   UNL     1       8.151  15.339  33.249  1.00  0.00     0.293 HD
ENDBRANCH   7  23
TORSDOF 5
ENDMDL
MODEL 7
REMARK VINA RESULT:    -5.026      2.178      6.023
REMARK INTER + INTRA:          -5.933
REMARK INTER:                  -5.650
REMARK INTRA:                  -0.283
REMARK UNBOUND:                -0.026
REMARK SMILES Oc1ccc(-c2[o+]c3cc(O)cc(O)c3cc2O)cc1
REMARK SMILES IDX 6 1 7 2 8 3 9 4 10 5 12 6 13 7 15 8 16 9 17 10 5 11 4 12
REMARK SMILES IDX 3 13 2 14 19 15 20 16 1 17 18 19 11 21 14 23
REMARK H PARENT 1 18 18 20 11 22 14 24
REMARK Flexibility Score: inf
ROOT
ATOM      1  C   UNL     1      15.833  17.328  30.962  1.00  0.00     0.401 A 
ATOM      2  O   UNL     1      15.417  17.438  32.222  1.00  0.00    -0.202 OA
ATOM      3  C   UNL     1      14.191  17.112  32.616  1.00  0.00     0.368 A 
ATOM      4  C   UNL     1      13.846  17.264  33.961  1.00  0.00     0.162 A 
ATOM      5  C   UNL     1      12.565  16.934  34.404  1.00  0.00     0.128 A 
ATOM      6  C   UNL     1      11.619  16.447  33.495  1.00  0.00     0.093 A 
ATOM      7  C   UNL     1      11.939  16.286  32.141  1.00  0.00     0.136 A 
ATOM      8  C   UNL     1      13.242  16.618  31.689  1.00  0.00     0.125 A 
ATOM      9  C   UNL     1      13.655  16.476  30.354  1.00  0.00     0.078 A 
ATOM     10  C   UNL     1      14.960  16.821  29.983  1.00  0.00     0.223 A 
ENDROOT
BRANCH   1  11
ATOM     11  C   UNL     1      17.222  17.733  30.646  1.00  0.00     0.084 A 
ATOM     12  C   UNL     1      18.244  16.780  30.480  1.00  0.00     0.022 A 
ATOM     13  C   UNL     1      19.543  17.186  30.159  1.00  0.00     0.047 A 
ATOM     14  C   UNL     1      19.834  18.545  29.985  1.00  0.00     0.115 A 
ATOM     15  C   UNL     1      17.518  19.092  30.449  1.00  0.00     0.022 A 
ATOM     16  C   UNL     1      18.819  19.495  30.128  1.00  0.00     0.047 A 
BRANCH  14  17
ATOM     17  O   UNL     1      21.125  18.960  29.666  1.00  0.00    -0.508 OA
ATOM     18  H   UNL     1      21.478  19.865  29.958  1.00  0.00     0.293 HD
ENDBRANCH  14  17
ENDBRANCH   1  11
BRANCH  10  19
ATOM     19  O   UNL     1      15.386  16.633  28.669  1.00  0.00    -0.500 OA
ATOM     20  H   UNL     1      15.176  15.783  28.157  1.00  0.00     0.294 HD
ENDBRANCH  10  19
BRANCH   5  21
ATOM     21  O   UNL     1      12.241  17.093  35.749  1.00  0.00    -0.507 OA
ATOM     22  H   UNL     1      12.816  16.696  36.483  1.00  0.00     0.293 HD
ENDBRANCH   5  21
BRANCH   7  23
ATOM     23  O   UNL     1      10.937  15.798  31.296  1.00  0.00    -0.507 OA
ATOM     24  H   UNL     1      10.130  15.278  31.609  1.00  0.00     0.293 HD
ENDBRANCH   7  23
TORSDOF 5
ENDMDL
MODEL 8
REMARK VINA RESULT:    -5.014      1.300      6.725
REMARK INTER + INTRA:          -5.920
REMARK INTER:                  -6.034
REMARK INTRA:                   0.114
REMARK UNBOUND:                -0.026
REMARK SMILES Oc1ccc(-c2[o+]c3cc(O)cc(O)c3cc2O)cc1
REMARK SMILES IDX 6 1 7 2 8 3 9 4 10 5 12 6 13 7 15 8 16 9 17 10 5 11 4 12
REMARK SMILES IDX 3 13 2 14 19 15 20 16 1 17 18 19 11 21 14 23
REMARK H PARENT 1 18 18 20 11 22 14 24
REMARK Flexibility Score: inf
ROOT
ATOM      1  C   UNL     1      15.292  17.029  31.021  1.00  0.00     0.401 A 
ATOM      2  O   UNL     1      14.059  16.928  31.511  1.00  0.00    -0.202 OA
ATOM      3  C   UNL     1      13.113  16.177  30.957  1.00  0.00     0.368 A 
ATOM      4  C   UNL     1      11.846  16.136  31.545  1.00  0.00     0.162 A 
ATOM      5  C   UNL     1      10.832  15.359  30.983  1.00  0.00     0.128 A 
ATOM      6  C   UNL     1      11.085  14.617  29.824  1.00  0.00     0.093 A 
ATOM      7  C   UNL     1      12.346  14.641  29.215  1.00  0.00     0.136 A 
ATOM      8  C   UNL     1      13.380  15.428  29.786  1.00  0.00     0.125 A 
ATOM      9  C   UNL     1      14.678  15.502  29.252  1.00  0.00     0.078 A 
ATOM     10  C   UNL     1      15.647  16.296  29.874  1.00  0.00     0.223 A 
ENDROOT
BRANCH   1  11
ATOM     11  C   UNL     1      16.255  17.907  31.725  1.00  0.00     0.084 A 
ATOM     12  C   UNL     1      16.370  17.893  33.127  1.00  0.00     0.022 A 
ATOM     13  C   UNL     1      17.304  18.715  33.767  1.00  0.00     0.047 A 
ATOM     14  C   UNL     1      18.142  19.548  33.015  1.00  0.00     0.115 A 
ATOM     15  C   UNL     1      17.115  18.730  30.977  1.00  0.00     0.022 A 
ATOM     16  C   UNL     1      18.046  19.551  31.621  1.00  0.00     0.047 A 
BRANCH  14  17
ATOM     17  O   UNL     1      19.074  20.371  33.643  1.00  0.00    -0.508 OA
ATOM     18  H   UNL     1      18.978  21.380  33.638  1.00  0.00     0.293 HD
ENDBRANCH  14  17
ENDBRANCH   1  11
BRANCH  10  19
ATOM     19  O   UNL     1      16.948  16.331  29.374  1.00  0.00    -0.500 OA
ATOM     20  H   UNL     1      17.681  15.741  29.752  1.00  0.00     0.294 HD
ENDBRANCH  10  19
BRANCH   5  21
ATOM     21  O   UNL     1       9.576  15.331  31.584  1.00  0.00    -0.507 OA
ATOM     22  H   UNL     1       9.088  16.183  31.832  1.00  0.00     0.293 HD
ENDBRANCH   5  21
BRANCH   7  23
ATOM     23  O   UNL     1      12.518  13.875  28.058  1.00  0.00    -0.507 OA
ATOM     24  H   UNL     1      13.129  13.075  27.989  1.00  0.00     0.293 HD
ENDBRANCH   7  23
TORSDOF 5
ENDMDL
MODEL 9
REMARK VINA RESULT:    -4.985      3.753      8.898
REMARK INTER + INTRA:          -5.886
REMARK INTER:                  -5.599
REMARK INTRA:                  -0.287
REMARK UNBOUND:                -0.026
REMARK SMILES Oc1ccc(-c2[o+]c3cc(O)cc(O)c3cc2O)cc1
REMARK SMILES IDX 6 1 7 2 8 3 9 4 10 5 12 6 13 7 15 8 16 9 17 10 5 11 4 12
REMARK SMILES IDX 3 13 2 14 19 15 20 16 1 17 18 19 11 21 14 23
REMARK H PARENT 1 18 18 20 11 22 14 24
REMARK Flexibility Score: inf
ROOT
ATOM      1  C   UNL     1      10.155  14.997  30.843  1.00  0.00     0.401 A 
ATOM      2  O   UNL     1       9.449  15.124  31.963  1.00  0.00    -0.202 OA
ATOM      3  C   UNL     1       8.141  14.897  32.032  1.00  0.00     0.368 A 
ATOM      4  C   UNL     1       7.486  15.060  33.255  1.00  0.00     0.162 A 
ATOM      5  C   UNL     1       6.113  14.833  33.356  1.00  0.00     0.128 A 
ATOM      6  C   UNL     1       5.388  14.439  32.226  1.00  0.00     0.093 A 
ATOM      7  C   UNL     1       6.021  14.269  30.988  1.00  0.00     0.136 A 
ATOM      8  C   UNL     1       7.418  14.497  30.883  1.00  0.00     0.125 A 
ATOM      9  C   UNL     1       8.138  14.338  29.687  1.00  0.00     0.078 A 
ATOM     10  C   UNL     1       9.516  14.577  29.662  1.00  0.00     0.223 A 
ENDROOT
BRANCH   1  11
ATOM     11  C   UNL     1      11.606  15.288  30.893  1.00  0.00     0.084 A 
ATOM     12  C   UNL     1      12.090  16.609  30.879  1.00  0.00     0.022 A 
ATOM     13  C   UNL     1      13.464  16.859  30.951  1.00  0.00     0.047 A 
ATOM     14  C   UNL     1      14.370  15.795  31.051  1.00  0.00     0.115 A 
ATOM     15  C   UNL     1      12.520  14.227  31.015  1.00  0.00     0.022 A 
ATOM     16  C   UNL     1      13.894  14.481  31.086  1.00  0.00     0.047 A 
BRANCH  14  17
ATOM     17  O   UNL     1      15.741  16.032  31.122  1.00  0.00    -0.508 OA
ATOM     18  H   UNL     1      16.395  15.294  31.357  1.00  0.00     0.293 HD
ENDBRANCH  14  17
ENDBRANCH   1  11
BRANCH  10  19
ATOM     19  O   UNL     1      10.240  14.371  28.487  1.00  0.00    -0.500 OA
ATOM     20  H   UNL     1      10.035  13.599  27.864  1.00  0.00     0.294 HD
ENDBRANCH  10  19
BRANCH   5  21
ATOM     21  O   UNL     1       5.478  15.000  34.584  1.00  0.00    -0.507 OA
ATOM     22  H   UNL     1       5.641  15.820  35.158  1.00  0.00     0.293 HD
ENDBRANCH   5  21
BRANCH   7  23
ATOM     23  O   UNL     1       5.227  13.877  29.907  1.00  0.00    -0.507 OA
ATOM     24  H   UNL     1       4.694  13.020  29.871  1.00  0.00     0.293 HD
ENDBRANCH   7  23
TORSDOF 5
ENDMDL
