MODEL 1
REMARK VINA RESULT:    -6.620      0.000      0.000
REMARK INTER + INTRA:         -11.385
REMARK INTER:                  -9.136
REMARK INTRA:                  -2.249
REMARK UNBOUND:                -2.249
REMARK SMILES CC[C@@H](CC[C@H](C)[C@H]1CC[C@@H]2[C@H]3CC=C4C[C@H](O)CC[C@@]4(C)[C@H]3CC[C@]21C)C(C)C
REMARK SMILES IDX 5 1 4 2 3 3 2 4 1 5 28 6 29 7 30 8 6 9 7 10 8 11 9 12 26 13
REMARK SMILES IDX 10 14 11 15 25 16 27 17 12 18 24 19 23 20 13 21 21 22 14 23
REMARK SMILES IDX 15 24 20 25 22 26 16 27 19 28 17 29 18 30
REMARK H PARENT 18 31
REMARK Flexibility Score: inf
ROOT
ATOM      1  C   UNL     1      47.525   1.177  21.143  1.00  0.00     0.004 C 
ENDROOT
BRANCH   1   2
ATOM      2  C   UNL     1      46.080   1.345  20.618  1.00  0.00     0.004 C 
BRANCH   2   3
ATOM      3  C   UNL     1      45.060   1.758  21.717  1.00  0.00    -0.009 C 
BRANCH   3   4
ATOM      4  C   UNL     1      44.545   0.503  22.478  1.00  0.00     0.000 C 
ATOM      5  C   UNL     1      43.191   0.003  21.968  1.00  0.00     0.004 C 
ENDBRANCH   3   4
BRANCH   3   6
ATOM      6  C   UNL     1      43.888   2.638  21.159  1.00  0.00    -0.014 C 
ATOM      7  C   UNL     1      44.255   3.332  19.836  1.00  0.00     0.007 C 
ATOM      8  C   UNL     1      43.359   3.669  22.170  1.00  0.00     0.007 C 
ENDBRANCH   3   6
ENDBRANCH   2   3
ENDBRANCH   1   2
BRANCH   1   9
ATOM      9  C   UNL     1      48.359   2.493  21.208  1.00  0.00    -0.011 C 
ATOM     10  C   UNL     1      49.772   2.248  20.629  1.00  0.00     0.008 C 
BRANCH   9  11
ATOM     11  C   UNL     1      48.367   3.105  22.657  1.00  0.00    -0.002 C 
ATOM     12  C   UNL     1      49.777   3.399  23.229  1.00  0.00     0.005 C 
ATOM     13  C   UNL     1      47.538   4.435  22.901  1.00  0.00    -0.026 C 
ATOM     14  C   UNL     1      49.659   4.680  24.040  1.00  0.00     0.005 C 
ATOM     15  C   UNL     1      48.623   5.462  23.257  1.00  0.00    -0.001 C 
ATOM     16  C   UNL     1      46.771   5.069  21.714  1.00  0.00     0.007 C 
ATOM     17  C   UNL     1      46.544   4.148  24.071  1.00  0.00     0.012 C 
ATOM     18  C   UNL     1      48.066   6.778  23.863  1.00  0.00     0.000 C 
ATOM     19  C   UNL     1      46.152   6.441  22.077  1.00  0.00     0.005 C 
ATOM     20  C   UNL     1      47.067   7.479  22.848  1.00  0.00     0.003 C 
ATOM     21  C   UNL     1      49.219   7.721  24.270  1.00  0.00     0.031 C 
ATOM     22  C   UNL     1      47.719   8.692  22.007  1.00  0.00    -0.008 C 
ATOM     23  C   UNL     1      49.937   8.193  23.041  1.00  0.00    -0.027 C 
ATOM     24  C   UNL     1      49.252   8.509  21.922  1.00  0.00    -0.065 C 
ATOM     25  C   UNL     1      47.090   8.941  20.593  1.00  0.00     0.014 C 
ATOM     26  C   UNL     1      47.455  10.031  22.766  1.00  0.00     0.016 C 
ATOM     27  C   UNL     1      50.044   8.480  20.620  1.00  0.00     0.063 C 
ATOM     28  C   UNL     1      47.784   8.177  19.471  1.00  0.00     0.033 C 
ATOM     29  C   UNL     1      49.229   8.660  19.322  1.00  0.00     0.118 C 
BRANCH  29  30
ATOM     30  O   UNL     1      49.273   9.986  18.848  1.00  0.00    -0.393 OA
ATOM     31  H   UNL     1      50.172  10.362  19.038  1.00  0.00     0.210 HD
ENDBRANCH  29  30
ENDBRANCH   9  11
ENDBRANCH   1   9
TORSDOF 7
ENDMDL
MODEL 2
REMARK VINA RESULT:    -6.344      2.858      7.111
REMARK INTER + INTRA:         -11.003
REMARK INTER:                  -8.733
REMARK INTRA:                  -2.270
REMARK UNBOUND:                -2.249
REMARK SMILES CC[C@@H](CC[C@H](C)[C@H]1CC[C@@H]2[C@H]3CC=C4C[C@H](O)CC[C@@]4(C)[C@H]3CC[C@]21C)C(C)C
REMARK SMILES IDX 5 1 4 2 3 3 2 4 1 5 28 6 29 7 30 8 6 9 7 10 8 11 9 12 26 13
REMARK SMILES IDX 10 14 11 15 25 16 27 17 12 18 24 19 23 20 13 21 21 22 14 23
REMARK SMILES IDX 15 24 20 25 22 26 16 27 19 28 17 29 18 30
REMARK H PARENT 18 31
REMARK Flexibility Score: inf
ROOT
ATOM      1  C   UNL     1      50.496   6.124  25.028  1.00  0.00     0.004 C 
ENDROOT
BRANCH   1   2
ATOM      2  C   UNL     1      49.961   7.361  25.789  1.00  0.00     0.004 C 
BRANCH   2   3
ATOM      3  C   UNL     1      48.451   7.638  25.546  1.00  0.00    -0.009 C 
BRANCH   3   4
ATOM      4  C   UNL     1      48.258   9.019  24.856  1.00  0.00     0.000 C 
ATOM      5  C   UNL     1      49.032   9.149  23.542  1.00  0.00     0.004 C 
ENDBRANCH   3   4
BRANCH   3   6
ATOM      6  C   UNL     1      47.589   7.498  26.848  1.00  0.00    -0.014 C 
ATOM      7  C   UNL     1      48.445   7.553  28.125  1.00  0.00     0.007 C 
ATOM      8  C   UNL     1      46.696   6.246  26.862  1.00  0.00     0.007 C 
ENDBRANCH   3   6
ENDBRANCH   2   3
ENDBRANCH   1   2
BRANCH   1   9
ATOM      9  C   UNL     1      49.401   5.122  24.550  1.00  0.00    -0.011 C 
ATOM     10  C   UNL     1      49.596   3.758  25.252  1.00  0.00     0.008 C 
BRANCH   9  11
ATOM     11  C   UNL     1      49.349   5.024  22.981  1.00  0.00    -0.002 C 
ATOM     12  C   UNL     1      49.953   3.724  22.392  1.00  0.00     0.005 C 
ATOM     13  C   UNL     1      47.935   5.175  22.279  1.00  0.00    -0.026 C 
ATOM     14  C   UNL     1      49.092   3.347  21.196  1.00  0.00     0.005 C 
ATOM     15  C   UNL     1      47.714   3.797  21.637  1.00  0.00    -0.001 C 
ATOM     16  C   UNL     1      46.680   5.404  23.159  1.00  0.00     0.007 C 
ATOM     17  C   UNL     1      48.061   6.333  21.239  1.00  0.00     0.012 C 
ATOM     18  C   UNL     1      46.553   3.763  20.608  1.00  0.00     0.000 C 
ATOM     19  C   UNL     1      45.369   5.368  22.338  1.00  0.00     0.005 C 
ATOM     20  C   UNL     1      45.186   4.188  21.296  1.00  0.00     0.003 C 
ATOM     21  C   UNL     1      46.449   2.371  19.949  1.00  0.00     0.031 C 
ATOM     22  C   UNL     1      44.237   2.949  21.706  1.00  0.00    -0.008 C 
ATOM     23  C   UNL     1      46.021   1.363  20.974  1.00  0.00    -0.027 C 
ATOM     24  C   UNL     1      45.090   1.675  21.899  1.00  0.00    -0.065 C 
ATOM     25  C   UNL     1      43.296   3.204  22.933  1.00  0.00     0.014 C 
ATOM     26  C   UNL     1      43.243   2.667  20.535  1.00  0.00     0.016 C 
ATOM     27  C   UNL     1      45.087   0.821  23.162  1.00  0.00     0.063 C 
ATOM     28  C   UNL     1      43.908   2.797  24.268  1.00  0.00     0.033 C 
ATOM     29  C   UNL     1      44.151   1.286  24.297  1.00  0.00     0.118 C 
BRANCH  29  30
ATOM     30  O   UNL     1      42.933   0.577  24.302  1.00  0.00    -0.393 OA
ATOM     31  H   UNL     1      43.056  -0.271  23.802  1.00  0.00     0.210 HD
ENDBRANCH  29  30
ENDBRANCH   9  11
ENDBRANCH   1   9
TORSDOF 7
ENDMDL
MODEL 3
REMARK VINA RESULT:    -6.325      2.407      3.646
REMARK INTER + INTRA:         -10.977
REMARK INTER:                  -9.179
REMARK INTRA:                  -1.798
REMARK UNBOUND:                -2.249
REMARK SMILES CC[C@@H](CC[C@H](C)[C@H]1CC[C@@H]2[C@H]3CC=C4C[C@H](O)CC[C@@]4(C)[C@H]3CC[C@]21C)C(C)C
REMARK SMILES IDX 5 1 4 2 3 3 2 4 1 5 28 6 29 7 30 8 6 9 7 10 8 11 9 12 26 13
REMARK SMILES IDX 10 14 11 15 25 16 27 17 12 18 24 19 23 20 13 21 21 22 14 23
REMARK SMILES IDX 15 24 20 25 22 26 16 27 19 28 17 29 18 30
REMARK H PARENT 18 31
REMARK Flexibility Score: inf
ROOT
ATOM      1  C   UNL     1      46.333   2.782  21.127  1.00  0.00     0.004 C 
ENDROOT
BRANCH   1   2
ATOM      2  C   UNL     1      45.633   1.419  20.911  1.00  0.00     0.004 C 
BRANCH   2   3
ATOM      3  C   UNL     1      44.189   1.361  21.486  1.00  0.00    -0.009 C 
BRANCH   3   4
ATOM      4  C   UNL     1      43.781   2.745  22.067  1.00  0.00     0.000 C 
ATOM      5  C   UNL     1      43.041   3.628  21.058  1.00  0.00     0.004 C 
ENDBRANCH   3   4
BRANCH   3   6
ATOM      6  C   UNL     1      43.993   0.200  22.521  1.00  0.00    -0.014 C 
ATOM      7  C   UNL     1      43.045   0.591  23.667  1.00  0.00     0.007 C 
ATOM      8  C   UNL     1      45.313  -0.348  23.087  1.00  0.00     0.007 C 
ENDBRANCH   3   6
ENDBRANCH   2   3
ENDBRANCH   1   2
BRANCH   1   9
ATOM      9  C   UNL     1      47.755   2.697  21.761  1.00  0.00    -0.011 C 
ATOM     10  C   UNL     1      48.670   1.814  20.880  1.00  0.00     0.008 C 
BRANCH   9  11
ATOM     11  C   UNL     1      47.695   2.241  23.265  1.00  0.00    -0.002 C 
ATOM     12  C   UNL     1      49.047   1.764  23.853  1.00  0.00     0.005 C 
ATOM     13  C   UNL     1      47.125   3.273  24.326  1.00  0.00    -0.026 C 
ATOM     14  C   UNL     1      49.083   2.235  25.299  1.00  0.00     0.005 C 
ATOM     15  C   UNL     1      48.338   3.553  25.227  1.00  0.00    -0.001 C 
ATOM     16  C   UNL     1      46.665   4.671  23.842  1.00  0.00     0.007 C 
ATOM     17  C   UNL     1      45.948   2.565  25.069  1.00  0.00     0.012 C 
ATOM     18  C   UNL     1      47.982   4.283  26.549  1.00  0.00     0.000 C 
ATOM     19  C   UNL     1      46.292   5.609  25.016  1.00  0.00     0.005 C 
ATOM     20  C   UNL     1      47.287   5.678  26.246  1.00  0.00     0.003 C 
ATOM     21  C   UNL     1      49.236   4.452  27.433  1.00  0.00     0.031 C 
ATOM     22  C   UNL     1      48.275   6.949  26.358  1.00  0.00    -0.008 C 
ATOM     23  C   UNL     1      50.191   5.401  26.771  1.00  0.00    -0.027 C 
ATOM     24  C   UNL     1      49.737   6.500  26.132  1.00  0.00    -0.065 C 
ATOM     25  C   UNL     1      47.901   8.169  25.449  1.00  0.00     0.014 C 
ATOM     26  C   UNL     1      48.187   7.529  27.805  1.00  0.00     0.016 C 
ATOM     27  C   UNL     1      50.672   7.105  25.092  1.00  0.00     0.063 C 
ATOM     28  C   UNL     1      48.569   8.140  24.079  1.00  0.00     0.033 C 
ATOM     29  C   UNL     1      50.088   8.246  24.233  1.00  0.00     0.118 C 
BRANCH  29  30
ATOM     30  O   UNL     1      50.461   9.517  24.716  1.00  0.00    -0.393 OA
ATOM     31  H   UNL     1      49.809  10.187  24.382  1.00  0.00     0.210 HD
ENDBRANCH  29  30
ENDBRANCH   9  11
ENDBRANCH   1   9
TORSDOF 7
ENDMDL
MODEL 4
REMARK VINA RESULT:    -6.298      2.674      7.005
REMARK INTER + INTRA:         -10.940
REMARK INTER:                  -8.832
REMARK INTRA:                  -2.108
REMARK UNBOUND:                -2.249
REMARK SMILES CC[C@@H](CC[C@H](C)[C@H]1CC[C@@H]2[C@H]3CC=C4C[C@H](O)CC[C@@]4(C)[C@H]3CC[C@]21C)C(C)C
REMARK SMILES IDX 5 1 4 2 3 3 2 4 1 5 28 6 29 7 30 8 6 9 7 10 8 11 9 12 26 13
REMARK SMILES IDX 10 14 11 15 25 16 27 17 12 18 24 19 23 20 13 21 21 22 14 23
REMARK SMILES IDX 15 24 20 25 22 26 16 27 19 28 17 29 18 30
REMARK H PARENT 18 31
REMARK Flexibility Score: inf
ROOT
ATOM      1  C   UNL     1      49.452   8.718  23.998  1.00  0.00     0.004 C 
ENDROOT
BRANCH   1   2
ATOM      2  C   UNL     1      48.223   8.640  24.935  1.00  0.00     0.004 C 
BRANCH   2   3
ATOM      3  C   UNL     1      47.160   9.741  24.663  1.00  0.00    -0.009 C 
BRANCH   3   4
ATOM      4  C   UNL     1      45.736   9.117  24.601  1.00  0.00     0.000 C 
ATOM      5  C   UNL     1      45.256   8.580  25.952  1.00  0.00     0.004 C 
ENDBRANCH   3   4
BRANCH   3   6
ATOM      6  C   UNL     1      47.487  10.602  23.394  1.00  0.00    -0.014 C 
ATOM      7  C   UNL     1      47.319  12.110  23.650  1.00  0.00     0.007 C 
ATOM      8  C   UNL     1      46.693  10.184  22.146  1.00  0.00     0.007 C 
ENDBRANCH   3   6
ENDBRANCH   2   3
ENDBRANCH   1   2
BRANCH   1   9
ATOM      9  C   UNL     1      49.514   7.612  22.901  1.00  0.00    -0.011 C 
ATOM     10  C   UNL     1      49.869   8.248  21.536  1.00  0.00     0.008 C 
BRANCH   9  11
ATOM     11  C   UNL     1      48.202   6.746  22.873  1.00  0.00    -0.002 C 
ATOM     12  C   UNL     1      47.533   6.627  21.480  1.00  0.00     0.005 C 
ATOM     13  C   UNL     1      48.288   5.259  23.418  1.00  0.00    -0.026 C 
ATOM     14  C   UNL     1      46.974   5.215  21.386  1.00  0.00     0.005 C 
ATOM     15  C   UNL     1      47.993   4.413  22.170  1.00  0.00    -0.001 C 
ATOM     16  C   UNL     1      49.646   4.728  23.942  1.00  0.00     0.007 C 
ATOM     17  C   UNL     1      47.206   5.117  24.536  1.00  0.00     0.012 C 
ATOM     18  C   UNL     1      47.692   2.922  22.481  1.00  0.00     0.000 C 
ATOM     19  C   UNL     1      49.598   3.219  24.282  1.00  0.00     0.005 C 
ATOM     20  C   UNL     1      48.919   2.249  23.229  1.00  0.00     0.003 C 
ATOM     21  C   UNL     1      47.325   2.160  21.189  1.00  0.00     0.031 C 
ATOM     22  C   UNL     1      49.878   1.371  22.273  1.00  0.00    -0.008 C 
ATOM     23  C   UNL     1      48.528   2.082  20.296  1.00  0.00    -0.027 C 
ATOM     24  C   UNL     1      49.755   1.861  20.812  1.00  0.00    -0.065 C 
ATOM     25  C   UNL     1      51.375   1.282  22.726  1.00  0.00     0.014 C 
ATOM     26  C   UNL     1      49.396  -0.114  22.305  1.00  0.00     0.016 C 
ATOM     27  C   UNL     1      50.934   2.292  19.948  1.00  0.00     0.063 C 
ATOM     28  C   UNL     1      52.262   2.367  22.127  1.00  0.00     0.033 C 
ATOM     29  C   UNL     1      52.327   2.212  20.605  1.00  0.00     0.118 C 
BRANCH  29  30
ATOM     30  O   UNL     1      53.015   1.036  20.245  1.00  0.00    -0.393 OA
ATOM     31  H   UNL     1      53.684   0.830  20.950  1.00  0.00     0.210 HD
ENDBRANCH  29  30
ENDBRANCH   9  11
ENDBRANCH   1   9
TORSDOF 7
ENDMDL
MODEL 5
REMARK VINA RESULT:    -6.208      1.698      2.873
REMARK INTER + INTRA:         -10.817
REMARK INTER:                  -8.776
REMARK INTRA:                  -2.041
REMARK UNBOUND:                -2.249
REMARK SMILES CC[C@@H](CC[C@H](C)[C@H]1CC[C@@H]2[C@H]3CC=C4C[C@H](O)CC[C@@]4(C)[C@H]3CC[C@]21C)C(C)C
REMARK SMILES IDX 5 1 4 2 3 3 2 4 1 5 28 6 29 7 30 8 6 9 7 10 8 11 9 12 26 13
REMARK SMILES IDX 10 14 11 15 25 16 27 17 12 18 24 19 23 20 13 21 21 22 14 23
REMARK SMILES IDX 15 24 20 25 22 26 16 27 19 28 17 29 18 30
REMARK H PARENT 18 31
REMARK Flexibility Score: inf
ROOT
ATOM      1  C   UNL     1      48.124   0.915  20.694  1.00  0.00     0.004 C 
ENDROOT
BRANCH   1   2
ATOM      2  C   UNL     1      47.265   0.441  21.891  1.00  0.00     0.004 C 
BRANCH   2   3
ATOM      3  C   UNL     1      47.858  -0.787  22.638  1.00  0.00    -0.009 C 
BRANCH   3   4
ATOM      4  C   UNL     1      47.742  -0.593  24.177  1.00  0.00     0.000 C 
ATOM      5  C   UNL     1      47.257  -1.849  24.907  1.00  0.00     0.004 C 
ENDBRANCH   3   4
BRANCH   3   6
ATOM      6  C   UNL     1      49.322  -1.123  22.189  1.00  0.00    -0.014 C 
ATOM      7  C   UNL     1      49.542  -2.632  21.990  1.00  0.00     0.007 C 
ATOM      8  C   UNL     1      50.398  -0.549  23.125  1.00  0.00     0.007 C 
ENDBRANCH   3   6
ENDBRANCH   2   3
ENDBRANCH   1   2
BRANCH   1   9
ATOM      9  C   UNL     1      48.789   2.314  20.875  1.00  0.00    -0.011 C 
ATOM     10  C   UNL     1      50.225   2.289  20.301  1.00  0.00     0.008 C 
BRANCH   9  11
ATOM     11  C   UNL     1      48.712   2.806  22.367  1.00  0.00    -0.002 C 
ATOM     12  C   UNL     1      50.079   3.165  23.002  1.00  0.00     0.005 C 
ATOM     13  C   UNL     1      47.770   4.041  22.688  1.00  0.00    -0.026 C 
ATOM     14  C   UNL     1      49.836   4.363  23.907  1.00  0.00     0.005 C 
ATOM     15  C   UNL     1      48.758   5.120  23.156  1.00  0.00    -0.001 C 
ATOM     16  C   UNL     1      46.982   4.705  21.531  1.00  0.00     0.007 C 
ATOM     17  C   UNL     1      46.776   3.582  23.801  1.00  0.00     0.012 C 
ATOM     18  C   UNL     1      48.080   6.334  23.846  1.00  0.00     0.000 C 
ATOM     19  C   UNL     1      46.243   5.989  21.982  1.00  0.00     0.005 C 
ATOM     20  C   UNL     1      47.051   7.032  22.859  1.00  0.00     0.003 C 
ATOM     21  C   UNL     1      49.141   7.330  24.361  1.00  0.00     0.031 C 
ATOM     22  C   UNL     1      47.621   8.357  22.136  1.00  0.00    -0.008 C 
ATOM     23  C   UNL     1      49.847   7.956  23.195  1.00  0.00    -0.027 C 
ATOM     24  C   UNL     1      49.165   8.305  22.083  1.00  0.00    -0.065 C 
ATOM     25  C   UNL     1      47.008   8.668  20.727  1.00  0.00     0.014 C 
ATOM     26  C   UNL     1      47.229   9.605  22.989  1.00  0.00     0.016 C 
ATOM     27  C   UNL     1      49.988   8.445  20.808  1.00  0.00     0.063 C 
ATOM     28  C   UNL     1      47.789   8.054  19.571  1.00  0.00     0.033 C 
ATOM     29  C   UNL     1      49.192   8.662  19.504  1.00  0.00     0.118 C 
BRANCH  29  30
ATOM     30  O   UNL     1      49.138  10.022  19.136  1.00  0.00    -0.393 OA
ATOM     31  H   UNL     1      50.060  10.391  19.148  1.00  0.00     0.210 HD
ENDBRANCH  29  30
ENDBRANCH   9  11
ENDBRANCH   1   9
TORSDOF 7
ENDMDL
MODEL 6
REMARK VINA RESULT:    -6.154     11.624     14.887
REMARK INTER + INTRA:         -10.741
REMARK INTER:                  -8.726
REMARK INTRA:                  -2.015
REMARK UNBOUND:                -2.249
REMARK SMILES CC[C@@H](CC[C@H](C)[C@H]1CC[C@@H]2[C@H]3CC=C4C[C@H](O)CC[C@@]4(C)[C@H]3CC[C@]21C)C(C)C
REMARK SMILES IDX 5 1 4 2 3 3 2 4 1 5 28 6 29 7 30 8 6 9 7 10 8 11 9 12 26 13
REMARK SMILES IDX 10 14 11 15 25 16 27 17 12 18 24 19 23 20 13 21 21 22 14 23
REMARK SMILES IDX 15 24 20 25 22 26 16 27 19 28 17 29 18 30
REMARK H PARENT 18 31
REMARK Flexibility Score: inf
ROOT
ATOM      1  C   UNL     1      53.511  12.006  10.072  1.00  0.00     0.004 C 
ENDROOT
BRANCH   1   2
ATOM      2  C   UNL     1      52.802  10.916   9.233  1.00  0.00     0.004 C 
BRANCH   2   3
ATOM      3  C   UNL     1      51.499  10.373   9.887  1.00  0.00    -0.009 C 
BRANCH   3   4
ATOM      4  C   UNL     1      51.500  10.662  11.415  1.00  0.00     0.000 C 
ATOM      5  C   UNL     1      51.491   9.390  12.268  1.00  0.00     0.004 C 
ENDBRANCH   3   4
BRANCH   3   6
ATOM      6  C   UNL     1      51.243   8.860   9.567  1.00  0.00    -0.014 C 
ATOM      7  C   UNL     1      52.327   8.263   8.654  1.00  0.00     0.007 C 
ATOM      8  C   UNL     1      49.847   8.583   8.985  1.00  0.00     0.007 C 
ENDBRANCH   3   6
ENDBRANCH   2   3
ENDBRANCH   1   2
BRANCH   1   9
ATOM      9  C   UNL     1      54.669  11.487  10.978  1.00  0.00    -0.011 C 
ATOM     10  C   UNL     1      55.070  12.582  11.994  1.00  0.00     0.008 C 
BRANCH   9  11
ATOM     11  C   UNL     1      55.874  10.942  10.127  1.00  0.00    -0.002 C 
ATOM     12  C   UNL     1      57.251  11.558  10.484  1.00  0.00     0.005 C 
ATOM     13  C   UNL     1      56.116   9.374  10.112  1.00  0.00    -0.026 C 
ATOM     14  C   UNL     1      58.275  10.442  10.348  1.00  0.00     0.005 C 
ATOM     15  C   UNL     1      57.486   9.226  10.791  1.00  0.00    -0.001 C 
ATOM     16  C   UNL     1      55.170   8.460  10.930  1.00  0.00     0.007 C 
ATOM     17  C   UNL     1      56.111   8.925   8.616  1.00  0.00     0.012 C 
ATOM     18  C   UNL     1      58.121   7.821  10.620  1.00  0.00     0.000 C 
ATOM     19  C   UNL     1      55.639   6.985  10.940  1.00  0.00     0.005 C 
ATOM     20  C   UNL     1      57.171   6.702  11.224  1.00  0.00     0.003 C 
ATOM     21  C   UNL     1      59.527   7.777  11.256  1.00  0.00     0.031 C 
ATOM     22  C   UNL     1      57.593   6.198  12.698  1.00  0.00    -0.008 C 
ATOM     23  C   UNL     1      59.407   7.914  12.745  1.00  0.00    -0.027 C 
ATOM     24  C   UNL     1      58.411   7.297  13.414  1.00  0.00    -0.065 C 
ATOM     25  C   UNL     1      56.414   5.683  13.593  1.00  0.00     0.014 C 
ATOM     26  C   UNL     1      58.520   4.949  12.558  1.00  0.00     0.016 C 
ATOM     27  C   UNL     1      58.064   7.875  14.781  1.00  0.00     0.063 C 
ATOM     28  C   UNL     1      55.786   6.767  14.461  1.00  0.00     0.033 C 
ATOM     29  C   UNL     1      56.811   7.293  15.469  1.00  0.00     0.118 C 
BRANCH  29  30
ATOM     30  O   UNL     1      57.139   6.306  16.420  1.00  0.00    -0.393 OA
ATOM     31  H   UNL     1      56.833   5.424  16.082  1.00  0.00     0.210 HD
ENDBRANCH  29  30
ENDBRANCH   9  11
ENDBRANCH   1   9
TORSDOF 7
ENDMDL
MODEL 7
REMARK VINA RESULT:    -6.153      3.638      8.104
REMARK INTER + INTRA:         -10.741
REMARK INTER:                  -9.549
REMARK INTRA:                  -1.192
REMARK UNBOUND:                -2.249
REMARK SMILES CC[C@@H](CC[C@H](C)[C@H]1CC[C@@H]2[C@H]3CC=C4C[C@H](O)CC[C@@]4(C)[C@H]3CC[C@]21C)C(C)C
REMARK SMILES IDX 5 1 4 2 3 3 2 4 1 5 28 6 29 7 30 8 6 9 7 10 8 11 9 12 26 13
REMARK SMILES IDX 10 14 11 15 25 16 27 17 12 18 24 19 23 20 13 21 21 22 14 23
REMARK SMILES IDX 15 24 20 25 22 26 16 27 19 28 17 29 18 30
REMARK H PARENT 18 31
REMARK Flexibility Score: inf
ROOT
ATOM      1  C   UNL     1      48.482   6.308  21.370  1.00  0.00     0.004 C 
ENDROOT
BRANCH   1   2
ATOM      2  C   UNL     1      49.832   7.056  21.259  1.00  0.00     0.004 C 
BRANCH   2   3
ATOM      3  C   UNL     1      49.756   8.359  20.414  1.00  0.00    -0.009 C 
BRANCH   3   4
ATOM      4  C   UNL     1      48.292   8.626  19.961  1.00  0.00     0.000 C 
ATOM      5  C   UNL     1      47.727   9.945  20.495  1.00  0.00     0.004 C 
ENDBRANCH   3   4
BRANCH   3   6
ATOM      6  C   UNL     1      50.761   8.364  19.211  1.00  0.00    -0.014 C 
ATOM      7  C   UNL     1      50.062   8.616  17.864  1.00  0.00     0.007 C 
ATOM      8  C   UNL     1      51.628   7.096  19.130  1.00  0.00     0.007 C 
ENDBRANCH   3   6
ENDBRANCH   2   3
ENDBRANCH   1   2
BRANCH   1   9
ATOM      9  C   UNL     1      48.539   4.962  22.156  1.00  0.00    -0.011 C 
ATOM     10  C   UNL     1      49.512   5.093  23.350  1.00  0.00     0.008 C 
BRANCH   9  11
ATOM     11  C   UNL     1      48.861   3.749  21.208  1.00  0.00    -0.002 C 
ATOM     12  C   UNL     1      50.359   3.353  21.148  1.00  0.00     0.005 C 
ATOM     13  C   UNL     1      48.085   2.389  21.461  1.00  0.00    -0.026 C 
ATOM     14  C   UNL     1      50.403   1.836  21.037  1.00  0.00     0.005 C 
ATOM     15  C   UNL     1      49.205   1.418  21.866  1.00  0.00    -0.001 C 
ATOM     16  C   UNL     1      47.061   2.313  22.621  1.00  0.00     0.007 C 
ATOM     17  C   UNL     1      47.384   2.005  20.120  1.00  0.00     0.012 C 
ATOM     18  C   UNL     1      48.776  -0.073  21.858  1.00  0.00     0.000 C 
ATOM     19  C   UNL     1      46.516   0.880  22.834  1.00  0.00     0.005 C 
ATOM     20  C   UNL     1      47.563  -0.309  22.855  1.00  0.00     0.003 C 
ATOM     21  C   UNL     1      49.974  -0.987  22.194  1.00  0.00     0.031 C 
ATOM     22  C   UNL     1      47.990  -0.924  24.285  1.00  0.00    -0.008 C 
ATOM     23  C   UNL     1      50.391  -0.763  23.617  1.00  0.00    -0.027 C 
ATOM     24  C   UNL     1      49.467  -0.582  24.585  1.00  0.00    -0.065 C 
ATOM     25  C   UNL     1      47.056  -0.542  25.484  1.00  0.00     0.014 C 
ATOM     26  C   UNL     1      47.880  -2.480  24.216  1.00  0.00     0.016 C 
ATOM     27  C   UNL     1      49.948   0.122  25.848  1.00  0.00     0.063 C 
ATOM     28  C   UNL     1      47.493   0.717  26.224  1.00  0.00     0.033 C 
ATOM     29  C   UNL     1      48.860   0.495  26.877  1.00  0.00     0.118 C 
BRANCH  29  30
ATOM     30  O   UNL     1      48.774  -0.448  27.922  1.00  0.00    -0.393 OA
ATOM     31  H   UNL     1      48.866  -1.358  27.537  1.00  0.00     0.210 HD
ENDBRANCH  29  30
ENDBRANCH   9  11
ENDBRANCH   1   9
TORSDOF 7
ENDMDL
MODEL 8
REMARK VINA RESULT:    -6.142     12.097     15.332
REMARK INTER + INTRA:         -10.725
REMARK INTER:                  -8.653
REMARK INTRA:                  -2.072
REMARK UNBOUND:                -2.249
REMARK SMILES CC[C@@H](CC[C@H](C)[C@H]1CC[C@@H]2[C@H]3CC=C4C[C@H](O)CC[C@@]4(C)[C@H]3CC[C@]21C)C(C)C
REMARK SMILES IDX 5 1 4 2 3 3 2 4 1 5 28 6 29 7 30 8 6 9 7 10 8 11 9 12 26 13
REMARK SMILES IDX 10 14 11 15 25 16 27 17 12 18 24 19 23 20 13 21 21 22 14 23
REMARK SMILES IDX 15 24 20 25 22 26 16 27 19 28 17 29 18 30
REMARK H PARENT 18 31
REMARK Flexibility Score: inf
ROOT
ATOM      1  C   UNL     1      61.929   2.345  15.290  1.00  0.00     0.004 C 
ENDROOT
BRANCH   1   2
ATOM      2  C   UNL     1      62.542   3.439  16.196  1.00  0.00     0.004 C 
BRANCH   2   3
ATOM      3  C   UNL     1      61.948   3.465  17.633  1.00  0.00    -0.009 C 
BRANCH   3   4
ATOM      4  C   UNL     1      60.494   2.913  17.628  1.00  0.00     0.000 C 
ATOM      5  C   UNL     1      59.439   3.994  17.881  1.00  0.00     0.004 C 
ENDBRANCH   3   4
BRANCH   3   6
ATOM      6  C   UNL     1      62.046   4.878  18.306  1.00  0.00    -0.014 C 
ATOM      7  C   UNL     1      62.697   5.922  17.384  1.00  0.00     0.007 C 
ATOM      8  C   UNL     1      62.754   4.860  19.671  1.00  0.00     0.007 C 
ENDBRANCH   3   6
ENDBRANCH   2   3
ENDBRANCH   1   2
BRANCH   1   9
ATOM      9  C   UNL     1      60.824   2.845  14.311  1.00  0.00    -0.011 C 
ATOM     10  C   UNL     1      60.118   1.636  13.655  1.00  0.00     0.008 C 
BRANCH   9  11
ATOM     11  C   UNL     1      61.391   3.884  13.275  1.00  0.00    -0.002 C 
ATOM     12  C   UNL     1      61.003   3.607  11.800  1.00  0.00     0.005 C 
ATOM     13  C   UNL     1      61.056   5.417  13.509  1.00  0.00    -0.026 C 
ATOM     14  C   UNL     1      60.781   4.963  11.148  1.00  0.00     0.005 C 
ATOM     15  C   UNL     1      60.199   5.777  12.286  1.00  0.00    -0.001 C 
ATOM     16  C   UNL     1      60.190   5.819  14.729  1.00  0.00     0.007 C 
ATOM     17  C   UNL     1      62.417   6.180  13.561  1.00  0.00     0.012 C 
ATOM     18  C   UNL     1      60.000   7.303  12.088  1.00  0.00     0.000 C 
ATOM     19  C   UNL     1      59.822   7.322  14.721  1.00  0.00     0.005 C 
ATOM     20  C   UNL     1      59.300   7.944  13.361  1.00  0.00     0.003 C 
ATOM     21  C   UNL     1      59.201   7.585  10.797  1.00  0.00     0.031 C 
ATOM     22  C   UNL     1      57.714   8.190  13.192  1.00  0.00    -0.008 C 
ATOM     23  C   UNL     1      57.798   7.080  10.957  1.00  0.00    -0.027 C 
ATOM     24  C   UNL     1      57.143   7.225  12.128  1.00  0.00    -0.065 C 
ATOM     25  C   UNL     1      56.884   8.137  14.521  1.00  0.00     0.014 C 
ATOM     26  C   UNL     1      57.482   9.643  12.672  1.00  0.00     0.016 C 
ATOM     27  C   UNL     1      55.976   6.274  12.367  1.00  0.00     0.063 C 
ATOM     28  C   UNL     1      56.339   6.752  14.848  1.00  0.00     0.033 C 
ATOM     29  C   UNL     1      55.343   6.311  13.773  1.00  0.00     0.118 C 
BRANCH  29  30
ATOM     30  O   UNL     1      54.177   7.103  13.808  1.00  0.00    -0.393 OA
ATOM     31  H   UNL     1      53.426   6.550  14.148  1.00  0.00     0.210 HD
ENDBRANCH  29  30
ENDBRANCH   9  11
ENDBRANCH   1   9
TORSDOF 7
ENDMDL
MODEL 9
REMARK VINA RESULT:    -6.130      3.212      5.994
REMARK INTER + INTRA:         -10.709
REMARK INTER:                  -8.718
REMARK INTRA:                  -1.991
REMARK UNBOUND:                -2.249
REMARK SMILES CC[C@@H](CC[C@H](C)[C@H]1CC[C@@H]2[C@H]3CC=C4C[C@H](O)CC[C@@]4(C)[C@H]3CC[C@]21C)C(C)C
REMARK SMILES IDX 5 1 4 2 3 3 2 4 1 5 28 6 29 7 30 8 6 9 7 10 8 11 9 12 26 13
REMARK SMILES IDX 10 14 11 15 25 16 27 17 12 18 24 19 23 20 13 21 21 22 14 23
REMARK SMILES IDX 15 24 20 25 22 26 16 27 19 28 17 29 18 30
REMARK H PARENT 18 31
REMARK Flexibility Score: inf
ROOT
ATOM      1  C   UNL     1      44.549   0.346  23.584  1.00  0.00     0.004 C 
ENDROOT
BRANCH   1   2
ATOM      2  C   UNL     1      44.220  -0.312  24.945  1.00  0.00     0.004 C 
BRANCH   2   3
ATOM      3  C   UNL     1      44.746   0.489  26.170  1.00  0.00    -0.009 C 
BRANCH   3   4
ATOM      4  C   UNL     1      43.685   1.525  26.637  1.00  0.00     0.000 C 
ATOM      5  C   UNL     1      43.256   1.333  28.094  1.00  0.00     0.004 C 
ENDBRANCH   3   4
BRANCH   3   6
ATOM      6  C   UNL     1      46.146   1.146  25.910  1.00  0.00    -0.014 C 
ATOM      7  C   UNL     1      47.255   0.525  26.777  1.00  0.00     0.007 C 
ATOM      8  C   UNL     1      46.145   2.675  26.066  1.00  0.00     0.007 C 
ENDBRANCH   3   6
ENDBRANCH   2   3
ENDBRANCH   1   2
BRANCH   1   9
ATOM      9  C   UNL     1      43.322   0.939  22.826  1.00  0.00    -0.011 C 
ATOM     10  C   UNL     1      42.875  -0.033  21.710  1.00  0.00     0.008 C 
BRANCH   9  11
ATOM     11  C   UNL     1      43.605   2.400  22.317  1.00  0.00    -0.002 C 
ATOM     12  C   UNL     1      43.761   3.459  23.439  1.00  0.00     0.005 C 
ATOM     13  C   UNL     1      44.855   2.621  21.365  1.00  0.00    -0.026 C 
ATOM     14  C   UNL     1      44.836   4.429  22.974  1.00  0.00     0.005 C 
ATOM     15  C   UNL     1      45.774   3.524  22.201  1.00  0.00    -0.001 C 
ATOM     16  C   UNL     1      45.736   1.404  20.988  1.00  0.00     0.007 C 
ATOM     17  C   UNL     1      44.325   3.305  20.065  1.00  0.00     0.012 C 
ATOM     18  C   UNL     1      46.930   4.166  21.388  1.00  0.00     0.000 C 
ATOM     19  C   UNL     1      46.999   1.814  20.193  1.00  0.00     0.005 C 
ATOM     20  C   UNL     1      47.840   3.043  20.731  1.00  0.00     0.003 C 
ATOM     21  C   UNL     1      47.756   5.121  22.276  1.00  0.00     0.031 C 
ATOM     22  C   UNL     1      49.204   2.738  21.539  1.00  0.00    -0.008 C 
ATOM     23  C   UNL     1      48.481   4.328  23.324  1.00  0.00    -0.027 C 
ATOM     24  C   UNL     1      49.035   3.135  23.023  1.00  0.00    -0.065 C 
ATOM     25  C   UNL     1      49.757   1.279  21.393  1.00  0.00     0.014 C 
ATOM     26  C   UNL     1      50.347   3.624  20.950  1.00  0.00     0.016 C 
ATOM     27  C   UNL     1      49.286   2.198  24.198  1.00  0.00     0.063 C 
ATOM     28  C   UNL     1      49.251   0.322  22.466  1.00  0.00     0.033 C 
ATOM     29  C   UNL     1      49.747   0.768  23.844  1.00  0.00     0.118 C 
BRANCH  29  30
ATOM     30  O   UNL     1      51.145   0.621  23.951  1.00  0.00    -0.393 OA
ATOM     31  H   UNL     1      51.346  -0.311  24.227  1.00  0.00     0.210 HD
ENDBRANCH  29  30
ENDBRANCH   9  11
ENDBRANCH   1   9
TORSDOF 7
ENDMDL
