MODEL 1
REMARK VINA RESULT:    -3.995      0.000      0.000
REMARK INTER + INTRA:          -6.345
REMARK INTER:                  -5.513
REMARK INTRA:                  -0.832
REMARK UNBOUND:                -0.832
REMARK SMILES CC[C@@H](CC[C@H](C)[C@H]1CC[C@@H]2[C@H]3CC=C4C[C@@H](O)CC[C@@]4(C)[C@H]3CC[C@]21C)C(C)C
REMARK SMILES IDX 5 1 4 2 3 3 2 4 1 5 28 6 29 7 30 8 6 9 7 10 8 11 9 12 26 13
REMARK SMILES IDX 10 14 11 15 25 16 27 17 12 18 24 19 23 20 13 21 21 22 14 23
REMARK SMILES IDX 15 24 20 25 22 26 16 27 19 28 17 29 18 30
REMARK H PARENT 18 31
REMARK Flexibility Score: inf
ROOT
ATOM      1  C   UNL     1      -7.536  30.277  38.064  1.00  0.00     0.004 C 
ENDROOT
BRANCH   1   2
ATOM      2  C   UNL     1      -8.779  30.894  37.370  1.00  0.00     0.004 C 
BRANCH   2   3
ATOM      3  C   UNL     1      -8.421  32.075  36.433  1.00  0.00    -0.009 C 
BRANCH   3   4
ATOM      4  C   UNL     1      -6.884  32.150  36.173  1.00  0.00     0.000 C 
ATOM      5  C   UNL     1      -6.527  31.840  34.719  1.00  0.00     0.004 C 
ENDBRANCH   3   4
BRANCH   3   6
ATOM      6  C   UNL     1      -9.039  33.415  36.947  1.00  0.00    -0.014 C 
ATOM      7  C   UNL     1      -9.112  34.477  35.841  1.00  0.00     0.007 C 
ATOM      8  C   UNL     1      -8.348  33.988  38.199  1.00  0.00     0.007 C 
ENDBRANCH   3   6
ENDBRANCH   2   3
ENDBRANCH   1   2
BRANCH   1   9
ATOM      9  C   UNL     1      -7.397  28.735  37.897  1.00  0.00    -0.011 C 
ATOM     10  C   UNL     1      -8.535  28.212  36.994  1.00  0.00     0.008 C 
BRANCH   9  11
ATOM     11  C   UNL     1      -7.216  28.007  39.295  1.00  0.00    -0.002 C 
ATOM     12  C   UNL     1      -8.529  27.823  40.105  1.00  0.00     0.005 C 
ATOM     13  C   UNL     1      -6.665  26.539  39.224  1.00  0.00    -0.026 C 
ATOM     14  C   UNL     1      -9.018  26.393  39.855  1.00  0.00     0.005 C 
ATOM     15  C   UNL     1      -7.950  25.738  38.974  1.00  0.00    -0.001 C 
ATOM     16  C   UNL     1      -5.622  26.183  38.115  1.00  0.00     0.007 C 
ATOM     17  C   UNL     1      -6.018  26.207  40.611  1.00  0.00     0.012 C 
ATOM     18  C   UNL     1      -7.760  24.206  39.140  1.00  0.00     0.000 C 
ATOM     19  C   UNL     1      -5.818  24.777  37.489  1.00  0.00     0.005 C 
ATOM     20  C   UNL     1      -6.423  23.697  38.443  1.00  0.00     0.003 C 
ATOM     21  C   UNL     1      -9.050  23.463  38.685  1.00  0.00     0.031 C 
ATOM     22  C   UNL     1      -6.588  22.275  37.764  1.00  0.00    -0.008 C 
ATOM     23  C   UNL     1      -8.950  22.902  37.299  1.00  0.00    -0.027 C 
ATOM     24  C   UNL     1      -7.839  22.273  36.888  1.00  0.00    -0.065 C 
ATOM     25  C   UNL     1      -5.365  21.892  36.871  1.00  0.00     0.014 C 
ATOM     26  C   UNL     1      -6.716  21.196  38.876  1.00  0.00     0.016 C 
ATOM     27  C   UNL     1      -7.788  21.667  35.502  1.00  0.00     0.063 C 
ATOM     28  C   UNL     1      -5.549  20.554  36.127  1.00  0.00     0.033 C 
ATOM     29  C   UNL     1      -6.966  20.368  35.517  1.00  0.00     0.118 C 
BRANCH  29  30
ATOM     30  O   UNL     1      -6.868  19.875  34.206  1.00  0.00    -0.393 OA
ATOM     31  H   UNL     1      -6.521  20.618  33.646  1.00  0.00     0.210 HD
ENDBRANCH  29  30
ENDBRANCH   9  11
ENDBRANCH   1   9
TORSDOF 7
ENDMDL
MODEL 2
REMARK VINA RESULT:    -3.859      3.236      7.001
REMARK INTER + INTRA:          -6.157
REMARK INTER:                  -4.885
REMARK INTRA:                  -1.272
REMARK UNBOUND:                -0.832
REMARK SMILES CC[C@@H](CC[C@H](C)[C@H]1CC[C@@H]2[C@H]3CC=C4C[C@@H](O)CC[C@@]4(C)[C@H]3CC[C@]21C)C(C)C
REMARK SMILES IDX 5 1 4 2 3 3 2 4 1 5 28 6 29 7 30 8 6 9 7 10 8 11 9 12 26 13
REMARK SMILES IDX 10 14 11 15 25 16 27 17 12 18 24 19 23 20 13 21 21 22 14 23
REMARK SMILES IDX 15 24 20 25 22 26 16 27 19 28 17 29 18 30
REMARK H PARENT 18 31
REMARK Flexibility Score: inf
ROOT
ATOM      1  C   UNL     1      -7.964  22.717  35.509  1.00  0.00     0.004 C 
ENDROOT
BRANCH   1   2
ATOM      2  C   UNL     1      -6.859  23.305  34.592  1.00  0.00     0.004 C 
BRANCH   2   3
ATOM      3  C   UNL     1      -6.591  24.808  34.861  1.00  0.00    -0.009 C 
BRANCH   3   4
ATOM      4  C   UNL     1      -7.812  25.489  35.555  1.00  0.00     0.000 C 
ATOM      5  C   UNL     1      -7.987  26.944  35.119  1.00  0.00     0.004 C 
ENDBRANCH   3   4
BRANCH   3   6
ATOM      6  C   UNL     1      -6.114  25.540  33.565  1.00  0.00    -0.014 C 
ATOM      7  C   UNL     1      -6.487  24.762  32.295  1.00  0.00     0.007 C 
ATOM      8  C   UNL     1      -4.615  25.894  33.557  1.00  0.00     0.007 C 
ENDBRANCH   3   6
ENDBRANCH   2   3
ENDBRANCH   1   2
BRANCH   1   9
ATOM      9  C   UNL     1      -7.837  21.189  35.780  1.00  0.00    -0.011 C 
ATOM     10  C   UNL     1      -9.124  20.476  35.312  1.00  0.00     0.008 C 
BRANCH   9  11
ATOM     11  C   UNL     1      -7.368  20.893  37.266  1.00  0.00    -0.002 C 
ATOM     12  C   UNL     1      -5.848  20.609  37.422  1.00  0.00     0.005 C 
ATOM     13  C   UNL     1      -7.591  22.063  38.289  1.00  0.00    -0.026 C 
ATOM     14  C   UNL     1      -5.189  21.914  37.880  1.00  0.00     0.005 C 
ATOM     15  C   UNL     1      -6.334  22.914  38.063  1.00  0.00    -0.001 C 
ATOM     16  C   UNL     1      -8.854  22.969  38.126  1.00  0.00     0.007 C 
ATOM     17  C   UNL     1      -7.635  21.437  39.723  1.00  0.00     0.012 C 
ATOM     18  C   UNL     1      -6.132  24.008  39.146  1.00  0.00     0.000 C 
ATOM     19  C   UNL     1      -8.597  24.472  38.421  1.00  0.00     0.005 C 
ATOM     20  C   UNL     1      -7.490  24.767  39.483  1.00  0.00     0.003 C 
ATOM     21  C   UNL     1      -4.953  24.941  38.739  1.00  0.00     0.031 C 
ATOM     22  C   UNL     1      -7.276  26.311  39.761  1.00  0.00    -0.008 C 
ATOM     23  C   UNL     1      -5.406  26.229  38.123  1.00  0.00    -0.027 C 
ATOM     24  C   UNL     1      -6.434  26.918  38.641  1.00  0.00    -0.065 C 
ATOM     25  C   UNL     1      -8.625  27.097  39.839  1.00  0.00     0.014 C 
ATOM     26  C   UNL     1      -6.551  26.484  41.125  1.00  0.00     0.016 C 
ATOM     27  C   UNL     1      -6.833  28.244  38.031  1.00  0.00     0.063 C 
ATOM     28  C   UNL     1      -8.434  28.618  40.015  1.00  0.00     0.033 C 
ATOM     29  C   UNL     1      -7.310  29.214  39.124  1.00  0.00     0.118 C 
BRANCH  29  30
ATOM     30  O   UNL     1      -7.749  30.402  38.521  1.00  0.00    -0.393 OA
ATOM     31  H   UNL     1      -7.244  31.143  38.948  1.00  0.00     0.210 HD
ENDBRANCH  29  30
ENDBRANCH   9  11
ENDBRANCH   1   9
TORSDOF 7
ENDMDL
MODEL 3
REMARK VINA RESULT:    -3.850     19.734     23.865
REMARK INTER + INTRA:          -6.145
REMARK INTER:                  -5.407
REMARK INTRA:                  -0.738
REMARK UNBOUND:                -0.832
REMARK SMILES CC[C@@H](CC[C@H](C)[C@H]1CC[C@@H]2[C@H]3CC=C4C[C@@H](O)CC[C@@]4(C)[C@H]3CC[C@]21C)C(C)C
REMARK SMILES IDX 5 1 4 2 3 3 2 4 1 5 28 6 29 7 30 8 6 9 7 10 8 11 9 12 26 13
REMARK SMILES IDX 10 14 11 15 25 16 27 17 12 18 24 19 23 20 13 21 21 22 14 23
REMARK SMILES IDX 15 24 20 25 22 26 16 27 19 28 17 29 18 30
REMARK H PARENT 18 31
REMARK Flexibility Score: inf
ROOT
ATOM      1  C   UNL     1       9.065  35.073  21.615  1.00  0.00     0.004 C 
ENDROOT
BRANCH   1   2
ATOM      2  C   UNL     1       8.587  33.637  21.956  1.00  0.00     0.004 C 
BRANCH   2   3
ATOM      3  C   UNL     1       7.080  33.573  22.313  1.00  0.00    -0.009 C 
BRANCH   3   4
ATOM      4  C   UNL     1       6.198  33.418  21.035  1.00  0.00     0.000 C 
ATOM      5  C   UNL     1       4.898  32.666  21.317  1.00  0.00     0.004 C 
ENDBRANCH   3   4
BRANCH   3   6
ATOM      6  C   UNL     1       6.662  34.770  23.227  1.00  0.00    -0.014 C 
ATOM      7  C   UNL     1       6.341  34.318  24.658  1.00  0.00     0.007 C 
ATOM      8  C   UNL     1       5.511  35.622  22.661  1.00  0.00     0.007 C 
ENDBRANCH   3   6
ENDBRANCH   2   3
ENDBRANCH   1   2
BRANCH   1   9
ATOM      9  C   UNL     1      10.589  35.317  21.823  1.00  0.00    -0.011 C 
ATOM     10  C   UNL     1      11.124  34.340  22.893  1.00  0.00     0.008 C 
BRANCH   9  11
ATOM     11  C   UNL     1      10.912  36.853  22.047  1.00  0.00    -0.002 C 
ATOM     12  C   UNL     1      10.400  37.794  20.921  1.00  0.00     0.005 C 
ATOM     13  C   UNL     1      10.275  37.497  23.330  1.00  0.00    -0.026 C 
ATOM     14  C   UNL     1       9.076  38.395  21.403  1.00  0.00     0.005 C 
ATOM     15  C   UNL     1       8.873  37.866  22.825  1.00  0.00    -0.001 C 
ATOM     16  C   UNL     1      10.137  36.621  24.617  1.00  0.00     0.007 C 
ATOM     17  C   UNL     1      11.125  38.759  23.699  1.00  0.00     0.012 C 
ATOM     18  C   UNL     1       8.093  38.787  23.803  1.00  0.00     0.000 C 
ATOM     19  C   UNL     1       8.820  36.858  25.405  1.00  0.00     0.005 C 
ATOM     20  C   UNL     1       8.234  38.303  25.312  1.00  0.00     0.003 C 
ATOM     21  C   UNL     1       6.625  38.954  23.311  1.00  0.00     0.031 C 
ATOM     22  C   UNL     1       6.901  38.499  26.145  1.00  0.00    -0.008 C 
ATOM     23  C   UNL     1       5.656  38.070  24.035  1.00  0.00    -0.027 C 
ATOM     24  C   UNL     1       5.724  37.917  25.365  1.00  0.00    -0.065 C 
ATOM     25  C   UNL     1       6.958  37.797  27.540  1.00  0.00     0.014 C 
ATOM     26  C   UNL     1       6.677  40.017  26.391  1.00  0.00     0.016 C 
ATOM     27  C   UNL     1       4.697  37.062  26.077  1.00  0.00     0.063 C 
ATOM     28  C   UNL     1       5.636  37.897  28.327  1.00  0.00     0.033 C 
ATOM     29  C   UNL     1       4.372  37.655  27.457  1.00  0.00     0.118 C 
BRANCH  29  30
ATOM     30  O   UNL     1       3.481  36.800  28.123  1.00  0.00    -0.393 OA
ATOM     31  H   UNL     1       3.382  37.153  29.046  1.00  0.00     0.210 HD
ENDBRANCH  29  30
ENDBRANCH   9  11
ENDBRANCH   1   9
TORSDOF 7
ENDMDL
MODEL 4
REMARK VINA RESULT:    -3.155      1.367      1.751
REMARK INTER + INTRA:          -5.185
REMARK INTER:                  -5.283
REMARK INTRA:                   0.098
REMARK UNBOUND:                -0.832
REMARK SMILES CC[C@@H](CC[C@H](C)[C@H]1CC[C@@H]2[C@H]3CC=C4C[C@@H](O)CC[C@@]4(C)[C@H]3CC[C@]21C)C(C)C
REMARK SMILES IDX 5 1 4 2 3 3 2 4 1 5 28 6 29 7 30 8 6 9 7 10 8 11 9 12 26 13
REMARK SMILES IDX 10 14 11 15 25 16 27 17 12 18 24 19 23 20 13 21 21 22 14 23
REMARK SMILES IDX 15 24 20 25 22 26 16 27 19 28 17 29 18 30
REMARK H PARENT 18 31
REMARK Flexibility Score: inf
ROOT
ATOM      1  C   UNL     1      -6.675  29.695  37.687  1.00  0.00     0.004 C 
ENDROOT
BRANCH   1   2
ATOM      2  C   UNL     1      -6.860  31.225  37.505  1.00  0.00     0.004 C 
BRANCH   2   3
ATOM      3  C   UNL     1      -7.989  31.580  36.505  1.00  0.00    -0.009 C 
BRANCH   3   4
ATOM      4  C   UNL     1      -7.438  31.723  35.051  1.00  0.00     0.000 C 
ATOM      5  C   UNL     1      -5.921  31.910  35.023  1.00  0.00     0.004 C 
ENDBRANCH   3   4
BRANCH   3   6
ATOM      6  C   UNL     1      -8.809  32.819  36.991  1.00  0.00    -0.014 C 
ATOM      7  C   UNL     1      -8.920  33.898  35.905  1.00  0.00     0.007 C 
ATOM      8  C   UNL     1      -8.301  33.432  38.309  1.00  0.00     0.007 C 
ENDBRANCH   3   6
ENDBRANCH   2   3
ENDBRANCH   1   2
BRANCH   1   9
ATOM      9  C   UNL     1      -6.290  29.255  39.129  1.00  0.00    -0.011 C 
ATOM     10  C   UNL     1      -4.939  28.507  39.094  1.00  0.00     0.008 C 
BRANCH   9  11
ATOM     11  C   UNL     1      -7.488  28.511  39.857  1.00  0.00    -0.002 C 
ATOM     12  C   UNL     1      -8.873  28.695  39.177  1.00  0.00     0.005 C 
ATOM     13  C   UNL     1      -7.363  26.948  39.934  1.00  0.00    -0.026 C 
ATOM     14  C   UNL     1      -9.124  27.450  38.320  1.00  0.00     0.005 C 
ATOM     15  C   UNL     1      -7.929  26.526  38.572  1.00  0.00    -0.001 C 
ATOM     16  C   UNL     1      -5.944  26.317  40.112  1.00  0.00     0.007 C 
ATOM     17  C   UNL     1      -8.255  26.460  41.125  1.00  0.00     0.012 C 
ATOM     18  C   UNL     1      -8.200  25.000  38.466  1.00  0.00     0.000 C 
ATOM     19  C   UNL     1      -5.724  25.014  39.298  1.00  0.00     0.005 C 
ATOM     20  C   UNL     1      -7.001  24.143  39.068  1.00  0.00     0.003 C 
ATOM     21  C   UNL     1      -8.586  24.633  37.003  1.00  0.00     0.031 C 
ATOM     22  C   UNL     1      -6.723  22.817  38.248  1.00  0.00    -0.008 C 
ATOM     23  C   UNL     1      -7.446  24.060  36.218  1.00  0.00    -0.027 C 
ATOM     24  C   UNL     1      -6.623  23.151  36.761  1.00  0.00    -0.065 C 
ATOM     25  C   UNL     1      -5.398  22.112  38.682  1.00  0.00     0.014 C 
ATOM     26  C   UNL     1      -7.889  21.818  38.492  1.00  0.00     0.016 C 
ATOM     27  C   UNL     1      -5.514  22.547  35.926  1.00  0.00     0.063 C 
ATOM     28  C   UNL     1      -5.062  20.871  37.830  1.00  0.00     0.033 C 
ATOM     29  C   UNL     1      -5.299  21.074  36.308  1.00  0.00     0.118 C 
BRANCH  29  30
ATOM     30  O   UNL     1      -4.214  20.567  35.577  1.00  0.00    -0.393 OA
ATOM     31  H   UNL     1      -3.663  20.037  36.212  1.00  0.00     0.210 HD
ENDBRANCH  29  30
ENDBRANCH   9  11
ENDBRANCH   1   9
TORSDOF 7
ENDMDL
MODEL 5
REMARK VINA RESULT:    -2.934      1.287      1.710
REMARK INTER + INTRA:          -4.880
REMARK INTER:                  -4.466
REMARK INTRA:                  -0.414
REMARK UNBOUND:                -0.832
REMARK SMILES CC[C@@H](CC[C@H](C)[C@H]1CC[C@@H]2[C@H]3CC=C4C[C@@H](O)CC[C@@]4(C)[C@H]3CC[C@]21C)C(C)C
REMARK SMILES IDX 5 1 4 2 3 3 2 4 1 5 28 6 29 7 30 8 6 9 7 10 8 11 9 12 26 13
REMARK SMILES IDX 10 14 11 15 25 16 27 17 12 18 24 19 23 20 13 21 21 22 14 23
REMARK SMILES IDX 15 24 20 25 22 26 16 27 19 28 17 29 18 30
REMARK H PARENT 18 31
REMARK Flexibility Score: inf
ROOT
ATOM      1  C   UNL     1      -8.607  30.749  36.771  1.00  0.00     0.004 C 
ENDROOT
BRANCH   1   2
ATOM      2  C   UNL     1      -7.832  32.054  36.449  1.00  0.00     0.004 C 
BRANCH   2   3
ATOM      3  C   UNL     1      -8.768  33.239  36.101  1.00  0.00    -0.009 C 
BRANCH   3   4
ATOM      4  C   UNL     1      -8.278  33.998  34.828  1.00  0.00     0.000 C 
ATOM      5  C   UNL     1      -7.275  33.177  34.016  1.00  0.00     0.004 C 
ENDBRANCH   3   4
BRANCH   3   6
ATOM      6  C   UNL     1      -8.993  34.167  37.339  1.00  0.00    -0.014 C 
ATOM      7  C   UNL     1      -8.852  35.653  36.978  1.00  0.00     0.007 C 
ATOM      8  C   UNL     1      -8.109  33.823  38.552  1.00  0.00     0.007 C 
ENDBRANCH   3   6
ENDBRANCH   2   3
ENDBRANCH   1   2
BRANCH   1   9
ATOM      9  C   UNL     1      -7.706  29.514  37.064  1.00  0.00    -0.011 C 
ATOM     10  C   UNL     1      -8.266  28.281  36.322  1.00  0.00     0.008 C 
BRANCH   9  11
ATOM     11  C   UNL     1      -7.438  29.339  38.618  1.00  0.00    -0.002 C 
ATOM     12  C   UNL     1      -8.711  29.397  39.507  1.00  0.00     0.005 C 
ATOM     13  C   UNL     1      -6.802  27.966  39.042  1.00  0.00    -0.026 C 
ATOM     14  C   UNL     1      -9.122  27.951  39.803  1.00  0.00     0.005 C 
ATOM     15  C   UNL     1      -8.046  27.074  39.157  1.00  0.00    -0.001 C 
ATOM     16  C   UNL     1      -5.777  27.287  38.078  1.00  0.00     0.007 C 
ATOM     17  C   UNL     1      -6.093  28.178  40.421  1.00  0.00     0.012 C 
ATOM     18  C   UNL     1      -7.759  25.710  39.843  1.00  0.00     0.000 C 
ATOM     19  C   UNL     1      -5.909  25.742  38.000  1.00  0.00     0.005 C 
ATOM     20  C   UNL     1      -6.418  25.046  39.303  1.00  0.00     0.003 C 
ATOM     21  C   UNL     1      -9.018  24.798  39.745  1.00  0.00     0.031 C 
ATOM     22  C   UNL     1      -6.521  23.470  39.179  1.00  0.00    -0.008 C 
ATOM     23  C   UNL     1      -8.929  23.786  38.644  1.00  0.00    -0.027 C 
ATOM     24  C   UNL     1      -7.797  23.102  38.425  1.00  0.00    -0.065 C 
ATOM     25  C   UNL     1      -5.306  22.849  38.417  1.00  0.00     0.014 C 
ATOM     26  C   UNL     1      -6.548  22.852  40.605  1.00  0.00     0.016 C 
ATOM     27  C   UNL     1      -7.754  22.046  37.342  1.00  0.00     0.063 C 
ATOM     28  C   UNL     1      -5.434  21.327  38.204  1.00  0.00     0.033 C 
ATOM     29  C   UNL     1      -6.856  20.875  37.772  1.00  0.00     0.118 C 
BRANCH  29  30
ATOM     30  O   UNL     1      -6.771  19.953  36.717  1.00  0.00    -0.393 OA
ATOM     31  H   UNL     1      -6.934  20.461  35.879  1.00  0.00     0.210 HD
ENDBRANCH  29  30
ENDBRANCH   9  11
ENDBRANCH   1   9
TORSDOF 7
ENDMDL
MODEL 6
REMARK VINA RESULT:    -2.517      2.880      7.176
REMARK INTER + INTRA:          -4.306
REMARK INTER:                  -2.964
REMARK INTRA:                  -1.342
REMARK UNBOUND:                -0.832
REMARK SMILES CC[C@@H](CC[C@H](C)[C@H]1CC[C@@H]2[C@H]3CC=C4C[C@@H](O)CC[C@@]4(C)[C@H]3CC[C@]21C)C(C)C
REMARK SMILES IDX 5 1 4 2 3 3 2 4 1 5 28 6 29 7 30 8 6 9 7 10 8 11 9 12 26 13
REMARK SMILES IDX 10 14 11 15 25 16 27 17 12 18 24 19 23 20 13 21 21 22 14 23
REMARK SMILES IDX 15 24 20 25 22 26 16 27 19 28 17 29 18 30
REMARK H PARENT 18 31
REMARK Flexibility Score: inf
ROOT
ATOM      1  C   UNL     1      -7.726  22.672  36.398  1.00  0.00     0.004 C 
ENDROOT
BRANCH   1   2
ATOM      2  C   UNL     1      -7.248  23.422  35.127  1.00  0.00     0.004 C 
BRANCH   2   3
ATOM      3  C   UNL     1      -6.746  24.857  35.428  1.00  0.00    -0.009 C 
BRANCH   3   4
ATOM      4  C   UNL     1      -7.300  25.883  34.390  1.00  0.00     0.000 C 
ATOM      5  C   UNL     1      -7.930  27.103  35.063  1.00  0.00     0.004 C 
ENDBRANCH   3   4
BRANCH   3   6
ATOM      6  C   UNL     1      -5.191  24.893  35.581  1.00  0.00    -0.014 C 
ATOM      7  C   UNL     1      -4.763  25.332  36.989  1.00  0.00     0.007 C 
ATOM      8  C   UNL     1      -4.472  25.737  34.513  1.00  0.00     0.007 C 
ENDBRANCH   3   6
ENDBRANCH   2   3
ENDBRANCH   1   2
BRANCH   1   9
ATOM      9  C   UNL     1      -6.610  22.397  37.448  1.00  0.00    -0.011 C 
ATOM     10  C   UNL     1      -5.916  21.056  37.122  1.00  0.00     0.008 C 
BRANCH   9  11
ATOM     11  C   UNL     1      -7.143  22.572  38.932  1.00  0.00    -0.002 C 
ATOM     12  C   UNL     1      -6.046  22.494  40.029  1.00  0.00     0.005 C 
ATOM     13  C   UNL     1      -7.825  23.951  39.245  1.00  0.00    -0.026 C 
ATOM     14  C   UNL     1      -5.675  23.933  40.400  1.00  0.00     0.005 C 
ATOM     15  C   UNL     1      -6.610  24.827  39.580  1.00  0.00    -0.001 C 
ATOM     16  C   UNL     1      -8.658  24.648  38.120  1.00  0.00     0.007 C 
ATOM     17  C   UNL     1      -8.767  23.746  40.478  1.00  0.00     0.012 C 
ATOM     18  C   UNL     1      -6.993  26.192  40.212  1.00  0.00     0.000 C 
ATOM     19  C   UNL     1      -8.493  26.191  38.074  1.00  0.00     0.005 C 
ATOM     20  C   UNL     1      -8.211  26.876  39.450  1.00  0.00     0.003 C 
ATOM     21  C   UNL     1      -5.726  27.088  40.341  1.00  0.00     0.031 C 
ATOM     22  C   UNL     1      -8.068  28.451  39.354  1.00  0.00    -0.008 C 
ATOM     23  C   UNL     1      -5.608  28.103  39.246  1.00  0.00    -0.027 C 
ATOM     24  C   UNL     1      -6.675  28.803  38.837  1.00  0.00    -0.065 C 
ATOM     25  C   UNL     1      -9.123  29.090  38.395  1.00  0.00     0.014 C 
ATOM     26  C   UNL     1      -8.282  29.065  40.766  1.00  0.00     0.016 C 
ATOM     27  C   UNL     1      -6.514  29.863  37.767  1.00  0.00     0.063 C 
ATOM     28  C   UNL     1      -8.939  30.611  38.215  1.00  0.00     0.033 C 
ATOM     29  C   UNL     1      -7.458  31.045  38.040  1.00  0.00     0.118 C 
BRANCH  29  30
ATOM     30  O   UNL     1      -7.345  31.971  36.992  1.00  0.00    -0.393 OA
ATOM     31  H   UNL     1      -8.180  32.509  36.994  1.00  0.00     0.210 HD
ENDBRANCH  29  30
ENDBRANCH   9  11
ENDBRANCH   1   9
TORSDOF 7
ENDMDL
MODEL 7
REMARK VINA RESULT:    -2.372      2.772      8.650
REMARK INTER + INTRA:          -4.105
REMARK INTER:                  -3.329
REMARK INTRA:                  -0.776
REMARK UNBOUND:                -0.832
REMARK SMILES CC[C@@H](CC[C@H](C)[C@H]1CC[C@@H]2[C@H]3CC=C4C[C@@H](O)CC[C@@]4(C)[C@H]3CC[C@]21C)C(C)C
REMARK SMILES IDX 5 1 4 2 3 3 2 4 1 5 28 6 29 7 30 8 6 9 7 10 8 11 9 12 26 13
REMARK SMILES IDX 10 14 11 15 25 16 27 17 12 18 24 19 23 20 13 21 21 22 14 23
REMARK SMILES IDX 15 24 20 25 22 26 16 27 19 28 17 29 18 30
REMARK H PARENT 18 31
REMARK Flexibility Score: inf
ROOT
ATOM      1  C   UNL     1      -4.998  22.210  38.370  1.00  0.00     0.004 C 
ENDROOT
BRANCH   1   2
ATOM      2  C   UNL     1      -5.581  20.773  38.410  1.00  0.00     0.004 C 
BRANCH   2   3
ATOM      3  C   UNL     1      -7.109  20.737  38.155  1.00  0.00    -0.009 C 
BRANCH   3   4
ATOM      4  C   UNL     1      -7.846  19.875  39.228  1.00  0.00     0.000 C 
ATOM      5  C   UNL     1      -8.870  20.688  40.020  1.00  0.00     0.004 C 
ENDBRANCH   3   4
BRANCH   3   6
ATOM      6  C   UNL     1      -7.429  20.318  36.683  1.00  0.00    -0.014 C 
ATOM      7  C   UNL     1      -6.155  20.153  35.843  1.00  0.00     0.007 C 
ATOM      8  C   UNL     1      -8.428  21.246  35.968  1.00  0.00     0.007 C 
ENDBRANCH   3   6
ENDBRANCH   2   3
ENDBRANCH   1   2
BRANCH   1   9
ATOM      9  C   UNL     1      -6.030  23.320  38.014  1.00  0.00    -0.011 C 
ATOM     10  C   UNL     1      -5.290  24.537  37.415  1.00  0.00     0.008 C 
BRANCH   9  11
ATOM     11  C   UNL     1      -7.013  23.619  39.222  1.00  0.00    -0.002 C 
ATOM     12  C   UNL     1      -6.314  23.792  40.599  1.00  0.00     0.005 C 
ATOM     13  C   UNL     1      -7.843  24.947  39.105  1.00  0.00    -0.026 C 
ATOM     14  C   UNL     1      -6.168  25.297  40.845  1.00  0.00     0.005 C 
ATOM     15  C   UNL     1      -6.852  25.980  39.657  1.00  0.00    -0.001 C 
ATOM     16  C   UNL     1      -8.321  25.408  37.690  1.00  0.00     0.007 C 
ATOM     17  C   UNL     1      -9.111  24.795  40.011  1.00  0.00     0.012 C 
ATOM     18  C   UNL     1      -7.499  27.364  39.932  1.00  0.00     0.000 C 
ATOM     19  C   UNL     1      -8.247  26.942  37.465  1.00  0.00     0.005 C 
ATOM     20  C   UNL     1      -8.456  27.817  38.743  1.00  0.00     0.003 C 
ATOM     21  C   UNL     1      -6.395  28.398  40.303  1.00  0.00     0.031 C 
ATOM     22  C   UNL     1      -8.388  29.374  38.461  1.00  0.00    -0.008 C 
ATOM     23  C   UNL     1      -6.002  29.278  39.157  1.00  0.00    -0.027 C 
ATOM     24  C   UNL     1      -6.928  29.806  38.343  1.00  0.00    -0.065 C 
ATOM     25  C   UNL     1      -9.125  29.776  37.143  1.00  0.00     0.014 C 
ATOM     26  C   UNL     1      -9.073  30.131  39.633  1.00  0.00     0.016 C 
ATOM     27  C   UNL     1      -6.505  30.737  37.227  1.00  0.00     0.063 C 
ATOM     28  C   UNL     1      -8.989  31.274  36.802  1.00  0.00     0.033 C 
ATOM     29  C   UNL     1      -7.558  31.837  37.021  1.00  0.00     0.118 C 
BRANCH  29  30
ATOM     30  O   UNL     1      -7.179  32.634  35.930  1.00  0.00    -0.393 OA
ATOM     31  H   UNL     1      -6.331  32.254  35.579  1.00  0.00     0.210 HD
ENDBRANCH  29  30
ENDBRANCH   9  11
ENDBRANCH   1   9
TORSDOF 7
ENDMDL
MODEL 8
REMARK VINA RESULT:    -2.228      3.537      5.879
REMARK INTER + INTRA:          -3.906
REMARK INTER:                  -2.338
REMARK INTRA:                  -1.568
REMARK UNBOUND:                -0.832
REMARK SMILES CC[C@@H](CC[C@H](C)[C@H]1CC[C@@H]2[C@H]3CC=C4C[C@@H](O)CC[C@@]4(C)[C@H]3CC[C@]21C)C(C)C
REMARK SMILES IDX 5 1 4 2 3 3 2 4 1 5 28 6 29 7 30 8 6 9 7 10 8 11 9 12 26 13
REMARK SMILES IDX 10 14 11 15 25 16 27 17 12 18 24 19 23 20 13 21 21 22 14 23
REMARK SMILES IDX 15 24 20 25 22 26 16 27 19 28 17 29 18 30
REMARK H PARENT 18 31
REMARK Flexibility Score: inf
ROOT
ATOM      1  C   UNL     1      -6.424  23.952  40.923  1.00  0.00     0.004 C 
ENDROOT
BRANCH   1   2
ATOM      2  C   UNL     1      -5.713  25.330  40.969  1.00  0.00     0.004 C 
BRANCH   2   3
ATOM      3  C   UNL     1      -6.635  26.498  40.538  1.00  0.00    -0.009 C 
BRANCH   3   4
ATOM      4  C   UNL     1      -8.038  25.981  40.090  1.00  0.00     0.000 C 
ATOM      5  C   UNL     1      -8.901  27.094  39.494  1.00  0.00     0.004 C 
ENDBRANCH   3   4
BRANCH   3   6
ATOM      6  C   UNL     1      -5.935  27.414  39.482  1.00  0.00    -0.014 C 
ATOM      7  C   UNL     1      -4.759  26.705  38.795  1.00  0.00     0.007 C 
ATOM      8  C   UNL     1      -5.490  28.782  40.032  1.00  0.00     0.007 C 
ENDBRANCH   3   6
ENDBRANCH   2   3
ENDBRANCH   1   2
BRANCH   1   9
ATOM      9  C   UNL     1      -5.483  22.728  41.122  1.00  0.00    -0.011 C 
ATOM     10  C   UNL     1      -4.014  23.204  41.124  1.00  0.00     0.008 C 
BRANCH   9  11
ATOM     11  C   UNL     1      -5.839  21.545  40.126  1.00  0.00    -0.002 C 
ATOM     12  C   UNL     1      -7.257  20.940  40.318  1.00  0.00     0.005 C 
ATOM     13  C   UNL     1      -5.847  21.927  38.602  1.00  0.00    -0.026 C 
ATOM     14  C   UNL     1      -8.170  21.586  39.271  1.00  0.00     0.005 C 
ATOM     15  C   UNL     1      -7.264  22.493  38.434  1.00  0.00    -0.001 C 
ATOM     16  C   UNL     1      -4.814  22.981  38.088  1.00  0.00     0.007 C 
ATOM     17  C   UNL     1      -5.633  20.610  37.783  1.00  0.00     0.012 C 
ATOM     18  C   UNL     1      -7.669  22.698  36.949  1.00  0.00     0.000 C 
ATOM     19  C   UNL     1      -5.382  23.956  37.021  1.00  0.00     0.005 C 
ATOM     20  C   UNL     1      -6.499  23.365  36.102  1.00  0.00     0.003 C 
ATOM     21  C   UNL     1      -9.032  23.449  36.874  1.00  0.00     0.031 C 
ATOM     22  C   UNL     1      -7.034  24.391  35.019  1.00  0.00    -0.008 C 
ATOM     23  C   UNL     1      -8.883  24.914  36.598  1.00  0.00    -0.027 C 
ATOM     24  C   UNL     1      -8.016  25.358  35.677  1.00  0.00    -0.065 C 
ATOM     25  C   UNL     1      -5.885  25.227  34.368  1.00  0.00     0.014 C 
ATOM     26  C   UNL     1      -7.744  23.602  33.884  1.00  0.00     0.016 C 
ATOM     27  C   UNL     1      -7.928  26.839  35.380  1.00  0.00     0.063 C 
ATOM     28  C   UNL     1      -6.396  26.296  33.381  1.00  0.00     0.033 C 
ATOM     29  C   UNL     1      -7.644  27.069  33.887  1.00  0.00     0.118 C 
BRANCH  29  30
ATOM     30  O   UNL     1      -7.488  28.445  33.658  1.00  0.00    -0.393 OA
ATOM     31  H   UNL     1      -8.013  28.913  34.359  1.00  0.00     0.210 HD
ENDBRANCH  29  30
ENDBRANCH   9  11
ENDBRANCH   1   9
TORSDOF 7
ENDMDL
