MODEL 1
REMARK VINA RESULT:    59.442      0.000      0.000
REMARK INTER + INTRA:          82.696
REMARK INTER:                  82.029
REMARK INTRA:                   0.667
REMARK UNBOUND:                 0.667
REMARK SMILES CC[C@@H](CC[C@H](C)[C@@H]1CC[C@H]2[C@@H]3CC=C4C[C@H](O)CC[C@@]4(C)[C@H]3CC[C@@]21C)C(C)C
REMARK SMILES IDX 5 1 4 2 3 3 2 4 1 5 28 6 29 7 30 8 6 9 7 10 8 11 9 12 26 13
REMARK SMILES IDX 10 14 11 15 25 16 27 17 12 18 24 19 23 20 13 21 21 22 14 23
REMARK SMILES IDX 15 24 20 25 22 26 16 27 19 28 17 29 18 30
REMARK H PARENT 18 31
REMARK Flexibility Score: inf
ROOT
ATOM      1  C   UNL     1     -39.626  24.962   4.798  1.00  0.00     0.004 C 
ENDROOT
BRANCH   1   2
ATOM      2  C   UNL     1     -40.013  24.774   3.316  1.00  0.00     0.004 C 
BRANCH   2   3
ATOM      3  C   UNL     1     -39.129  25.578   2.317  1.00  0.00    -0.009 C 
BRANCH   3   4
ATOM      4  C   UNL     1     -37.808  24.796   2.060  1.00  0.00     0.000 C 
ATOM      5  C   UNL     1     -37.497  23.781   3.164  1.00  0.00     0.004 C 
ENDBRANCH   3   4
BRANCH   3   6
ATOM      6  C   UNL     1     -38.819  27.063   2.732  1.00  0.00    -0.014 C 
ATOM      7  C   UNL     1     -38.261  27.904   1.572  1.00  0.00     0.007 C 
ATOM      8  C   UNL     1     -39.987  27.784   3.426  1.00  0.00     0.007 C 
ENDBRANCH   3   6
ENDBRANCH   2   3
ENDBRANCH   1   2
BRANCH   1   9
ATOM      9  C   UNL     1     -38.996  23.697   5.464  1.00  0.00    -0.011 C 
ATOM     10  C   UNL     1     -40.117  22.641   5.666  1.00  0.00     0.008 C 
BRANCH   9  11
ATOM     11  C   UNL     1     -38.209  23.972   6.807  1.00  0.00    -0.002 C 
ATOM     12  C   UNL     1     -38.509  25.369   7.443  1.00  0.00     0.005 C 
ATOM     13  C   UNL     1     -36.636  23.930   6.743  1.00  0.00    -0.026 C 
ATOM     14  C   UNL     1     -37.187  26.137   7.548  1.00  0.00     0.005 C 
ATOM     15  C   UNL     1     -36.279  25.413   6.575  1.00  0.00    -0.001 C 
ATOM     16  C   UNL     1     -35.959  23.170   5.574  1.00  0.00     0.007 C 
ATOM     17  C   UNL     1     -36.138  23.328   8.099  1.00  0.00     0.012 C 
ATOM     18  C   UNL     1     -34.762  25.704   6.660  1.00  0.00     0.000 C 
ATOM     19  C   UNL     1     -34.430  23.384   5.560  1.00  0.00     0.005 C 
ATOM     20  C   UNL     1     -34.021  24.893   5.559  1.00  0.00     0.003 C 
ATOM     21  C   UNL     1     -34.494  27.195   6.419  1.00  0.00     0.031 C 
ATOM     22  C   UNL     1     -32.454  25.142   5.586  1.00  0.00    -0.008 C 
ATOM     23  C   UNL     1     -33.025  27.483   6.403  1.00  0.00    -0.027 C 
ATOM     24  C   UNL     1     -32.102  26.588   5.988  1.00  0.00    -0.065 C 
ATOM     25  C   UNL     1     -31.739  24.194   6.604  1.00  0.00     0.014 C 
ATOM     26  C   UNL     1     -31.907  24.880   4.157  1.00  0.00     0.016 C 
ATOM     27  C   UNL     1     -30.639  26.934   6.168  1.00  0.00     0.063 C 
ATOM     28  C   UNL     1     -30.248  24.519   6.833  1.00  0.00     0.033 C 
ATOM     29  C   UNL     1     -30.031  25.993   7.218  1.00  0.00     0.118 C 
BRANCH  29  30
ATOM     30  O   UNL     1     -28.663  26.264   7.394  1.00  0.00    -0.393 OA
ATOM     31  H   UNL     1     -28.263  25.498   7.882  1.00  0.00     0.210 HD
ENDBRANCH  29  30
ENDBRANCH   9  11
ENDBRANCH   1   9
TORSDOF 7
ENDMDL
