MODEL 1
REMARK VINA RESULT:    -4.683      0.000      0.000
REMARK INTER + INTRA:          -7.568
REMARK INTER:                  -6.463
REMARK INTRA:                  -1.106
REMARK UNBOUND:                -1.106
REMARK SMILES CC[C@H](CC[C@@H](C)[C@@H]1CC[C@H]2[C@H]3CC=C4C[C@@H](O)CC[C@@]4(C)[C@H]3CC[C@]21C)C(C)C
REMARK SMILES IDX 5 1 4 2 3 3 2 4 1 5 28 6 29 7 30 8 6 9 7 10 8 11 9 12 26 13
REMARK SMILES IDX 10 14 11 15 25 16 27 17 12 18 24 19 23 20 13 21 21 22 14 23
REMARK SMILES IDX 15 24 20 25 22 26 16 27 19 28 17 29 18 30
REMARK H PARENT 18 31
REMARK Flexibility Score: inf
ROOT
ATOM      1  C   UNL     1     -14.622 -33.977 -13.894  1.00  0.00     0.004 C 
ENDROOT
BRANCH   1   2
ATOM      2  C   UNL     1     -15.579 -34.821 -14.776  1.00  0.00     0.004 C 
BRANCH   2   3
ATOM      3  C   UNL     1     -15.402 -36.375 -14.798  1.00  0.00    -0.009 C 
BRANCH   3   4
ATOM      4  C   UNL     1     -16.771 -37.125 -14.800  1.00  0.00     0.000 C 
ATOM      5  C   UNL     1     -17.610 -37.023 -13.517  1.00  0.00     0.004 C 
ENDBRANCH   3   4
BRANCH   3   6
ATOM      6  C   UNL     1     -14.333 -36.933 -15.798  1.00  0.00    -0.014 C 
ATOM      7  C   UNL     1     -14.126 -36.007 -17.014  1.00  0.00     0.007 C 
ATOM      8  C   UNL     1     -12.958 -37.096 -15.115  1.00  0.00     0.007 C 
ENDBRANCH   3   6
ENDBRANCH   2   3
ENDBRANCH   1   2
BRANCH   1   9
ATOM      9  C   UNL     1     -15.205 -33.545 -12.514  1.00  0.00    -0.011 C 
ATOM     10  C   UNL     1     -14.913 -34.587 -11.422  1.00  0.00     0.008 C 
BRANCH   9  11
ATOM     11  C   UNL     1     -14.881 -32.081 -12.038  1.00  0.00    -0.002 C 
ATOM     12  C   UNL     1     -15.134 -31.847 -10.552  1.00  0.00     0.005 C 
ATOM     13  C   UNL     1     -15.471 -30.815 -12.756  1.00  0.00    -0.026 C 
ATOM     14  C   UNL     1     -14.894 -30.362 -10.354  1.00  0.00     0.005 C 
ATOM     15  C   UNL     1     -15.330 -29.692 -11.670  1.00  0.00    -0.001 C 
ATOM     16  C   UNL     1     -14.677 -30.477 -14.052  1.00  0.00     0.007 C 
ATOM     17  C   UNL     1     -16.970 -30.965 -13.122  1.00  0.00     0.012 C 
ATOM     18  C   UNL     1     -14.473 -28.459 -12.077  1.00  0.00     0.000 C 
ATOM     19  C   UNL     1     -14.855 -29.032 -14.557  1.00  0.00     0.005 C 
ATOM     20  C   UNL     1     -14.945 -27.929 -13.453  1.00  0.00     0.003 C 
ATOM     21  C   UNL     1     -12.928 -28.651 -12.019  1.00  0.00     0.031 C 
ATOM     22  C   UNL     1     -14.170 -26.611 -13.822  1.00  0.00    -0.008 C 
ATOM     23  C   UNL     1     -12.136 -27.838 -13.024  1.00  0.00    -0.027 C 
ATOM     24  C   UNL     1     -12.677 -26.922 -13.860  1.00  0.00    -0.065 C 
ATOM     25  C   UNL     1     -14.639 -26.062 -15.206  1.00  0.00     0.014 C 
ATOM     26  C   UNL     1     -14.435 -25.514 -12.752  1.00  0.00     0.016 C 
ATOM     27  C   UNL     1     -11.813 -26.300 -14.934  1.00  0.00     0.063 C 
ATOM     28  C   UNL     1     -13.792 -24.887 -15.746  1.00  0.00     0.033 C 
ATOM     29  C   UNL     1     -12.311 -24.893 -15.298  1.00  0.00     0.118 C 
BRANCH  29  30
ATOM     30  O   UNL     1     -11.515 -24.358 -16.323  1.00  0.00    -0.393 OA
ATOM     31  H   UNL     1     -12.041 -23.632 -16.750  1.00  0.00     0.210 HD
ENDBRANCH  29  30
ENDBRANCH   9  11
ENDBRANCH   1   9
TORSDOF 7
ENDMDL
MODEL 2
REMARK VINA RESULT:    -4.040      0.860      1.666
REMARK INTER + INTRA:          -6.681
REMARK INTER:                  -5.675
REMARK INTRA:                  -1.006
REMARK UNBOUND:                -1.106
REMARK SMILES CC[C@H](CC[C@@H](C)[C@@H]1CC[C@H]2[C@H]3CC=C4C[C@@H](O)CC[C@@]4(C)[C@H]3CC[C@]21C)C(C)C
REMARK SMILES IDX 5 1 4 2 3 3 2 4 1 5 28 6 29 7 30 8 6 9 7 10 8 11 9 12 26 13
REMARK SMILES IDX 10 14 11 15 25 16 27 17 12 18 24 19 23 20 13 21 21 22 14 23
REMARK SMILES IDX 15 24 20 25 22 26 16 27 19 28 17 29 18 30
REMARK H PARENT 18 31
REMARK Flexibility Score: inf
ROOT
ATOM      1  C   UNL     1     -14.588 -34.269 -13.423  1.00  0.00     0.004 C 
ENDROOT
BRANCH   1   2
ATOM      2  C   UNL     1     -15.492 -34.164 -14.678  1.00  0.00     0.004 C 
BRANCH   2   3
ATOM      3  C   UNL     1     -15.111 -34.995 -15.947  1.00  0.00    -0.009 C 
BRANCH   3   4
ATOM      4  C   UNL     1     -14.077 -34.253 -16.850  1.00  0.00     0.000 C 
ATOM      5  C   UNL     1     -14.159 -32.719 -16.869  1.00  0.00     0.004 C 
ENDBRANCH   3   4
BRANCH   3   6
ATOM      6  C   UNL     1     -14.823 -36.518 -15.713  1.00  0.00    -0.014 C 
ATOM      7  C   UNL     1     -13.401 -36.769 -15.170  1.00  0.00     0.007 C 
ATOM      8  C   UNL     1     -15.810 -37.125 -14.694  1.00  0.00     0.007 C 
ENDBRANCH   3   6
ENDBRANCH   2   3
ENDBRANCH   1   2
BRANCH   1   9
ATOM      9  C   UNL     1     -15.234 -33.760 -12.099  1.00  0.00    -0.011 C 
ATOM     10  C   UNL     1     -15.066 -34.776 -10.957  1.00  0.00     0.008 C 
BRANCH   9  11
ATOM     11  C   UNL     1     -14.865 -32.298 -11.650  1.00  0.00    -0.002 C 
ATOM     12  C   UNL     1     -14.981 -32.069 -10.146  1.00  0.00     0.005 C 
ATOM     13  C   UNL     1     -15.517 -31.029 -12.306  1.00  0.00    -0.026 C 
ATOM     14  C   UNL     1     -14.722 -30.585  -9.966  1.00  0.00     0.005 C 
ATOM     15  C   UNL     1     -15.275 -29.910 -11.234  1.00  0.00    -0.001 C 
ATOM     16  C   UNL     1     -14.845 -30.687 -13.669  1.00  0.00     0.007 C 
ATOM     17  C   UNL     1     -17.044 -31.176 -12.534  1.00  0.00     0.012 C 
ATOM     18  C   UNL     1     -14.458 -28.676 -11.714  1.00  0.00     0.000 C 
ATOM     19  C   UNL     1     -15.066 -29.241 -14.150  1.00  0.00     0.005 C 
ATOM     20  C   UNL     1     -15.053 -28.141 -13.039  1.00  0.00     0.003 C 
ATOM     21  C   UNL     1     -12.914 -28.870 -11.799  1.00  0.00     0.031 C 
ATOM     22  C   UNL     1     -14.314 -26.823 -13.473  1.00  0.00    -0.008 C 
ATOM     23  C   UNL     1     -12.217 -28.055 -12.869  1.00  0.00    -0.027 C 
ATOM     24  C   UNL     1     -12.831 -27.136 -13.649  1.00  0.00    -0.065 C 
ATOM     25  C   UNL     1     -14.907 -26.269 -14.807  1.00  0.00     0.014 C 
ATOM     26  C   UNL     1     -14.478 -25.730 -12.380  1.00  0.00     0.016 C 
ATOM     27  C   UNL     1     -12.069 -26.511 -14.795  1.00  0.00     0.063 C 
ATOM     28  C   UNL     1     -14.112 -25.092 -15.419  1.00  0.00     0.033 C 
ATOM     29  C   UNL     1     -12.596 -25.102 -15.108  1.00  0.00     0.118 C 
BRANCH  29  30
ATOM     30  O   UNL     1     -11.897 -24.564 -16.200  1.00  0.00    -0.393 OA
ATOM     31  H   UNL     1     -11.321 -25.288 -16.562  1.00  0.00     0.210 HD
ENDBRANCH  29  30
ENDBRANCH   9  11
ENDBRANCH   1   9
TORSDOF 7
ENDMDL
MODEL 3
REMARK VINA RESULT:    -3.232      3.921      8.147
REMARK INTER + INTRA:          -5.566
REMARK INTER:                  -5.118
REMARK INTRA:                  -0.448
REMARK UNBOUND:                -1.106
REMARK SMILES CC[C@H](CC[C@@H](C)[C@@H]1CC[C@H]2[C@H]3CC=C4C[C@@H](O)CC[C@@]4(C)[C@H]3CC[C@]21C)C(C)C
REMARK SMILES IDX 5 1 4 2 3 3 2 4 1 5 28 6 29 7 30 8 6 9 7 10 8 11 9 12 26 13
REMARK SMILES IDX 10 14 11 15 25 16 27 17 12 18 24 19 23 20 13 21 21 22 14 23
REMARK SMILES IDX 15 24 20 25 22 26 16 27 19 28 17 29 18 30
REMARK H PARENT 18 31
REMARK Flexibility Score: inf
ROOT
ATOM      1  C   UNL     1     -11.596 -30.649  -9.948  1.00  0.00     0.004 C 
ENDROOT
BRANCH   1   2
ATOM      2  C   UNL     1     -10.406 -30.108  -9.115  1.00  0.00     0.004 C 
BRANCH   2   3
ATOM      3  C   UNL     1      -9.581 -31.114  -8.247  1.00  0.00    -0.009 C 
BRANCH   3   4
ATOM      4  C   UNL     1      -8.974 -30.440  -6.976  1.00  0.00     0.000 C 
ATOM      5  C   UNL     1      -9.167 -28.921  -6.849  1.00  0.00     0.004 C 
ENDBRANCH   3   4
BRANCH   3   6
ATOM      6  C   UNL     1     -10.236 -32.518  -8.009  1.00  0.00    -0.014 C 
ATOM      7  C   UNL     1      -9.564 -33.627  -8.846  1.00  0.00     0.007 C 
ATOM      8  C   UNL     1     -10.132 -32.943  -6.529  1.00  0.00     0.007 C 
ENDBRANCH   3   6
ENDBRANCH   2   3
ENDBRANCH   1   2
BRANCH   1   9
ATOM      9  C   UNL     1     -12.463 -29.558 -10.647  1.00  0.00    -0.011 C 
ATOM     10  C   UNL     1     -11.593 -28.449 -11.261  1.00  0.00     0.008 C 
BRANCH   9  11
ATOM     11  C   UNL     1     -13.566 -30.066 -11.647  1.00  0.00    -0.002 C 
ATOM     12  C   UNL     1     -14.841 -29.229 -11.633  1.00  0.00     0.005 C 
ATOM     13  C   UNL     1     -14.059 -31.558 -11.665  1.00  0.00    -0.026 C 
ATOM     14  C   UNL     1     -15.796 -29.972 -12.548  1.00  0.00     0.005 C 
ATOM     15  C   UNL     1     -15.450 -31.464 -12.385  1.00  0.00    -0.001 C 
ATOM     16  C   UNL     1     -13.063 -32.474 -12.435  1.00  0.00     0.007 C 
ATOM     17  C   UNL     1     -14.274 -32.147 -10.247  1.00  0.00     0.012 C 
ATOM     18  C   UNL     1     -15.596 -32.303 -13.687  1.00  0.00     0.000 C 
ATOM     19  C   UNL     1     -13.659 -33.811 -12.915  1.00  0.00     0.005 C 
ATOM     20  C   UNL     1     -15.137 -33.758 -13.423  1.00  0.00     0.003 C 
ATOM     21  C   UNL     1     -14.940 -31.701 -14.966  1.00  0.00     0.031 C 
ATOM     22  C   UNL     1     -15.392 -34.647 -14.695  1.00  0.00    -0.008 C 
ATOM     23  C   UNL     1     -14.439 -32.715 -15.974  1.00  0.00    -0.027 C 
ATOM     24  C   UNL     1     -14.616 -34.052 -15.865  1.00  0.00    -0.065 C 
ATOM     25  C   UNL     1     -14.937 -36.119 -14.442  1.00  0.00     0.014 C 
ATOM     26  C   UNL     1     -16.908 -34.663 -15.043  1.00  0.00     0.016 C 
ATOM     27  C   UNL     1     -13.922 -34.972 -16.844  1.00  0.00     0.063 C 
ATOM     28  C   UNL     1     -14.959 -37.019 -15.699  1.00  0.00     0.033 C 
ATOM     29  C   UNL     1     -14.713 -36.276 -17.034  1.00  0.00     0.118 C 
BRANCH  29  30
ATOM     30  O   UNL     1     -14.026 -37.125 -17.915  1.00  0.00    -0.393 OA
ATOM     31  H   UNL     1     -13.634 -36.552 -18.625  1.00  0.00     0.210 HD
ENDBRANCH  29  30
ENDBRANCH   9  11
ENDBRANCH   1   9
TORSDOF 7
ENDMDL
MODEL 4
REMARK VINA RESULT:    -2.289      3.513      6.099
REMARK INTER + INTRA:          -4.264
REMARK INTER:                  -3.064
REMARK INTRA:                  -1.200
REMARK UNBOUND:                -1.106
REMARK SMILES CC[C@H](CC[C@@H](C)[C@@H]1CC[C@H]2[C@H]3CC=C4C[C@@H](O)CC[C@@]4(C)[C@H]3CC[C@]21C)C(C)C
REMARK SMILES IDX 5 1 4 2 3 3 2 4 1 5 28 6 29 7 30 8 6 9 7 10 8 11 9 12 26 13
REMARK SMILES IDX 10 14 11 15 25 16 27 17 12 18 24 19 23 20 13 21 21 22 14 23
REMARK SMILES IDX 15 24 20 25 22 26 16 27 19 28 17 29 18 30
REMARK H PARENT 18 31
REMARK Flexibility Score: inf
ROOT
ATOM      1  C   UNL     1     -10.952 -32.625  -9.653  1.00  0.00     0.004 C 
ENDROOT
BRANCH   1   2
ATOM      2  C   UNL     1      -9.981 -32.957  -8.490  1.00  0.00     0.004 C 
BRANCH   2   3
ATOM      3  C   UNL     1      -9.305 -31.775  -7.719  1.00  0.00    -0.009 C 
BRANCH   3   4
ATOM      4  C   UNL     1      -9.863 -30.386  -8.161  1.00  0.00     0.000 C 
ATOM      5  C   UNL     1      -8.951 -29.537  -9.061  1.00  0.00     0.004 C 
ENDBRANCH   3   4
BRANCH   3   6
ATOM      6  C   UNL     1      -9.138 -31.966  -6.172  1.00  0.00    -0.014 C 
ATOM      7  C   UNL     1      -9.260 -30.635  -5.401  1.00  0.00     0.007 C 
ATOM      8  C   UNL     1     -10.214 -32.917  -5.606  1.00  0.00     0.007 C 
ENDBRANCH   3   6
ENDBRANCH   2   3
ENDBRANCH   1   2
BRANCH   1   9
ATOM      9  C   UNL     1     -12.387 -33.213  -9.502  1.00  0.00    -0.011 C 
ATOM     10  C   UNL     1     -12.610 -33.819  -8.107  1.00  0.00     0.008 C 
BRANCH   9  11
ATOM     11  C   UNL     1     -13.580 -32.286  -9.943  1.00  0.00    -0.002 C 
ATOM     12  C   UNL     1     -14.945 -32.771  -9.464  1.00  0.00     0.005 C 
ATOM     13  C   UNL     1     -13.801 -31.857 -11.437  1.00  0.00    -0.026 C 
ATOM     14  C   UNL     1     -15.935 -31.822 -10.113  1.00  0.00     0.005 C 
ATOM     15  C   UNL     1     -15.311 -31.432 -11.465  1.00  0.00    -0.001 C 
ATOM     16  C   UNL     1     -12.857 -30.685 -11.837  1.00  0.00     0.007 C 
ATOM     17  C   UNL     1     -13.595 -33.020 -12.443  1.00  0.00     0.012 C 
ATOM     18  C   UNL     1     -15.594 -29.966 -11.905  1.00  0.00     0.000 C 
ATOM     19  C   UNL     1     -13.305 -29.892 -13.079  1.00  0.00     0.005 C 
ATOM     20  C   UNL     1     -14.845 -29.665 -13.225  1.00  0.00     0.003 C 
ATOM     21  C   UNL     1     -15.348 -28.870 -10.825  1.00  0.00     0.031 C 
ATOM     22  C   UNL     1     -15.217 -28.228 -13.745  1.00  0.00    -0.008 C 
ATOM     23  C   UNL     1     -14.914 -27.520 -11.361  1.00  0.00    -0.027 C 
ATOM     24  C   UNL     1     -14.831 -27.212 -12.675  1.00  0.00    -0.065 C 
ATOM     25  C   UNL     1     -14.471 -27.912 -15.080  1.00  0.00     0.014 C 
ATOM     26  C   UNL     1     -16.746 -28.133 -14.011  1.00  0.00     0.016 C 
ATOM     27  C   UNL     1     -14.222 -25.890 -13.088  1.00  0.00     0.063 C 
ATOM     28  C   UNL     1     -14.615 -26.449 -15.559  1.00  0.00     0.033 C 
ATOM     29  C   UNL     1     -14.799 -25.410 -14.428  1.00  0.00     0.118 C 
BRANCH  29  30
ATOM     30  O   UNL     1     -14.187 -24.204 -14.804  1.00  0.00    -0.393 OA
ATOM     31  H   UNL     1     -14.314 -23.567 -14.053  1.00  0.00     0.210 HD
ENDBRANCH  29  30
ENDBRANCH   9  11
ENDBRANCH   1   9
TORSDOF 7
ENDMDL
MODEL 5
REMARK VINA RESULT:    -1.843      2.720      8.055
REMARK INTER + INTRA:          -3.648
REMARK INTER:                  -1.749
REMARK INTRA:                  -1.900
REMARK UNBOUND:                -1.106
REMARK SMILES CC[C@H](CC[C@@H](C)[C@@H]1CC[C@H]2[C@H]3CC=C4C[C@@H](O)CC[C@@]4(C)[C@H]3CC[C@]21C)C(C)C
REMARK SMILES IDX 5 1 4 2 3 3 2 4 1 5 28 6 29 7 30 8 6 9 7 10 8 11 9 12 26 13
REMARK SMILES IDX 10 14 11 15 25 16 27 17 12 18 24 19 23 20 13 21 21 22 14 23
REMARK SMILES IDX 15 24 20 25 22 26 16 27 19 28 17 29 18 30
REMARK H PARENT 18 31
REMARK Flexibility Score: inf
ROOT
ATOM      1  C   UNL     1     -13.438 -26.955 -11.829  1.00  0.00     0.004 C 
ENDROOT
BRANCH   1   2
ATOM      2  C   UNL     1     -12.752 -27.517 -13.102  1.00  0.00     0.004 C 
BRANCH   2   3
ATOM      3  C   UNL     1     -12.620 -26.589 -14.353  1.00  0.00    -0.009 C 
BRANCH   3   4
ATOM      4  C   UNL     1     -11.213 -26.691 -15.020  1.00  0.00     0.000 C 
ATOM      5  C   UNL     1     -10.794 -25.517 -15.919  1.00  0.00     0.004 C 
ENDBRANCH   3   4
BRANCH   3   6
ATOM      6  C   UNL     1     -13.832 -26.595 -15.347  1.00  0.00    -0.014 C 
ATOM      7  C   UNL     1     -14.226 -28.023 -15.782  1.00  0.00     0.007 C 
ATOM      8  C   UNL     1     -15.084 -25.955 -14.710  1.00  0.00     0.007 C 
ENDBRANCH   3   6
ENDBRANCH   2   3
ENDBRANCH   1   2
BRANCH   1   9
ATOM      9  C   UNL     1     -14.690 -27.750 -11.349  1.00  0.00    -0.011 C 
ATOM     10  C   UNL     1     -15.761 -26.820 -10.756  1.00  0.00     0.008 C 
BRANCH   9  11
ATOM     11  C   UNL     1     -15.302 -28.784 -12.365  1.00  0.00    -0.002 C 
ATOM     12  C   UNL     1     -16.636 -28.346 -12.961  1.00  0.00     0.005 C 
ATOM     13  C   UNL     1     -15.495 -30.301 -12.006  1.00  0.00    -0.026 C 
ATOM     14  C   UNL     1     -17.095 -29.535 -13.784  1.00  0.00     0.005 C 
ATOM     15  C   UNL     1     -16.568 -30.779 -13.045  1.00  0.00    -0.001 C 
ATOM     16  C   UNL     1     -14.159 -31.090 -12.139  1.00  0.00     0.007 C 
ATOM     17  C   UNL     1     -16.056 -30.522 -10.577  1.00  0.00     0.012 C 
ATOM     18  C   UNL     1     -16.134 -31.945 -13.979  1.00  0.00     0.000 C 
ATOM     19  C   UNL     1     -14.325 -32.615 -12.276  1.00  0.00     0.005 C 
ATOM     20  C   UNL     1     -15.541 -33.097 -13.132  1.00  0.00     0.003 C 
ATOM     21  C   UNL     1     -15.211 -31.557 -15.173  1.00  0.00     0.031 C 
ATOM     22  C   UNL     1     -15.209 -34.330 -14.049  1.00  0.00    -0.008 C 
ATOM     23  C   UNL     1     -14.240 -32.633 -15.616  1.00  0.00    -0.027 C 
ATOM     24  C   UNL     1     -14.209 -33.888 -15.113  1.00  0.00    -0.065 C 
ATOM     25  C   UNL     1     -14.613 -35.503 -13.207  1.00  0.00     0.014 C 
ATOM     26  C   UNL     1     -16.501 -34.844 -14.747  1.00  0.00     0.016 C 
ATOM     27  C   UNL     1     -13.085 -34.817 -15.512  1.00  0.00     0.063 C 
ATOM     28  C   UNL     1     -14.068 -36.680 -14.049  1.00  0.00     0.033 C 
ATOM     29  C   UNL     1     -13.532 -36.285 -15.446  1.00  0.00     0.118 C 
BRANCH  29  30
ATOM     30  O   UNL     1     -12.458 -37.125 -15.783  1.00  0.00    -0.393 OA
ATOM     31  H   UNL     1     -11.745 -36.547 -16.159  1.00  0.00     0.210 HD
ENDBRANCH  29  30
ENDBRANCH   9  11
ENDBRANCH   1   9
TORSDOF 7
ENDMDL
MODEL 6
REMARK VINA RESULT:    -1.734      3.084      7.863
REMARK INTER + INTRA:          -3.499
REMARK INTER:                  -3.371
REMARK INTRA:                  -0.128
REMARK UNBOUND:                -1.106
REMARK SMILES CC[C@H](CC[C@@H](C)[C@@H]1CC[C@H]2[C@H]3CC=C4C[C@@H](O)CC[C@@]4(C)[C@H]3CC[C@]21C)C(C)C
REMARK SMILES IDX 5 1 4 2 3 3 2 4 1 5 28 6 29 7 30 8 6 9 7 10 8 11 9 12 26 13
REMARK SMILES IDX 10 14 11 15 25 16 27 17 12 18 24 19 23 20 13 21 21 22 14 23
REMARK SMILES IDX 15 24 20 25 22 26 16 27 19 28 17 29 18 30
REMARK H PARENT 18 31
REMARK Flexibility Score: inf
ROOT
ATOM      1  C   UNL     1     -12.571 -27.550 -11.721  1.00  0.00     0.004 C 
ENDROOT
BRANCH   1   2
ATOM      2  C   UNL     1     -12.064 -29.015 -11.755  1.00  0.00     0.004 C 
BRANCH   2   3
ATOM      3  C   UNL     1     -10.803 -29.390 -10.910  1.00  0.00    -0.009 C 
BRANCH   3   4
ATOM      4  C   UNL     1      -9.920 -28.145 -10.582  1.00  0.00     0.000 C 
ATOM      5  C   UNL     1      -8.875 -27.749 -11.637  1.00  0.00     0.004 C 
ENDBRANCH   3   4
BRANCH   3   6
ATOM      6  C   UNL     1     -11.042 -30.372  -9.712  1.00  0.00    -0.014 C 
ATOM      7  C   UNL     1     -11.239 -31.830 -10.180  1.00  0.00     0.007 C 
ATOM      8  C   UNL     1      -9.846 -30.369  -8.736  1.00  0.00     0.007 C 
ENDBRANCH   3   6
ENDBRANCH   2   3
ENDBRANCH   1   2
BRANCH   1   9
ATOM      9  C   UNL     1     -14.117 -27.384 -11.835  1.00  0.00    -0.011 C 
ATOM     10  C   UNL     1     -14.509 -25.943 -12.198  1.00  0.00     0.008 C 
BRANCH   9  11
ATOM     11  C   UNL     1     -14.878 -28.444 -12.714  1.00  0.00    -0.002 C 
ATOM     12  C   UNL     1     -16.243 -27.971 -13.203  1.00  0.00     0.005 C 
ATOM     13  C   UNL     1     -15.107 -29.923 -12.235  1.00  0.00    -0.026 C 
ATOM     14  C   UNL     1     -16.840 -29.183 -13.895  1.00  0.00     0.005 C 
ATOM     15  C   UNL     1     -16.301 -30.405 -13.130  1.00  0.00    -0.001 C 
ATOM     16  C   UNL     1     -13.831 -30.790 -12.447  1.00  0.00     0.007 C 
ATOM     17  C   UNL     1     -15.529 -30.024 -10.746  1.00  0.00     0.012 C 
ATOM     18  C   UNL     1     -16.021 -31.649 -14.021  1.00  0.00     0.000 C 
ATOM     19  C   UNL     1     -14.082 -32.310 -12.464  1.00  0.00     0.005 C 
ATOM     20  C   UNL     1     -15.401 -32.777 -13.161  1.00  0.00     0.003 C 
ATOM     21  C   UNL     1     -15.207 -31.387 -15.324  1.00  0.00     0.031 C 
ATOM     22  C   UNL     1     -15.224 -34.081 -14.022  1.00  0.00    -0.008 C 
ATOM     23  C   UNL     1     -14.339 -32.539 -15.787  1.00  0.00    -0.027 C 
ATOM     24  C   UNL     1     -14.318 -33.760 -15.206  1.00  0.00    -0.065 C 
ATOM     25  C   UNL     1     -14.603 -35.230 -13.166  1.00  0.00     0.014 C 
ATOM     26  C   UNL     1     -16.603 -34.565 -14.553  1.00  0.00     0.016 C 
ATOM     27  C   UNL     1     -13.286 -34.773 -15.650  1.00  0.00     0.063 C 
ATOM     28  C   UNL     1     -14.204 -36.485 -13.976  1.00  0.00     0.033 C 
ATOM     29  C   UNL     1     -13.794 -36.208 -15.442  1.00  0.00     0.118 C 
BRANCH  29  30
ATOM     30  O   UNL     1     -12.802 -37.124 -15.826  1.00  0.00    -0.393 OA
ATOM     31  H   UNL     1     -12.886 -37.249 -16.807  1.00  0.00     0.210 HD
ENDBRANCH  29  30
ENDBRANCH   9  11
ENDBRANCH   1   9
TORSDOF 7
ENDMDL
