MODEL 1
REMARK VINA RESULT:    -5.986      0.000      0.000
REMARK INTER + INTRA:         -11.521
REMARK INTER:                  -9.136
REMARK INTRA:                  -2.385
REMARK UNBOUND:                -2.385
REMARK SMILES CC(=O)CCC=C(C)CCC=C(C)CCC=C(C)C
REMARK SMILES IDX 10 1 11 2 12 3 13 4 14 5 15 6 16 7 18 8 17 9 19 10 9 11 7 12
REMARK SMILES IDX 6 13 8 14 5 15 4 16 2 17 3 18 1 19
REMARK H PARENT
REMARK Flexibility Score: inf
ROOT
ATOM      1  C   UNL     1     -10.313 -15.679  29.134  1.00  0.00     0.032 C 
ENDROOT
BRANCH   1   2
ATOM      2  C   UNL     1     -11.672 -15.031  29.045  1.00  0.00    -0.028 C 
ATOM      3  C   UNL     1     -12.677 -15.451  28.241  1.00  0.00    -0.077 C 
ATOM      4  C   UNL     1     -13.956 -14.654  28.224  1.00  0.00     0.039 C 
BRANCH   3   5
ATOM      5  C   UNL     1     -12.583 -16.703  27.386  1.00  0.00     0.034 C 
BRANCH   5   6
ATOM      6  C   UNL     1     -13.628 -17.754  27.793  1.00  0.00     0.032 C 
BRANCH   6   7
ATOM      7  C   UNL     1     -13.247 -18.459  29.073  1.00  0.00    -0.028 C 
ATOM      8  C   UNL     1     -13.068 -20.322  30.664  1.00  0.00     0.039 C 
ATOM      9  C   UNL     1     -13.457 -19.772  29.316  1.00  0.00    -0.080 C 
ATOM     10  C   UNL     1     -14.048 -20.695  28.277  1.00  0.00     0.039 C 
ENDBRANCH   6   7
ENDBRANCH   5   6
ENDBRANCH   3   5
ENDBRANCH   1   2
BRANCH   1  11
ATOM     11  C   UNL     1      -9.926 -15.925  30.596  1.00  0.00     0.034 C 
BRANCH  11  12
ATOM     12  C   UNL     1     -10.510 -17.234  31.090  1.00  0.00    -0.077 C 
ATOM     13  C   UNL     1     -11.609 -17.295  31.875  1.00  0.00    -0.028 C 
ATOM     14  C   UNL     1      -9.875 -18.523  30.639  1.00  0.00     0.039 C 
BRANCH  13  15
ATOM     15  C   UNL     1     -12.344 -16.077  32.381  1.00  0.00     0.035 C 
BRANCH  15  16
ATOM     16  C   UNL     1     -13.824 -16.118  31.986  1.00  0.00     0.079 C 
BRANCH  16  17
ATOM     17  C   UNL     1     -14.601 -15.056  32.718  1.00  0.00     0.130 C 
ATOM     18  O   UNL     1     -15.743 -14.798  32.367  1.00  0.00    -0.300 OA
ATOM     19  C   UNL     1     -14.010 -14.315  33.881  1.00  0.00     0.087 C 
ENDBRANCH  16  17
ENDBRANCH  15  16
ENDBRANCH  13  15
ENDBRANCH  11  12
ENDBRANCH   1  11
TORSDOF 9
ENDMDL
MODEL 2
REMARK VINA RESULT:    -5.914      1.938      4.198
REMARK INTER + INTRA:         -11.410
REMARK INTER:                  -8.992
REMARK INTRA:                  -2.418
REMARK UNBOUND:                -2.385
REMARK SMILES CC(=O)CCC=C(C)CCC=C(C)CCC=C(C)C
REMARK SMILES IDX 10 1 11 2 12 3 13 4 14 5 15 6 16 7 18 8 17 9 19 10 9 11 7 12
REMARK SMILES IDX 6 13 8 14 5 15 4 16 2 17 3 18 1 19
REMARK H PARENT
REMARK Flexibility Score: inf
ROOT
ATOM      1  C   UNL     1     -10.239 -16.138  29.608  1.00  0.00     0.032 C 
ENDROOT
BRANCH   1   2
ATOM      2  C   UNL     1     -10.844 -16.591  28.304  1.00  0.00    -0.028 C 
ATOM      3  C   UNL     1     -12.101 -16.300  27.893  1.00  0.00    -0.077 C 
ATOM      4  C   UNL     1     -12.576 -16.884  26.586  1.00  0.00     0.039 C 
BRANCH   3   5
ATOM      5  C   UNL     1     -13.035 -15.389  28.670  1.00  0.00     0.034 C 
BRANCH   5   6
ATOM      6  C   UNL     1     -13.618 -16.087  29.908  1.00  0.00     0.032 C 
BRANCH   6   7
ATOM      7  C   UNL     1     -13.910 -15.108  31.020  1.00  0.00    -0.028 C 
ATOM      8  C   UNL     1     -14.658 -14.355  33.235  1.00  0.00     0.039 C 
ATOM      9  C   UNL     1     -14.363 -15.452  32.245  1.00  0.00    -0.080 C 
ATOM     10  C   UNL     1     -14.564 -16.893  32.649  1.00  0.00     0.039 C 
ENDBRANCH   6   7
ENDBRANCH   5   6
ENDBRANCH   3   5
ENDBRANCH   1   2
BRANCH   1  11
ATOM     11  C   UNL     1      -9.952 -17.338  30.518  1.00  0.00     0.034 C 
BRANCH  11  12
ATOM     12  C   UNL     1     -10.760 -17.244  31.797  1.00  0.00    -0.077 C 
ATOM     13  C   UNL     1     -11.531 -18.256  32.250  1.00  0.00    -0.028 C 
ATOM     14  C   UNL     1     -10.651 -15.993  32.629  1.00  0.00     0.039 C 
BRANCH  13  15
ATOM     15  C   UNL     1     -11.711 -19.565  31.518  1.00  0.00     0.035 C 
BRANCH  15  16
ATOM     16  C   UNL     1     -13.116 -19.675  30.916  1.00  0.00     0.079 C 
BRANCH  16  17
ATOM     17  C   UNL     1     -13.049 -19.730  29.413  1.00  0.00     0.130 C 
ATOM     18  O   UNL     1     -11.980 -19.542  28.852  1.00  0.00    -0.300 OA
ATOM     19  C   UNL     1     -14.266 -20.024  28.585  1.00  0.00     0.087 C 
ENDBRANCH  16  17
ENDBRANCH  15  16
ENDBRANCH  13  15
ENDBRANCH  11  12
ENDBRANCH   1  11
TORSDOF 9
ENDMDL
MODEL 3
REMARK VINA RESULT:    -5.851      1.044      3.719
REMARK INTER + INTRA:         -11.315
REMARK INTER:                  -8.658
REMARK INTRA:                  -2.657
REMARK UNBOUND:                -2.385
REMARK SMILES CC(=O)CCC=C(C)CCC=C(C)CCC=C(C)C
REMARK SMILES IDX 10 1 11 2 12 3 13 4 14 5 15 6 16 7 18 8 17 9 19 10 9 11 7 12
REMARK SMILES IDX 6 13 8 14 5 15 4 16 2 17 3 18 1 19
REMARK H PARENT
REMARK Flexibility Score: inf
ROOT
ATOM      1  C   UNL     1     -10.531 -19.207  31.181  1.00  0.00     0.032 C 
ENDROOT
BRANCH   1   2
ATOM      2  C   UNL     1     -10.364 -17.923  31.953  1.00  0.00    -0.028 C 
ATOM      3  C   UNL     1     -10.071 -16.722  31.402  1.00  0.00    -0.077 C 
ATOM      4  C   UNL     1      -9.875 -15.544  32.322  1.00  0.00     0.039 C 
BRANCH   3   5
ATOM      5  C   UNL     1      -9.966 -16.505  29.902  1.00  0.00     0.034 C 
BRANCH   5   6
ATOM      6  C   UNL     1     -11.091 -15.601  29.374  1.00  0.00     0.032 C 
BRANCH   6   7
ATOM      7  C   UNL     1     -11.811 -16.227  28.203  1.00  0.00    -0.028 C 
ATOM      8  C   UNL     1     -13.633 -16.586  26.596  1.00  0.00     0.039 C 
ATOM      9  C   UNL     1     -13.017 -15.828  27.744  1.00  0.00    -0.080 C 
ATOM     10  C   UNL     1     -13.748 -14.645  28.333  1.00  0.00     0.039 C 
ENDBRANCH   6   7
ENDBRANCH   5   6
ENDBRANCH   3   5
ENDBRANCH   1   2
BRANCH   1  11
ATOM     11  C   UNL     1     -11.948 -19.765  31.359  1.00  0.00     0.034 C 
BRANCH  11  12
ATOM     12  C   UNL     1     -12.891 -19.165  30.335  1.00  0.00    -0.077 C 
ATOM     13  C   UNL     1     -13.667 -18.090  30.596  1.00  0.00    -0.028 C 
ATOM     14  C   UNL     1     -12.920 -19.754  28.949  1.00  0.00     0.039 C 
BRANCH  13  15
ATOM     15  C   UNL     1     -13.717 -17.400  31.939  1.00  0.00     0.035 C 
BRANCH  15  16
ATOM     16  C   UNL     1     -13.792 -15.879  31.778  1.00  0.00     0.079 C 
BRANCH  16  17
ATOM     17  C   UNL     1     -14.686 -15.275  32.829  1.00  0.00     0.130 C 
ATOM     18  O   UNL     1     -15.851 -15.635  32.905  1.00  0.00    -0.300 OA
ATOM     19  C   UNL     1     -14.175 -14.248  33.796  1.00  0.00     0.087 C 
ENDBRANCH  16  17
ENDBRANCH  15  16
ENDBRANCH  13  15
ENDBRANCH  11  12
ENDBRANCH   1  11
TORSDOF 9
ENDMDL
MODEL 4
REMARK VINA RESULT:    -5.849      1.525      3.757
REMARK INTER + INTRA:         -11.311
REMARK INTER:                  -9.373
REMARK INTRA:                  -1.938
REMARK UNBOUND:                -2.385
REMARK SMILES CC(=O)CCC=C(C)CCC=C(C)CCC=C(C)C
REMARK SMILES IDX 10 1 11 2 12 3 13 4 14 5 15 6 16 7 18 8 17 9 19 10 9 11 7 12
REMARK SMILES IDX 6 13 8 14 5 15 4 16 2 17 3 18 1 19
REMARK H PARENT
REMARK Flexibility Score: inf
ROOT
ATOM      1  C   UNL     1     -10.401 -17.446  29.761  1.00  0.00     0.032 C 
ENDROOT
BRANCH   1   2
ATOM      2  C   UNL     1     -10.065 -16.952  31.145  1.00  0.00    -0.028 C 
ATOM      3  C   UNL     1     -10.951 -16.390  32.001  1.00  0.00    -0.077 C 
ATOM      4  C   UNL     1     -10.440 -15.890  33.329  1.00  0.00     0.039 C 
BRANCH   3   5
ATOM      5  C   UNL     1     -12.434 -16.275  31.697  1.00  0.00     0.034 C 
BRANCH   5   6
ATOM      6  C   UNL     1     -13.176 -17.596  31.952  1.00  0.00     0.032 C 
BRANCH   6   7
ATOM      7  C   UNL     1     -13.574 -18.275  30.663  1.00  0.00    -0.028 C 
ATOM      8  C   UNL     1     -13.655 -20.057  28.974  1.00  0.00     0.039 C 
ATOM      9  C   UNL     1     -13.226 -19.534  30.321  1.00  0.00    -0.080 C 
ATOM     10  C   UNL     1     -12.440 -20.429  31.250  1.00  0.00     0.039 C 
ENDBRANCH   6   7
ENDBRANCH   5   6
ENDBRANCH   3   5
ENDBRANCH   1   2
BRANCH   1  11
ATOM     11  C   UNL     1     -10.588 -16.270  28.797  1.00  0.00     0.034 C 
BRANCH  11  12
ATOM     12  C   UNL     1     -11.645 -16.592  27.760  1.00  0.00    -0.077 C 
ATOM     13  C   UNL     1     -12.863 -16.006  27.751  1.00  0.00    -0.028 C 
ATOM     14  C   UNL     1     -11.304 -17.560  26.657  1.00  0.00     0.039 C 
BRANCH  13  15
ATOM     15  C   UNL     1     -13.321 -15.010  28.790  1.00  0.00     0.035 C 
BRANCH  15  16
ATOM     16  C   UNL     1     -14.377 -14.059  28.219  1.00  0.00     0.079 C 
BRANCH  16  17
ATOM     17  C   UNL     1     -15.340 -13.625  29.293  1.00  0.00     0.130 C 
ATOM     18  O   UNL     1     -15.152 -13.980  30.447  1.00  0.00    -0.300 OA
ATOM     19  C   UNL     1     -16.521 -12.754  28.981  1.00  0.00     0.087 C 
ENDBRANCH  16  17
ENDBRANCH  15  16
ENDBRANCH  13  15
ENDBRANCH  11  12
ENDBRANCH   1  11
TORSDOF 9
ENDMDL
MODEL 5
REMARK VINA RESULT:    -5.767      1.555      3.130
REMARK INTER + INTRA:         -11.186
REMARK INTER:                  -9.343
REMARK INTRA:                  -1.843
REMARK UNBOUND:                -2.385
REMARK SMILES CC(=O)CCC=C(C)CCC=C(C)CCC=C(C)C
REMARK SMILES IDX 10 1 11 2 12 3 13 4 14 5 15 6 16 7 18 8 17 9 19 10 9 11 7 12
REMARK SMILES IDX 6 13 8 14 5 15 4 16 2 17 3 18 1 19
REMARK H PARENT
REMARK Flexibility Score: inf
ROOT
ATOM      1  C   UNL     1      -9.945 -18.470  31.298  1.00  0.00     0.032 C 
ENDROOT
BRANCH   1   2
ATOM      2  C   UNL     1     -10.007 -17.021  30.884  1.00  0.00    -0.028 C 
ATOM      3  C   UNL     1     -10.101 -16.586  29.606  1.00  0.00    -0.077 C 
ATOM      4  C   UNL     1     -10.089 -15.099  29.356  1.00  0.00     0.039 C 
BRANCH   3   5
ATOM      5  C   UNL     1     -10.251 -17.526  28.422  1.00  0.00     0.034 C 
BRANCH   5   6
ATOM      6  C   UNL     1     -11.592 -18.274  28.451  1.00  0.00     0.032 C 
BRANCH   6   7
ATOM      7  C   UNL     1     -12.736 -17.395  28.003  1.00  0.00    -0.028 C 
ATOM      8  C   UNL     1     -14.007 -15.925  26.501  1.00  0.00     0.039 C 
ATOM      9  C   UNL     1     -12.829 -16.821  26.784  1.00  0.00    -0.080 C 
ATOM     10  C   UNL     1     -11.802 -17.064  25.703  1.00  0.00     0.039 C 
ENDBRANCH   6   7
ENDBRANCH   5   6
ENDBRANCH   3   5
ENDBRANCH   1   2
BRANCH   1  11
ATOM     11  C   UNL     1     -10.970 -18.762  32.399  1.00  0.00     0.034 C 
BRANCH  11  12
ATOM     12  C   UNL     1     -12.316 -19.115  31.797  1.00  0.00    -0.077 C 
ATOM     13  C   UNL     1     -13.322 -18.220  31.680  1.00  0.00    -0.028 C 
ATOM     14  C   UNL     1     -12.520 -20.503  31.250  1.00  0.00     0.039 C 
BRANCH  13  15
ATOM     15  C   UNL     1     -13.237 -16.795  32.174  1.00  0.00     0.035 C 
BRANCH  15  16
ATOM     16  C   UNL     1     -13.581 -15.801  31.060  1.00  0.00     0.079 C 
BRANCH  16  17
ATOM     17  C   UNL     1     -14.637 -14.830  31.520  1.00  0.00     0.130 C 
ATOM     18  O   UNL     1     -15.120 -14.045  30.719  1.00  0.00    -0.300 OA
ATOM     19  C   UNL     1     -15.119 -14.813  32.941  1.00  0.00     0.087 C 
ENDBRANCH  16  17
ENDBRANCH  15  16
ENDBRANCH  13  15
ENDBRANCH  11  12
ENDBRANCH   1  11
TORSDOF 9
ENDMDL
MODEL 6
REMARK VINA RESULT:    -5.694      2.580      3.255
REMARK INTER + INTRA:         -11.075
REMARK INTER:                  -9.140
REMARK INTRA:                  -1.934
REMARK UNBOUND:                -2.385
REMARK SMILES CC(=O)CCC=C(C)CCC=C(C)CCC=C(C)C
REMARK SMILES IDX 10 1 11 2 12 3 13 4 14 5 15 6 16 7 18 8 17 9 19 10 9 11 7 12
REMARK SMILES IDX 6 13 8 14 5 15 4 16 2 17 3 18 1 19
REMARK H PARENT
REMARK Flexibility Score: inf
ROOT
ATOM      1  C   UNL     1     -12.935 -16.533  31.948  1.00  0.00     0.032 C 
ENDROOT
BRANCH   1   2
ATOM      2  C   UNL     1     -13.402 -15.936  30.645  1.00  0.00    -0.028 C 
ATOM      3  C   UNL     1     -12.645 -15.829  29.529  1.00  0.00    -0.077 C 
ATOM      4  C   UNL     1     -13.244 -15.148  28.324  1.00  0.00     0.039 C 
BRANCH   3   5
ATOM      5  C   UNL     1     -11.238 -16.391  29.427  1.00  0.00     0.034 C 
BRANCH   5   6
ATOM      6  C   UNL     1     -11.226 -17.798  28.809  1.00  0.00     0.032 C 
BRANCH   6   7
ATOM      7  C   UNL     1     -11.405 -18.873  29.856  1.00  0.00    -0.028 C 
ATOM      8  C   UNL     1     -12.569 -20.619  31.132  1.00  0.00     0.039 C 
ATOM      9  C   UNL     1     -12.521 -19.619  30.005  1.00  0.00    -0.080 C 
ATOM     10  C   UNL     1     -13.702 -19.490  29.073  1.00  0.00     0.039 C 
ENDBRANCH   6   7
ENDBRANCH   5   6
ENDBRANCH   3   5
ENDBRANCH   1   2
BRANCH   1  11
ATOM     11  C   UNL     1     -12.150 -15.501  32.765  1.00  0.00     0.034 C 
BRANCH  11  12
ATOM     12  C   UNL     1     -10.803 -16.061  33.180  1.00  0.00    -0.077 C 
ATOM     13  C   UNL     1      -9.912 -15.356  33.912  1.00  0.00    -0.028 C 
ATOM     14  C   UNL     1     -10.469 -17.483  32.813  1.00  0.00     0.039 C 
BRANCH  13  15
ATOM     15  C   UNL     1     -10.135 -13.929  34.355  1.00  0.00     0.035 C 
BRANCH  15  16
ATOM     16  C   UNL     1     -10.367 -13.848  35.867  1.00  0.00     0.079 C 
BRANCH  16  17
ATOM     17  C   UNL     1     -11.561 -12.984  36.178  1.00  0.00     0.130 C 
ATOM     18  O   UNL     1     -11.404 -11.942  36.796  1.00  0.00    -0.300 OA
ATOM     19  C   UNL     1     -12.942 -13.368  35.733  1.00  0.00     0.087 C 
ENDBRANCH  16  17
ENDBRANCH  15  16
ENDBRANCH  13  15
ENDBRANCH  11  12
ENDBRANCH   1  11
TORSDOF 9
ENDMDL
MODEL 7
REMARK VINA RESULT:    -5.599      1.142      3.638
REMARK INTER + INTRA:         -10.929
REMARK INTER:                  -9.756
REMARK INTRA:                  -1.173
REMARK UNBOUND:                -2.385
REMARK SMILES CC(=O)CCC=C(C)CCC=C(C)CCC=C(C)C
REMARK SMILES IDX 10 1 11 2 12 3 13 4 14 5 15 6 16 7 18 8 17 9 19 10 9 11 7 12
REMARK SMILES IDX 6 13 8 14 5 15 4 16 2 17 3 18 1 19
REMARK H PARENT
REMARK Flexibility Score: inf
ROOT
ATOM      1  C   UNL     1     -12.983 -19.087  31.583  1.00  0.00     0.032 C 
ENDROOT
BRANCH   1   2
ATOM      2  C   UNL     1     -13.276 -20.086  30.493  1.00  0.00    -0.028 C 
ATOM      3  C   UNL     1     -13.564 -19.767  29.209  1.00  0.00    -0.077 C 
ATOM      4  C   UNL     1     -13.895 -20.885  28.254  1.00  0.00     0.039 C 
BRANCH   3   5
ATOM      5  C   UNL     1     -13.535 -18.341  28.685  1.00  0.00     0.034 C 
BRANCH   5   6
ATOM      6  C   UNL     1     -12.357 -18.108  27.726  1.00  0.00     0.032 C 
BRANCH   6   7
ATOM      7  C   UNL     1     -11.228 -17.360  28.395  1.00  0.00    -0.028 C 
ATOM      8  C   UNL     1     -10.021 -15.424  29.304  1.00  0.00     0.039 C 
ATOM      9  C   UNL     1     -11.247 -16.040  28.682  1.00  0.00    -0.080 C 
ATOM     10  C   UNL     1     -12.459 -15.179  28.413  1.00  0.00     0.039 C 
ENDBRANCH   6   7
ENDBRANCH   5   6
ENDBRANCH   3   5
ENDBRANCH   1   2
BRANCH   1  11
ATOM     11  C   UNL     1     -11.511 -18.663  31.548  1.00  0.00     0.034 C 
BRANCH  11  12
ATOM     12  C   UNL     1     -11.317 -17.344  32.268  1.00  0.00    -0.077 C 
ATOM     13  C   UNL     1     -12.235 -16.352  32.238  1.00  0.00    -0.028 C 
ATOM     14  C   UNL     1     -10.078 -17.153  33.103  1.00  0.00     0.039 C 
BRANCH  13  15
ATOM     15  C   UNL     1     -13.523 -16.427  31.453  1.00  0.00     0.035 C 
BRANCH  15  16
ATOM     16  C   UNL     1     -14.319 -15.124  31.568  1.00  0.00     0.079 C 
BRANCH  16  17
ATOM     17  C   UNL     1     -14.944 -15.000  32.932  1.00  0.00     0.130 C 
ATOM     18  O   UNL     1     -14.489 -14.195  33.731  1.00  0.00    -0.300 OA
ATOM     19  C   UNL     1     -16.126 -15.835  33.331  1.00  0.00     0.087 C 
ENDBRANCH  16  17
ENDBRANCH  15  16
ENDBRANCH  13  15
ENDBRANCH  11  12
ENDBRANCH   1  11
TORSDOF 9
ENDMDL
MODEL 8
REMARK VINA RESULT:    -5.572      1.863      4.942
REMARK INTER + INTRA:         -10.888
REMARK INTER:                  -8.207
REMARK INTRA:                  -2.681
REMARK UNBOUND:                -2.385
REMARK SMILES CC(=O)CCC=C(C)CCC=C(C)CCC=C(C)C
REMARK SMILES IDX 10 1 11 2 12 3 13 4 14 5 15 6 16 7 18 8 17 9 19 10 9 11 7 12
REMARK SMILES IDX 6 13 8 14 5 15 4 16 2 17 3 18 1 19
REMARK H PARENT
REMARK Flexibility Score: inf
ROOT
ATOM      1  C   UNL     1     -10.393 -18.904  30.572  1.00  0.00     0.032 C 
ENDROOT
BRANCH   1   2
ATOM      2  C   UNL     1     -11.601 -19.405  29.822  1.00  0.00    -0.028 C 
ATOM      3  C   UNL     1     -12.872 -19.359  30.285  1.00  0.00    -0.077 C 
ATOM      4  C   UNL     1     -13.963 -19.960  29.435  1.00  0.00     0.039 C 
BRANCH   3   5
ATOM      5  C   UNL     1     -13.250 -18.699  31.600  1.00  0.00     0.034 C 
BRANCH   5   6
ATOM      6  C   UNL     1     -13.958 -17.353  31.383  1.00  0.00     0.032 C 
BRANCH   6   7
ATOM      7  C   UNL     1     -13.827 -16.449  32.587  1.00  0.00    -0.028 C 
ATOM      8  C   UNL     1     -13.974 -14.366  33.880  1.00  0.00     0.039 C 
ATOM      9  C   UNL     1     -14.218 -15.157  32.620  1.00  0.00    -0.080 C 
ATOM     10  C   UNL     1     -14.901 -14.495  31.447  1.00  0.00     0.039 C 
ENDBRANCH   6   7
ENDBRANCH   5   6
ENDBRANCH   3   5
ENDBRANCH   1   2
BRANCH   1  11
ATOM     11  C   UNL     1      -9.875 -17.601  29.953  1.00  0.00     0.034 C 
BRANCH  11  12
ATOM     12  C   UNL     1     -10.432 -16.400  30.692  1.00  0.00    -0.077 C 
ATOM     13  C   UNL     1     -11.207 -15.468  30.093  1.00  0.00    -0.028 C 
ATOM     14  C   UNL     1     -10.163 -16.271  32.168  1.00  0.00     0.039 C 
BRANCH  13  15
ATOM     15  C   UNL     1     -11.563 -15.492  28.625  1.00  0.00     0.035 C 
BRANCH  15  16
ATOM     16  C   UNL     1     -12.829 -16.317  28.375  1.00  0.00     0.079 C 
BRANCH  16  17
ATOM     17  C   UNL     1     -12.940 -16.695  26.922  1.00  0.00     0.130 C 
ATOM     18  O   UNL     1     -13.972 -16.452  26.314  1.00  0.00    -0.300 OA
ATOM     19  C   UNL     1     -11.805 -17.356  26.195  1.00  0.00     0.087 C 
ENDBRANCH  16  17
ENDBRANCH  15  16
ENDBRANCH  13  15
ENDBRANCH  11  12
ENDBRANCH   1  11
TORSDOF 9
ENDMDL
MODEL 9
REMARK VINA RESULT:    -5.543      2.114      4.474
REMARK INTER + INTRA:         -10.843
REMARK INTER:                  -8.889
REMARK INTRA:                  -1.955
REMARK UNBOUND:                -2.385
REMARK SMILES CC(=O)CCC=C(C)CCC=C(C)CCC=C(C)C
REMARK SMILES IDX 10 1 11 2 12 3 13 4 14 5 15 6 16 7 18 8 17 9 19 10 9 11 7 12
REMARK SMILES IDX 6 13 8 14 5 15 4 16 2 17 3 18 1 19
REMARK H PARENT
REMARK Flexibility Score: inf
ROOT
ATOM      1  C   UNL     1      -9.875 -16.106  30.339  1.00  0.00     0.032 C 
ENDROOT
BRANCH   1   2
ATOM      2  C   UNL     1     -10.239 -16.800  29.050  1.00  0.00    -0.028 C 
ATOM      3  C   UNL     1     -11.289 -16.467  28.264  1.00  0.00    -0.077 C 
ATOM      4  C   UNL     1     -11.552 -17.302  27.036  1.00  0.00     0.039 C 
BRANCH   3   5
ATOM      5  C   UNL     1     -12.187 -15.275  28.544  1.00  0.00     0.034 C 
BRANCH   5   6
ATOM      6  C   UNL     1     -13.619 -15.504  28.037  1.00  0.00     0.032 C 
BRANCH   6   7
ATOM      7  C   UNL     1     -14.372 -14.205  27.874  1.00  0.00    -0.028 C 
ATOM      8  C   UNL     1     -15.778 -12.305  28.543  1.00  0.00     0.039 C 
ATOM      9  C   UNL     1     -15.026 -13.569  28.871  1.00  0.00    -0.080 C 
ATOM     10  C   UNL     1     -15.008 -14.077  30.293  1.00  0.00     0.039 C 
ENDBRANCH   6   7
ENDBRANCH   5   6
ENDBRANCH   3   5
ENDBRANCH   1   2
BRANCH   1  11
ATOM     11  C   UNL     1     -10.224 -16.986  31.544  1.00  0.00     0.034 C 
BRANCH  11  12
ATOM     12  C   UNL     1     -11.158 -16.255  32.488  1.00  0.00    -0.077 C 
ATOM     13  C   UNL     1     -12.503 -16.346  32.401  1.00  0.00    -0.028 C 
ATOM     14  C   UNL     1     -10.562 -15.441  33.606  1.00  0.00     0.039 C 
BRANCH  13  15
ATOM     15  C   UNL     1     -13.222 -17.142  31.337  1.00  0.00     0.035 C 
BRANCH  15  16
ATOM     16  C   UNL     1     -13.245 -18.634  31.681  1.00  0.00     0.079 C 
BRANCH  16  17
ATOM     17  C   UNL     1     -12.691 -19.452  30.544  1.00  0.00     0.130 C 
ATOM     18  O   UNL     1     -11.585 -19.959  30.653  1.00  0.00    -0.300 OA
ATOM     19  C   UNL     1     -13.473 -19.669  29.282  1.00  0.00     0.087 C 
ENDBRANCH  16  17
ENDBRANCH  15  16
ENDBRANCH  13  15
ENDBRANCH  11  12
ENDBRANCH   1  11
TORSDOF 9
ENDMDL
