MODEL 1
REMARK VINA RESULT:    -3.653      0.000      0.000
REMARK INTER + INTRA:          -4.408
REMARK INTER:                  -4.294
REMARK INTRA:                  -0.114
REMARK UNBOUND:                -0.114
REMARK SMILES O=C([O-])CCC(=O)[O-]
REMARK SMILES IDX 4 1 2 2 1 3 3 4 5 5 6 6 7 7 8 8
REMARK H PARENT
REMARK Flexibility Score: inf
ROOT
ATOM      1  C   UNL     1      16.051  28.994  63.726  1.00  0.00     0.059 C 
ENDROOT
BRANCH   1   2
ATOM      2  C   UNL     1      15.816  27.559  64.076  1.00  0.00     0.042 C 
ATOM      3  O   UNL     1      14.644  27.096  64.104  1.00  0.00    -0.550 OA
ATOM      4  O   UNL     1      16.886  26.742  64.419  1.00  0.00    -0.550 OA
ENDBRANCH   1   2
BRANCH   1   5
ATOM      5  C   UNL     1      16.444  29.129  62.255  1.00  0.00     0.059 C 
BRANCH   5   6
ATOM      6  C   UNL     1      15.319  29.719  61.465  1.00  0.00     0.042 C 
ATOM      7  O   UNL     1      14.229  30.000  62.028  1.00  0.00    -0.550 OA
ATOM      8  O   UNL     1      15.491  30.004  60.117  1.00  0.00    -0.550 OA
ENDBRANCH   5   6
ENDBRANCH   1   5
TORSDOF 3
ENDMDL
MODEL 2
REMARK VINA RESULT:    -3.653      0.178      3.837
REMARK INTER + INTRA:          -4.407
REMARK INTER:                  -4.291
REMARK INTRA:                  -0.116
REMARK UNBOUND:                -0.114
REMARK SMILES O=C([O-])CCC(=O)[O-]
REMARK SMILES IDX 4 1 2 2 1 3 3 4 5 5 6 6 7 7 8 8
REMARK H PARENT
REMARK Flexibility Score: inf
ROOT
ATOM      1  C   UNL     1      16.252  29.044  62.110  1.00  0.00     0.059 C 
ENDROOT
BRANCH   1   2
ATOM      2  C   UNL     1      15.118  29.760  61.448  1.00  0.00     0.042 C 
ATOM      3  O   UNL     1      14.072  30.029  62.096  1.00  0.00    -0.550 OA
ATOM      4  O   UNL     1      15.195  30.088  60.100  1.00  0.00    -0.550 OA
ENDBRANCH   1   2
BRANCH   1   5
ATOM      5  C   UNL     1      16.051  29.010  63.625  1.00  0.00     0.059 C 
BRANCH   5   6
ATOM      6  C   UNL     1      15.809  27.609  64.090  1.00  0.00     0.042 C 
ATOM      7  O   UNL     1      14.639  27.147  64.129  1.00  0.00    -0.550 OA
ATOM      8  O   UNL     1      16.882  26.796  64.435  1.00  0.00    -0.550 OA
ENDBRANCH   5   6
ENDBRANCH   1   5
TORSDOF 3
ENDMDL
MODEL 3
REMARK VINA RESULT:    -3.619      5.465      6.932
REMARK INTER + INTRA:          -4.368
REMARK INTER:                  -4.264
REMARK INTRA:                  -0.104
REMARK UNBOUND:                -0.114
REMARK SMILES O=C([O-])CCC(=O)[O-]
REMARK SMILES IDX 4 1 2 2 1 3 3 4 5 5 6 6 7 7 8 8
REMARK H PARENT
REMARK Flexibility Score: inf
ROOT
ATOM      1  C   UNL     1       8.976  28.965  60.207  1.00  0.00     0.059 C 
ENDROOT
BRANCH   1   2
ATOM      2  C   UNL     1       8.248  29.619  61.338  1.00  0.00     0.042 C 
ATOM      3  O   UNL     1       8.670  29.498  62.519  1.00  0.00    -0.550 OA
ATOM      4  O   UNL     1       7.075  30.324  61.096  1.00  0.00    -0.550 OA
ENDBRANCH   1   2
BRANCH   1   5
ATOM      5  C   UNL     1      10.247  29.742  59.868  1.00  0.00     0.059 C 
BRANCH   5   6
ATOM      6  C   UNL     1      11.440  29.094  60.496  1.00  0.00     0.042 C 
ATOM      7  O   UNL     1      12.013  28.131  59.924  1.00  0.00    -0.550 OA
ATOM      8  O   UNL     1      11.949  29.586  61.692  1.00  0.00    -0.550 OA
ENDBRANCH   5   6
ENDBRANCH   1   5
TORSDOF 3
ENDMDL
MODEL 4
REMARK VINA RESULT:    -3.586      2.197      4.077
REMARK INTER + INTRA:          -4.329
REMARK INTER:                  -4.218
REMARK INTRA:                  -0.111
REMARK UNBOUND:                -0.114
REMARK SMILES O=C([O-])CCC(=O)[O-]
REMARK SMILES IDX 4 1 2 2 1 3 3 4 5 5 6 6 7 7 8 8
REMARK H PARENT
REMARK Flexibility Score: inf
ROOT
ATOM      1  C   UNL     1      13.531  30.156  62.275  1.00  0.00     0.059 C 
ENDROOT
BRANCH   1   2
ATOM      2  C   UNL     1      12.301  29.456  61.792  1.00  0.00     0.042 C 
ATOM      3  O   UNL     1      12.387  28.552  60.918  1.00  0.00    -0.550 OA
ATOM      4  O   UNL     1      11.053  29.835  62.269  1.00  0.00    -0.550 OA
ENDBRANCH   1   2
BRANCH   1   5
ATOM      5  C   UNL     1      14.763  29.274  62.069  1.00  0.00     0.059 C 
BRANCH   5   6
ATOM      6  C   UNL     1      15.165  28.629  63.358  1.00  0.00     0.042 C 
ATOM      7  O   UNL     1      15.993  29.195  64.119  1.00  0.00    -0.550 OA
ATOM      8  O   UNL     1      14.590  27.424  63.741  1.00  0.00    -0.550 OA
ENDBRANCH   5   6
ENDBRANCH   1   5
TORSDOF 3
ENDMDL
MODEL 5
REMARK VINA RESULT:    -3.585      2.240      2.973
REMARK INTER + INTRA:          -4.328
REMARK INTER:                  -4.207
REMARK INTRA:                  -0.121
REMARK UNBOUND:                -0.114
REMARK SMILES O=C([O-])CCC(=O)[O-]
REMARK SMILES IDX 4 1 2 2 1 3 3 4 5 5 6 6 7 7 8 8
REMARK H PARENT
REMARK Flexibility Score: inf
ROOT
ATOM      1  C   UNL     1      14.727  29.310  62.050  1.00  0.00     0.059 C 
ENDROOT
BRANCH   1   2
ATOM      2  C   UNL     1      15.160  28.702  63.347  1.00  0.00     0.042 C 
ATOM      3  O   UNL     1      16.009  29.289  64.070  1.00  0.00    -0.550 OA
ATOM      4  O   UNL     1      14.663  27.465  63.735  1.00  0.00    -0.550 OA
ENDBRANCH   1   2
BRANCH   1   5
ATOM      5  C   UNL     1      13.476  30.164  62.252  1.00  0.00     0.059 C 
BRANCH   5   6
ATOM      6  C   UNL     1      12.254  29.409  61.834  1.00  0.00     0.042 C 
ATOM      7  O   UNL     1      12.362  28.352  61.159  1.00  0.00    -0.550 OA
ATOM      8  O   UNL     1      10.997  29.845  62.233  1.00  0.00    -0.550 OA
ENDBRANCH   5   6
ENDBRANCH   1   5
TORSDOF 3
ENDMDL
MODEL 6
REMARK VINA RESULT:    -3.545      1.586      2.132
REMARK INTER + INTRA:          -4.280
REMARK INTER:                  -4.197
REMARK INTRA:                  -0.083
REMARK UNBOUND:                -0.114
REMARK SMILES O=C([O-])CCC(=O)[O-]
REMARK SMILES IDX 4 1 2 2 1 3 3 4 5 5 6 6 7 7 8 8
REMARK H PARENT
REMARK Flexibility Score: inf
ROOT
ATOM      1  C   UNL     1      15.347  28.779  63.784  1.00  0.00     0.059 C 
ENDROOT
BRANCH   1   2
ATOM      2  C   UNL     1      16.513  27.876  63.533  1.00  0.00     0.042 C 
ATOM      3  O   UNL     1      16.802  26.970  64.359  1.00  0.00    -0.550 OA
ATOM      4  O   UNL     1      17.310  28.065  62.412  1.00  0.00    -0.550 OA
ENDBRANCH   1   2
BRANCH   1   5
ATOM      5  C   UNL     1      14.949  29.507  62.500  1.00  0.00     0.059 C 
BRANCH   5   6
ATOM      6  C   UNL     1      13.677  28.943  61.951  1.00  0.00     0.042 C 
ATOM      7  O   UNL     1      13.053  29.551  61.043  1.00  0.00    -0.550 OA
ATOM      8  O   UNL     1      13.204  27.720  62.409  1.00  0.00    -0.550 OA
ENDBRANCH   5   6
ENDBRANCH   1   5
TORSDOF 3
ENDMDL
MODEL 7
REMARK VINA RESULT:    -3.526      4.157      5.731
REMARK INTER + INTRA:          -4.258
REMARK INTER:                  -4.150
REMARK INTRA:                  -0.109
REMARK UNBOUND:                -0.114
REMARK SMILES O=C([O-])CCC(=O)[O-]
REMARK SMILES IDX 4 1 2 2 1 3 3 4 5 5 6 6 7 7 8 8
REMARK H PARENT
REMARK Flexibility Score: inf
ROOT
ATOM      1  C   UNL     1      11.043  29.581  60.090  1.00  0.00     0.059 C 
ENDROOT
BRANCH   1   2
ATOM      2  C   UNL     1       9.729  29.339  60.762  1.00  0.00     0.042 C 
ATOM      3  O   UNL     1       9.530  29.754  61.935  1.00  0.00    -0.550 OA
ATOM      4  O   UNL     1       8.739  28.612  60.113  1.00  0.00    -0.550 OA
ENDBRANCH   1   2
BRANCH   1   5
ATOM      5  C   UNL     1      12.003  28.423  60.359  1.00  0.00     0.059 C 
BRANCH   5   6
ATOM      6  C   UNL     1      12.787  28.674  61.608  1.00  0.00     0.042 C 
ATOM      7  O   UNL     1      13.143  27.711  62.337  1.00  0.00    -0.550 OA
ATOM      8  O   UNL     1      13.169  29.967  61.942  1.00  0.00    -0.550 OA
ENDBRANCH   5   6
ENDBRANCH   1   5
TORSDOF 3
ENDMDL
MODEL 8
REMARK VINA RESULT:    -3.509      4.119      5.123
REMARK INTER + INTRA:          -4.239
REMARK INTER:                  -4.117
REMARK INTRA:                  -0.122
REMARK UNBOUND:                -0.114
REMARK SMILES O=C([O-])CCC(=O)[O-]
REMARK SMILES IDX 4 1 2 2 1 3 3 4 5 5 6 6 7 7 8 8
REMARK H PARENT
REMARK Flexibility Score: inf
ROOT
ATOM      1  C   UNL     1      12.032  28.231  60.617  1.00  0.00     0.059 C 
ENDROOT
BRANCH   1   2
ATOM      2  C   UNL     1      12.908  28.639  61.759  1.00  0.00     0.042 C 
ATOM      3  O   UNL     1      13.493  27.765  62.453  1.00  0.00    -0.550 OA
ATOM      4  O   UNL     1      13.041  29.982  62.088  1.00  0.00    -0.550 OA
ENDBRANCH   1   2
BRANCH   1   5
ATOM      5  C   UNL     1      11.159  29.403  60.168  1.00  0.00     0.059 C 
BRANCH   5   6
ATOM      6  C   UNL     1       9.773  29.261  60.713  1.00  0.00     0.042 C 
ATOM      7  O   UNL     1       9.483  29.739  61.840  1.00  0.00    -0.550 OA
ATOM      8  O   UNL     1       8.787  28.642  59.954  1.00  0.00    -0.550 OA
ENDBRANCH   5   6
ENDBRANCH   1   5
TORSDOF 3
ENDMDL
MODEL 9
REMARK VINA RESULT:    -3.451      2.214      3.520
REMARK INTER + INTRA:          -4.170
REMARK INTER:                  -4.058
REMARK INTRA:                  -0.112
REMARK UNBOUND:                -0.114
REMARK SMILES O=C([O-])CCC(=O)[O-]
REMARK SMILES IDX 4 1 2 2 1 3 3 4 5 5 6 6 7 7 8 8
REMARK H PARENT
REMARK Flexibility Score: inf
ROOT
ATOM      1  C   UNL     1      13.970  29.996  62.056  1.00  0.00     0.059 C 
ENDROOT
BRANCH   1   2
ATOM      2  C   UNL     1      13.040  28.844  61.836  1.00  0.00     0.042 C 
ATOM      3  O   UNL     1      13.315  27.709  62.308  1.00  0.00    -0.550 OA
ATOM      4  O   UNL     1      11.895  29.012  61.069  1.00  0.00    -0.550 OA
ENDBRANCH   1   2
BRANCH   1   5
ATOM      5  C   UNL     1      15.346  29.693  61.464  1.00  0.00     0.059 C 
BRANCH   5   6
ATOM      6  C   UNL     1      16.405  29.813  62.514  1.00  0.00     0.042 C 
ATOM      7  O   UNL     1      17.538  30.276  62.220  1.00  0.00    -0.550 OA
ATOM      8  O   UNL     1      16.126  29.459  63.827  1.00  0.00    -0.550 OA
ENDBRANCH   5   6
ENDBRANCH   1   5
TORSDOF 3
ENDMDL
