MODEL 1
REMARK VINA RESULT:     2.786      0.000      0.000
REMARK INTER + INTRA:           4.004
REMARK INTER:                   3.763
REMARK INTRA:                   0.241
REMARK UNBOUND:                 0.241
REMARK SMILES COc1ccc(-c2cc(=O)c3c(OC)c(OC)c(OC)c(OC)c3o2)cc1
REMARK SMILES IDX 7 1 8 2 9 3 10 4 11 5 24 6 25 7 21 8 18 9 15 10 12 11 6 12
REMARK SMILES IDX 3 13 4 14 27 15 5 16 26 17 2 18 1 19 22 20 23 21 13 22 14 23
REMARK SMILES IDX 19 24 20 25 16 26 17 27
REMARK H PARENT
REMARK Flexibility Score: inf
ROOT
ATOM      1  C   UNL     1      -1.265  14.806 -17.906  1.00  0.00     0.138 A 
ATOM      2  C   UNL     1      -1.182  14.843 -16.505  1.00  0.00     0.100 A 
ATOM      3  C   UNL     1      -2.064  14.072 -15.745  1.00  0.00     0.197 A 
ATOM      4  O   UNL     1      -1.985  14.116 -14.489  1.00  0.00    -0.289 OA
ATOM      5  C   UNL     1      -3.030  13.274 -16.395  1.00  0.00     0.115 A 
ATOM      6  C   UNL     1      -3.070  13.312 -17.808  1.00  0.00     0.188 A 
ATOM      7  O   UNL     1      -2.204  14.061 -18.484  1.00  0.00    -0.452 OA
ATOM      8  C   UNL     1      -4.002  12.547 -18.520  1.00  0.00     0.209 A 
ATOM      9  C   UNL     1      -4.955  11.783 -17.815  1.00  0.00     0.211 A 
ATOM     10  C   UNL     1      -4.932  11.740 -16.413  1.00  0.00     0.208 A 
ATOM     11  C   UNL     1      -3.927  12.432 -15.699  1.00  0.00     0.179 A 
ENDROOT
BRANCH   1  12
ATOM     12  C   UNL     1      -0.340  15.581 -18.771  1.00  0.00     0.018 A 
ATOM     13  C   UNL     1       1.327  17.096 -20.476  1.00  0.00     0.118 A 
ATOM     14  C   UNL     1       0.334  17.721 -19.716  1.00  0.00     0.047 A 
ATOM     15  C   UNL     1       1.483  15.700 -20.384  1.00  0.00     0.047 A 
ATOM     16  C   UNL     1      -0.495  16.975 -18.875  1.00  0.00     0.016 A 
ATOM     17  C   UNL     1       0.655  14.949 -19.544  1.00  0.00     0.016 A 
BRANCH  13  18
ATOM     18  O   UNL     1       2.125  17.890 -21.312  1.00  0.00    -0.497 OA
ATOM     19  C   UNL     1       2.069  19.309 -21.370  1.00  0.00     0.278 C 
ENDBRANCH  13  18
ENDBRANCH   1  12
BRANCH   8  20
ATOM     20  O   UNL     1      -3.948  12.600 -19.923  1.00  0.00    -0.490 OA
ATOM     21  C   UNL     1      -4.254  11.514 -20.796  1.00  0.00     0.278 C 
ENDBRANCH   8  20
BRANCH  11  22
ATOM     22  O   UNL     1      -3.793  12.258 -14.318  1.00  0.00    -0.492 OA
ATOM     23  C   UNL     1      -3.198  11.085 -13.763  1.00  0.00     0.278 C 
ENDBRANCH  11  22
BRANCH   9  24
ATOM     24  O   UNL     1      -5.962  11.094 -18.491  1.00  0.00    -0.490 OA
ATOM     25  C   UNL     1      -7.100  11.784 -19.010  1.00  0.00     0.279 C 
ENDBRANCH   9  24
BRANCH  10  26
ATOM     26  O   UNL     1      -5.938  11.015 -15.761  1.00  0.00    -0.490 OA
ATOM     27  C   UNL     1      -7.288  11.465 -15.666  1.00  0.00     0.278 C 
ENDBRANCH  10  26
TORSDOF 6
ENDMDL
MODEL 2
REMARK VINA RESULT:     2.930      1.795      8.369
REMARK INTER + INTRA:           4.198
REMARK INTER:                   3.845
REMARK INTRA:                   0.354
REMARK UNBOUND:                 0.241
REMARK SMILES COc1ccc(-c2cc(=O)c3c(OC)c(OC)c(OC)c(OC)c3o2)cc1
REMARK SMILES IDX 7 1 8 2 9 3 10 4 11 5 24 6 25 7 21 8 18 9 15 10 12 11 6 12
REMARK SMILES IDX 3 13 4 14 27 15 5 16 26 17 2 18 1 19 22 20 23 21 13 22 14 23
REMARK SMILES IDX 19 24 20 25 16 26 17 27
REMARK H PARENT
REMARK Flexibility Score: inf
ROOT
ATOM      1  C   UNL     1      -1.968  14.098 -18.483  1.00  0.00     0.138 A 
ATOM      2  C   UNL     1      -1.138  13.427 -19.397  1.00  0.00     0.100 A 
ATOM      3  C   UNL     1      -0.106  14.126 -20.025  1.00  0.00     0.197 A 
ATOM      4  O   UNL     1       0.630  13.518 -20.847  1.00  0.00    -0.289 OA
ATOM      5  C   UNL     1       0.085  15.496 -19.739  1.00  0.00     0.115 A 
ATOM      6  C   UNL     1      -0.809  16.107 -18.830  1.00  0.00     0.188 A 
ATOM      7  O   UNL     1      -1.774  15.394 -18.256  1.00  0.00    -0.452 OA
ATOM      8  C   UNL     1      -0.682  17.461 -18.500  1.00  0.00     0.209 A 
ATOM      9  C   UNL     1       0.309  18.239 -19.134  1.00  0.00     0.211 A 
ATOM     10  C   UNL     1       1.200  17.648 -20.043  1.00  0.00     0.208 A 
ATOM     11  C   UNL     1       1.134  16.259 -20.298  1.00  0.00     0.179 A 
ENDROOT
BRANCH   1  12
ATOM     12  C   UNL     1      -3.066  13.406 -17.762  1.00  0.00     0.018 A 
ATOM     13  C   UNL     1      -5.233  12.154 -16.450  1.00  0.00     0.118 A 
ATOM     14  C   UNL     1      -5.128  12.114 -17.844  1.00  0.00     0.047 A 
ATOM     15  C   UNL     1      -4.246  12.831 -15.708  1.00  0.00     0.047 A 
ATOM     16  C   UNL     1      -4.061  12.735 -18.495  1.00  0.00     0.016 A 
ATOM     17  C   UNL     1      -3.176  13.455 -16.358  1.00  0.00     0.016 A 
BRANCH  13  18
ATOM     18  O   UNL     1      -6.330  11.525 -15.845  1.00  0.00    -0.497 OA
ATOM     19  C   UNL     1      -7.683  11.709 -16.240  1.00  0.00     0.278 C 
ENDBRANCH  13  18
ENDBRANCH   1  12
BRANCH   8  20
ATOM     20  O   UNL     1      -1.578  17.985 -17.552  1.00  0.00    -0.490 OA
ATOM     21  C   UNL     1      -2.085  19.318 -17.555  1.00  0.00     0.278 C 
ENDBRANCH   8  20
BRANCH  11  22
ATOM     22  O   UNL     1       2.121  15.634 -21.068  1.00  0.00    -0.492 OA
ATOM     23  C   UNL     1       2.061  15.616 -22.494  1.00  0.00     0.278 C 
ENDBRANCH  11  22
BRANCH   9  24
ATOM     24  O   UNL     1       0.396  19.613 -18.907  1.00  0.00    -0.490 OA
ATOM     25  C   UNL     1       1.113  20.125 -17.782  1.00  0.00     0.279 C 
ENDBRANCH   9  24
BRANCH  10  26
ATOM     26  O   UNL     1       2.125  18.478 -20.690  1.00  0.00    -0.490 OA
ATOM     27  C   UNL     1       1.803  19.260 -21.839  1.00  0.00     0.278 C 
ENDBRANCH  10  26
TORSDOF 6
ENDMDL
MODEL 3
REMARK VINA RESULT:     4.838      1.070      3.507
REMARK INTER + INTRA:           6.776
REMARK INTER:                   7.045
REMARK INTRA:                  -0.269
REMARK UNBOUND:                 0.241
REMARK SMILES COc1ccc(-c2cc(=O)c3c(OC)c(OC)c(OC)c(OC)c3o2)cc1
REMARK SMILES IDX 7 1 8 2 9 3 10 4 11 5 24 6 25 7 21 8 18 9 15 10 12 11 6 12
REMARK SMILES IDX 3 13 4 14 27 15 5 16 26 17 2 18 1 19 22 20 23 21 13 22 14 23
REMARK SMILES IDX 19 24 20 25 16 26 17 27
REMARK H PARENT
REMARK Flexibility Score: inf
ROOT
ATOM      1  C   UNL     1      -1.612  14.828 -18.463  1.00  0.00     0.138 A 
ATOM      2  C   UNL     1      -2.327  14.209 -19.502  1.00  0.00     0.100 A 
ATOM      3  C   UNL     1      -3.279  13.236 -19.194  1.00  0.00     0.197 A 
ATOM      4  O   UNL     1      -3.911  12.683 -20.132  1.00  0.00    -0.289 OA
ATOM      5  C   UNL     1      -3.504  12.882 -17.845  1.00  0.00     0.115 A 
ATOM      6  C   UNL     1      -2.724  13.529 -16.858  1.00  0.00     0.188 A 
ATOM      7  O   UNL     1      -1.833  14.453 -17.206  1.00  0.00    -0.452 OA
ATOM      8  C   UNL     1      -2.892  13.229 -15.501  1.00  0.00     0.209 A 
ATOM      9  C   UNL     1      -3.802  12.220 -15.122  1.00  0.00     0.211 A 
ATOM     10  C   UNL     1      -4.577  11.565 -16.090  1.00  0.00     0.208 A 
ATOM     11  C   UNL     1      -4.480  11.941 -17.449  1.00  0.00     0.179 A 
ENDROOT
BRANCH   1  12
ATOM     12  C   UNL     1      -0.606  15.889 -18.722  1.00  0.00     0.018 A 
ATOM     13  C   UNL     1       1.245  17.941 -19.307  1.00  0.00     0.118 A 
ATOM     14  C   UNL     1      -0.101  18.243 -19.081  1.00  0.00     0.047 A 
ATOM     15  C   UNL     1       1.666  16.600 -19.243  1.00  0.00     0.047 A 
ATOM     16  C   UNL     1      -1.019  17.231 -18.796  1.00  0.00     0.016 A 
ATOM     17  C   UNL     1       0.749  15.583 -18.959  1.00  0.00     0.016 A 
BRANCH  13  18
ATOM     18  O   UNL     1       2.125  18.993 -19.601  1.00  0.00    -0.497 OA
ATOM     19  C   UNL     1       2.125  19.727 -20.819  1.00  0.00     0.278 C 
ENDBRANCH  13  18
ENDBRANCH   1  12
BRANCH   8  20
ATOM     20  O   UNL     1      -2.115  13.948 -14.577  1.00  0.00    -0.490 OA
ATOM     21  C   UNL     1      -0.894  13.487 -14.000  1.00  0.00     0.278 C 
ENDBRANCH   8  20
BRANCH  11  22
ATOM     22  O   UNL     1      -5.368  11.416 -18.394  1.00  0.00    -0.492 OA
ATOM     23  C   UNL     1      -6.615  12.047 -18.684  1.00  0.00     0.278 C 
ENDBRANCH  11  22
BRANCH   9  24
ATOM     24  O   UNL     1      -3.916  11.823 -13.789  1.00  0.00    -0.490 OA
ATOM     25  C   UNL     1      -3.163  10.718 -13.287  1.00  0.00     0.279 C 
ENDBRANCH   9  24
BRANCH  10  26
ATOM     26  O   UNL     1      -5.420  10.530 -15.666  1.00  0.00    -0.490 OA
ATOM     27  C   UNL     1      -6.837  10.667 -15.565  1.00  0.00     0.278 C 
ENDBRANCH  10  26
TORSDOF 6
ENDMDL
