MODEL 1
REMARK VINA RESULT:    -3.505      0.000      0.000
REMARK INTER + INTRA:          -7.708
REMARK INTER:                  -5.964
REMARK INTRA:                  -1.743
REMARK UNBOUND:                -1.743
REMARK SMILES CCCCCCCCCCCCCC(=O)[O-]
REMARK SMILES IDX 8 1 9 2 10 3 11 4 12 5 13 6 14 7 15 8 16 9 7 10 6 11 5 12
REMARK SMILES IDX 4 13 3 14 2 15 1 16
REMARK H PARENT
REMARK Flexibility Score: inf
ROOT
ATOM      1  C   UNL     1      -1.268 -12.073 -41.036  1.00  0.00     0.000 C 
ENDROOT
BRANCH   1   2
ATOM      2  C   UNL     1      -1.239 -11.327 -42.379  1.00  0.00     0.000 C 
BRANCH   2   3
ATOM      3  C   UNL     1      -0.325 -10.092 -42.354  1.00  0.00     0.000 C 
BRANCH   3   4
ATOM      4  C   UNL     1       0.803 -10.212 -41.314  1.00  0.00     0.000 C 
BRANCH   4   5
ATOM      5  C   UNL     1       2.200 -10.211 -41.956  1.00  0.00     0.006 C 
BRANCH   5   6
ATOM      6  C   UNL     1       2.602 -11.587 -42.501  1.00  0.00     0.053 C 
BRANCH   6   7
ATOM      7  C   UNL     1       2.396 -11.642 -43.983  1.00  0.00     0.041 C 
ATOM      8  O   UNL     1       2.263 -12.751 -44.563  1.00  0.00    -0.550 OA
ATOM      9  O   UNL     1       2.300 -10.464 -44.714  1.00  0.00    -0.550 OA
ENDBRANCH   6   7
ENDBRANCH   5   6
ENDBRANCH   4   5
ENDBRANCH   3   4
ENDBRANCH   2   3
ENDBRANCH   1   2
BRANCH   1  10
ATOM     10  C   UNL     1      -2.705 -12.428 -40.635  1.00  0.00     0.000 C 
BRANCH  10  11
ATOM     11  C   UNL     1      -3.709 -11.448 -41.262  1.00  0.00    -0.000 C 
BRANCH  11  12
ATOM     12  C   UNL     1      -4.128 -10.328 -40.296  1.00  0.00    -0.000 C 
BRANCH  12  13
ATOM     13  C   UNL     1      -4.030  -8.931 -40.933  1.00  0.00    -0.000 C 
BRANCH  13  14
ATOM     14  C   UNL     1      -2.705  -8.224 -40.604  1.00  0.00    -0.000 C 
BRANCH  14  15
ATOM     15  C   UNL     1      -2.018  -8.799 -39.357  1.00  0.00    -0.003 C 
ATOM     16  C   UNL     1      -0.924  -7.862 -38.851  1.00  0.00     0.004 C 
ENDBRANCH  14  15
ENDBRANCH  13  14
ENDBRANCH  12  13
ENDBRANCH  11  12
ENDBRANCH  10  11
ENDBRANCH   1  10
TORSDOF 12
ENDMDL
MODEL 2
REMARK VINA RESULT:    -3.441      5.316      7.438
REMARK INTER + INTRA:          -7.598
REMARK INTER:                  -6.435
REMARK INTRA:                  -1.163
REMARK UNBOUND:                -1.743
REMARK SMILES CCCCCCCCCCCCCC(=O)[O-]
REMARK SMILES IDX 8 1 9 2 10 3 11 4 12 5 13 6 14 7 15 8 16 9 7 10 6 11 5 12
REMARK SMILES IDX 4 13 3 14 2 15 1 16
REMARK H PARENT
REMARK Flexibility Score: inf
ROOT
ATOM      1  C   UNL     1      -0.368  -7.631 -37.478  1.00  0.00     0.000 C 
ENDROOT
BRANCH   1   2
ATOM      2  C   UNL     1      -1.101  -7.238 -36.186  1.00  0.00     0.000 C 
BRANCH   2   3
ATOM      3  C   UNL     1      -1.375  -8.441 -35.269  1.00  0.00     0.000 C 
BRANCH   3   4
ATOM      4  C   UNL     1      -0.506  -9.661 -35.618  1.00  0.00     0.000 C 
BRANCH   4   5
ATOM      5  C   UNL     1      -1.338 -10.933 -35.848  1.00  0.00     0.006 C 
BRANCH   5   6
ATOM      6  C   UNL     1      -1.096 -12.000 -34.772  1.00  0.00     0.053 C 
BRANCH   6   7
ATOM      7  C   UNL     1      -1.720 -11.585 -33.476  1.00  0.00     0.041 C 
ATOM      8  O   UNL     1      -2.963 -11.695 -33.307  1.00  0.00    -0.550 OA
ATOM      9  O   UNL     1      -0.921 -11.125 -32.437  1.00  0.00    -0.550 OA
ENDBRANCH   6   7
ENDBRANCH   5   6
ENDBRANCH   4   5
ENDBRANCH   3   4
ENDBRANCH   2   3
ENDBRANCH   1   2
BRANCH   1  10
ATOM     10  C   UNL     1      -1.193  -7.250 -38.714  1.00  0.00     0.000 C 
BRANCH  10  11
ATOM     11  C   UNL     1      -1.320  -8.439 -39.678  1.00  0.00    -0.000 C 
BRANCH  11  12
ATOM     12  C   UNL     1      -0.343  -9.579 -39.348  1.00  0.00    -0.000 C 
BRANCH  12  13
ATOM     13  C   UNL     1      -0.218 -10.600 -40.493  1.00  0.00    -0.000 C 
BRANCH  13  14
ATOM     14  C   UNL     1      -0.138  -9.932 -41.874  1.00  0.00    -0.000 C 
BRANCH  14  15
ATOM     15  C   UNL     1       1.275  -9.433 -42.212  1.00  0.00    -0.003 C 
ATOM     16  C   UNL     1       2.325 -10.487 -41.867  1.00  0.00     0.004 C 
ENDBRANCH  14  15
ENDBRANCH  13  14
ENDBRANCH  12  13
ENDBRANCH  11  12
ENDBRANCH  10  11
ENDBRANCH   1  10
TORSDOF 12
ENDMDL
MODEL 3
REMARK VINA RESULT:    -3.412      3.912      5.366
REMARK INTER + INTRA:          -7.549
REMARK INTER:                  -6.858
REMARK INTRA:                  -0.690
REMARK UNBOUND:                -1.743
REMARK SMILES CCCCCCCCCCCCCC(=O)[O-]
REMARK SMILES IDX 8 1 9 2 10 3 11 4 12 5 13 6 14 7 15 8 16 9 7 10 6 11 5 12
REMARK SMILES IDX 4 13 3 14 2 15 1 16
REMARK H PARENT
REMARK Flexibility Score: inf
ROOT
ATOM      1  C   UNL     1      -0.438  -7.473 -37.682  1.00  0.00     0.000 C 
ENDROOT
BRANCH   1   2
ATOM      2  C   UNL     1      -0.512  -8.743 -38.543  1.00  0.00     0.000 C 
BRANCH   2   3
ATOM      3  C   UNL     1      -1.466  -8.595 -39.739  1.00  0.00     0.000 C 
BRANCH   3   4
ATOM      4  C   UNL     1      -0.965  -9.335 -40.991  1.00  0.00     0.000 C 
BRANCH   4   5
ATOM      5  C   UNL     1       0.347 -10.097 -40.741  1.00  0.00     0.006 C 
BRANCH   5   6
ATOM      6  C   UNL     1       1.401  -9.829 -41.824  1.00  0.00     0.053 C 
BRANCH   6   7
ATOM      7  C   UNL     1       2.331 -10.996 -41.945  1.00  0.00     0.041 C 
ATOM      8  O   UNL     1       1.926 -12.078 -42.445  1.00  0.00    -0.550 OA
ATOM      9  O   UNL     1       3.658 -10.871 -41.554  1.00  0.00    -0.550 OA
ENDBRANCH   6   7
ENDBRANCH   5   6
ENDBRANCH   4   5
ENDBRANCH   3   4
ENDBRANCH   2   3
ENDBRANCH   1   2
BRANCH   1  10
ATOM     10  C   UNL     1      -0.347  -7.825 -36.191  1.00  0.00     0.000 C 
BRANCH  10  11
ATOM     11  C   UNL     1      -0.481  -9.340 -35.975  1.00  0.00    -0.000 C 
BRANCH  11  12
ATOM     12  C   UNL     1      -1.500  -9.696 -34.880  1.00  0.00    -0.000 C 
BRANCH  12  13
ATOM     13  C   UNL     1      -1.021 -10.848 -33.979  1.00  0.00    -0.000 C 
BRANCH  13  14
ATOM     14  C   UNL     1       0.187 -11.595 -34.568  1.00  0.00    -0.000 C 
BRANCH  14  15
ATOM     15  C   UNL     1       0.390 -12.982 -33.942  1.00  0.00    -0.003 C 
ATOM     16  C   UNL     1       1.861 -13.227 -33.615  1.00  0.00     0.004 C 
ENDBRANCH  14  15
ENDBRANCH  13  14
ENDBRANCH  12  13
ENDBRANCH  11  12
ENDBRANCH  10  11
ENDBRANCH   1  10
TORSDOF 12
ENDMDL
MODEL 4
REMARK VINA RESULT:    -3.411      2.863      4.499
REMARK INTER + INTRA:          -7.547
REMARK INTER:                  -6.567
REMARK INTRA:                  -0.980
REMARK UNBOUND:                -1.743
REMARK SMILES CCCCCCCCCCCCCC(=O)[O-]
REMARK SMILES IDX 8 1 9 2 10 3 11 4 12 5 13 6 14 7 15 8 16 9 7 10 6 11 5 12
REMARK SMILES IDX 4 13 3 14 2 15 1 16
REMARK H PARENT
REMARK Flexibility Score: inf
ROOT
ATOM      1  C   UNL     1      -1.658  -7.873 -39.342  1.00  0.00     0.000 C 
ENDROOT
BRANCH   1   2
ATOM      2  C   UNL     1      -0.492  -8.819 -39.670  1.00  0.00     0.000 C 
BRANCH   2   3
ATOM      3  C   UNL     1      -0.951 -10.264 -39.919  1.00  0.00     0.000 C 
BRANCH   3   4
ATOM      4  C   UNL     1       0.054 -11.067 -40.763  1.00  0.00     0.000 C 
BRANCH   4   5
ATOM      5  C   UNL     1       0.246 -10.479 -42.170  1.00  0.00     0.006 C 
BRANCH   5   6
ATOM      6  C   UNL     1       1.655  -9.913 -42.388  1.00  0.00     0.053 C 
BRANCH   6   7
ATOM      7  C   UNL     1       2.662 -11.020 -42.424  1.00  0.00     0.041 C 
ATOM      8  O   UNL     1       2.510 -11.989 -43.213  1.00  0.00    -0.550 OA
ATOM      9  O   UNL     1       3.795 -10.955 -41.622  1.00  0.00    -0.550 OA
ENDBRANCH   6   7
ENDBRANCH   5   6
ENDBRANCH   4   5
ENDBRANCH   3   4
ENDBRANCH   2   3
ENDBRANCH   1   2
BRANCH   1  10
ATOM     10  C   UNL     1      -1.264  -6.875 -38.246  1.00  0.00     0.000 C 
BRANCH  10  11
ATOM     11  C   UNL     1      -0.473  -7.571 -37.128  1.00  0.00    -0.000 C 
BRANCH  11  12
ATOM     12  C   UNL     1      -1.159  -7.461 -35.757  1.00  0.00    -0.000 C 
BRANCH  12  13
ATOM     13  C   UNL     1      -1.405  -8.834 -35.107  1.00  0.00    -0.000 C 
BRANCH  13  14
ATOM     14  C   UNL     1      -0.695  -9.975 -35.853  1.00  0.00    -0.000 C 
BRANCH  14  15
ATOM     15  C   UNL     1      -0.050 -10.995 -34.902  1.00  0.00    -0.003 C 
ATOM     16  C   UNL     1      -0.935 -11.245 -33.684  1.00  0.00     0.004 C 
ENDBRANCH  14  15
ENDBRANCH  13  14
ENDBRANCH  12  13
ENDBRANCH  11  12
ENDBRANCH  10  11
ENDBRANCH   1  10
TORSDOF 12
ENDMDL
MODEL 5
REMARK VINA RESULT:    -3.379      4.239      6.131
REMARK INTER + INTRA:          -7.493
REMARK INTER:                  -6.003
REMARK INTRA:                  -1.490
REMARK UNBOUND:                -1.743
REMARK SMILES CCCCCCCCCCCCCC(=O)[O-]
REMARK SMILES IDX 8 1 9 2 10 3 11 4 12 5 13 6 14 7 15 8 16 9 7 10 6 11 5 12
REMARK SMILES IDX 4 13 3 14 2 15 1 16
REMARK H PARENT
REMARK Flexibility Score: inf
ROOT
ATOM      1  C   UNL     1      -2.343  -8.379 -40.449  1.00  0.00     0.000 C 
ENDROOT
BRANCH   1   2
ATOM      2  C   UNL     1      -1.044  -8.392 -39.628  1.00  0.00     0.000 C 
BRANCH   2   3
ATOM      3  C   UNL     1      -1.037  -7.338 -38.510  1.00  0.00     0.000 C 
BRANCH   3   4
ATOM      4  C   UNL     1      -0.428  -7.870 -37.200  1.00  0.00     0.000 C 
BRANCH   4   5
ATOM      5  C   UNL     1      -0.973  -9.254 -36.814  1.00  0.00     0.006 C 
BRANCH   5   6
ATOM      6  C   UNL     1      -0.231  -9.871 -35.621  1.00  0.00     0.053 C 
BRANCH   6   7
ATOM      7  C   UNL     1      -1.047 -10.966 -35.010  1.00  0.00     0.041 C 
ATOM      8  O   UNL     1      -1.170 -12.070 -35.602  1.00  0.00    -0.550 OA
ATOM      9  O   UNL     1      -1.628 -10.785 -33.761  1.00  0.00    -0.550 OA
ENDBRANCH   6   7
ENDBRANCH   5   6
ENDBRANCH   4   5
ENDBRANCH   3   4
ENDBRANCH   2   3
ENDBRANCH   1   2
BRANCH   1  10
ATOM     10  C   UNL     1      -2.096  -8.888 -41.875  1.00  0.00     0.000 C 
BRANCH  10  11
ATOM     11  C   UNL     1      -0.695  -9.505 -42.004  1.00  0.00    -0.000 C 
BRANCH  11  12
ATOM     12  C   UNL     1      -0.735 -11.014 -42.294  1.00  0.00    -0.000 C 
BRANCH  12  13
ATOM     13  C   UNL     1      -2.170 -11.563 -42.373  1.00  0.00    -0.000 C 
BRANCH  13  14
ATOM     14  C   UNL     1      -2.469 -12.597 -41.276  1.00  0.00    -0.000 C 
BRANCH  14  15
ATOM     15  C   UNL     1      -1.767 -12.275 -39.949  1.00  0.00    -0.003 C 
ATOM     16  C   UNL     1      -2.756 -11.724 -38.924  1.00  0.00     0.004 C 
ENDBRANCH  14  15
ENDBRANCH  13  14
ENDBRANCH  12  13
ENDBRANCH  11  12
ENDBRANCH  10  11
ENDBRANCH   1  10
TORSDOF 12
ENDMDL
MODEL 6
REMARK VINA RESULT:    -3.372      4.391      6.817
REMARK INTER + INTRA:          -7.481
REMARK INTER:                  -6.801
REMARK INTRA:                  -0.679
REMARK UNBOUND:                -1.743
REMARK SMILES CCCCCCCCCCCCCC(=O)[O-]
REMARK SMILES IDX 8 1 9 2 10 3 11 4 12 5 13 6 14 7 15 8 16 9 7 10 6 11 5 12
REMARK SMILES IDX 4 13 3 14 2 15 1 16
REMARK H PARENT
REMARK Flexibility Score: inf
ROOT
ATOM      1  C   UNL     1      -1.192  -8.727 -39.749  1.00  0.00     0.000 C 
ENDROOT
BRANCH   1   2
ATOM      2  C   UNL     1      -1.142  -7.452 -38.894  1.00  0.00     0.000 C 
BRANCH   2   3
ATOM      3  C   UNL     1      -0.436  -7.667 -37.546  1.00  0.00     0.000 C 
BRANCH   3   4
ATOM      4  C   UNL     1      -1.326  -7.299 -36.346  1.00  0.00     0.000 C 
BRANCH   4   5
ATOM      5  C   UNL     1      -1.292  -8.362 -35.237  1.00  0.00     0.006 C 
BRANCH   5   6
ATOM      6  C   UNL     1      -0.482  -9.604 -35.633  1.00  0.00     0.053 C 
BRANCH   6   7
ATOM      7  C   UNL     1      -0.779 -10.738 -34.702  1.00  0.00     0.041 C 
ATOM      8  O   UNL     1      -1.937 -10.885 -34.232  1.00  0.00    -0.550 OA
ATOM      9  O   UNL     1       0.212 -11.663 -34.396  1.00  0.00    -0.550 OA
ENDBRANCH   6   7
ENDBRANCH   5   6
ENDBRANCH   4   5
ENDBRANCH   3   4
ENDBRANCH   2   3
ENDBRANCH   1   2
BRANCH   1  10
ATOM     10  C   UNL     1      -2.203  -8.582 -40.894  1.00  0.00     0.000 C 
BRANCH  10  11
ATOM     11  C   UNL     1      -1.550  -8.898 -42.248  1.00  0.00    -0.000 C 
BRANCH  11  12
ATOM     12  C   UNL     1      -0.361  -9.864 -42.123  1.00  0.00    -0.000 C 
BRANCH  12  13
ATOM     13  C   UNL     1       0.938  -9.280 -42.704  1.00  0.00    -0.000 C 
BRANCH  13  14
ATOM     14  C   UNL     1       1.937 -10.368 -43.129  1.00  0.00    -0.000 C 
BRANCH  14  15
ATOM     15  C   UNL     1       2.746 -10.926 -41.949  1.00  0.00    -0.003 C 
ATOM     16  C   UNL     1       2.354 -12.371 -41.649  1.00  0.00     0.004 C 
ENDBRANCH  14  15
ENDBRANCH  13  14
ENDBRANCH  12  13
ENDBRANCH  11  12
ENDBRANCH  10  11
ENDBRANCH   1  10
TORSDOF 12
ENDMDL
MODEL 7
REMARK VINA RESULT:    -3.336      1.863      3.737
REMARK INTER + INTRA:          -7.420
REMARK INTER:                  -5.606
REMARK INTRA:                  -1.815
REMARK UNBOUND:                -1.743
REMARK SMILES CCCCCCCCCCCCCC(=O)[O-]
REMARK SMILES IDX 8 1 9 2 10 3 11 4 12 5 13 6 14 7 15 8 16 9 7 10 6 11 5 12
REMARK SMILES IDX 4 13 3 14 2 15 1 16
REMARK H PARENT
REMARK Flexibility Score: inf
ROOT
ATOM      1  C   UNL     1      -2.570  -8.421 -42.085  1.00  0.00     0.000 C 
ENDROOT
BRANCH   1   2
ATOM      2  C   UNL     1      -2.753  -8.686 -40.582  1.00  0.00     0.000 C 
BRANCH   2   3
ATOM      3  C   UNL     1      -1.423  -8.689 -39.813  1.00  0.00     0.000 C 
BRANCH   3   4
ATOM      4  C   UNL     1      -0.973 -10.105 -39.414  1.00  0.00     0.000 C 
BRANCH   4   5
ATOM      5  C   UNL     1      -0.087 -10.766 -40.481  1.00  0.00     0.006 C 
BRANCH   5   6
ATOM      6  C   UNL     1       0.870  -9.773 -41.155  1.00  0.00     0.053 C 
BRANCH   6   7
ATOM      7  C   UNL     1       0.963 -10.052 -42.622  1.00  0.00     0.041 C 
ATOM      8  O   UNL     1       1.293  -9.137 -43.421  1.00  0.00    -0.550 OA
ATOM      9  O   UNL     1       0.737 -11.337 -43.100  1.00  0.00    -0.550 OA
ENDBRANCH   6   7
ENDBRANCH   5   6
ENDBRANCH   4   5
ENDBRANCH   3   4
ENDBRANCH   2   3
ENDBRANCH   1   2
BRANCH   1  10
ATOM     10  C   UNL     1      -3.910  -8.081 -42.749  1.00  0.00     0.000 C 
BRANCH  10  11
ATOM     11  C   UNL     1      -4.187  -9.013 -43.938  1.00  0.00    -0.000 C 
BRANCH  11  12
ATOM     12  C   UNL     1      -5.460  -9.855 -43.749  1.00  0.00    -0.000 C 
BRANCH  12  13
ATOM     13  C   UNL     1      -5.154 -11.298 -43.311  1.00  0.00    -0.000 C 
BRANCH  13  14
ATOM     14  C   UNL     1      -5.036 -11.440 -41.785  1.00  0.00    -0.000 C 
BRANCH  14  15
ATOM     15  C   UNL     1      -3.769 -12.193 -41.355  1.00  0.00    -0.003 C 
ATOM     16  C   UNL     1      -2.711 -12.161 -42.456  1.00  0.00     0.004 C 
ENDBRANCH  14  15
ENDBRANCH  13  14
ENDBRANCH  12  13
ENDBRANCH  11  12
ENDBRANCH  10  11
ENDBRANCH   1  10
TORSDOF 12
ENDMDL
MODEL 8
REMARK VINA RESULT:    -3.314      1.552      2.720
REMARK INTER + INTRA:          -7.382
REMARK INTER:                  -6.172
REMARK INTRA:                  -1.210
REMARK UNBOUND:                -1.743
REMARK SMILES CCCCCCCCCCCCCC(=O)[O-]
REMARK SMILES IDX 8 1 9 2 10 3 11 4 12 5 13 6 14 7 15 8 16 9 7 10 6 11 5 12
REMARK SMILES IDX 4 13 3 14 2 15 1 16
REMARK H PARENT
REMARK Flexibility Score: inf
ROOT
ATOM      1  C   UNL     1      -2.559 -10.554 -40.411  1.00  0.00     0.000 C 
ENDROOT
BRANCH   1   2
ATOM      2  C   UNL     1      -2.425 -11.468 -41.639  1.00  0.00     0.000 C 
BRANCH   2   3
ATOM      3  C   UNL     1      -1.080 -11.298 -42.363  1.00  0.00     0.000 C 
BRANCH   3   4
ATOM      4  C   UNL     1       0.080 -11.010 -41.395  1.00  0.00     0.000 C 
BRANCH   4   5
ATOM      5  C   UNL     1       0.833  -9.716 -41.744  1.00  0.00     0.006 C 
BRANCH   5   6
ATOM      6  C   UNL     1       1.618  -9.825 -43.058  1.00  0.00     0.053 C 
BRANCH   6   7
ATOM      7  C   UNL     1       2.573 -10.976 -43.001  1.00  0.00     0.041 C 
ATOM      8  O   UNL     1       3.535 -10.961 -42.189  1.00  0.00    -0.550 OA
ATOM      9  O   UNL     1       2.370 -12.088 -43.809  1.00  0.00    -0.550 OA
ENDBRANCH   6   7
ENDBRANCH   5   6
ENDBRANCH   4   5
ENDBRANCH   3   4
ENDBRANCH   2   3
ENDBRANCH   1   2
BRANCH   1  10
ATOM     10  C   UNL     1      -3.563  -9.425 -40.674  1.00  0.00     0.000 C 
BRANCH  10  11
ATOM     11  C   UNL     1      -2.946  -8.055 -40.355  1.00  0.00    -0.000 C 
BRANCH  11  12
ATOM     12  C   UNL     1      -1.562  -8.166 -39.696  1.00  0.00    -0.000 C 
BRANCH  12  13
ATOM     13  C   UNL     1      -1.436  -7.292 -38.436  1.00  0.00    -0.000 C 
BRANCH  13  14
ATOM     14  C   UNL     1      -0.238  -7.690 -37.558  1.00  0.00    -0.000 C 
BRANCH  14  15
ATOM     15  C   UNL     1      -0.662  -8.367 -36.246  1.00  0.00    -0.003 C 
ATOM     16  C   UNL     1      -0.951  -9.850 -36.463  1.00  0.00     0.004 C 
ENDBRANCH  14  15
ENDBRANCH  13  14
ENDBRANCH  12  13
ENDBRANCH  11  12
ENDBRANCH  10  11
ENDBRANCH   1  10
TORSDOF 12
ENDMDL
MODEL 9
REMARK VINA RESULT:    -3.312      1.408      3.064
REMARK INTER + INTRA:          -7.379
REMARK INTER:                  -5.512
REMARK INTRA:                  -1.867
REMARK UNBOUND:                -1.743
REMARK SMILES CCCCCCCCCCCCCC(=O)[O-]
REMARK SMILES IDX 8 1 9 2 10 3 11 4 12 5 13 6 14 7 15 8 16 9 7 10 6 11 5 12
REMARK SMILES IDX 4 13 3 14 2 15 1 16
REMARK H PARENT
REMARK Flexibility Score: inf
ROOT
ATOM      1  C   UNL     1      -2.227  -8.447 -41.730  1.00  0.00     0.000 C 
ENDROOT
BRANCH   1   2
ATOM      2  C   UNL     1      -1.956  -8.562 -40.222  1.00  0.00     0.000 C 
BRANCH   2   3
ATOM      3  C   UNL     1      -0.652  -9.311 -39.907  1.00  0.00     0.000 C 
BRANCH   3   4
ATOM      4  C   UNL     1       0.240  -9.492 -41.147  1.00  0.00     0.000 C 
BRANCH   4   5
ATOM      5  C   UNL     1       0.698 -10.947 -41.339  1.00  0.00     0.006 C 
BRANCH   5   6
ATOM      6  C   UNL     1       0.624 -11.403 -42.802  1.00  0.00     0.053 C 
BRANCH   6   7
ATOM      7  C   UNL     1       1.996 -11.690 -43.328  1.00  0.00     0.041 C 
ATOM      8  O   UNL     1       2.154 -12.513 -44.268  1.00  0.00    -0.550 OA
ATOM      9  O   UNL     1       3.093 -11.010 -42.815  1.00  0.00    -0.550 OA
ENDBRANCH   6   7
ENDBRANCH   5   6
ENDBRANCH   4   5
ENDBRANCH   3   4
ENDBRANCH   2   3
ENDBRANCH   1   2
BRANCH   1  10
ATOM     10  C   UNL     1      -3.705  -8.711 -42.045  1.00  0.00     0.000 C 
BRANCH  10  11
ATOM     11  C   UNL     1      -3.851  -9.680 -43.227  1.00  0.00    -0.000 C 
BRANCH  11  12
ATOM     12  C   UNL     1      -4.351 -11.070 -42.798  1.00  0.00    -0.000 C 
BRANCH  12  13
ATOM     13  C   UNL     1      -3.208 -11.995 -42.347  1.00  0.00    -0.000 C 
BRANCH  13  14
ATOM     14  C   UNL     1      -3.205 -12.235 -40.829  1.00  0.00    -0.000 C 
BRANCH  14  15
ATOM     15  C   UNL     1      -1.996 -13.056 -40.359  1.00  0.00    -0.003 C 
ATOM     16  C   UNL     1      -1.668 -12.763 -38.897  1.00  0.00     0.004 C 
ENDBRANCH  14  15
ENDBRANCH  13  14
ENDBRANCH  12  13
ENDBRANCH  11  12
ENDBRANCH  10  11
ENDBRANCH   1  10
TORSDOF 12
ENDMDL
