MODEL 1
REMARK VINA RESULT:    -1.217      0.000      0.000
REMARK INTER + INTRA:          -2.915
REMARK INTER:                  -2.213
REMARK INTRA:                  -0.702
REMARK UNBOUND:                -0.702
REMARK SMILES CCCCCCCCCCCCCC[C@@H](C)C(=O)[O-]
REMARK SMILES IDX 9 1 10 2 11 3 12 4 13 5 14 6 15 7 16 8 17 9 18 10 19 11 8 12
REMARK SMILES IDX 7 13 6 14 5 15 4 16 3 17 2 18 1 19
REMARK H PARENT
REMARK Flexibility Score: inf
ROOT
ATOM      1  C   UNL     1      24.372  36.020  18.844  1.00  0.00     0.000 C 
ENDROOT
BRANCH   1   2
ATOM      2  C   UNL     1      23.465  35.157  19.743  1.00  0.00     0.000 C 
BRANCH   2   3
ATOM      3  C   UNL     1      22.649  35.941  20.791  1.00  0.00     0.000 C 
BRANCH   3   4
ATOM      4  C   UNL     1      23.143  37.374  21.062  1.00  0.00     0.000 C 
BRANCH   4   5
ATOM      5  C   UNL     1      22.050  38.282  21.643  1.00  0.00     0.001 C 
BRANCH   5   6
ATOM      6  C   UNL     1      22.183  38.395  23.170  1.00  0.00     0.009 C 
BRANCH   6   7
ATOM      7  C   UNL     1      23.626  38.718  23.607  1.00  0.00     0.032 C 
ATOM      8  C   UNL     1      23.914  40.215  23.455  1.00  0.00     0.014 C 
BRANCH   7   9
ATOM      9  C   UNL     1      23.875  38.296  25.031  1.00  0.00     0.044 C 
ATOM     10  O   UNL     1      23.830  37.078  25.345  1.00  0.00    -0.550 OA
ATOM     11  O   UNL     1      24.159  39.245  26.005  1.00  0.00    -0.550 OA
ENDBRANCH   7   9
ENDBRANCH   6   7
ENDBRANCH   5   6
ENDBRANCH   4   5
ENDBRANCH   3   4
ENDBRANCH   2   3
ENDBRANCH   1   2
BRANCH   1  12
ATOM     12  C   UNL     1      25.295  35.225  17.900  1.00  0.00     0.000 C 
BRANCH  12  13
ATOM     13  C   UNL     1      26.764  35.692  17.879  1.00  0.00    -0.000 C 
BRANCH  13  14
ATOM     14  C   UNL     1      26.978  37.179  18.215  1.00  0.00    -0.000 C 
BRANCH  14  15
ATOM     15  C   UNL     1      28.453  37.601  18.147  1.00  0.00    -0.000 C 
BRANCH  15  16
ATOM     16  C   UNL     1      29.231  37.076  19.364  1.00  0.00    -0.000 C 
BRANCH  16  17
ATOM     17  C   UNL     1      29.880  35.703  19.115  1.00  0.00    -0.000 C 
BRANCH  17  18
ATOM     18  C   UNL     1      31.148  35.428  19.941  1.00  0.00    -0.003 C 
ATOM     19  C   UNL     1      31.748  36.694  20.553  1.00  0.00     0.004 C 
ENDBRANCH  17  18
ENDBRANCH  16  17
ENDBRANCH  15  16
ENDBRANCH  14  15
ENDBRANCH  13  14
ENDBRANCH  12  13
ENDBRANCH   1  12
TORSDOF 14
ENDMDL
MODEL 2
REMARK VINA RESULT:    -0.536      3.039      7.546
REMARK INTER + INTRA:          -1.676
REMARK INTER:                  -1.148
REMARK INTRA:                  -0.529
REMARK UNBOUND:                -0.702
REMARK SMILES CCCCCCCCCCCCCC[C@@H](C)C(=O)[O-]
REMARK SMILES IDX 9 1 10 2 11 3 12 4 13 5 14 6 15 7 16 8 17 9 18 10 19 11 8 12
REMARK SMILES IDX 7 13 6 14 5 15 4 16 3 17 2 18 1 19
REMARK H PARENT
REMARK Flexibility Score: inf
ROOT
ATOM      1  C   UNL     1      23.713  36.595  19.572  1.00  0.00     0.000 C 
ENDROOT
BRANCH   1   2
ATOM      2  C   UNL     1      24.075  35.156  19.158  1.00  0.00     0.000 C 
BRANCH   2   3
ATOM      3  C   UNL     1      24.925  35.040  17.876  1.00  0.00     0.000 C 
BRANCH   3   4
ATOM      4  C   UNL     1      26.220  35.872  17.876  1.00  0.00     0.000 C 
BRANCH   4   5
ATOM      5  C   UNL     1      27.487  35.005  17.887  1.00  0.00     0.001 C 
BRANCH   5   6
ATOM      6  C   UNL     1      28.201  35.094  19.245  1.00  0.00     0.009 C 
BRANCH   6   7
ATOM      7  C   UNL     1      29.559  35.817  19.143  1.00  0.00     0.032 C 
ATOM      8  C   UNL     1      30.408  35.217  18.018  1.00  0.00     0.014 C 
BRANCH   7   9
ATOM      9  C   UNL     1      29.376  37.294  18.907  1.00  0.00     0.044 C 
ATOM     10  O   UNL     1      28.454  37.917  19.494  1.00  0.00    -0.550 OA
ATOM     11  O   UNL     1      30.224  37.977  18.044  1.00  0.00    -0.550 OA
ENDBRANCH   7   9
ENDBRANCH   6   7
ENDBRANCH   5   6
ENDBRANCH   4   5
ENDBRANCH   3   4
ENDBRANCH   2   3
ENDBRANCH   1   2
BRANCH   1  12
ATOM     12  C   UNL     1      22.723  36.702  20.749  1.00  0.00     0.000 C 
BRANCH  12  13
ATOM     13  C   UNL     1      22.566  38.117  21.342  1.00  0.00    -0.000 C 
BRANCH  13  14
ATOM     14  C   UNL     1      23.013  38.261  22.808  1.00  0.00    -0.000 C 
BRANCH  14  15
ATOM     15  C   UNL     1      23.847  39.525  23.057  1.00  0.00    -0.000 C 
BRANCH  15  16
ATOM     16  C   UNL     1      24.227  39.649  24.541  1.00  0.00    -0.000 C 
BRANCH  16  17
ATOM     17  C   UNL     1      23.859  38.401  25.361  1.00  0.00    -0.000 C 
BRANCH  17  18
ATOM     18  C   UNL     1      22.485  38.462  26.051  1.00  0.00    -0.003 C 
ATOM     19  C   UNL     1      22.577  38.833  27.531  1.00  0.00     0.004 C 
ENDBRANCH  17  18
ENDBRANCH  16  17
ENDBRANCH  15  16
ENDBRANCH  14  15
ENDBRANCH  13  14
ENDBRANCH  12  13
ENDBRANCH   1  12
TORSDOF 14
ENDMDL
MODEL 3
REMARK VINA RESULT:    -0.296      2.892      7.286
REMARK INTER + INTRA:          -1.241
REMARK INTER:                  -0.526
REMARK INTRA:                  -0.714
REMARK UNBOUND:                -0.702
REMARK SMILES CCCCCCCCCCCCCC[C@@H](C)C(=O)[O-]
REMARK SMILES IDX 9 1 10 2 11 3 12 4 13 5 14 6 15 7 16 8 17 9 18 10 19 11 8 12
REMARK SMILES IDX 7 13 6 14 5 15 4 16 3 17 2 18 1 19
REMARK H PARENT
REMARK Flexibility Score: inf
ROOT
ATOM      1  C   UNL     1      24.264  35.730  18.777  1.00  0.00     0.000 C 
ENDROOT
BRANCH   1   2
ATOM      2  C   UNL     1      25.741  35.293  18.742  1.00  0.00     0.000 C 
BRANCH   2   3
ATOM      3  C   UNL     1      26.662  36.175  17.875  1.00  0.00     0.000 C 
BRANCH   3   4
ATOM      4  C   UNL     1      27.170  37.457  18.560  1.00  0.00     0.000 C 
BRANCH   4   5
ATOM      5  C   UNL     1      28.601  37.830  18.143  1.00  0.00     0.001 C 
BRANCH   5   6
ATOM      6  C   UNL     1      29.588  37.592  19.296  1.00  0.00     0.009 C 
BRANCH   6   7
ATOM      7  C   UNL     1      30.522  36.394  19.026  1.00  0.00     0.032 C 
ATOM      8  C   UNL     1      31.936  36.876  18.690  1.00  0.00     0.014 C 
BRANCH   7   9
ATOM      9  C   UNL     1      30.571  35.461  20.208  1.00  0.00     0.044 C 
ATOM     10  O   UNL     1      29.511  34.959  20.661  1.00  0.00    -0.550 OA
ATOM     11  O   UNL     1      31.787  35.147  20.802  1.00  0.00    -0.550 OA
ENDBRANCH   7   9
ENDBRANCH   6   7
ENDBRANCH   5   6
ENDBRANCH   4   5
ENDBRANCH   3   4
ENDBRANCH   2   3
ENDBRANCH   1   2
BRANCH   1  12
ATOM     12  C   UNL     1      23.454  35.186  19.970  1.00  0.00     0.000 C 
BRANCH  12  13
ATOM     13  C   UNL     1      22.234  36.038  20.374  1.00  0.00    -0.000 C 
BRANCH  13  14
ATOM     14  C   UNL     1      22.370  36.770  21.721  1.00  0.00    -0.000 C 
BRANCH  14  15
ATOM     15  C   UNL     1      23.112  38.108  21.602  1.00  0.00    -0.000 C 
BRANCH  15  16
ATOM     16  C   UNL     1      22.776  39.030  22.784  1.00  0.00    -0.000 C 
BRANCH  16  17
ATOM     17  C   UNL     1      23.986  39.307  23.694  1.00  0.00    -0.000 C 
BRANCH  17  18
ATOM     18  C   UNL     1      23.992  38.523  25.019  1.00  0.00    -0.003 C 
ATOM     19  C   UNL     1      22.924  37.432  25.070  1.00  0.00     0.004 C 
ENDBRANCH  17  18
ENDBRANCH  16  17
ENDBRANCH  15  16
ENDBRANCH  14  15
ENDBRANCH  13  14
ENDBRANCH  12  13
ENDBRANCH   1  12
TORSDOF 14
ENDMDL
MODEL 4
REMARK VINA RESULT:     0.787      1.394      2.448
REMARK INTER + INTRA:           0.729
REMARK INTER:                   1.490
REMARK INTRA:                  -0.761
REMARK UNBOUND:                -0.702
REMARK SMILES CCCCCCCCCCCCCC[C@@H](C)C(=O)[O-]
REMARK SMILES IDX 9 1 10 2 11 3 12 4 13 5 14 6 15 7 16 8 17 9 18 10 19 11 8 12
REMARK SMILES IDX 7 13 6 14 5 15 4 16 3 17 2 18 1 19
REMARK H PARENT
REMARK Flexibility Score: inf
ROOT
ATOM      1  C   UNL     1      23.361  36.596  20.137  1.00  0.00     0.000 C 
ENDROOT
BRANCH   1   2
ATOM      2  C   UNL     1      22.382  36.836  21.302  1.00  0.00     0.000 C 
BRANCH   2   3
ATOM      3  C   UNL     1      22.441  38.246  21.924  1.00  0.00     0.000 C 
BRANCH   3   4
ATOM      4  C   UNL     1      23.822  38.924  21.870  1.00  0.00     0.000 C 
BRANCH   4   5
ATOM      5  C   UNL     1      24.256  39.504  23.225  1.00  0.00     0.001 C 
BRANCH   5   6
ATOM      6  C   UNL     1      23.098  39.470  24.234  1.00  0.00     0.009 C 
BRANCH   6   7
ATOM      7  C   UNL     1      23.431  38.617  25.474  1.00  0.00     0.032 C 
ATOM      8  C   UNL     1      22.361  38.797  26.556  1.00  0.00     0.014 C 
BRANCH   7   9
ATOM      9  C   UNL     1      23.552  37.159  25.119  1.00  0.00     0.044 C 
ATOM     10  O   UNL     1      24.647  36.559  25.277  1.00  0.00    -0.550 OA
ATOM     11  O   UNL     1      22.457  36.465  24.618  1.00  0.00    -0.550 OA
ENDBRANCH   7   9
ENDBRANCH   6   7
ENDBRANCH   5   6
ENDBRANCH   4   5
ENDBRANCH   3   4
ENDBRANCH   2   3
ENDBRANCH   1   2
BRANCH   1  12
ATOM     12  C   UNL     1      23.165  35.262  19.390  1.00  0.00     0.000 C 
BRANCH  12  13
ATOM     13  C   UNL     1      23.890  35.163  18.032  1.00  0.00    -0.000 C 
BRANCH  13  14
ATOM     14  C   UNL     1      25.177  35.999  17.919  1.00  0.00    -0.000 C 
BRANCH  14  15
ATOM     15  C   UNL     1      26.448  35.180  18.186  1.00  0.00    -0.000 C 
BRANCH  15  16
ATOM     16  C   UNL     1      27.707  36.002  17.875  1.00  0.00    -0.000 C 
BRANCH  16  17
ATOM     17  C   UNL     1      28.790  35.876  18.961  1.00  0.00    -0.000 C 
BRANCH  17  18
ATOM     18  C   UNL     1      29.432  37.207  19.392  1.00  0.00    -0.003 C 
ATOM     19  C   UNL     1      30.587  37.633  18.486  1.00  0.00     0.004 C 
ENDBRANCH  17  18
ENDBRANCH  16  17
ENDBRANCH  15  16
ENDBRANCH  14  15
ENDBRANCH  13  14
ENDBRANCH  12  13
ENDBRANCH   1  12
TORSDOF 14
ENDMDL
