MODEL 1
REMARK VINA RESULT:    -4.301      0.000      0.000
REMARK INTER + INTRA:          -4.427
REMARK INTER:                  -4.427
REMARK INTRA:                   0.000
REMARK UNBOUND:                 0.000
REMARK SMILES O=c1ccc2ccc(O)cc2o1
REMARK SMILES IDX 6 1 7 2 8 3 10 4 11 5 5 6 4 7 3 8 2 9 1 10 12 11 9 12
REMARK H PARENT 9 13
REMARK Flexibility Score: inf
ROOT
ATOM      1  C   UNL     1      -3.617   1.129  17.058  1.00  0.00     0.016 A 
ATOM      2  C   UNL     1      -3.315   1.518  18.367  1.00  0.00     0.047 A 
ATOM      3  C   UNL     1      -3.921   2.648  18.929  1.00  0.00     0.119 A 
ATOM      4  C   UNL     1      -4.837   3.398  18.174  1.00  0.00     0.094 A 
ATOM      5  C   UNL     1      -5.145   3.017  16.863  1.00  0.00     0.142 A 
ATOM      6  C   UNL     1      -4.530   1.875  16.301  1.00  0.00     0.018 A 
ATOM      7  C   UNL     1      -4.858   1.520  14.989  1.00  0.00     0.019 A 
ATOM      8  C   UNL     1      -5.774   2.296  14.279  1.00  0.00     0.094 A 
ATOM      9  C   UNL     1      -6.342   3.414  14.901  1.00  0.00     0.336 A 
ATOM     10  O   UNL     1      -7.172   4.125  14.275  1.00  0.00    -0.246 OA
ATOM     11  O   UNL     1      -6.014   3.729  16.151  1.00  0.00    -0.423 OA
ENDROOT
BRANCH   3  12
ATOM     12  O   UNL     1      -3.608   3.019  20.234  1.00  0.00    -0.508 OA
ATOM     13  H   UNL     1      -3.850   3.933  20.598  1.00  0.00     0.293 HD
ENDBRANCH   3  12
TORSDOF 1
ENDMDL
MODEL 2
REMARK VINA RESULT:    -4.004      0.911      4.266
REMARK INTER + INTRA:          -4.121
REMARK INTER:                  -4.121
REMARK INTRA:                   0.000
REMARK UNBOUND:                 0.000
REMARK SMILES O=c1ccc2ccc(O)cc2o1
REMARK SMILES IDX 6 1 7 2 8 3 10 4 11 5 5 6 4 7 3 8 2 9 1 10 12 11 9 12
REMARK H PARENT 9 13
REMARK Flexibility Score: inf
ROOT
ATOM      1  C   UNL     1      -4.989   1.105  15.385  1.00  0.00     0.016 A 
ATOM      2  C   UNL     1      -5.881   2.030  14.831  1.00  0.00     0.047 A 
ATOM      3  C   UNL     1      -6.208   3.202  15.525  1.00  0.00     0.119 A 
ATOM      4  C   UNL     1      -5.638   3.451  16.783  1.00  0.00     0.094 A 
ATOM      5  C   UNL     1      -4.745   2.532  17.344  1.00  0.00     0.142 A 
ATOM      6  C   UNL     1      -4.419   1.351  16.641  1.00  0.00     0.018 A 
ATOM      7  C   UNL     1      -3.523   0.452  17.228  1.00  0.00     0.019 A 
ATOM      8  C   UNL     1      -2.983   0.744  18.481  1.00  0.00     0.094 A 
ATOM      9  C   UNL     1      -3.353   1.933  19.118  1.00  0.00     0.336 A 
ATOM     10  O   UNL     1      -2.875   2.214  20.248  1.00  0.00    -0.246 OA
ATOM     11  O   UNL     1      -4.206   2.772  18.537  1.00  0.00    -0.423 OA
ENDROOT
BRANCH   3  12
ATOM     12  O   UNL     1      -7.098   4.110  14.957  1.00  0.00    -0.508 OA
ATOM     13  H   UNL     1      -6.773   4.889  14.396  1.00  0.00     0.293 HD
ENDBRANCH   3  12
TORSDOF 1
ENDMDL
MODEL 3
REMARK VINA RESULT:    -3.952      1.787      4.724
REMARK INTER + INTRA:          -4.067
REMARK INTER:                  -4.067
REMARK INTRA:                   0.000
REMARK UNBOUND:                 0.000
REMARK SMILES O=c1ccc2ccc(O)cc2o1
REMARK SMILES IDX 6 1 7 2 8 3 10 4 11 5 5 6 4 7 3 8 2 9 1 10 12 11 9 12
REMARK H PARENT 9 13
REMARK Flexibility Score: inf
ROOT
ATOM      1  C   UNL     1      -4.898   4.109  17.414  1.00  0.00     0.016 A 
ATOM      2  C   UNL     1      -5.643   4.115  16.230  1.00  0.00     0.047 A 
ATOM      3  C   UNL     1      -5.852   2.927  15.519  1.00  0.00     0.119 A 
ATOM      4  C   UNL     1      -5.311   1.723  15.995  1.00  0.00     0.094 A 
ATOM      5  C   UNL     1      -4.564   1.707  17.178  1.00  0.00     0.142 A 
ATOM      6  C   UNL     1      -4.355   2.908  17.892  1.00  0.00     0.018 A 
ATOM      7  C   UNL     1      -3.605   2.861  19.071  1.00  0.00     0.019 A 
ATOM      8  C   UNL     1      -3.086   1.640  19.504  1.00  0.00     0.094 A 
ATOM      9  C   UNL     1      -3.333   0.492  18.744  1.00  0.00     0.336 A 
ATOM     10  O   UNL     1      -2.875  -0.619  19.120  1.00  0.00    -0.246 OA
ATOM     11  O   UNL     1      -4.052   0.564  17.627  1.00  0.00    -0.423 OA
ENDROOT
BRANCH   3  12
ATOM     12  O   UNL     1      -6.597   2.952  14.343  1.00  0.00    -0.508 OA
ATOM     13  H   UNL     1      -6.393   3.611  13.601  1.00  0.00     0.293 HD
ENDBRANCH   3  12
TORSDOF 1
ENDMDL
MODEL 4
REMARK VINA RESULT:    -3.921      1.569      2.323
REMARK INTER + INTRA:          -4.036
REMARK INTER:                  -4.036
REMARK INTRA:                   0.000
REMARK UNBOUND:                 0.000
REMARK SMILES O=c1ccc2ccc(O)cc2o1
REMARK SMILES IDX 6 1 7 2 8 3 10 4 11 5 5 6 4 7 3 8 2 9 1 10 12 11 9 12
REMARK H PARENT 9 13
REMARK Flexibility Score: inf
ROOT
ATOM      1  C   UNL     1      -3.977   2.907  18.735  1.00  0.00     0.016 A 
ATOM      2  C   UNL     1      -3.382   1.713  19.156  1.00  0.00     0.047 A 
ATOM      3  C   UNL     1      -3.475   0.559  18.368  1.00  0.00     0.119 A 
ATOM      4  C   UNL     1      -4.170   0.599  17.149  1.00  0.00     0.094 A 
ATOM      5  C   UNL     1      -4.768   1.789  16.720  1.00  0.00     0.142 A 
ATOM      6  C   UNL     1      -4.671   2.951  17.519  1.00  0.00     0.018 A 
ATOM      7  C   UNL     1      -5.279   4.125  17.064  1.00  0.00     0.019 A 
ATOM      8  C   UNL     1      -5.959   4.116  15.845  1.00  0.00     0.094 A 
ATOM      9  C   UNL     1      -6.013   2.927  15.109  1.00  0.00     0.336 A 
ATOM     10  O   UNL     1      -6.621   2.900  14.006  1.00  0.00    -0.246 OA
ATOM     11  O   UNL     1      -5.425   1.824  15.564  1.00  0.00    -0.423 OA
ENDROOT
BRANCH   3  12
ATOM     12  O   UNL     1      -2.877  -0.620  18.804  1.00  0.00    -0.508 OA
ATOM     13  H   UNL     1      -3.122  -1.518  18.404  1.00  0.00     0.293 HD
ENDBRANCH   3  12
TORSDOF 1
ENDMDL
MODEL 5
REMARK VINA RESULT:    -2.311      2.103      2.830
REMARK INTER + INTRA:          -2.378
REMARK INTER:                  -2.378
REMARK INTRA:                   0.000
REMARK UNBOUND:                 0.000
REMARK SMILES O=c1ccc2ccc(O)cc2o1
REMARK SMILES IDX 6 1 7 2 8 3 10 4 11 5 5 6 4 7 3 8 2 9 1 10 12 11 9 12
REMARK H PARENT 9 13
REMARK Flexibility Score: inf
ROOT
ATOM      1  C   UNL     1      -5.187   3.637  17.247  1.00  0.00     0.016 A 
ATOM      2  C   UNL     1      -4.632   3.847  18.513  1.00  0.00     0.047 A 
ATOM      3  C   UNL     1      -3.879   2.842  19.132  1.00  0.00     0.119 A 
ATOM      4  C   UNL     1      -3.680   1.615  18.480  1.00  0.00     0.094 A 
ATOM      5  C   UNL     1      -4.232   1.396  17.213  1.00  0.00     0.142 A 
ATOM      6  C   UNL     1      -4.991   2.413  16.592  1.00  0.00     0.018 A 
ATOM      7  C   UNL     1      -5.529   2.164  15.326  1.00  0.00     0.019 A 
ATOM      8  C   UNL     1      -5.305   0.928  14.718  1.00  0.00     0.094 A 
ATOM      9  C   UNL     1      -4.543  -0.031  15.394  1.00  0.00     0.336 A 
ATOM     10  O   UNL     1      -4.329  -1.151  14.860  1.00  0.00    -0.246 OA
ATOM     11  O   UNL     1      -4.041   0.232  16.597  1.00  0.00    -0.423 OA
ENDROOT
BRANCH   3  12
ATOM     12  O   UNL     1      -3.334   3.071  20.393  1.00  0.00    -0.508 OA
ATOM     13  H   UNL     1      -2.334   3.034  20.552  1.00  0.00     0.293 HD
ENDBRANCH   3  12
TORSDOF 1
ENDMDL
MODEL 6
REMARK VINA RESULT:    -2.299      3.356      6.325
REMARK INTER + INTRA:          -2.366
REMARK INTER:                  -2.366
REMARK INTRA:                   0.000
REMARK UNBOUND:                 0.000
REMARK SMILES O=c1ccc2ccc(O)cc2o1
REMARK SMILES IDX 6 1 7 2 8 3 10 4 11 5 5 6 4 7 3 8 2 9 1 10 12 11 9 12
REMARK H PARENT 9 13
REMARK Flexibility Score: inf
ROOT
ATOM      1  C   UNL     1      -2.924   2.488  19.980  1.00  0.00     0.016 A 
ATOM      2  C   UNL     1      -2.947   2.603  18.587  1.00  0.00     0.047 A 
ATOM      3  C   UNL     1      -2.958   1.457  17.782  1.00  0.00     0.119 A 
ATOM      4  C   UNL     1      -2.946   0.185  18.375  1.00  0.00     0.094 A 
ATOM      5  C   UNL     1      -2.922   0.061  19.768  1.00  0.00     0.142 A 
ATOM      6  C   UNL     1      -2.911   1.219  20.577  1.00  0.00     0.018 A 
ATOM      7  C   UNL     1      -2.887   1.063  21.966  1.00  0.00     0.019 A 
ATOM      8  C   UNL     1      -2.875  -0.222  22.510  1.00  0.00     0.094 A 
ATOM      9  C   UNL     1      -2.887  -1.324  21.646  1.00  0.00     0.336 A 
ATOM     10  O   UNL     1      -2.878  -2.490  22.119  1.00  0.00    -0.246 OA
ATOM     11  O   UNL     1      -2.911  -1.147  20.328  1.00  0.00    -0.423 OA
ENDROOT
BRANCH   3  12
ATOM     12  O   UNL     1      -2.982   1.592  16.396  1.00  0.00    -0.508 OA
ATOM     13  H   UNL     1      -2.831   0.798  15.784  1.00  0.00     0.293 HD
ENDBRANCH   3  12
TORSDOF 1
ENDMDL
MODEL 7
REMARK VINA RESULT:    -2.103      3.235      4.721
REMARK INTER + INTRA:          -2.165
REMARK INTER:                  -2.165
REMARK INTRA:                   0.000
REMARK UNBOUND:                 0.000
REMARK SMILES O=c1ccc2ccc(O)cc2o1
REMARK SMILES IDX 6 1 7 2 8 3 10 4 11 5 5 6 4 7 3 8 2 9 1 10 12 11 9 12
REMARK H PARENT 9 13
REMARK Flexibility Score: inf
ROOT
ATOM      1  C   UNL     1      -2.906  -0.989  20.958  1.00  0.00     0.016 A 
ATOM      2  C   UNL     1      -2.900  -0.748  22.336  1.00  0.00     0.047 A 
ATOM      3  C   UNL     1      -2.893   0.564  22.825  1.00  0.00     0.119 A 
ATOM      4  C   UNL     1      -2.890   1.644  21.929  1.00  0.00     0.094 A 
ATOM      5  C   UNL     1      -2.895   1.412  20.549  1.00  0.00     0.142 A 
ATOM      6  C   UNL     1      -2.902   0.087  20.060  1.00  0.00     0.018 A 
ATOM      7  C   UNL     1      -2.907  -0.113  18.676  1.00  0.00     0.019 A 
ATOM      8  C   UNL     1      -2.903   0.992  17.825  1.00  0.00     0.094 A 
ATOM      9  C   UNL     1      -2.895   2.276  18.382  1.00  0.00     0.336 A 
ATOM     10  O   UNL     1      -2.893   3.286  17.630  1.00  0.00    -0.246 OA
ATOM     11  O   UNL     1      -2.892   2.439  19.702  1.00  0.00    -0.423 OA
ENDROOT
BRANCH   3  12
ATOM     12  O   UNL     1      -2.889   0.784  24.200  1.00  0.00    -0.508 OA
ATOM     13  H   UNL     1      -2.790   1.715  24.587  1.00  0.00     0.293 HD
ENDBRANCH   3  12
TORSDOF 1
ENDMDL
MODEL 8
REMARK VINA RESULT:    -1.744      1.779      4.792
REMARK INTER + INTRA:          -1.795
REMARK INTER:                  -1.795
REMARK INTRA:                   0.000
REMARK UNBOUND:                 0.000
REMARK SMILES O=c1ccc2ccc(O)cc2o1
REMARK SMILES IDX 6 1 7 2 8 3 10 4 11 5 5 6 4 7 3 8 2 9 1 10 12 11 9 12
REMARK H PARENT 9 13
REMARK Flexibility Score: inf
ROOT
ATOM      1  C   UNL     1      -3.713   0.394  16.580  1.00  0.00     0.016 A 
ATOM      2  C   UNL     1      -3.921   1.454  15.692  1.00  0.00     0.047 A 
ATOM      3  C   UNL     1      -3.910   2.777  16.152  1.00  0.00     0.119 A 
ATOM      4  C   UNL     1      -3.692   3.042  17.513  1.00  0.00     0.094 A 
ATOM      5  C   UNL     1      -3.484   1.987  18.409  1.00  0.00     0.142 A 
ATOM      6  C   UNL     1      -3.495   0.655  17.940  1.00  0.00     0.018 A 
ATOM      7  C   UNL     1      -3.283  -0.377  18.859  1.00  0.00     0.019 A 
ATOM      8  C   UNL     1      -3.071  -0.064  20.202  1.00  0.00     0.094 A 
ATOM      9  C   UNL     1      -3.074   1.279  20.594  1.00  0.00     0.336 A 
ATOM     10  O   UNL     1      -2.883   1.580  21.801  1.00  0.00    -0.246 OA
ATOM     11  O   UNL     1      -3.276   2.242  19.699  1.00  0.00    -0.423 OA
ENDROOT
BRANCH   3  12
ATOM     12  O   UNL     1      -4.119   3.819  15.252  1.00  0.00    -0.508 OA
ATOM     13  H   UNL     1      -4.972   4.364  15.262  1.00  0.00     0.293 HD
ENDBRANCH   3  12
TORSDOF 1
ENDMDL
