MODEL 1
REMARK VINA RESULT:    -1.789      0.000      0.000
REMARK INTER + INTRA:          -2.196
REMARK INTER:                  -1.946
REMARK INTRA:                  -0.250
REMARK UNBOUND:                -0.250
REMARK SMILES O=C([O-])c1ccccc1O
REMARK SMILES IDX 4 1 9 2 5 3 8 4 6 5 7 6 2 7 1 8 3 9 10 10
REMARK H PARENT 10 11
REMARK Flexibility Score: inf
ROOT
ATOM      1  C   UNL     1      28.861 -10.213  16.695  1.00  0.00     0.039 A 
ATOM      2  C   UNL     1      30.104 -10.667  17.196  1.00  0.00     0.124 A 
ATOM      3  C   UNL     1      28.676 -10.146  15.299  1.00  0.00     0.014 A 
ATOM      4  C   UNL     1      31.125 -11.039  16.307  1.00  0.00     0.047 A 
ATOM      5  C   UNL     1      29.700 -10.520  14.426  1.00  0.00     0.001 A 
ATOM      6  C   UNL     1      30.923 -10.966  14.928  1.00  0.00     0.004 A 
ENDROOT
BRANCH   1   7
ATOM      7  C   UNL     1      27.755  -9.808  17.600  1.00  0.00     0.075 C 
ATOM      8  O   UNL     1      27.364 -10.584  18.513  1.00  0.00    -0.545 OA
ATOM      9  O   UNL     1      27.129  -8.575  17.464  1.00  0.00    -0.545 OA
ENDBRANCH   1   7
BRANCH   2  10
ATOM     10  O   UNL     1      30.333 -10.749  18.570  1.00  0.00    -0.507 OA
ATOM     11  H   UNL     1      30.965 -11.435  18.965  1.00  0.00     0.293 HD
ENDBRANCH   2  10
TORSDOF 2
ENDMDL
MODEL 2
REMARK VINA RESULT:    -1.636      2.200      2.794
REMARK INTER + INTRA:          -2.030
REMARK INTER:                  -1.786
REMARK INTRA:                  -0.244
REMARK UNBOUND:                -0.250
REMARK SMILES O=C([O-])c1ccccc1O
REMARK SMILES IDX 4 1 9 2 5 3 8 4 6 5 7 6 2 7 1 8 3 9 10 10
REMARK H PARENT 10 11
REMARK Flexibility Score: inf
ROOT
ATOM      1  C   UNL     1      30.717  -8.782  17.323  1.00  0.00     0.039 A 
ATOM      2  C   UNL     1      30.511 -10.144  17.646  1.00  0.00     0.124 A 
ATOM      3  C   UNL     1      30.982  -8.435  15.983  1.00  0.00     0.014 A 
ATOM      4  C   UNL     1      30.574 -11.120  16.638  1.00  0.00     0.047 A 
ATOM      5  C   UNL     1      31.042  -9.417  14.990  1.00  0.00     0.001 A 
ATOM      6  C   UNL     1      30.838 -10.757  15.317  1.00  0.00     0.004 A 
ENDROOT
BRANCH   1   7
ATOM      7  C   UNL     1      30.660  -7.717  18.357  1.00  0.00     0.075 C 
ATOM      8  O   UNL     1      30.183  -6.584  18.078  1.00  0.00    -0.545 OA
ATOM      9  O   UNL     1      31.125  -7.942  19.647  1.00  0.00    -0.545 OA
ENDBRANCH   1   7
BRANCH   2  10
ATOM     10  O   UNL     1      30.245 -10.535  18.958  1.00  0.00    -0.507 OA
ATOM     11  H   UNL     1      30.915 -11.067  19.502  1.00  0.00     0.293 HD
ENDBRANCH   2  10
TORSDOF 2
ENDMDL
MODEL 3
REMARK VINA RESULT:    -1.633      2.785      3.929
REMARK INTER + INTRA:          -2.027
REMARK INTER:                  -1.776
REMARK INTRA:                  -0.251
REMARK UNBOUND:                -0.250
REMARK SMILES O=C([O-])c1ccccc1O
REMARK SMILES IDX 4 1 9 2 5 3 8 4 6 5 7 6 2 7 1 8 3 9 10 10
REMARK H PARENT 10 11
REMARK Flexibility Score: inf
ROOT
ATOM      1  C   UNL     1      30.270  -9.716  19.853  1.00  0.00     0.039 A 
ATOM      2  C   UNL     1      29.028 -10.379  19.709  1.00  0.00     0.124 A 
ATOM      3  C   UNL     1      31.125  -9.628  18.736  1.00  0.00     0.014 A 
ATOM      4  C   UNL     1      28.669 -10.934  18.470  1.00  0.00     0.047 A 
ATOM      5  C   UNL     1      30.755 -10.184  17.509  1.00  0.00     0.001 A 
ATOM      6  C   UNL     1      29.529 -10.836  17.376  1.00  0.00     0.004 A 
ENDROOT
BRANCH   1   7
ATOM      7  C   UNL     1      30.690  -9.115  21.145  1.00  0.00     0.075 C 
ATOM      8  O   UNL     1      30.662  -9.798  22.203  1.00  0.00    -0.545 OA
ATOM      9  O   UNL     1      31.121  -7.796  21.217  1.00  0.00    -0.545 OA
ENDBRANCH   1   7
BRANCH   2  10
ATOM     10  O   UNL     1      28.149 -10.491  20.787  1.00  0.00    -0.507 OA
ATOM     11  H   UNL     1      27.806  -9.676  21.281  1.00  0.00     0.293 HD
ENDBRANCH   2  10
TORSDOF 2
ENDMDL
MODEL 4
REMARK VINA RESULT:    -1.567      2.130      3.025
REMARK INTER + INTRA:          -1.954
REMARK INTER:                  -1.699
REMARK INTRA:                  -0.255
REMARK UNBOUND:                -0.250
REMARK SMILES O=C([O-])c1ccccc1O
REMARK SMILES IDX 4 1 9 2 5 3 8 4 6 5 7 6 2 7 1 8 3 9 10 10
REMARK H PARENT 10 11
REMARK Flexibility Score: inf
ROOT
ATOM      1  C   UNL     1      28.735 -10.219  19.400  1.00  0.00     0.039 A 
ATOM      2  C   UNL     1      30.076 -10.083  18.971  1.00  0.00     0.124 A 
ATOM      3  C   UNL     1      27.720 -10.325  18.428  1.00  0.00     0.014 A 
ATOM      4  C   UNL     1      30.374 -10.055  17.600  1.00  0.00     0.047 A 
ATOM      5  C   UNL     1      28.030 -10.297  17.067  1.00  0.00     0.001 A 
ATOM      6  C   UNL     1      29.355 -10.162  16.653  1.00  0.00     0.004 A 
ENDROOT
BRANCH   1   7
ATOM      7  C   UNL     1      28.375 -10.252  20.841  1.00  0.00     0.075 C 
ATOM      8  O   UNL     1      27.402  -9.575  21.270  1.00  0.00    -0.545 OA
ATOM      9  O   UNL     1      29.094 -11.026  21.744  1.00  0.00    -0.545 OA
ENDBRANCH   1   7
BRANCH   2  10
ATOM     10  O   UNL     1      31.114  -9.974  19.897  1.00  0.00    -0.507 OA
ATOM     11  H   UNL     1      32.084 -10.091  19.627  1.00  0.00     0.293 HD
ENDBRANCH   2  10
TORSDOF 2
ENDMDL
MODEL 5
REMARK VINA RESULT:    -1.559      1.984      3.346
REMARK INTER + INTRA:          -1.946
REMARK INTER:                  -1.695
REMARK INTRA:                  -0.251
REMARK UNBOUND:                -0.250
REMARK SMILES O=C([O-])c1ccccc1O
REMARK SMILES IDX 4 1 9 2 5 3 8 4 6 5 7 6 2 7 1 8 3 9 10 10
REMARK H PARENT 10 11
REMARK Flexibility Score: inf
ROOT
ATOM      1  C   UNL     1      28.977 -10.035  16.950  1.00  0.00     0.039 A 
ATOM      2  C   UNL     1      29.265 -10.437  18.276  1.00  0.00     0.124 A 
ATOM      3  C   UNL     1      27.633 -10.004  16.528  1.00  0.00     0.014 A 
ATOM      4  C   UNL     1      28.220 -10.796  19.142  1.00  0.00     0.047 A 
ATOM      5  C   UNL     1      26.603 -10.364  17.400  1.00  0.00     0.001 A 
ATOM      6  C   UNL     1      26.896 -10.759  18.705  1.00  0.00     0.004 A 
ENDROOT
BRANCH   1   7
ATOM      7  C   UNL     1      30.052  -9.647  16.001  1.00  0.00     0.075 C 
ATOM      8  O   UNL     1      31.068 -10.378  15.856  1.00  0.00    -0.545 OA
ATOM      9  O   UNL     1      29.963  -8.479  15.253  1.00  0.00    -0.545 OA
ENDBRANCH   1   7
BRANCH   2  10
ATOM     10  O   UNL     1      30.581 -10.483  18.739  1.00  0.00    -0.507 OA
ATOM     11  H   UNL     1      31.361 -10.633  18.111  1.00  0.00     0.293 HD
ENDBRANCH   2  10
TORSDOF 2
ENDMDL
MODEL 6
REMARK VINA RESULT:    -1.557      2.238      4.319
REMARK INTER + INTRA:          -1.943
REMARK INTER:                  -1.689
REMARK INTRA:                  -0.254
REMARK UNBOUND:                -0.250
REMARK SMILES O=C([O-])c1ccccc1O
REMARK SMILES IDX 4 1 9 2 5 3 8 4 6 5 7 6 2 7 1 8 3 9 10 10
REMARK H PARENT 10 11
REMARK Flexibility Score: inf
ROOT
ATOM      1  C   UNL     1      28.931 -10.520  18.506  1.00  0.00     0.039 A 
ATOM      2  C   UNL     1      27.868 -10.361  17.586  1.00  0.00     0.124 A 
ATOM      3  C   UNL     1      28.632 -10.902  19.829  1.00  0.00     0.014 A 
ATOM      4  C   UNL     1      26.545 -10.581  18.000  1.00  0.00     0.047 A 
ATOM      5  C   UNL     1      27.310 -11.119  20.227  1.00  0.00     0.001 A 
ATOM      6  C   UNL     1      26.268 -10.959  19.314  1.00  0.00     0.004 A 
ENDROOT
BRANCH   1   7
ATOM      7  C   UNL     1      30.346 -10.296  18.112  1.00  0.00     0.075 C 
ATOM      8  O   UNL     1      31.124  -9.656  18.869  1.00  0.00    -0.545 OA
ATOM      9  O   UNL     1      30.843 -10.785  16.909  1.00  0.00    -0.545 OA
ENDBRANCH   1   7
BRANCH   2  10
ATOM     10  O   UNL     1      28.116  -9.984  16.266  1.00  0.00    -0.507 OA
ATOM     11  H   UNL     1      28.845  -9.321  16.029  1.00  0.00     0.293 HD
ENDBRANCH   2  10
TORSDOF 2
ENDMDL
MODEL 7
REMARK VINA RESULT:    -1.502      3.255      4.577
REMARK INTER + INTRA:          -1.884
REMARK INTER:                  -1.631
REMARK INTRA:                  -0.252
REMARK UNBOUND:                -0.250
REMARK SMILES O=C([O-])c1ccccc1O
REMARK SMILES IDX 4 1 9 2 5 3 8 4 6 5 7 6 2 7 1 8 3 9 10 10
REMARK H PARENT 10 11
REMARK Flexibility Score: inf
ROOT
ATOM      1  C   UNL     1      29.300 -10.437  19.771  1.00  0.00     0.039 A 
ATOM      2  C   UNL     1      30.474  -9.653  19.863  1.00  0.00     0.124 A 
ATOM      3  C   UNL     1      28.730 -10.945  20.956  1.00  0.00     0.014 A 
ATOM      4  C   UNL     1      31.049  -9.396  21.118  1.00  0.00     0.047 A 
ATOM      5  C   UNL     1      29.312 -10.682  22.198  1.00  0.00     0.001 A 
ATOM      6  C   UNL     1      30.470  -9.909  22.279  1.00  0.00     0.004 A 
ENDROOT
BRANCH   1   7
ATOM      7  C   UNL     1      28.658 -10.734  18.465  1.00  0.00     0.075 C 
ATOM      8  O   UNL     1      27.404 -10.697  18.349  1.00  0.00    -0.545 OA
ATOM      9  O   UNL     1      29.419 -11.054  17.347  1.00  0.00    -0.545 OA
ENDBRANCH   1   7
BRANCH   2  10
ATOM     10  O   UNL     1      31.074  -9.128  18.717  1.00  0.00    -0.507 OA
ATOM     11  H   UNL     1      30.870  -9.493  17.795  1.00  0.00     0.293 HD
ENDBRANCH   2  10
TORSDOF 2
ENDMDL
MODEL 8
REMARK VINA RESULT:    -1.495      2.893      4.355
REMARK INTER + INTRA:          -1.876
REMARK INTER:                  -1.621
REMARK INTRA:                  -0.254
REMARK UNBOUND:                -0.250
REMARK SMILES O=C([O-])c1ccccc1O
REMARK SMILES IDX 4 1 9 2 5 3 8 4 6 5 7 6 2 7 1 8 3 9 10 10
REMARK H PARENT 10 11
REMARK Flexibility Score: inf
ROOT
ATOM      1  C   UNL     1      30.089 -10.251  13.490  1.00  0.00     0.039 A 
ATOM      2  C   UNL     1      28.781 -10.521  13.023  1.00  0.00     0.124 A 
ATOM      3  C   UNL     1      31.125 -10.087  12.549  1.00  0.00     0.014 A 
ATOM      4  C   UNL     1      28.537 -10.623  11.644  1.00  0.00     0.047 A 
ATOM      5  C   UNL     1      30.868 -10.190  11.180  1.00  0.00     0.001 A 
ATOM      6  C   UNL     1      29.576 -10.457  10.728  1.00  0.00     0.004 A 
ENDROOT
BRANCH   1   7
ATOM      7  C   UNL     1      30.392 -10.136  14.940  1.00  0.00     0.075 C 
ATOM      8  O   UNL     1      31.125  -9.203  15.365  1.00  0.00    -0.545 OA
ATOM      9  O   UNL     1      29.877 -11.045  15.856  1.00  0.00    -0.545 OA
ENDBRANCH   1   7
BRANCH   2  10
ATOM     10  O   UNL     1      27.723 -10.691  13.917  1.00  0.00    -0.507 OA
ATOM     11  H   UNL     1      27.237  -9.900  14.323  1.00  0.00     0.293 HD
ENDBRANCH   2  10
TORSDOF 2
ENDMDL
