MODEL 1
REMARK VINA RESULT:    28.687      0.000      0.000
REMARK INTER + INTRA:          49.578
REMARK INTER:                  42.104
REMARK INTRA:                   7.475
REMARK UNBOUND:                 7.475
REMARK SMILES Cc1cc2c(C(C)C)c(O)c(O)c(C=O)c2c(O)c1-c1c(C)cc2c(C(C)C)c(O)c(O)c(C=O)c2c1O
REMARK SMILES IDX 1 1 2 2 3 3 4 4 16 5 13 6 11 7 9 8 5 9 17 10 19 11 20 12
REMARK SMILES IDX 37 13 21 14 36 15 23 16 22 17 24 18 33 19 25 20 31 21 29 22
REMARK SMILES IDX 38 23 34 25 35 26 26 27 27 28 28 29 32 30 30 32 18 34 6 36
REMARK SMILES IDX 7 37 8 38 14 39 15 40 10 41 12 43
REMARK H PARENT 38 24 32 31 30 33 18 35 10 42 12 44
REMARK Flexibility Score: inf
ROOT
ATOM      1  C   UNL     1     -10.150   0.334   8.349  1.00  0.00     0.045 C 
ATOM      2  C   UNL     1      -9.467  -0.940   7.913  1.00  0.00    -0.039 A 
ATOM      3  C   UNL     1      -8.416  -0.876   6.999  1.00  0.00     0.013 A 
ATOM      4  C   UNL     1      -7.723  -2.031   6.574  1.00  0.00    -0.006 A 
ATOM      5  C   UNL     1      -8.180  -3.311   7.019  1.00  0.00     0.039 A 
ATOM      6  C   UNL     1      -7.553  -4.485   6.499  1.00  0.00     0.072 A 
ATOM      7  C   UNL     1      -6.558  -4.370   5.507  1.00  0.00     0.169 A 
ATOM      8  C   UNL     1      -6.125  -3.112   5.077  1.00  0.00     0.162 A 
ATOM      9  C   UNL     1      -6.607  -1.933   5.685  1.00  0.00     0.008 A 
ATOM     10  C   UNL     1      -9.274  -3.372   7.937  1.00  0.00     0.132 A 
ATOM     11  C   UNL     1      -9.895  -2.189   8.390  1.00  0.00     0.031 A 
ENDROOT
BRANCH  11  12
ATOM     12  C   UNL     1     -11.029  -2.257   9.350  1.00  0.00     0.031 A 
ATOM     13  C   UNL     1     -11.117  -3.326  10.266  1.00  0.00     0.132 A 
ATOM     14  C   UNL     1     -12.032  -1.275   9.317  1.00  0.00    -0.039 A 
ATOM     15  C   UNL     1     -12.174  -3.375  11.223  1.00  0.00     0.039 A 
ATOM     16  C   UNL     1     -13.118  -1.371  10.188  1.00  0.00     0.013 A 
ATOM     17  C   UNL     1     -12.006  -0.166   8.292  1.00  0.00     0.045 C 
ATOM     18  C   UNL     1     -13.199  -2.381  11.173  1.00  0.00    -0.006 A 
ATOM     19  C   UNL     1     -12.266  -4.411  12.199  1.00  0.00     0.072 A 
ATOM     20  C   UNL     1     -14.305  -2.445  12.076  1.00  0.00     0.008 A 
ATOM     21  C   UNL     1     -13.436  -4.547  12.968  1.00  0.00     0.169 A 
ATOM     22  C   UNL     1     -14.483  -3.618  12.842  1.00  0.00     0.162 A 
BRANCH  13  23
ATOM     23  O   UNL     1     -10.181  -4.365  10.194  1.00  0.00    -0.507 OA
ATOM     24  H   UNL     1     -10.411  -5.343  10.325  1.00  0.00     0.293 HD
ENDBRANCH  13  23
BRANCH  19  25
ATOM     25  C   UNL     1     -11.126  -5.311  12.503  1.00  0.00     0.264 C 
ATOM     26  O   UNL     1     -11.316  -6.499  12.874  1.00  0.00    -0.298 OA
ENDBRANCH  19  25
BRANCH  20  27
ATOM     27  C   UNL     1     -15.325  -1.298  12.194  1.00  0.00     0.017 C 
ATOM     28  C   UNL     1     -16.356  -1.359  11.062  1.00  0.00     0.012 C 
ATOM     29  C   UNL     1     -16.009  -1.212  13.571  1.00  0.00     0.012 C 
ENDBRANCH  20  27
BRANCH  21  30
ATOM     30  O   UNL     1     -13.514  -5.593  13.897  1.00  0.00    -0.504 OA
ATOM     31  H   UNL     1     -13.456  -5.463  14.898  1.00  0.00     0.293 HD
ENDBRANCH  21  30
BRANCH  22  32
ATOM     32  O   UNL     1     -15.714  -3.850  13.460  1.00  0.00    -0.504 OA
ATOM     33  H   UNL     1     -16.607  -3.651  13.032  1.00  0.00     0.293 HD
ENDBRANCH  22  32
ENDBRANCH  11  12
BRANCH  10  34
ATOM     34  O   UNL     1      -9.754  -4.607   8.389  1.00  0.00    -0.507 OA
ATOM     35  H   UNL     1      -9.209  -5.459   8.395  1.00  0.00     0.293 HD
ENDBRANCH  10  34
BRANCH   9  36
ATOM     36  C   UNL     1      -5.939  -0.583   5.365  1.00  0.00     0.017 C 
ATOM     37  C   UNL     1      -5.209  -0.031   6.593  1.00  0.00     0.012 C 
ATOM     38  C   UNL     1      -6.899   0.463   4.768  1.00  0.00     0.012 C 
ENDBRANCH   9  36
BRANCH   6  39
ATOM     39  C   UNL     1      -7.920  -5.838   6.963  1.00  0.00     0.264 C 
ATOM     40  O   UNL     1      -7.042  -6.734   7.082  1.00  0.00    -0.298 OA
ENDBRANCH   6  39
BRANCH   8  41
ATOM     41  O   UNL     1      -5.197  -3.029   4.035  1.00  0.00    -0.504 OA
ATOM     42  H   UNL     1      -4.503  -3.744   3.855  1.00  0.00     0.293 HD
ENDBRANCH   8  41
BRANCH   7  43
ATOM     43  O   UNL     1      -5.949  -5.498   4.944  1.00  0.00    -0.504 OA
ATOM     44  H   UNL     1      -6.451  -6.253   4.497  1.00  0.00     0.293 HD
ENDBRANCH   7  43
TORSDOF 11
ENDMDL
MODEL 2
REMARK VINA RESULT:    29.179      0.523      8.574
REMARK INTER + INTRA:          50.300
REMARK INTER:                  42.225
REMARK INTRA:                   8.075
REMARK UNBOUND:                 7.475
REMARK SMILES Cc1cc2c(C(C)C)c(O)c(O)c(C=O)c2c(O)c1-c1c(C)cc2c(C(C)C)c(O)c(O)c(C=O)c2c1O
REMARK SMILES IDX 1 1 2 2 3 3 4 4 16 5 13 6 11 7 9 8 5 9 17 10 19 11 20 12
REMARK SMILES IDX 37 13 21 14 36 15 23 16 22 17 24 18 33 19 25 20 31 21 29 22
REMARK SMILES IDX 38 23 34 25 35 26 26 27 27 28 28 29 32 30 30 32 18 34 6 36
REMARK SMILES IDX 7 37 8 38 14 39 15 40 10 41 12 43
REMARK H PARENT 38 24 32 31 30 33 18 35 10 42 12 44
REMARK Flexibility Score: inf
ROOT
ATOM      1  C   UNL     1     -11.682  -0.058   8.207  1.00  0.00     0.045 C 
ATOM      2  C   UNL     1     -11.821  -1.192   9.194  1.00  0.00    -0.039 A 
ATOM      3  C   UNL     1     -12.878  -1.183  10.104  1.00  0.00     0.013 A 
ATOM      4  C   UNL     1     -13.074  -2.229  11.032  1.00  0.00    -0.006 A 
ATOM      5  C   UNL     1     -12.101  -3.275  11.108  1.00  0.00     0.039 A 
ATOM      6  C   UNL     1     -12.237  -4.269  12.125  1.00  0.00     0.072 A 
ATOM      7  C   UNL     1     -13.270  -4.163  13.078  1.00  0.00     0.169 A 
ATOM      8  C   UNL     1     -14.211  -3.133  12.996  1.00  0.00     0.162 A 
ATOM      9  C   UNL     1     -14.201  -2.229  11.911  1.00  0.00     0.008 A 
ATOM     10  C   UNL     1     -11.006  -3.265  10.190  1.00  0.00     0.132 A 
ATOM     11  C   UNL     1     -10.884  -2.237   9.231  1.00  0.00     0.031 A 
ENDROOT
BRANCH  11  12
ATOM     12  C   UNL     1      -9.746  -2.235   8.273  1.00  0.00     0.031 A 
ATOM     13  C   UNL     1      -9.167  -3.453   7.861  1.00  0.00     0.132 A 
ATOM     14  C   UNL     1      -9.225  -1.016   7.810  1.00  0.00    -0.039 A 
ATOM     15  C   UNL     1      -8.106  -3.464   6.906  1.00  0.00     0.039 A 
ATOM     16  C   UNL     1      -8.127  -1.020   6.949  1.00  0.00     0.013 A 
ATOM     17  C   UNL     1      -9.773   0.303   8.299  1.00  0.00     0.045 C 
ATOM     18  C   UNL     1      -7.572  -2.220   6.451  1.00  0.00    -0.006 A 
ATOM     19  C   UNL     1      -7.532  -4.678   6.425  1.00  0.00     0.072 A 
ATOM     20  C   UNL     1      -6.465  -2.202   5.546  1.00  0.00     0.008 A 
ATOM     21  C   UNL     1      -6.349  -4.640   5.665  1.00  0.00     0.169 A 
ATOM     22  C   UNL     1      -5.774  -3.409   5.304  1.00  0.00     0.162 A 
BRANCH  13  23
ATOM     23  O   UNL     1      -9.612  -4.650   8.436  1.00  0.00    -0.507 OA
ATOM     24  H   UNL     1      -9.569  -4.850   9.428  1.00  0.00     0.293 HD
ENDBRANCH  13  23
BRANCH  19  25
ATOM     25  C   UNL     1      -8.189  -5.993   6.622  1.00  0.00     0.264 C 
ATOM     26  O   UNL     1      -7.590  -6.940   7.198  1.00  0.00    -0.298 OA
ENDBRANCH  19  25
BRANCH  20  27
ATOM     27  C   UNL     1      -5.984  -0.902   4.878  1.00  0.00     0.017 C 
ATOM     28  C   UNL     1      -6.945  -0.465   3.767  1.00  0.00     0.012 C 
ATOM     29  C   UNL     1      -5.717   0.246   5.870  1.00  0.00     0.012 C 
ENDBRANCH  20  27
BRANCH  21  30
ATOM     30  O   UNL     1      -5.787  -5.848   5.232  1.00  0.00    -0.504 OA
ATOM     31  H   UNL     1      -6.220  -6.462   4.556  1.00  0.00     0.293 HD
ENDBRANCH  21  30
BRANCH  22  32
ATOM     32  O   UNL     1      -4.508  -3.364   4.714  1.00  0.00    -0.504 OA
ATOM     33  H   UNL     1      -4.087  -4.139   4.221  1.00  0.00     0.293 HD
ENDBRANCH  22  32
ENDBRANCH  11  12
BRANCH  10  34
ATOM     34  O   UNL     1     -10.030  -4.267  10.238  1.00  0.00    -0.507 OA
ATOM     35  H   UNL     1      -9.894  -4.889  11.024  1.00  0.00     0.293 HD
ENDBRANCH  10  34
BRANCH   9  36
ATOM     36  C   UNL     1     -15.384  -1.262  11.716  1.00  0.00     0.017 C 
ATOM     37  C   UNL     1     -16.381  -1.379  12.874  1.00  0.00     0.012 C 
ATOM     38  C   UNL     1     -16.091  -1.405  10.355  1.00  0.00     0.012 C 
ENDBRANCH   9  36
BRANCH   6  39
ATOM     39  C   UNL     1     -11.314  -5.419  12.222  1.00  0.00     0.264 C 
ATOM     40  O   UNL     1     -11.584  -6.394  12.972  1.00  0.00    -0.298 OA
ENDBRANCH   6  39
BRANCH   8  41
ATOM     41  O   UNL     1     -15.174  -3.006  14.000  1.00  0.00    -0.504 OA
ATOM     42  H   UNL     1     -15.009  -3.278  14.961  1.00  0.00     0.293 HD
ENDBRANCH   8  41
BRANCH   7  43
ATOM     43  O   UNL     1     -13.412  -5.096  14.113  1.00  0.00    -0.504 OA
ATOM     44  H   UNL     1     -14.056  -5.875  14.093  1.00  0.00     0.293 HD
ENDBRANCH   7  43
TORSDOF 11
ENDMDL
MODEL 3
REMARK VINA RESULT:    29.486      2.643      4.937
REMARK INTER + INTRA:          50.751
REMARK INTER:                  42.604
REMARK INTRA:                   8.147
REMARK UNBOUND:                 7.475
REMARK SMILES Cc1cc2c(C(C)C)c(O)c(O)c(C=O)c2c(O)c1-c1c(C)cc2c(C(C)C)c(O)c(O)c(C=O)c2c1O
REMARK SMILES IDX 1 1 2 2 3 3 4 4 16 5 13 6 11 7 9 8 5 9 17 10 19 11 20 12
REMARK SMILES IDX 37 13 21 14 36 15 23 16 22 17 24 18 33 19 25 20 31 21 29 22
REMARK SMILES IDX 38 23 34 25 35 26 26 27 27 28 28 29 32 30 30 32 18 34 6 36
REMARK SMILES IDX 7 37 8 38 14 39 15 40 10 41 12 43
REMARK H PARENT 38 24 32 31 30 33 18 35 10 42 12 44
REMARK Flexibility Score: inf
ROOT
ATOM      1  C   UNL     1      -5.790  -1.691   5.228  1.00  0.00     0.045 C 
ATOM      2  C   UNL     1      -5.693  -3.166   5.537  1.00  0.00    -0.039 A 
ATOM      3  C   UNL     1      -4.653  -3.914   4.987  1.00  0.00     0.013 A 
ATOM      4  C   UNL     1      -4.496  -5.290   5.261  1.00  0.00    -0.006 A 
ATOM      5  C   UNL     1      -5.492  -5.955   6.043  1.00  0.00     0.039 A 
ATOM      6  C   UNL     1      -5.396  -7.369   6.222  1.00  0.00     0.072 A 
ATOM      7  C   UNL     1      -4.377  -8.093   5.569  1.00  0.00     0.169 A 
ATOM      8  C   UNL     1      -3.413  -7.431   4.804  1.00  0.00     0.162 A 
ATOM      9  C   UNL     1      -3.384  -6.022   4.738  1.00  0.00     0.008 A 
ATOM     10  C   UNL     1      -6.570  -5.188   6.582  1.00  0.00     0.132 A 
ATOM     11  C   UNL     1      -6.653  -3.800   6.341  1.00  0.00     0.031 A 
ENDROOT
BRANCH  11  12
ATOM     12  C   UNL     1      -7.773  -3.005   6.911  1.00  0.00     0.031 A 
ATOM     13  C   UNL     1      -8.363  -3.388   8.134  1.00  0.00     0.132 A 
ATOM     14  C   UNL     1      -8.268  -1.894   6.209  1.00  0.00    -0.039 A 
ATOM     15  C   UNL     1      -9.406  -2.605   8.712  1.00  0.00     0.039 A 
ATOM     16  C   UNL     1      -9.351  -1.181   6.725  1.00  0.00     0.013 A 
ATOM     17  C   UNL     1      -7.710  -1.511   4.859  1.00  0.00     0.045 C 
ATOM     18  C   UNL     1      -9.914  -1.485   7.985  1.00  0.00    -0.006 A 
ATOM     19  C   UNL     1      -9.989  -2.931   9.971  1.00  0.00     0.072 A 
ATOM     20  C   UNL     1     -11.004  -0.723   8.510  1.00  0.00     0.008 A 
ATOM     21  C   UNL     1     -11.158  -2.271  10.394  1.00  0.00     0.169 A 
ATOM     22  C   UNL     1     -11.708  -1.234   9.622  1.00  0.00     0.162 A 
BRANCH  13  23
ATOM     23  O   UNL     1      -7.946  -4.575   8.750  1.00  0.00    -0.507 OA
ATOM     24  H   UNL     1      -8.563  -5.191   9.265  1.00  0.00     0.293 HD
ENDBRANCH  13  23
BRANCH  19  25
ATOM     25  C   UNL     1      -9.355  -3.889  10.909  1.00  0.00     0.264 C 
ATOM     26  O   UNL     1      -9.998  -4.868  11.374  1.00  0.00    -0.298 OA
ENDBRANCH  19  25
BRANCH  20  27
ATOM     27  C   UNL     1     -11.454   0.600   7.865  1.00  0.00     0.017 C 
ATOM     28  C   UNL     1     -10.550   1.759   8.298  1.00  0.00     0.012 C 
ATOM     29  C   UNL     1     -11.583   0.533   6.331  1.00  0.00     0.012 C 
ENDBRANCH  20  27
BRANCH  21  30
ATOM     30  O   UNL     1     -11.730  -2.633  11.620  1.00  0.00    -0.504 OA
ATOM     31  H   UNL     1     -11.494  -2.199  12.503  1.00  0.00     0.293 HD
ENDBRANCH  21  30
BRANCH  22  32
ATOM     32  O   UNL     1     -12.963  -0.705   9.937  1.00  0.00    -0.504 OA
ATOM     33  H   UNL     1     -13.207   0.270   9.834  1.00  0.00     0.293 HD
ENDBRANCH  22  32
ENDBRANCH  11  12
BRANCH  10  34
ATOM     34  O   UNL     1      -7.568  -5.805   7.346  1.00  0.00    -0.507 OA
ATOM     35  H   UNL     1      -8.403  -6.223   6.956  1.00  0.00     0.293 HD
ENDBRANCH  10  34
BRANCH   9  36
ATOM     36  C   UNL     1      -2.177  -5.315   4.093  1.00  0.00     0.017 C 
ATOM     37  C   UNL     1      -1.078  -6.323   3.743  1.00  0.00     0.012 C 
ATOM     38  C   UNL     1      -1.618  -4.147   4.926  1.00  0.00     0.012 C 
ENDBRANCH   9  36
BRANCH   6  39
ATOM     39  C   UNL     1      -6.344  -8.116   7.074  1.00  0.00     0.264 C 
ATOM     40  O   UNL     1      -6.086  -9.293   7.440  1.00  0.00    -0.298 OA
ENDBRANCH   6  39
BRANCH   8  41
ATOM     41  O   UNL     1      -2.466  -8.181   4.102  1.00  0.00    -0.504 OA
ATOM     42  H   UNL     1      -2.587  -9.163   3.887  1.00  0.00     0.293 HD
ENDBRANCH   8  41
BRANCH   7  43
ATOM     43  O   UNL     1      -4.274  -9.485   5.688  1.00  0.00    -0.504 OA
ATOM     44  H   UNL     1      -5.033 -10.129   5.516  1.00  0.00     0.293 HD
ENDBRANCH   7  43
TORSDOF 11
ENDMDL
MODEL 4
REMARK VINA RESULT:    29.731      2.746      9.078
REMARK INTER + INTRA:          51.111
REMARK INTER:                  43.214
REMARK INTRA:                   7.897
REMARK UNBOUND:                 7.475
REMARK SMILES Cc1cc2c(C(C)C)c(O)c(O)c(C=O)c2c(O)c1-c1c(C)cc2c(C(C)C)c(O)c(O)c(C=O)c2c1O
REMARK SMILES IDX 1 1 2 2 3 3 4 4 16 5 13 6 11 7 9 8 5 9 17 10 19 11 20 12
REMARK SMILES IDX 37 13 21 14 36 15 23 16 22 17 24 18 33 19 25 20 31 21 29 22
REMARK SMILES IDX 38 23 34 25 35 26 26 27 27 28 28 29 32 30 30 32 18 34 6 36
REMARK SMILES IDX 7 37 8 38 14 39 15 40 10 41 12 43
REMARK H PARENT 38 24 32 31 30 33 18 35 10 42 12 44
REMARK Flexibility Score: inf
ROOT
ATOM      1  C   UNL     1      -7.382  -1.527   4.807  1.00  0.00     0.045 C 
ATOM      2  C   UNL     1      -8.076  -1.928   6.086  1.00  0.00    -0.039 A 
ATOM      3  C   UNL     1      -9.110  -1.134   6.583  1.00  0.00     0.013 A 
ATOM      4  C   UNL     1      -9.813  -1.472   7.760  1.00  0.00    -0.006 A 
ATOM      5  C   UNL     1      -9.384  -2.608   8.516  1.00  0.00     0.039 A 
ATOM      6  C   UNL     1     -10.019  -2.882   9.766  1.00  0.00     0.072 A 
ATOM      7  C   UNL     1     -10.994  -1.997  10.269  1.00  0.00     0.169 A 
ATOM      8  C   UNL     1     -11.400  -0.888   9.521  1.00  0.00     0.162 A 
ATOM      9  C   UNL     1     -10.910  -0.677   8.214  1.00  0.00     0.008 A 
ATOM     10  C   UNL     1      -8.307  -3.404   8.015  1.00  0.00     0.132 A 
ATOM     11  C   UNL     1      -7.676  -3.069   6.798  1.00  0.00     0.031 A 
ENDROOT
BRANCH  11  12
ATOM     12  C   UNL     1      -6.561  -3.904   6.277  1.00  0.00     0.031 A 
ATOM     13  C   UNL     1      -6.494  -5.276   6.599  1.00  0.00     0.132 A 
ATOM     14  C   UNL     1      -5.554  -3.316   5.495  1.00  0.00    -0.039 A 
ATOM     15  C   UNL     1      -5.455  -6.096   6.065  1.00  0.00     0.039 A 
ATOM     16  C   UNL     1      -4.485  -4.094   5.050  1.00  0.00     0.013 A 
ATOM     17  C   UNL     1      -5.557  -1.834   5.204  1.00  0.00     0.045 C 
ATOM     18  C   UNL     1      -4.426  -5.487   5.283  1.00  0.00    -0.006 A 
ATOM     19  C   UNL     1      -5.386  -7.496   6.325  1.00  0.00     0.072 A 
ATOM     20  C   UNL     1      -3.338  -6.273   4.792  1.00  0.00     0.008 A 
ATOM     21  C   UNL     1      -4.231  -8.218   5.971  1.00  0.00     0.169 A 
ATOM     22  C   UNL     1      -3.179  -7.586   5.286  1.00  0.00     0.162 A 
BRANCH  13  23
ATOM     23  O   UNL     1      -7.432  -5.815   7.489  1.00  0.00    -0.507 OA
ATOM     24  H   UNL     1      -7.462  -5.598   8.477  1.00  0.00     0.293 HD
ENDBRANCH  13  23
BRANCH  19  25
ATOM     25  C   UNL     1      -6.534  -8.253   6.882  1.00  0.00     0.264 C 
ATOM     26  O   UNL     1      -6.356  -9.295   7.566  1.00  0.00    -0.298 OA
ENDBRANCH  19  25
BRANCH  20  27
ATOM     27  C   UNL     1      -2.317  -5.708   3.788  1.00  0.00     0.017 C 
ATOM     28  C   UNL     1      -1.327  -4.765   4.480  1.00  0.00     0.012 C 
ATOM     29  C   UNL     1      -1.583  -6.790   2.972  1.00  0.00     0.012 C 
ENDBRANCH  20  27
BRANCH  21  30
ATOM     30  O   UNL     1      -4.174  -9.586   6.266  1.00  0.00    -0.504 OA
ATOM     31  H   UNL     1      -3.705 -10.269   5.687  1.00  0.00     0.293 HD
ENDBRANCH  21  30
BRANCH  22  32
ATOM     32  O   UNL     1      -1.960  -8.243   5.099  1.00  0.00    -0.504 OA
ATOM     33  H   UNL     1      -1.518  -8.367   4.199  1.00  0.00     0.293 HD
ENDBRANCH  22  32
ENDBRANCH  11  12
BRANCH  10  34
ATOM     34  O   UNL     1      -7.855  -4.518   8.731  1.00  0.00    -0.507 OA
ATOM     35  H   UNL     1      -7.283  -4.463   9.564  1.00  0.00     0.293 HD
ENDBRANCH  10  34
BRANCH   9  36
ATOM     36  C   UNL     1     -11.552   0.406   7.327  1.00  0.00     0.017 C 
ATOM     37  C   UNL     1     -12.061  -0.196   6.014  1.00  0.00     0.012 C 
ATOM     38  C   UNL     1     -10.642   1.622   7.068  1.00  0.00     0.012 C 
ENDBRANCH   9  36
BRANCH   6  39
ATOM     39  C   UNL     1      -9.681  -4.075  10.569  1.00  0.00     0.264 C 
ATOM     40  O   UNL     1     -10.572  -4.680  11.224  1.00  0.00    -0.298 OA
ENDBRANCH   6  39
BRANCH   8  41
ATOM     41  O   UNL     1     -12.307   0.016  10.080  1.00  0.00    -0.504 OA
ATOM     42  H   UNL     1     -13.009  -0.253  10.758  1.00  0.00     0.293 HD
ENDBRANCH   8  41
BRANCH   7  43
ATOM     43  O   UNL     1     -11.610  -2.211  11.508  1.00  0.00    -0.504 OA
ATOM     44  H   UNL     1     -11.918  -1.472  12.126  1.00  0.00     0.293 HD
ENDBRANCH   7  43
TORSDOF 11
ENDMDL
MODEL 5
REMARK VINA RESULT:    31.452      1.552      3.187
REMARK INTER + INTRA:          53.636
REMARK INTER:                  48.314
REMARK INTRA:                   5.322
REMARK UNBOUND:                 7.475
REMARK SMILES Cc1cc2c(C(C)C)c(O)c(O)c(C=O)c2c(O)c1-c1c(C)cc2c(C(C)C)c(O)c(O)c(C=O)c2c1O
REMARK SMILES IDX 1 1 2 2 3 3 4 4 16 5 13 6 11 7 9 8 5 9 17 10 19 11 20 12
REMARK SMILES IDX 37 13 21 14 36 15 23 16 22 17 24 18 33 19 25 20 31 21 29 22
REMARK SMILES IDX 38 23 34 25 35 26 26 27 27 28 28 29 32 30 30 32 18 34 6 36
REMARK SMILES IDX 7 37 8 38 14 39 15 40 10 41 12 43
REMARK H PARENT 38 24 32 31 30 33 18 35 10 42 12 44
REMARK Flexibility Score: inf
ROOT
ATOM      1  C   UNL     1     -10.223   0.039   9.424  1.00  0.00     0.045 C 
ATOM      2  C   UNL     1      -9.516  -0.896   8.473  1.00  0.00    -0.039 A 
ATOM      3  C   UNL     1      -8.693  -0.369   7.479  1.00  0.00     0.013 A 
ATOM      4  C   UNL     1      -7.986  -1.195   6.577  1.00  0.00    -0.006 A 
ATOM      5  C   UNL     1      -8.202  -2.608   6.624  1.00  0.00     0.039 A 
ATOM      6  C   UNL     1      -7.578  -3.432   5.638  1.00  0.00     0.072 A 
ATOM      7  C   UNL     1      -6.831  -2.842   4.598  1.00  0.00     0.169 A 
ATOM      8  C   UNL     1      -6.632  -1.459   4.562  1.00  0.00     0.162 A 
ATOM      9  C   UNL     1      -7.098  -0.633   5.608  1.00  0.00     0.008 A 
ATOM     10  C   UNL     1      -9.067  -3.141   7.629  1.00  0.00     0.132 A 
ATOM     11  C   UNL     1      -9.701  -2.285   8.555  1.00  0.00     0.031 A 
ENDROOT
BRANCH  11  12
ATOM     12  C   UNL     1     -10.595  -2.845   9.604  1.00  0.00     0.031 A 
ATOM     13  C   UNL     1     -11.789  -2.177   9.946  1.00  0.00     0.132 A 
ATOM     14  C   UNL     1     -10.228  -4.020  10.280  1.00  0.00    -0.039 A 
ATOM     15  C   UNL     1     -12.676  -2.731  10.916  1.00  0.00     0.039 A 
ATOM     16  C   UNL     1     -11.047  -4.514  11.295  1.00  0.00     0.013 A 
ATOM     17  C   UNL     1      -8.916  -4.710   9.991  1.00  0.00     0.045 C 
ATOM     18  C   UNL     1     -12.290  -3.918  11.610  1.00  0.00    -0.006 A 
ATOM     19  C   UNL     1     -13.917  -2.112  11.249  1.00  0.00     0.072 A 
ATOM     20  C   UNL     1     -13.128  -4.457  12.634  1.00  0.00     0.008 A 
ATOM     21  C   UNL     1     -14.649  -2.563  12.362  1.00  0.00     0.169 A 
ATOM     22  C   UNL     1     -14.208  -3.675  13.101  1.00  0.00     0.162 A 
BRANCH  13  23
ATOM     23  O   UNL     1     -12.070  -0.938   9.357  1.00  0.00    -0.507 OA
ATOM     24  H   UNL     1     -12.973  -0.480   9.407  1.00  0.00     0.293 HD
ENDBRANCH  13  23
BRANCH  19  25
ATOM     25  C   UNL     1     -14.522  -1.053  10.404  1.00  0.00     0.264 C 
ATOM     26  O   UNL     1     -15.753  -1.057  10.137  1.00  0.00    -0.298 OA
ENDBRANCH  19  25
BRANCH  20  27
ATOM     27  C   UNL     1     -12.854  -5.832  13.269  1.00  0.00     0.017 C 
ATOM     28  C   UNL     1     -13.478  -6.957  12.436  1.00  0.00     0.012 C 
ATOM     29  C   UNL     1     -11.363  -6.103  13.548  1.00  0.00     0.012 C 
ENDBRANCH  20  27
BRANCH  21  30
ATOM     30  O   UNL     1     -15.849  -1.918  12.688  1.00  0.00    -0.504 OA
ATOM     31  H   UNL     1     -16.715  -2.048  12.183  1.00  0.00     0.293 HD
ENDBRANCH  21  30
BRANCH  22  32
ATOM     32  O   UNL     1     -14.822  -4.012  14.310  1.00  0.00    -0.504 OA
ATOM     33  H   UNL     1     -14.350  -4.475  15.073  1.00  0.00     0.293 HD
ENDBRANCH  22  32
ENDBRANCH  11  12
BRANCH  10  34
ATOM     34  O   UNL     1      -9.308  -4.517   7.701  1.00  0.00    -0.507 OA
ATOM     35  H   UNL     1      -8.989  -5.111   8.456  1.00  0.00     0.293 HD
ENDBRANCH  10  34
BRANCH   9  36
ATOM     36  C   UNL     1      -6.658   0.841   5.666  1.00  0.00     0.017 C 
ATOM     37  C   UNL     1      -7.083   1.588   4.397  1.00  0.00     0.012 C 
ATOM     38  C   UNL     1      -5.157   1.036   5.953  1.00  0.00     0.012 C 
ENDBRANCH   9  36
BRANCH   6  39
ATOM     39  C   UNL     1      -7.695  -4.905   5.662  1.00  0.00     0.264 C 
ATOM     40  O   UNL     1      -7.923  -5.546   4.602  1.00  0.00    -0.298 OA
ENDBRANCH   6  39
BRANCH   8  41
ATOM     41  O   UNL     1      -5.957  -0.894   3.477  1.00  0.00    -0.504 OA
ATOM     42  H   UNL     1      -5.238  -1.383   2.958  1.00  0.00     0.293 HD
ENDBRANCH   8  41
BRANCH   7  43
ATOM     43  O   UNL     1      -6.237  -3.613   3.592  1.00  0.00    -0.504 OA
ATOM     44  H   UNL     1      -5.289  -3.491   3.265  1.00  0.00     0.293 HD
ENDBRANCH   7  43
TORSDOF 11
ENDMDL
