MODEL 1
REMARK VINA RESULT:    -2.367      0.000      0.000
REMARK INTER + INTRA:          -2.367
REMARK INTER:                  -2.367
REMARK INTRA:                   0.000
REMARK UNBOUND:                 0.000
REMARK SMILES CC(=O)[O-]
REMARK SMILES IDX 1 1 2 2 3 3 4 4
REMARK H PARENT
REMARK Flexibility Score: inf
ROOT
ATOM      1  C   UNL     1      14.029  40.125  46.423  1.00  0.00     0.063 C 
ATOM      2  C   UNL     1      14.628  38.850  46.912  1.00  0.00     0.038 C 
ATOM      3  O   UNL     1      15.856  38.625  46.749  1.00  0.00    -0.550 OA
ATOM      4  O   UNL     1      13.822  37.883  47.499  1.00  0.00    -0.550 OA
ENDROOT
TORSDOF 0
ENDMDL
MODEL 2
REMARK VINA RESULT:    -2.324      1.485      1.732
REMARK INTER + INTRA:          -2.324
REMARK INTER:                  -2.324
REMARK INTRA:                   0.000
REMARK UNBOUND:                 0.000
REMARK SMILES CC(=O)[O-]
REMARK SMILES IDX 1 1 2 2 3 3 4 4
REMARK H PARENT
REMARK Flexibility Score: inf
ROOT
ATOM      1  C   UNL     1      15.661  38.876  46.800  1.00  0.00     0.063 C 
ATOM      2  C   UNL     1      14.174  38.922  46.696  1.00  0.00     0.038 C 
ATOM      3  O   UNL     1      13.602  39.952  46.252  1.00  0.00    -0.550 OA
ATOM      4  O   UNL     1      13.412  37.848  47.139  1.00  0.00    -0.550 OA
ENDROOT
TORSDOF 0
ENDMDL
MODEL 3
REMARK VINA RESULT:    -2.161     19.352     19.521
REMARK INTER + INTRA:          -2.161
REMARK INTER:                  -2.161
REMARK INTRA:                   0.000
REMARK UNBOUND:                 0.000
REMARK SMILES CC(=O)[O-]
REMARK SMILES IDX 1 1 2 2 3 3 4 4
REMARK H PARENT
REMARK Flexibility Score: inf
ROOT
ATOM      1  C   UNL     1      19.889  19.948  50.268  1.00  0.00     0.063 C 
ATOM      2  C   UNL     1      18.539  20.029  49.638  1.00  0.00     0.038 C 
ATOM      3  O   UNL     1      18.431  20.160  48.391  1.00  0.00    -0.550 OA
ATOM      4  O   UNL     1      17.400  20.014  50.432  1.00  0.00    -0.550 OA
ENDROOT
TORSDOF 0
ENDMDL
MODEL 4
REMARK VINA RESULT:    -2.086     19.273     19.461
REMARK INTER + INTRA:          -2.086
REMARK INTER:                  -2.086
REMARK INTRA:                   0.000
REMARK UNBOUND:                 0.000
REMARK SMILES CC(=O)[O-]
REMARK SMILES IDX 1 1 2 2 3 3 4 4
REMARK H PARENT
REMARK Flexibility Score: inf
ROOT
ATOM      1  C   UNL     1      17.516  19.875  50.434  1.00  0.00     0.063 C 
ATOM      2  C   UNL     1      18.699  20.150  49.568  1.00  0.00     0.038 C 
ATOM      3  O   UNL     1      18.560  20.246  48.321  1.00  0.00    -0.550 OA
ATOM      4  O   UNL     1      19.965  20.247  50.130  1.00  0.00    -0.550 OA
ENDROOT
TORSDOF 0
ENDMDL
MODEL 5
REMARK VINA RESULT:    -1.957     19.427     19.536
REMARK INTER + INTRA:          -1.957
REMARK INTER:                  -1.957
REMARK INTRA:                   0.000
REMARK UNBOUND:                 0.000
REMARK SMILES CC(=O)[O-]
REMARK SMILES IDX 1 1 2 2 3 3 4 4
REMARK H PARENT
REMARK Flexibility Score: inf
ROOT
ATOM      1  C   UNL     1      18.385  20.046  48.327  1.00  0.00     0.063 C 
ATOM      2  C   UNL     1      18.465  19.975  49.814  1.00  0.00     0.038 C 
ATOM      3  O   UNL     1      19.586  19.957  50.387  1.00  0.00    -0.550 OA
ATOM      4  O   UNL     1      17.303  19.876  50.569  1.00  0.00    -0.550 OA
ENDROOT
TORSDOF 0
ENDMDL
MODEL 6
REMARK VINA RESULT:    -1.349     14.107     14.420
REMARK INTER + INTRA:          -1.349
REMARK INTER:                  -1.349
REMARK INTRA:                   0.000
REMARK UNBOUND:                 0.000
REMARK SMILES CC(=O)[O-]
REMARK SMILES IDX 1 1 2 2 3 3 4 4
REMARK H PARENT
REMARK Flexibility Score: inf
ROOT
ATOM      1  C   UNL     1      17.848  27.898  40.567  1.00  0.00     0.063 C 
ATOM      2  C   UNL     1      18.855  26.951  40.007  1.00  0.00     0.038 C 
ATOM      3  O   UNL     1      20.084  27.197  40.119  1.00  0.00    -0.550 OA
ATOM      4  O   UNL     1      18.438  25.821  39.315  1.00  0.00    -0.550 OA
ENDROOT
TORSDOF 0
ENDMDL
MODEL 7
REMARK VINA RESULT:    -1.346     19.960     20.117
REMARK INTER + INTRA:          -1.346
REMARK INTER:                  -1.346
REMARK INTRA:                   0.000
REMARK UNBOUND:                 0.000
REMARK SMILES CC(=O)[O-]
REMARK SMILES IDX 1 1 2 2 3 3 4 4
REMARK H PARENT
REMARK Flexibility Score: inf
ROOT
ATOM      1  C   UNL     1      20.408  19.919  52.564  1.00  0.00     0.063 C 
ATOM      2  C   UNL     1      19.663  19.969  51.273  1.00  0.00     0.038 C 
ATOM      3  O   UNL     1      20.283  20.146  50.192  1.00  0.00    -0.550 OA
ATOM      4  O   UNL     1      18.277  19.875  51.265  1.00  0.00    -0.550 OA
ENDROOT
TORSDOF 0
ENDMDL
MODEL 8
REMARK VINA RESULT:    -1.239      4.061      4.445
REMARK INTER + INTRA:          -1.239
REMARK INTER:                  -1.239
REMARK INTRA:                   0.000
REMARK UNBOUND:                 0.000
REMARK SMILES CC(=O)[O-]
REMARK SMILES IDX 1 1 2 2 3 3 4 4
REMARK H PARENT
REMARK Flexibility Score: inf
ROOT
ATOM      1  C   UNL     1      17.253  38.335  46.425  1.00  0.00     0.063 C 
ATOM      2  C   UNL     1      18.723  38.265  46.662  1.00  0.00     0.038 C 
ATOM      3  O   UNL     1      19.318  37.156  46.623  1.00  0.00    -0.550 OA
ATOM      4  O   UNL     1      19.432  39.416  46.979  1.00  0.00    -0.550 OA
ENDROOT
TORSDOF 0
ENDMDL
MODEL 9
REMARK VINA RESULT:    -1.167      3.776      4.468
REMARK INTER + INTRA:          -1.167
REMARK INTER:                  -1.167
REMARK INTRA:                   0.000
REMARK UNBOUND:                 0.000
REMARK SMILES CC(=O)[O-]
REMARK SMILES IDX 1 1 2 2 3 3 4 4
REMARK H PARENT
REMARK Flexibility Score: inf
ROOT
ATOM      1  C   UNL     1      19.445  39.252  46.926  1.00  0.00     0.063 C 
ATOM      2  C   UNL     1      18.575  38.121  46.494  1.00  0.00     0.038 C 
ATOM      3  O   UNL     1      17.329  38.278  46.412  1.00  0.00    -0.550 OA
ATOM      4  O   UNL     1      19.132  36.875  46.235  1.00  0.00    -0.550 OA
ENDROOT
TORSDOF 0
ENDMDL
