MODEL 1
REMARK VINA RESULT:    -5.779      0.000      0.000
REMARK INTER + INTRA:          -5.779
REMARK INTER:                  -5.779
REMARK INTRA:                   0.000
REMARK UNBOUND:                 0.000
REMARK SMILES CC1=CC(=O)[C@@H]2C[C@H]1C2(C)C
REMARK SMILES IDX 1 1 2 2 3 3 4 4 5 5 6 6 7 7 8 8 9 9 10 10 11 11
REMARK H PARENT
REMARK Flexibility Score: inf
ROOT
ATOM      1  C   UNL     1     -14.264 -33.058  31.309  1.00  0.00     0.040 C 
ATOM      2  C   UNL     1     -13.151 -33.707  30.548  1.00  0.00    -0.066 C 
ATOM      3  C   UNL     1     -12.377 -34.675  31.112  1.00  0.00     0.047 C 
ATOM      4  C   UNL     1     -11.315 -35.268  30.236  1.00  0.00     0.159 C 
ATOM      5  O   UNL     1     -10.562 -36.197  30.629  1.00  0.00    -0.295 OA
ATOM      6  C   UNL     1     -11.214 -34.670  28.833  1.00  0.00     0.067 C 
ATOM      7  C   UNL     1     -11.279 -33.145  29.068  1.00  0.00     0.021 C 
ATOM      8  C   UNL     1     -12.816 -33.302  29.098  1.00  0.00     0.022 C 
ATOM      9  C   UNL     1     -12.645 -34.582  28.228  1.00  0.00    -0.019 C 
ATOM     10  C   UNL     1     -13.621 -35.767  28.467  1.00  0.00     0.012 C 
ATOM     11  C   UNL     1     -12.624 -34.266  26.711  1.00  0.00     0.012 C 
ENDROOT
TORSDOF 0
ENDMDL
MODEL 2
REMARK VINA RESULT:    -5.633      1.552      2.499
REMARK INTER + INTRA:          -5.633
REMARK INTER:                  -5.633
REMARK INTRA:                   0.000
REMARK UNBOUND:                 0.000
REMARK SMILES CC1=CC(=O)[C@@H]2C[C@H]1C2(C)C
REMARK SMILES IDX 1 1 2 2 3 3 4 4 5 5 6 6 7 7 8 8 9 9 10 10 11 11
REMARK H PARENT
REMARK Flexibility Score: inf
ROOT
ATOM      1  C   UNL     1     -12.154 -36.993  30.270  1.00  0.00     0.040 C 
ATOM      2  C   UNL     1     -12.069 -35.583  29.776  1.00  0.00    -0.066 C 
ATOM      3  C   UNL     1     -10.951 -34.830  29.971  1.00  0.00     0.047 C 
ATOM      4  C   UNL     1     -10.977 -33.444  29.402  1.00  0.00     0.159 C 
ATOM      5  O   UNL     1      -9.992 -32.666  29.482  1.00  0.00    -0.295 OA
ATOM      6  C   UNL     1     -12.283 -33.043  28.716  1.00  0.00     0.067 C 
ATOM      7  C   UNL     1     -13.383 -33.514  29.693  1.00  0.00     0.021 C 
ATOM      8  C   UNL     1     -13.244 -34.908  29.039  1.00  0.00     0.022 C 
ATOM      9  C   UNL     1     -12.715 -34.194  27.761  1.00  0.00    -0.019 C 
ATOM     10  C   UNL     1     -11.618 -34.908  26.923  1.00  0.00     0.012 C 
ATOM     11  C   UNL     1     -13.859 -33.769  26.806  1.00  0.00     0.012 C 
ENDROOT
TORSDOF 0
ENDMDL
MODEL 3
REMARK VINA RESULT:    -5.615      1.876      3.452
REMARK INTER + INTRA:          -5.615
REMARK INTER:                  -5.615
REMARK INTRA:                   0.000
REMARK UNBOUND:                 0.000
REMARK SMILES CC1=CC(=O)[C@@H]2C[C@H]1C2(C)C
REMARK SMILES IDX 1 1 2 2 3 3 4 4 5 5 6 6 7 7 8 8 9 9 10 10 11 11
REMARK H PARENT
REMARK Flexibility Score: inf
ROOT
ATOM      1  C   UNL     1     -11.744 -34.619  26.028  1.00  0.00     0.040 C 
ATOM      2  C   UNL     1     -11.941 -34.279  27.472  1.00  0.00    -0.066 C 
ATOM      3  C   UNL     1     -13.042 -33.598  27.896  1.00  0.00     0.047 C 
ATOM      4  C   UNL     1     -13.138 -33.345  29.369  1.00  0.00     0.159 C 
ATOM      5  O   UNL     1     -14.125 -32.762  29.888  1.00  0.00    -0.295 OA
ATOM      6  C   UNL     1     -11.956 -33.847  30.198  1.00  0.00     0.067 C 
ATOM      7  C   UNL     1     -10.715 -33.391  29.400  1.00  0.00     0.021 C 
ATOM      8  C   UNL     1     -10.903 -34.665  28.546  1.00  0.00     0.022 C 
ATOM      9  C   UNL     1     -11.631 -35.306  29.764  1.00  0.00    -0.019 C 
ATOM     10  C   UNL     1     -12.814 -36.274  29.485  1.00  0.00     0.012 C 
ATOM     11  C   UNL     1     -10.648 -36.005  30.737  1.00  0.00     0.012 C 
ENDROOT
TORSDOF 0
ENDMDL
MODEL 4
REMARK VINA RESULT:    -5.503      2.263      3.914
REMARK INTER + INTRA:          -5.503
REMARK INTER:                  -5.503
REMARK INTRA:                   0.000
REMARK UNBOUND:                 0.000
REMARK SMILES CC1=CC(=O)[C@@H]2C[C@H]1C2(C)C
REMARK SMILES IDX 1 1 2 2 3 3 4 4 5 5 6 6 7 7 8 8 9 9 10 10 11 11
REMARK H PARENT
REMARK Flexibility Score: inf
ROOT
ATOM      1  C   UNL     1     -12.560 -38.724  31.970  1.00  0.00     0.040 C 
ATOM      2  C   UNL     1     -12.458 -37.413  31.257  1.00  0.00    -0.066 C 
ATOM      3  C   UNL     1     -13.155 -37.171  30.113  1.00  0.00     0.047 C 
ATOM      4  C   UNL     1     -12.992 -35.809  29.511  1.00  0.00     0.159 C 
ATOM      5  O   UNL     1     -13.613 -35.452  28.477  1.00  0.00    -0.295 OA
ATOM      6  C   UNL     1     -12.020 -34.882  30.243  1.00  0.00     0.067 C 
ATOM      7  C   UNL     1     -10.790 -35.772  30.523  1.00  0.00     0.021 C 
ATOM      8  C   UNL     1     -11.548 -36.278  31.772  1.00  0.00     0.022 C 
ATOM      9  C   UNL     1     -12.337 -34.936  31.766  1.00  0.00    -0.019 C 
ATOM     10  C   UNL     1     -13.827 -34.960  32.210  1.00  0.00     0.012 C 
ATOM     11  C   UNL     1     -11.610 -33.821  32.559  1.00  0.00     0.012 C 
ENDROOT
TORSDOF 0
ENDMDL
MODEL 5
REMARK VINA RESULT:    -5.498      1.465      2.468
REMARK INTER + INTRA:          -5.498
REMARK INTER:                  -5.498
REMARK INTRA:                   0.000
REMARK UNBOUND:                 0.000
REMARK SMILES CC1=CC(=O)[C@@H]2C[C@H]1C2(C)C
REMARK SMILES IDX 1 1 2 2 3 3 4 4 5 5 6 6 7 7 8 8 9 9 10 10 11 11
REMARK H PARENT
REMARK Flexibility Score: inf
ROOT
ATOM      1  C   UNL     1      -9.934 -33.289  31.001  1.00  0.00     0.040 C 
ATOM      2  C   UNL     1     -11.061 -33.871  30.208  1.00  0.00    -0.066 C 
ATOM      3  C   UNL     1     -11.523 -35.129  30.450  1.00  0.00     0.047 C 
ATOM      4  C   UNL     1     -12.676 -35.585  29.609  1.00  0.00     0.159 C 
ATOM      5  O   UNL     1     -13.217 -36.710  29.764  1.00  0.00    -0.295 OA
ATOM      6  C   UNL     1     -13.150 -34.588  28.552  1.00  0.00     0.067 C 
ATOM      7  C   UNL     1     -11.846 -34.087  27.894  1.00  0.00     0.021 C 
ATOM      8  C   UNL     1     -11.742 -33.085  29.068  1.00  0.00     0.022 C 
ATOM      9  C   UNL     1     -13.288 -33.188  29.218  1.00  0.00    -0.019 C 
ATOM     10  C   UNL     1     -13.893 -33.107  30.647  1.00  0.00     0.012 C 
ATOM     11  C   UNL     1     -14.037 -32.177  28.314  1.00  0.00     0.012 C 
ENDROOT
TORSDOF 0
ENDMDL
MODEL 6
REMARK VINA RESULT:    -5.436      2.112      3.439
REMARK INTER + INTRA:          -5.436
REMARK INTER:                  -5.436
REMARK INTRA:                   0.000
REMARK UNBOUND:                 0.000
REMARK SMILES CC1=CC(=O)[C@@H]2C[C@H]1C2(C)C
REMARK SMILES IDX 1 1 2 2 3 3 4 4 5 5 6 6 7 7 8 8 9 9 10 10 11 11
REMARK H PARENT
REMARK Flexibility Score: inf
ROOT
ATOM      1  C   UNL     1     -12.213 -37.426  31.633  1.00  0.00     0.040 C 
ATOM      2  C   UNL     1     -12.637 -36.040  31.261  1.00  0.00    -0.066 C 
ATOM      3  C   UNL     1     -13.567 -35.364  31.991  1.00  0.00     0.047 C 
ATOM      4  C   UNL     1     -13.884 -33.972  31.534  1.00  0.00     0.159 C 
ATOM      5  O   UNL     1     -14.696 -33.233  32.148  1.00  0.00    -0.295 OA
ATOM      6  C   UNL     1     -13.150 -33.513  30.274  1.00  0.00     0.067 C 
ATOM      7  C   UNL     1     -13.281 -34.709  29.305  1.00  0.00     0.021 C 
ATOM      8  C   UNL     1     -12.057 -35.317  30.028  1.00  0.00     0.022 C 
ATOM      9  C   UNL     1     -11.642 -33.869  30.423  1.00  0.00    -0.019 C 
ATOM     10  C   UNL     1     -10.965 -33.651  31.804  1.00  0.00     0.012 C 
ATOM     11  C   UNL     1     -10.768 -33.190  29.338  1.00  0.00     0.012 C 
ENDROOT
TORSDOF 0
ENDMDL
MODEL 7
REMARK VINA RESULT:    -5.400      1.415      3.284
REMARK INTER + INTRA:          -5.400
REMARK INTER:                  -5.400
REMARK INTRA:                   0.000
REMARK UNBOUND:                 0.000
REMARK SMILES CC1=CC(=O)[C@@H]2C[C@H]1C2(C)C
REMARK SMILES IDX 1 1 2 2 3 3 4 4 5 5 6 6 7 7 8 8 9 9 10 10 11 11
REMARK H PARENT
REMARK Flexibility Score: inf
ROOT
ATOM      1  C   UNL     1     -11.752 -34.678  26.216  1.00  0.00     0.040 C 
ATOM      2  C   UNL     1     -12.043 -34.695  27.683  1.00  0.00    -0.066 C 
ATOM      3  C   UNL     1     -12.688 -35.744  28.265  1.00  0.00     0.047 C 
ATOM      4  C   UNL     1     -12.893 -35.656  29.747  1.00  0.00     0.159 C 
ATOM      5  O   UNL     1     -13.440 -36.579  30.405  1.00  0.00    -0.295 OA
ATOM      6  C   UNL     1     -12.389 -34.371  30.403  1.00  0.00     0.067 C 
ATOM      7  C   UNL     1     -12.895 -33.248  29.470  1.00  0.00     0.021 C 
ATOM      8  C   UNL     1     -11.644 -33.523  28.604  1.00  0.00     0.022 C 
ATOM      9  C   UNL     1     -10.952 -34.080  29.882  1.00  0.00    -0.019 C 
ATOM     10  C   UNL     1      -9.969 -35.274  29.723  1.00  0.00     0.012 C 
ATOM     11  C   UNL     1     -10.242 -32.971  30.699  1.00  0.00     0.012 C 
ENDROOT
TORSDOF 0
ENDMDL
MODEL 8
REMARK VINA RESULT:    -5.361      1.703      3.491
REMARK INTER + INTRA:          -5.361
REMARK INTER:                  -5.361
REMARK INTRA:                   0.000
REMARK UNBOUND:                 0.000
REMARK SMILES CC1=CC(=O)[C@@H]2C[C@H]1C2(C)C
REMARK SMILES IDX 1 1 2 2 3 3 4 4 5 5 6 6 7 7 8 8 9 9 10 10 11 11
REMARK H PARENT
REMARK Flexibility Score: inf
ROOT
ATOM      1  C   UNL     1     -13.253 -33.022  28.537  1.00  0.00     0.040 C 
ATOM      2  C   UNL     1     -13.157 -33.977  29.684  1.00  0.00    -0.066 C 
ATOM      3  C   UNL     1     -13.274 -35.321  29.500  1.00  0.00     0.047 C 
ATOM      4  C   UNL     1     -13.129 -36.174  30.723  1.00  0.00     0.159 C 
ATOM      5  O   UNL     1     -13.178 -37.430  30.676  1.00  0.00    -0.295 OA
ATOM      6  C   UNL     1     -12.914 -35.411  32.031  1.00  0.00     0.067 C 
ATOM      7  C   UNL     1     -13.960 -34.277  31.982  1.00  0.00     0.021 C 
ATOM      8  C   UNL     1     -12.938 -33.488  31.131  1.00  0.00     0.022 C 
ATOM      9  C   UNL     1     -11.815 -34.334  31.800  1.00  0.00    -0.019 C 
ATOM     10  C   UNL     1     -10.575 -34.715  30.944  1.00  0.00     0.012 C 
ATOM     11  C   UNL     1     -11.317 -33.708  33.127  1.00  0.00     0.012 C 
ENDROOT
TORSDOF 0
ENDMDL
