MODEL 1
REMARK VINA RESULT:    -5.629      0.000      0.000
REMARK INTER + INTRA:         -10.264
REMARK INTER:                  -8.262
REMARK INTRA:                  -2.003
REMARK UNBOUND:                -2.003
REMARK SMILES O=c1c(O[C@@H]2O[C@H](CO)[C@H](O)[C@H](O)[C@H]2O)c(-c2ccc(O)c(O)c2)oc2cc(O)cc(O)c12
REMARK SMILES IDX 4 1 3 2 16 3 25 4 2 5 26 6 1 7 33 8 27 9 31 10 28 11 30 12
REMARK SMILES IDX 17 13 18 14 19 15 20 16 24 17 22 18 21 19 23 21 32 23 29 25
REMARK SMILES IDX 5 27 14 28 6 29 12 30 7 31 10 32 15 33 13 35 8 37 9 38 11 40
REMARK H PARENT 21 20 23 22 32 24 29 26 15 34 13 36 9 39 11 41
REMARK Flexibility Score: inf
ROOT
ATOM      1  O   UNL     1     -12.912   6.107 -37.844  1.00  0.00    -0.454 OA
ENDROOT
BRANCH   1   2
ATOM      2  C   UNL     1     -13.838   5.206 -37.283  1.00  0.00     0.214 A 
ATOM      3  C   UNL     1     -13.560   4.647 -36.023  1.00  0.00     0.180 A 
ATOM      4  O   UNL     1     -14.446   3.853 -35.437  1.00  0.00    -0.452 OA
ATOM      5  C   UNL     1     -15.047   4.857 -37.921  1.00  0.00     0.239 A 
ATOM      6  C   UNL     1     -15.596   3.501 -35.996  1.00  0.00     0.146 A 
ATOM      7  O   UNL     1     -15.328   5.371 -39.033  1.00  0.00    -0.285 OA
ATOM      8  C   UNL     1     -15.940   3.952 -37.295  1.00  0.00     0.111 A 
ATOM      9  C   UNL     1     -16.465   2.681 -35.273  1.00  0.00     0.094 A 
ATOM     10  C   UNL     1     -17.168   3.499 -37.868  1.00  0.00     0.134 A 
ATOM     11  C   UNL     1     -17.688   2.295 -35.816  1.00  0.00     0.123 A 
ATOM     12  C   UNL     1     -18.035   2.708 -37.105  1.00  0.00     0.093 A 
BRANCH   3  13
ATOM     13  C   UNL     1     -12.317   4.964 -35.286  1.00  0.00     0.025 A 
ATOM     14  C   UNL     1     -11.154   4.223 -35.541  1.00  0.00     0.016 A 
ATOM     15  C   UNL     1      -9.970   4.508 -34.856  1.00  0.00     0.051 A 
ATOM     16  C   UNL     1      -9.931   5.547 -33.917  1.00  0.00     0.157 A 
ATOM     17  C   UNL     1     -12.267   6.021 -34.363  1.00  0.00     0.062 A 
ATOM     18  C   UNL     1     -11.084   6.310 -33.673  1.00  0.00     0.158 A 
BRANCH  16  19
ATOM     19  O   UNL     1      -8.749   5.826 -33.230  1.00  0.00    -0.504 OA
ATOM     20  H   UNL     1      -8.081   5.099 -33.006  1.00  0.00     0.293 HD
ENDBRANCH  16  19
BRANCH  18  21
ATOM     21  O   UNL     1     -11.077   7.359 -32.754  1.00  0.00    -0.504 OA
ATOM     22  H   UNL     1     -10.472   8.164 -32.864  1.00  0.00     0.293 HD
ENDBRANCH  18  21
ENDBRANCH   3  13
BRANCH  10  23
ATOM     23  O   UNL     1     -17.566   3.772 -39.179  1.00  0.00    -0.507 OA
ATOM     24  H   UNL     1     -17.929   4.658 -39.498  1.00  0.00     0.293 HD
ENDBRANCH  10  23
BRANCH  11  25
ATOM     25  O   UNL     1     -18.550   1.494 -35.070  1.00  0.00    -0.508 OA
ATOM     26  H   UNL     1     -19.343   1.885 -34.577  1.00  0.00     0.293 HD
ENDBRANCH  11  25
ENDBRANCH   1   2
BRANCH   1  27
ATOM     27  C   UNL     1     -11.842   5.758 -38.725  1.00  0.00     0.339 C 
ATOM     28  C   UNL     1     -12.297   5.853 -40.188  1.00  0.00     0.214 C 
ATOM     29  O   UNL     1     -10.670   6.517 -38.471  1.00  0.00    -0.332 OA
ATOM     30  C   UNL     1     -12.543   7.311 -40.594  1.00  0.00     0.180 C 
ATOM     31  C   UNL     1     -10.765   7.896 -38.807  1.00  0.00     0.179 C 
ATOM     32  C   UNL     1     -11.320   8.173 -40.235  1.00  0.00     0.177 C 
BRANCH  28  33
ATOM     33  O   UNL     1     -11.312   5.282 -41.013  1.00  0.00    -0.384 OA
ATOM     34  H   UNL     1     -11.783   4.691 -41.658  1.00  0.00     0.211 HD
ENDBRANCH  28  33
BRANCH  30  35
ATOM     35  O   UNL     1     -13.709   7.785 -39.969  1.00  0.00    -0.387 OA
ATOM     36  H   UNL     1     -14.334   7.016 -39.893  1.00  0.00     0.211 HD
ENDBRANCH  30  35
BRANCH  31  37
ATOM     37  C   UNL     1     -11.346   8.748 -37.655  1.00  0.00     0.191 C 
BRANCH  37  38
ATOM     38  O   UNL     1     -12.659   9.167 -37.903  1.00  0.00    -0.394 OA
ATOM     39  H   UNL     1     -13.179   9.012 -37.072  1.00  0.00     0.210 HD
ENDBRANCH  37  38
ENDBRANCH  31  37
BRANCH  32  40
ATOM     40  O   UNL     1     -11.618   9.534 -40.412  1.00  0.00    -0.387 OA
ATOM     41  H   UNL     1     -12.554   9.664 -40.109  1.00  0.00     0.211 HD
ENDBRANCH  32  40
ENDBRANCH   1  27
TORSDOF 12
ENDMDL
MODEL 2
REMARK VINA RESULT:    -5.562      1.822      6.669
REMARK INTER + INTRA:         -10.166
REMARK INTER:                  -8.288
REMARK INTRA:                  -1.878
REMARK UNBOUND:                -2.003
REMARK SMILES O=c1c(O[C@@H]2O[C@H](CO)[C@H](O)[C@H](O)[C@H]2O)c(-c2ccc(O)c(O)c2)oc2cc(O)cc(O)c12
REMARK SMILES IDX 4 1 3 2 16 3 25 4 2 5 26 6 1 7 33 8 27 9 31 10 28 11 30 12
REMARK SMILES IDX 17 13 18 14 19 15 20 16 24 17 22 18 21 19 23 21 32 23 29 25
REMARK SMILES IDX 5 27 14 28 6 29 12 30 7 31 10 32 15 33 13 35 8 37 9 38 11 40
REMARK H PARENT 21 20 23 22 32 24 29 26 15 34 13 36 9 39 11 41
REMARK Flexibility Score: inf
ROOT
ATOM      1  O   UNL     1     -13.661   4.723 -36.665  1.00  0.00    -0.454 OA
ENDROOT
BRANCH   1   2
ATOM      2  C   UNL     1     -12.437   4.773 -35.969  1.00  0.00     0.214 A 
ATOM      3  C   UNL     1     -11.519   5.790 -36.287  1.00  0.00     0.180 A 
ATOM      4  O   UNL     1     -10.392   5.908 -35.600  1.00  0.00    -0.452 OA
ATOM      5  C   UNL     1     -12.102   3.862 -34.945  1.00  0.00     0.239 A 
ATOM      6  C   UNL     1     -10.037   5.078 -34.628  1.00  0.00     0.146 A 
ATOM      7  O   UNL     1     -12.923   2.966 -34.625  1.00  0.00    -0.285 OA
ATOM      8  C   UNL     1     -10.858   3.977 -34.278  1.00  0.00     0.111 A 
ATOM      9  C   UNL     1      -8.837   5.315 -33.953  1.00  0.00     0.094 A 
ATOM     10  C   UNL     1     -10.400   3.086 -33.259  1.00  0.00     0.134 A 
ATOM     11  C   UNL     1      -8.430   4.477 -32.919  1.00  0.00     0.123 A 
ATOM     12  C   UNL     1      -9.212   3.371 -32.575  1.00  0.00     0.093 A 
BRANCH   3  13
ATOM     13  C   UNL     1     -11.796   6.788 -37.344  1.00  0.00     0.025 A 
ATOM     14  C   UNL     1     -11.978   8.134 -36.992  1.00  0.00     0.016 A 
ATOM     15  C   UNL     1     -12.240   9.092 -37.976  1.00  0.00     0.051 A 
ATOM     16  C   UNL     1     -12.307   8.718 -39.325  1.00  0.00     0.157 A 
ATOM     17  C   UNL     1     -11.838   6.422 -38.698  1.00  0.00     0.062 A 
ATOM     18  C   UNL     1     -12.100   7.377 -39.688  1.00  0.00     0.158 A 
BRANCH  16  19
ATOM     19  O   UNL     1     -12.572   9.674 -40.305  1.00  0.00    -0.504 OA
ATOM     20  H   UNL     1     -12.241   9.565 -41.257  1.00  0.00     0.293 HD
ENDBRANCH  16  19
BRANCH  18  21
ATOM     21  O   UNL     1     -12.147   6.973 -41.021  1.00  0.00    -0.504 OA
ATOM     22  H   UNL     1     -12.004   6.008 -41.296  1.00  0.00     0.293 HD
ENDBRANCH  18  21
ENDBRANCH   3  13
BRANCH  10  23
ATOM     23  O   UNL     1     -11.054   1.903 -32.903  1.00  0.00    -0.507 OA
ATOM     24  H   UNL     1     -11.774   1.456 -33.450  1.00  0.00     0.293 HD
ENDBRANCH  10  23
BRANCH  11  25
ATOM     25  O   UNL     1      -7.241   4.744 -32.244  1.00  0.00    -0.508 OA
ATOM     26  H   UNL     1      -7.182   4.692 -31.234  1.00  0.00     0.293 HD
ENDBRANCH  11  25
ENDBRANCH   1   2
BRANCH   1  27
ATOM     27  C   UNL     1     -14.921   5.173 -36.162  1.00  0.00     0.339 C 
ATOM     28  C   UNL     1     -15.575   6.154 -37.146  1.00  0.00     0.214 C 
ATOM     29  O   UNL     1     -15.778   4.094 -35.821  1.00  0.00    -0.332 OA
ATOM     30  C   UNL     1     -16.013   5.435 -38.428  1.00  0.00     0.180 C 
ATOM     31  C   UNL     1     -16.260   3.340 -36.928  1.00  0.00     0.179 C 
ATOM     32  C   UNL     1     -16.863   4.200 -38.077  1.00  0.00     0.177 C 
BRANCH  28  33
ATOM     33  O   UNL     1     -16.684   6.755 -36.525  1.00  0.00    -0.384 OA
ATOM     34  H   UNL     1     -16.683   6.453 -35.579  1.00  0.00     0.211 HD
ENDBRANCH  28  33
BRANCH  30  35
ATOM     35  O   UNL     1     -14.882   5.085 -39.184  1.00  0.00    -0.387 OA
ATOM     36  H   UNL     1     -15.195   4.887 -40.106  1.00  0.00     0.211 HD
ENDBRANCH  30  35
BRANCH  31  37
ATOM     37  C   UNL     1     -15.294   2.205 -37.339  1.00  0.00     0.191 C 
BRANCH  37  38
ATOM     38  O   UNL     1     -14.540   2.524 -38.474  1.00  0.00    -0.394 OA
ATOM     39  H   UNL     1     -13.676   2.040 -38.399  1.00  0.00     0.210 HD
ENDBRANCH  37  38
ENDBRANCH  31  37
BRANCH  32  40
ATOM     40  O   UNL     1     -17.092   3.427 -39.228  1.00  0.00    -0.387 OA
ATOM     41  H   UNL     1     -17.883   3.819 -39.683  1.00  0.00     0.211 HD
ENDBRANCH  32  40
ENDBRANCH   1  27
TORSDOF 12
ENDMDL
MODEL 3
REMARK VINA RESULT:    -5.542      0.809      2.050
REMARK INTER + INTRA:         -10.136
REMARK INTER:                  -8.237
REMARK INTRA:                  -1.899
REMARK UNBOUND:                -2.003
REMARK SMILES O=c1c(O[C@@H]2O[C@H](CO)[C@H](O)[C@H](O)[C@H]2O)c(-c2ccc(O)c(O)c2)oc2cc(O)cc(O)c12
REMARK SMILES IDX 4 1 3 2 16 3 25 4 2 5 26 6 1 7 33 8 27 9 31 10 28 11 30 12
REMARK SMILES IDX 17 13 18 14 19 15 20 16 24 17 22 18 21 19 23 21 32 23 29 25
REMARK SMILES IDX 5 27 14 28 6 29 12 30 7 31 10 32 15 33 13 35 8 37 9 38 11 40
REMARK H PARENT 21 20 23 22 32 24 29 26 15 34 13 36 9 39 11 41
REMARK Flexibility Score: inf
ROOT
ATOM      1  O   UNL     1     -12.881   6.043 -37.858  1.00  0.00    -0.454 OA
ENDROOT
BRANCH   1   2
ATOM      2  C   UNL     1     -13.821   5.160 -37.292  1.00  0.00     0.214 A 
ATOM      3  C   UNL     1     -13.566   4.626 -36.016  1.00  0.00     0.180 A 
ATOM      4  O   UNL     1     -14.465   3.851 -35.427  1.00  0.00    -0.452 OA
ATOM      5  C   UNL     1     -15.023   4.806 -37.940  1.00  0.00     0.239 A 
ATOM      6  C   UNL     1     -15.610   3.495 -35.995  1.00  0.00     0.146 A 
ATOM      7  O   UNL     1     -15.283   5.298 -39.067  1.00  0.00    -0.285 OA
ATOM      8  C   UNL     1     -15.931   3.921 -37.309  1.00  0.00     0.111 A 
ATOM      9  C   UNL     1     -16.496   2.696 -35.269  1.00  0.00     0.094 A 
ATOM     10  C   UNL     1     -17.154   3.464 -37.890  1.00  0.00     0.134 A 
ATOM     11  C   UNL     1     -17.713   2.308 -35.821  1.00  0.00     0.123 A 
ATOM     12  C   UNL     1     -18.038   2.695 -37.124  1.00  0.00     0.093 A 
BRANCH   3  13
ATOM     13  C   UNL     1     -12.332   4.950 -35.267  1.00  0.00     0.025 A 
ATOM     14  C   UNL     1     -11.162   4.216 -35.513  1.00  0.00     0.016 A 
ATOM     15  C   UNL     1      -9.985   4.507 -34.816  1.00  0.00     0.051 A 
ATOM     16  C   UNL     1      -9.961   5.546 -33.876  1.00  0.00     0.157 A 
ATOM     17  C   UNL     1     -12.296   6.007 -34.344  1.00  0.00     0.062 A 
ATOM     18  C   UNL     1     -11.122   6.302 -33.643  1.00  0.00     0.158 A 
BRANCH  16  19
ATOM     19  O   UNL     1      -8.788   5.833 -33.178  1.00  0.00    -0.504 OA
ATOM     20  H   UNL     1      -8.480   6.786 -33.027  1.00  0.00     0.293 HD
ENDBRANCH  16  19
BRANCH  18  21
ATOM     21  O   UNL     1     -11.129   7.351 -32.724  1.00  0.00    -0.504 OA
ATOM     22  H   UNL     1     -11.973   7.866 -32.502  1.00  0.00     0.293 HD
ENDBRANCH  18  21
ENDBRANCH   3  13
BRANCH  10  23
ATOM     23  O   UNL     1     -17.531   3.712 -39.213  1.00  0.00    -0.507 OA
ATOM     24  H   UNL     1     -17.124   4.421 -39.805  1.00  0.00     0.293 HD
ENDBRANCH  10  23
BRANCH  11  25
ATOM     25  O   UNL     1     -18.591   1.528 -35.071  1.00  0.00    -0.508 OA
ATOM     26  H   UNL     1     -19.095   1.910 -34.280  1.00  0.00     0.293 HD
ENDBRANCH  11  25
ENDBRANCH   1   2
BRANCH   1  27
ATOM     27  C   UNL     1     -13.005   7.467 -37.909  1.00  0.00     0.339 C 
ATOM     28  C   UNL     1     -11.803   8.137 -37.229  1.00  0.00     0.214 C 
ATOM     29  O   UNL     1     -13.213   7.938 -39.231  1.00  0.00    -0.332 OA
ATOM     30  C   UNL     1     -10.522   7.927 -38.046  1.00  0.00     0.180 C 
ATOM     31  C   UNL     1     -12.094   7.803 -40.099  1.00  0.00     0.179 C 
ATOM     32  C   UNL     1     -10.756   8.340 -39.510  1.00  0.00     0.177 C 
BRANCH  28  33
ATOM     33  O   UNL     1     -12.065   9.511 -37.085  1.00  0.00    -0.384 OA
ATOM     34  H   UNL     1     -12.359   9.842 -37.974  1.00  0.00     0.211 HD
ENDBRANCH  28  33
BRANCH  30  35
ATOM     35  O   UNL     1     -10.113   6.587 -37.947  1.00  0.00    -0.387 OA
ATOM     36  H   UNL     1      -9.413   6.443 -38.637  1.00  0.00     0.211 HD
ENDBRANCH  30  35
BRANCH  31  37
ATOM     37  C   UNL     1     -12.045   6.422 -40.794  1.00  0.00     0.191 C 
BRANCH  37  38
ATOM     38  O   UNL     1     -13.313   5.845 -40.935  1.00  0.00    -0.394 OA
ATOM     39  H   UNL     1     -13.292   5.283 -41.753  1.00  0.00     0.210 HD
ENDBRANCH  37  38
ENDBRANCH  31  37
BRANCH  32  40
ATOM     40  O   UNL     1      -9.660   7.959 -40.302  1.00  0.00    -0.387 OA
ATOM     41  H   UNL     1      -9.399   7.046 -40.009  1.00  0.00     0.211 HD
ENDBRANCH  32  40
ENDBRANCH   1  27
TORSDOF 12
ENDMDL
MODEL 4
REMARK VINA RESULT:    -5.405      1.730      5.759
REMARK INTER + INTRA:          -9.936
REMARK INTER:                  -7.991
REMARK INTRA:                  -1.945
REMARK UNBOUND:                -2.003
REMARK SMILES O=c1c(O[C@@H]2O[C@H](CO)[C@H](O)[C@H](O)[C@H]2O)c(-c2ccc(O)c(O)c2)oc2cc(O)cc(O)c12
REMARK SMILES IDX 4 1 3 2 16 3 25 4 2 5 26 6 1 7 33 8 27 9 31 10 28 11 30 12
REMARK SMILES IDX 17 13 18 14 19 15 20 16 24 17 22 18 21 19 23 21 32 23 29 25
REMARK SMILES IDX 5 27 14 28 6 29 12 30 7 31 10 32 15 33 13 35 8 37 9 38 11 40
REMARK H PARENT 21 20 23 22 32 24 29 26 15 34 13 36 9 39 11 41
REMARK Flexibility Score: inf
ROOT
ATOM      1  O   UNL     1     -11.732   6.247 -37.179  1.00  0.00    -0.454 OA
ENDROOT
BRANCH   1   2
ATOM      2  C   UNL     1     -11.382   5.519 -36.025  1.00  0.00     0.214 A 
ATOM      3  C   UNL     1     -12.354   4.701 -35.420  1.00  0.00     0.180 A 
ATOM      4  O   UNL     1     -12.034   3.947 -34.378  1.00  0.00    -0.452 OA
ATOM      5  C   UNL     1     -10.088   5.553 -35.462  1.00  0.00     0.239 A 
ATOM      6  C   UNL     1     -10.832   3.944 -33.818  1.00  0.00     0.146 A 
ATOM      7  O   UNL     1      -9.198   6.253 -36.007  1.00  0.00    -0.285 OA
ATOM      8  C   UNL     1      -9.801   4.786 -34.307  1.00  0.00     0.111 A 
ATOM      9  C   UNL     1     -10.600   3.088 -32.739  1.00  0.00     0.094 A 
ATOM     10  C   UNL     1      -8.541   4.779 -33.632  1.00  0.00     0.134 A 
ATOM     11  C   UNL     1      -9.350   3.042 -32.128  1.00  0.00     0.123 A 
ATOM     12  C   UNL     1      -8.328   3.883 -32.577  1.00  0.00     0.093 A 
BRANCH   3  13
ATOM     13  C   UNL     1     -13.731   4.605 -35.950  1.00  0.00     0.025 A 
ATOM     14  C   UNL     1     -14.720   5.474 -35.465  1.00  0.00     0.016 A 
ATOM     15  C   UNL     1     -16.028   5.399 -35.953  1.00  0.00     0.051 A 
ATOM     16  C   UNL     1     -16.359   4.465 -36.944  1.00  0.00     0.157 A 
ATOM     17  C   UNL     1     -14.061   3.689 -36.961  1.00  0.00     0.062 A 
ATOM     18  C   UNL     1     -15.369   3.608 -37.453  1.00  0.00     0.158 A 
BRANCH  16  19
ATOM     19  O   UNL     1     -17.665   4.388 -37.427  1.00  0.00    -0.504 OA
ATOM     20  H   UNL     1     -18.263   3.598 -37.216  1.00  0.00     0.293 HD
ENDBRANCH  16  19
BRANCH  18  21
ATOM     21  O   UNL     1     -15.661   2.676 -38.448  1.00  0.00    -0.504 OA
ATOM     22  H   UNL     1     -14.936   2.147 -38.918  1.00  0.00     0.293 HD
ENDBRANCH  18  21
ENDBRANCH   3  13
BRANCH  10  23
ATOM     23  O   UNL     1      -7.486   5.642 -33.937  1.00  0.00    -0.507 OA
ATOM     24  H   UNL     1      -7.530   6.649 -33.879  1.00  0.00     0.293 HD
ENDBRANCH  10  23
BRANCH  11  25
ATOM     25  O   UNL     1      -9.135   2.166 -31.067  1.00  0.00    -0.508 OA
ATOM     26  H   UNL     1      -8.554   1.342 -31.170  1.00  0.00     0.293 HD
ENDBRANCH  11  25
ENDBRANCH   1   2
BRANCH   1  27
ATOM     27  C   UNL     1     -11.294   5.956 -38.509  1.00  0.00     0.339 C 
ATOM     28  C   UNL     1     -12.488   5.589 -39.400  1.00  0.00     0.214 C 
ATOM     29  O   UNL     1     -10.511   7.006 -39.055  1.00  0.00    -0.332 OA
ATOM     30  C   UNL     1     -13.384   6.809 -39.649  1.00  0.00     0.180 C 
ATOM     31  C   UNL     1     -11.226   8.203 -39.336  1.00  0.00     0.179 C 
ATOM     32  C   UNL     1     -12.537   7.993 -40.149  1.00  0.00     0.177 C 
BRANCH  28  33
ATOM     33  O   UNL     1     -12.010   5.084 -40.622  1.00  0.00    -0.384 OA
ATOM     34  H   UNL     1     -12.691   4.441 -40.954  1.00  0.00     0.211 HD
ENDBRANCH  28  33
BRANCH  30  35
ATOM     35  O   UNL     1     -14.079   7.133 -38.472  1.00  0.00    -0.387 OA
ATOM     36  H   UNL     1     -13.506   6.857 -37.708  1.00  0.00     0.211 HD
ENDBRANCH  30  35
BRANCH  31  37
ATOM     37  C   UNL     1     -11.307   9.147 -38.114  1.00  0.00     0.191 C 
BRANCH  37  38
ATOM     38  O   UNL     1     -12.471   8.955 -37.361  1.00  0.00    -0.394 OA
ATOM     39  H   UNL     1     -12.342   8.132 -36.822  1.00  0.00     0.210 HD
ENDBRANCH  37  38
ENDBRANCH  31  37
BRANCH  32  40
ATOM     40  O   UNL     1     -13.312   9.164 -40.180  1.00  0.00    -0.387 OA
ATOM     41  H   UNL     1     -14.028   9.016 -40.852  1.00  0.00     0.211 HD
ENDBRANCH  32  40
ENDBRANCH   1  27
TORSDOF 12
ENDMDL
MODEL 5
REMARK VINA RESULT:    -5.358     12.430     15.039
REMARK INTER + INTRA:          -9.866
REMARK INTER:                  -7.844
REMARK INTRA:                  -2.022
REMARK UNBOUND:                -2.003
REMARK SMILES O=c1c(O[C@@H]2O[C@H](CO)[C@H](O)[C@H](O)[C@H]2O)c(-c2ccc(O)c(O)c2)oc2cc(O)cc(O)c12
REMARK SMILES IDX 4 1 3 2 16 3 25 4 2 5 26 6 1 7 33 8 27 9 31 10 28 11 30 12
REMARK SMILES IDX 17 13 18 14 19 15 20 16 24 17 22 18 21 19 23 21 32 23 29 25
REMARK SMILES IDX 5 27 14 28 6 29 12 30 7 31 10 32 15 33 13 35 8 37 9 38 11 40
REMARK H PARENT 21 20 23 22 32 24 29 26 15 34 13 36 9 39 11 41
REMARK Flexibility Score: inf
ROOT
ATOM      1  O   UNL     1     -11.666   3.079 -22.872  1.00  0.00    -0.454 OA
ENDROOT
BRANCH   1   2
ATOM      2  C   UNL     1     -11.580   1.674 -22.902  1.00  0.00     0.214 A 
ATOM      3  C   UNL     1     -10.465   1.077 -23.519  1.00  0.00     0.180 A 
ATOM      4  O   UNL     1     -10.319  -0.240 -23.499  1.00  0.00    -0.452 OA
ATOM      5  C   UNL     1     -12.551   0.835 -22.316  1.00  0.00     0.239 A 
ATOM      6  C   UNL     1     -11.203  -1.066 -22.957  1.00  0.00     0.146 A 
ATOM      7  O   UNL     1     -13.538   1.351 -21.733  1.00  0.00    -0.285 OA
ATOM      8  C   UNL     1     -12.397  -0.571 -22.372  1.00  0.00     0.111 A 
ATOM      9  C   UNL     1     -10.932  -2.437 -22.969  1.00  0.00     0.094 A 
ATOM     10  C   UNL     1     -13.338  -1.511 -21.851  1.00  0.00     0.134 A 
ATOM     11  C   UNL     1     -11.826  -3.340 -22.402  1.00  0.00     0.123 A 
ATOM     12  C   UNL     1     -13.020  -2.875 -21.844  1.00  0.00     0.093 A 
BRANCH   3  13
ATOM     13  C   UNL     1      -9.399   1.884 -24.153  1.00  0.00     0.025 A 
ATOM     14  C   UNL     1      -8.228   2.167 -23.435  1.00  0.00     0.016 A 
ATOM     15  C   UNL     1      -7.209   2.927 -24.017  1.00  0.00     0.051 A 
ATOM     16  C   UNL     1      -7.344   3.401 -25.329  1.00  0.00     0.157 A 
ATOM     17  C   UNL     1      -9.518   2.339 -25.476  1.00  0.00     0.062 A 
ATOM     18  C   UNL     1      -8.503   3.101 -26.063  1.00  0.00     0.158 A 
BRANCH  16  19
ATOM     19  O   UNL     1      -6.328   4.164 -25.906  1.00  0.00    -0.504 OA
ATOM     20  H   UNL     1      -5.932   3.924 -26.808  1.00  0.00     0.293 HD
ENDBRANCH  16  19
BRANCH  18  21
ATOM     21  O   UNL     1      -8.663   3.546 -27.374  1.00  0.00    -0.504 OA
ATOM     22  H   UNL     1      -9.571   3.578 -27.824  1.00  0.00     0.293 HD
ENDBRANCH  18  21
ENDBRANCH   3  13
BRANCH  10  23
ATOM     23  O   UNL     1     -14.598  -1.164 -21.358  1.00  0.00    -0.507 OA
ATOM     24  H   UNL     1     -15.364  -0.827 -21.921  1.00  0.00     0.293 HD
ENDBRANCH  10  23
BRANCH  11  25
ATOM     25  O   UNL     1     -11.526  -4.700 -22.406  1.00  0.00    -0.508 OA
ATOM     26  H   UNL     1     -12.183  -5.387 -22.756  1.00  0.00     0.293 HD
ENDBRANCH  11  25
ENDBRANCH   1   2
BRANCH   1  27
ATOM     27  C   UNL     1     -12.574   3.872 -23.641  1.00  0.00     0.339 C 
ATOM     28  C   UNL     1     -13.593   4.564 -22.725  1.00  0.00     0.214 C 
ATOM     29  O   UNL     1     -11.898   4.787 -24.491  1.00  0.00    -0.332 OA
ATOM     30  C   UNL     1     -12.919   5.643 -21.869  1.00  0.00     0.180 C 
ATOM     31  C   UNL     1     -11.228   5.845 -23.818  1.00  0.00     0.179 C 
ATOM     32  C   UNL     1     -12.098   6.590 -22.762  1.00  0.00     0.177 C 
BRANCH  28  33
ATOM     33  O   UNL     1     -14.605   5.137 -23.516  1.00  0.00    -0.384 OA
ATOM     34  H   UNL     1     -14.463   4.812 -24.445  1.00  0.00     0.211 HD
ENDBRANCH  28  33
BRANCH  30  35
ATOM     35  O   UNL     1     -12.118   5.035 -20.888  1.00  0.00    -0.387 OA
ATOM     36  H   UNL     1     -11.665   4.262 -21.318  1.00  0.00     0.211 HD
ENDBRANCH  30  35
BRANCH  31  37
ATOM     37  C   UNL     1      -9.791   5.462 -23.392  1.00  0.00     0.191 C 
BRANCH  37  38
ATOM     38  O   UNL     1      -9.677   5.243 -22.014  1.00  0.00    -0.394 OA
ATOM     39  H   UNL     1     -10.410   5.747 -21.574  1.00  0.00     0.210 HD
ENDBRANCH  37  38
ENDBRANCH  31  37
BRANCH  32  40
ATOM     40  O   UNL     1     -11.317   7.448 -21.970  1.00  0.00    -0.387 OA
ATOM     41  H   UNL     1     -10.407   7.052 -21.931  1.00  0.00     0.211 HD
ENDBRANCH  32  40
ENDBRANCH   1  27
TORSDOF 12
ENDMDL
MODEL 6
REMARK VINA RESULT:    -5.354      3.165      6.870
REMARK INTER + INTRA:          -9.860
REMARK INTER:                  -8.061
REMARK INTRA:                  -1.799
REMARK UNBOUND:                -2.003
REMARK SMILES O=c1c(O[C@@H]2O[C@H](CO)[C@H](O)[C@H](O)[C@H]2O)c(-c2ccc(O)c(O)c2)oc2cc(O)cc(O)c12
REMARK SMILES IDX 4 1 3 2 16 3 25 4 2 5 26 6 1 7 33 8 27 9 31 10 28 11 30 12
REMARK SMILES IDX 17 13 18 14 19 15 20 16 24 17 22 18 21 19 23 21 32 23 29 25
REMARK SMILES IDX 5 27 14 28 6 29 12 30 7 31 10 32 15 33 13 35 8 37 9 38 11 40
REMARK H PARENT 21 20 23 22 32 24 29 26 15 34 13 36 9 39 11 41
REMARK Flexibility Score: inf
ROOT
ATOM      1  O   UNL     1     -13.919   3.628 -38.345  1.00  0.00    -0.454 OA
ENDROOT
BRANCH   1   2
ATOM      2  C   UNL     1     -12.696   3.247 -38.930  1.00  0.00     0.214 A 
ATOM      3  C   UNL     1     -11.879   4.241 -39.498  1.00  0.00     0.180 A 
ATOM      4  O   UNL     1     -10.689   3.924 -39.989  1.00  0.00    -0.452 OA
ATOM      5  C   UNL     1     -12.241   1.912 -38.949  1.00  0.00     0.239 A 
ATOM      6  C   UNL     1     -10.219   2.685 -40.025  1.00  0.00     0.146 A 
ATOM      7  O   UNL     1     -12.943   1.015 -38.419  1.00  0.00    -0.285 OA
ATOM      8  C   UNL     1     -10.994   1.599 -39.544  1.00  0.00     0.111 A 
ATOM      9  C   UNL     1      -8.939   2.471 -40.543  1.00  0.00     0.094 A 
ATOM     10  C   UNL     1     -10.458   0.280 -39.656  1.00  0.00     0.134 A 
ATOM     11  C   UNL     1      -8.400   1.188 -40.590  1.00  0.00     0.123 A 
ATOM     12  C   UNL     1      -9.158   0.102 -40.144  1.00  0.00     0.093 A 
BRANCH   3  13
ATOM     13  C   UNL     1     -12.280   5.665 -39.515  1.00  0.00     0.025 A 
ATOM     14  C   UNL     1     -12.962   6.177 -40.628  1.00  0.00     0.016 A 
ATOM     15  C   UNL     1     -13.350   7.520 -40.663  1.00  0.00     0.051 A 
ATOM     16  C   UNL     1     -13.073   8.362 -39.578  1.00  0.00     0.157 A 
ATOM     17  C   UNL     1     -12.028   6.506 -38.419  1.00  0.00     0.062 A 
ATOM     18  C   UNL     1     -12.413   7.851 -38.449  1.00  0.00     0.158 A 
BRANCH  16  19
ATOM     19  O   UNL     1     -13.457   9.703 -39.616  1.00  0.00    -0.504 OA
ATOM     20  H   UNL     1     -13.779  10.138 -40.473  1.00  0.00     0.293 HD
ENDBRANCH  16  19
BRANCH  18  21
ATOM     21  O   UNL     1     -12.134   8.659 -37.347  1.00  0.00    -0.504 OA
ATOM     22  H   UNL     1     -12.512   9.594 -37.257  1.00  0.00     0.293 HD
ENDBRANCH  18  21
ENDBRANCH   3  13
BRANCH  10  23
ATOM     23  O   UNL     1     -11.164  -0.881 -39.330  1.00  0.00    -0.507 OA
ATOM     24  H   UNL     1     -11.720  -1.002 -38.497  1.00  0.00     0.293 HD
ENDBRANCH  10  23
BRANCH  11  25
ATOM     25  O   UNL     1      -7.113   1.000 -41.090  1.00  0.00    -0.508 OA
ATOM     26  H   UNL     1      -6.952   0.765 -42.061  1.00  0.00     0.293 HD
ENDBRANCH  11  25
ENDBRANCH   1   2
BRANCH   1  27
ATOM     27  C   UNL     1     -14.112   3.962 -36.968  1.00  0.00     0.339 C 
ATOM     28  C   UNL     1     -14.773   5.341 -36.836  1.00  0.00     0.214 C 
ATOM     29  O   UNL     1     -14.820   2.951 -36.267  1.00  0.00    -0.332 OA
ATOM     30  C   UNL     1     -16.224   5.305 -37.333  1.00  0.00     0.180 C 
ATOM     31  C   UNL     1     -16.188   2.813 -36.634  1.00  0.00     0.179 C 
ATOM     32  C   UNL     1     -16.985   4.150 -36.657  1.00  0.00     0.177 C 
BRANCH  28  33
ATOM     33  O   UNL     1     -14.734   5.741 -35.489  1.00  0.00    -0.384 OA
ATOM     34  H   UNL     1     -14.724   6.735 -35.483  1.00  0.00     0.211 HD
ENDBRANCH  28  33
BRANCH  30  35
ATOM     35  O   UNL     1     -16.241   5.185 -38.732  1.00  0.00    -0.387 OA
ATOM     36  H   UNL     1     -16.299   4.216 -38.943  1.00  0.00     0.211 HD
ENDBRANCH  30  35
BRANCH  31  37
ATOM     37  C   UNL     1     -16.386   1.862 -37.837  1.00  0.00     0.191 C 
BRANCH  37  38
ATOM     38  O   UNL     1     -16.744   2.541 -39.008  1.00  0.00    -0.394 OA
ATOM     39  H   UNL     1     -16.827   1.863 -39.728  1.00  0.00     0.210 HD
ENDBRANCH  37  38
ENDBRANCH  31  37
BRANCH  32  40
ATOM     40  O   UNL     1     -18.244   3.984 -37.257  1.00  0.00    -0.387 OA
ATOM     41  H   UNL     1     -18.740   4.834 -37.123  1.00  0.00     0.211 HD
ENDBRANCH  32  40
ENDBRANCH   1  27
TORSDOF 12
ENDMDL
MODEL 7
REMARK VINA RESULT:    -5.325      9.426     13.021
REMARK INTER + INTRA:          -9.817
REMARK INTER:                  -7.878
REMARK INTRA:                  -1.939
REMARK UNBOUND:                -2.003
REMARK SMILES O=c1c(O[C@@H]2O[C@H](CO)[C@H](O)[C@H](O)[C@H]2O)c(-c2ccc(O)c(O)c2)oc2cc(O)cc(O)c12
REMARK SMILES IDX 4 1 3 2 16 3 25 4 2 5 26 6 1 7 33 8 27 9 31 10 28 11 30 12
REMARK SMILES IDX 17 13 18 14 19 15 20 16 24 17 22 18 21 19 23 21 32 23 29 25
REMARK SMILES IDX 5 27 14 28 6 29 12 30 7 31 10 32 15 33 13 35 8 37 9 38 11 40
REMARK H PARENT 21 20 23 22 32 24 29 26 15 34 13 36 9 39 11 41
REMARK Flexibility Score: inf
ROOT
ATOM      1  O   UNL     1     -13.042   5.614 -24.246  1.00  0.00    -0.454 OA
ENDROOT
BRANCH   1   2
ATOM      2  C   UNL     1     -13.407   4.933 -25.423  1.00  0.00     0.214 A 
ATOM      3  C   UNL     1     -12.453   4.114 -26.054  1.00  0.00     0.180 A 
ATOM      4  O   UNL     1     -12.788   3.403 -27.122  1.00  0.00    -0.452 OA
ATOM      5  C   UNL     1     -14.698   5.015 -25.985  1.00  0.00     0.239 A 
ATOM      6  C   UNL     1     -13.989   3.445 -27.682  1.00  0.00     0.146 A 
ATOM      7  O   UNL     1     -15.573   5.716 -25.418  1.00  0.00    -0.285 OA
ATOM      8  C   UNL     1     -15.002   4.294 -27.166  1.00  0.00     0.111 A 
ATOM      9  C   UNL     1     -14.239   2.631 -28.789  1.00  0.00     0.094 A 
ATOM     10  C   UNL     1     -16.260   4.337 -27.841  1.00  0.00     0.134 A 
ATOM     11  C   UNL     1     -15.489   2.634 -29.402  1.00  0.00     0.123 A 
ATOM     12  C   UNL     1     -16.492   3.482 -28.925  1.00  0.00     0.093 A 
BRANCH   3  13
ATOM     13  C   UNL     1     -11.078   3.969 -25.528  1.00  0.00     0.025 A 
ATOM     14  C   UNL     1     -10.086   4.877 -25.926  1.00  0.00     0.016 A 
ATOM     15  C   UNL     1      -8.782   4.758 -25.439  1.00  0.00     0.051 A 
ATOM     16  C   UNL     1      -8.457   3.737 -24.535  1.00  0.00     0.157 A 
ATOM     17  C   UNL     1     -10.755   2.965 -24.602  1.00  0.00     0.062 A 
ATOM     18  C   UNL     1      -9.450   2.839 -24.112  1.00  0.00     0.158 A 
BRANCH  16  19
ATOM     19  O   UNL     1      -7.154   3.616 -24.054  1.00  0.00    -0.504 OA
ATOM     20  H   UNL     1      -6.964   3.428 -23.076  1.00  0.00     0.293 HD
ENDBRANCH  16  19
BRANCH  18  21
ATOM     21  O   UNL     1      -9.164   1.820 -23.204  1.00  0.00    -0.504 OA
ATOM     22  H   UNL     1      -9.639   0.926 -23.232  1.00  0.00     0.293 HD
ENDBRANCH  18  21
ENDBRANCH   3  13
BRANCH  10  23
ATOM     23  O   UNL     1     -17.296   5.214 -27.508  1.00  0.00    -0.507 OA
ATOM     24  H   UNL     1     -18.262   4.947 -27.394  1.00  0.00     0.293 HD
ENDBRANCH  10  23
BRANCH  11  25
ATOM     25  O   UNL     1     -15.723   1.798 -30.492  1.00  0.00    -0.508 OA
ATOM     26  H   UNL     1     -15.160   1.853 -31.332  1.00  0.00     0.293 HD
ENDBRANCH  11  25
ENDBRANCH   1   2
BRANCH   1  27
ATOM     27  C   UNL     1     -13.405   5.229 -22.918  1.00  0.00     0.339 C 
ATOM     28  C   UNL     1     -12.152   4.918 -22.086  1.00  0.00     0.214 C 
ATOM     29  O   UNL     1     -14.246   6.187 -22.294  1.00  0.00    -0.332 OA
ATOM     30  C   UNL     1     -11.346   6.194 -21.810  1.00  0.00     0.180 C 
ATOM     31  C   UNL     1     -13.617   7.423 -21.980  1.00  0.00     0.179 C 
ATOM     32  C   UNL     1     -12.263   7.282 -21.223  1.00  0.00     0.177 C 
BRANCH  28  33
ATOM     33  O   UNL     1     -12.542   4.321 -20.875  1.00  0.00    -0.384 OA
ATOM     34  H   UNL     1     -11.730   4.265 -20.306  1.00  0.00     0.211 HD
ENDBRANCH  28  33
BRANCH  30  35
ATOM     35  O   UNL     1     -10.724   6.625 -22.993  1.00  0.00    -0.387 OA
ATOM     36  H   UNL     1      -9.941   7.177 -22.728  1.00  0.00     0.211 HD
ENDBRANCH  30  35
BRANCH  31  37
ATOM     37  C   UNL     1     -13.657   8.425 -23.157  1.00  0.00     0.191 C 
BRANCH  37  38
ATOM     38  O   UNL     1     -12.521   8.346 -23.971  1.00  0.00    -0.394 OA
ATOM     39  H   UNL     1     -12.378   9.245 -24.367  1.00  0.00     0.210 HD
ENDBRANCH  37  38
ENDBRANCH  31  37
BRANCH  32  40
ATOM     40  O   UNL     1     -11.581   8.508 -21.162  1.00  0.00    -0.387 OA
ATOM     41  H   UNL     1     -11.366   8.763 -22.098  1.00  0.00     0.211 HD
ENDBRANCH  32  40
ENDBRANCH   1  27
TORSDOF 12
ENDMDL
MODEL 8
REMARK VINA RESULT:    -5.319      3.176      6.516
REMARK INTER + INTRA:          -9.809
REMARK INTER:                  -7.838
REMARK INTRA:                  -1.972
REMARK UNBOUND:                -2.003
REMARK SMILES O=c1c(O[C@@H]2O[C@H](CO)[C@H](O)[C@H](O)[C@H]2O)c(-c2ccc(O)c(O)c2)oc2cc(O)cc(O)c12
REMARK SMILES IDX 4 1 3 2 16 3 25 4 2 5 26 6 1 7 33 8 27 9 31 10 28 11 30 12
REMARK SMILES IDX 17 13 18 14 19 15 20 16 24 17 22 18 21 19 23 21 32 23 29 25
REMARK SMILES IDX 5 27 14 28 6 29 12 30 7 31 10 32 15 33 13 35 8 37 9 38 11 40
REMARK H PARENT 21 20 23 22 32 24 29 26 15 34 13 36 9 39 11 41
REMARK Flexibility Score: inf
ROOT
ATOM      1  O   UNL     1     -14.290   3.916 -37.913  1.00  0.00    -0.454 OA
ENDROOT
BRANCH   1   2
ATOM      2  C   UNL     1     -13.245   3.261 -38.592  1.00  0.00     0.214 A 
ATOM      3  C   UNL     1     -12.364   4.026 -39.377  1.00  0.00     0.180 A 
ATOM      4  O   UNL     1     -11.327   3.449 -39.968  1.00  0.00    -0.452 OA
ATOM      5  C   UNL     1     -13.026   1.870 -38.498  1.00  0.00     0.239 A 
ATOM      6  C   UNL     1     -11.080   2.148 -39.905  1.00  0.00     0.146 A 
ATOM      7  O   UNL     1     -13.783   1.175 -37.776  1.00  0.00    -0.285 OA
ATOM      8  C   UNL     1     -11.948   1.277 -39.199  1.00  0.00     0.111 A 
ATOM      9  C   UNL     1      -9.941   1.653 -40.546  1.00  0.00     0.094 A 
ATOM     10  C   UNL     1     -11.660  -0.123 -39.208  1.00  0.00     0.134 A 
ATOM     11  C   UNL     1      -9.636   0.295 -40.497  1.00  0.00     0.123 A 
ATOM     12  C   UNL     1     -10.492  -0.583 -39.827  1.00  0.00     0.093 A 
BRANCH   3  13
ATOM     13  C   UNL     1     -12.521   5.490 -39.524  1.00  0.00     0.025 A 
ATOM     14  C   UNL     1     -12.918   6.021 -40.759  1.00  0.00     0.016 A 
ATOM     15  C   UNL     1     -13.073   7.402 -40.918  1.00  0.00     0.051 A 
ATOM     16  C   UNL     1     -12.846   8.265 -39.839  1.00  0.00     0.157 A 
ATOM     17  C   UNL     1     -12.320   6.357 -38.438  1.00  0.00     0.062 A 
ATOM     18  C   UNL     1     -12.471   7.739 -38.591  1.00  0.00     0.158 A 
BRANCH  16  19
ATOM     19  O   UNL     1     -12.995   9.643 -40.000  1.00  0.00    -0.504 OA
ATOM     20  H   UNL     1     -13.908  10.082 -39.987  1.00  0.00     0.293 HD
ENDBRANCH  16  19
BRANCH  18  21
ATOM     21  O   UNL     1     -12.250   8.569 -37.493  1.00  0.00    -0.504 OA
ATOM     22  H   UNL     1     -11.562   8.349 -36.783  1.00  0.00     0.293 HD
ENDBRANCH  18  21
ENDBRANCH   3  13
BRANCH  10  23
ATOM     23  O   UNL     1     -12.495  -1.096 -38.654  1.00  0.00    -0.507 OA
ATOM     24  H   UNL     1     -12.610  -2.031 -39.016  1.00  0.00     0.293 HD
ENDBRANCH  10  23
BRANCH  11  25
ATOM     25  O   UNL     1      -8.484  -0.174 -41.124  1.00  0.00    -0.508 OA
ATOM     26  H   UNL     1      -7.612  -0.279 -40.621  1.00  0.00     0.293 HD
ENDBRANCH  11  25
ENDBRANCH   1   2
BRANCH   1  27
ATOM     27  C   UNL     1     -15.555   4.270 -38.479  1.00  0.00     0.339 C 
ATOM     28  C   UNL     1     -16.617   3.220 -38.123  1.00  0.00     0.214 C 
ATOM     29  O   UNL     1     -15.951   5.586 -38.123  1.00  0.00    -0.332 OA
ATOM     30  C   UNL     1     -16.948   3.260 -36.625  1.00  0.00     0.180 C 
ATOM     31  C   UNL     1     -16.289   5.759 -36.752  1.00  0.00     0.179 C 
ATOM     32  C   UNL     1     -17.284   4.699 -36.196  1.00  0.00     0.177 C 
BRANCH  28  33
ATOM     33  O   UNL     1     -17.776   3.466 -38.880  1.00  0.00    -0.384 OA
ATOM     34  H   UNL     1     -18.480   3.758 -38.243  1.00  0.00     0.211 HD
ENDBRANCH  28  33
BRANCH  30  35
ATOM     35  O   UNL     1     -15.870   2.741 -35.890  1.00  0.00    -0.387 OA
ATOM     36  H   UNL     1     -16.233   2.027 -35.302  1.00  0.00     0.211 HD
ENDBRANCH  30  35
BRANCH  31  37
ATOM     37  C   UNL     1     -15.059   6.089 -35.875  1.00  0.00     0.191 C 
BRANCH  37  38
ATOM     38  O   UNL     1     -14.673   5.016 -35.062  1.00  0.00    -0.394 OA
ATOM     39  H   UNL     1     -15.499   4.637 -34.663  1.00  0.00     0.210 HD
ENDBRANCH  37  38
ENDBRANCH  31  37
BRANCH  32  40
ATOM     40  O   UNL     1     -17.384   4.776 -34.797  1.00  0.00    -0.387 OA
ATOM     41  H   UNL     1     -18.312   5.065 -34.592  1.00  0.00     0.211 HD
ENDBRANCH  32  40
ENDBRANCH   1  27
TORSDOF 12
ENDMDL
MODEL 9
REMARK VINA RESULT:    -5.262      3.874      7.321
REMARK INTER + INTRA:          -9.726
REMARK INTER:                  -7.727
REMARK INTRA:                  -1.999
REMARK UNBOUND:                -2.003
REMARK SMILES O=c1c(O[C@@H]2O[C@H](CO)[C@H](O)[C@H](O)[C@H]2O)c(-c2ccc(O)c(O)c2)oc2cc(O)cc(O)c12
REMARK SMILES IDX 4 1 3 2 16 3 25 4 2 5 26 6 1 7 33 8 27 9 31 10 28 11 30 12
REMARK SMILES IDX 17 13 18 14 19 15 20 16 24 17 22 18 21 19 23 21 32 23 29 25
REMARK SMILES IDX 5 27 14 28 6 29 12 30 7 31 10 32 15 33 13 35 8 37 9 38 11 40
REMARK H PARENT 21 20 23 22 32 24 29 26 15 34 13 36 9 39 11 41
REMARK Flexibility Score: inf
ROOT
ATOM      1  O   UNL     1     -18.307   3.458 -36.198  1.00  0.00    -0.454 OA
ENDROOT
BRANCH   1   2
ATOM      2  C   UNL     1     -18.775   4.679 -35.674  1.00  0.00     0.214 A 
ATOM      3  C   UNL     1     -17.888   5.769 -35.604  1.00  0.00     0.180 A 
ATOM      4  O   UNL     1     -18.319   6.951 -35.185  1.00  0.00    -0.452 OA
ATOM      5  C   UNL     1     -20.104   4.866 -35.240  1.00  0.00     0.239 A 
ATOM      6  C   UNL     1     -19.558   7.174 -34.771  1.00  0.00     0.146 A 
ATOM      7  O   UNL     1     -20.919   3.913 -35.324  1.00  0.00    -0.285 OA
ATOM      8  C   UNL     1     -20.511   6.124 -34.734  1.00  0.00     0.111 A 
ATOM      9  C   UNL     1     -19.908   8.467 -34.377  1.00  0.00     0.094 A 
ATOM     10  C   UNL     1     -21.817   6.411 -34.229  1.00  0.00     0.134 A 
ATOM     11  C   UNL     1     -21.201   8.750 -33.945  1.00  0.00     0.123 A 
ATOM     12  C   UNL     1     -22.148   7.725 -33.877  1.00  0.00     0.093 A 
BRANCH   3  13
ATOM     13  C   UNL     1     -16.480   5.659 -36.044  1.00  0.00     0.025 A 
ATOM     14  C   UNL     1     -15.518   5.150 -35.159  1.00  0.00     0.016 A 
ATOM     15  C   UNL     1     -14.182   5.038 -35.556  1.00  0.00     0.051 A 
ATOM     16  C   UNL     1     -13.796   5.419 -36.847  1.00  0.00     0.157 A 
ATOM     17  C   UNL     1     -16.093   6.015 -37.345  1.00  0.00     0.062 A 
ATOM     18  C   UNL     1     -14.758   5.906 -37.748  1.00  0.00     0.158 A 
BRANCH  16  19
ATOM     19  O   UNL     1     -12.462   5.310 -37.240  1.00  0.00    -0.504 OA
ATOM     20  H   UNL     1     -12.073   5.900 -37.967  1.00  0.00     0.293 HD
ENDBRANCH  16  19
BRANCH  18  21
ATOM     21  O   UNL     1     -14.409   6.281 -39.044  1.00  0.00    -0.504 OA
ATOM     22  H   UNL     1     -14.820   7.088 -39.499  1.00  0.00     0.293 HD
ENDBRANCH  18  21
ENDBRANCH   3  13
BRANCH  10  23
ATOM     23  O   UNL     1     -22.807   5.445 -34.030  1.00  0.00    -0.507 OA
ATOM     24  H   UNL     1     -22.753   4.490 -34.351  1.00  0.00     0.293 HD
ENDBRANCH  10  23
BRANCH  11  25
ATOM     25  O   UNL     1     -21.535  10.051 -33.577  1.00  0.00    -0.508 OA
ATOM     26  H   UNL     1     -22.222  10.238 -32.856  1.00  0.00     0.293 HD
ENDBRANCH  11  25
ENDBRANCH   1   2
BRANCH   1  27
ATOM     27  C   UNL     1     -18.563   2.969 -37.517  1.00  0.00     0.339 C 
ATOM     28  C   UNL     1     -17.245   2.713 -38.262  1.00  0.00     0.214 C 
ATOM     29  O   UNL     1     -19.412   1.831 -37.510  1.00  0.00    -0.332 OA
ATOM     30  C   UNL     1     -16.491   1.525 -37.651  1.00  0.00     0.180 C 
ATOM     31  C   UNL     1     -18.829   0.652 -36.967  1.00  0.00     0.179 C 
ATOM     32  C   UNL     1     -17.424   0.306 -37.542  1.00  0.00     0.177 C 
BRANCH  28  33
ATOM     33  O   UNL     1     -17.525   2.463 -39.616  1.00  0.00    -0.384 OA
ATOM     34  H   UNL     1     -16.843   2.954 -40.147  1.00  0.00     0.211 HD
ENDBRANCH  28  33
BRANCH  30  35
ATOM     35  O   UNL     1     -15.969   1.890 -36.399  1.00  0.00    -0.387 OA
ATOM     36  H   UNL     1     -16.668   1.689 -35.721  1.00  0.00     0.211 HD
ENDBRANCH  30  35
BRANCH  31  37
ATOM     37  C   UNL     1     -18.997   0.560 -35.433  1.00  0.00     0.191 C 
BRANCH  37  38
ATOM     38  O   UNL     1     -17.838   0.929 -34.740  1.00  0.00    -0.394 OA
ATOM     39  H   UNL     1     -17.947   0.629 -33.801  1.00  0.00     0.210 HD
ENDBRANCH  37  38
ENDBRANCH  31  37
BRANCH  32  40
ATOM     40  O   UNL     1     -16.805  -0.713 -36.799  1.00  0.00    -0.387 OA
ATOM     41  H   UNL     1     -16.332  -1.294 -37.450  1.00  0.00     0.211 HD
ENDBRANCH  32  40
ENDBRANCH   1  27
TORSDOF 12
ENDMDL
