MODEL 1
REMARK VINA RESULT:    -2.129      0.000      0.000
REMARK INTER + INTRA:          -2.129
REMARK INTER:                  -2.129
REMARK INTRA:                   0.000
REMARK UNBOUND:                 0.000
REMARK SMILES CC(=O)[O-]
REMARK SMILES IDX 1 1 2 2 3 3 4 4
REMARK H PARENT
REMARK Flexibility Score: inf
ROOT
ATOM      1  C   UNL     1       8.742   6.179 -10.938  1.00  0.00     0.063 C 
ATOM      2  C   UNL     1       7.358   6.547 -10.520  1.00  0.00     0.038 C 
ATOM      3  O   UNL     1       6.946   7.727 -10.669  1.00  0.00    -0.550 OA
ATOM      4  O   UNL     1       6.502   5.577 -10.014  1.00  0.00    -0.550 OA
ENDROOT
TORSDOF 0
ENDMDL
MODEL 2
REMARK VINA RESULT:    -2.104      4.844      5.387
REMARK INTER + INTRA:          -2.104
REMARK INTER:                  -2.104
REMARK INTRA:                   0.000
REMARK UNBOUND:                 0.000
REMARK SMILES CC(=O)[O-]
REMARK SMILES IDX 1 1 2 2 3 3 4 4
REMARK H PARENT
REMARK Flexibility Score: inf
ROOT
ATOM      1  C   UNL     1       7.261   5.045  -7.088  1.00  0.00     0.063 C 
ATOM      2  C   UNL     1       6.964   5.149  -5.631  1.00  0.00     0.038 C 
ATOM      3  O   UNL     1       6.751   4.110  -4.954  1.00  0.00    -0.550 OA
ATOM      4  O   UNL     1       6.973   6.389  -5.005  1.00  0.00    -0.550 OA
ENDROOT
TORSDOF 0
ENDMDL
MODEL 3
REMARK VINA RESULT:    -2.103     15.036     15.083
REMARK INTER + INTRA:          -2.103
REMARK INTER:                  -2.103
REMARK INTRA:                   0.000
REMARK UNBOUND:                 0.000
REMARK SMILES CC(=O)[O-]
REMARK SMILES IDX 1 1 2 2 3 3 4 4
REMARK H PARENT
REMARK Flexibility Score: inf
ROOT
ATOM      1  C   UNL     1      10.087   0.277   2.765  1.00  0.00     0.063 C 
ATOM      2  C   UNL     1       9.500  -1.006   2.284  1.00  0.00     0.038 C 
ATOM      3  O   UNL     1       8.267  -1.223   2.410  1.00  0.00    -0.550 OA
ATOM      4  O   UNL     1      10.303  -1.944   1.648  1.00  0.00    -0.550 OA
ENDROOT
TORSDOF 0
ENDMDL
MODEL 4
REMARK VINA RESULT:    -2.094     15.012     15.147
REMARK INTER + INTRA:          -2.094
REMARK INTER:                  -2.094
REMARK INTRA:                   0.000
REMARK UNBOUND:                 0.000
REMARK SMILES CC(=O)[O-]
REMARK SMILES IDX 1 1 2 2 3 3 4 4
REMARK H PARENT
REMARK Flexibility Score: inf
ROOT
ATOM      1  C   UNL     1       9.634   0.070   2.420  1.00  0.00     0.063 C 
ATOM      2  C   UNL     1       9.689  -1.381   2.077  1.00  0.00     0.038 C 
ATOM      3  O   UNL     1      10.798  -1.937   1.862  1.00  0.00    -0.550 OA
ATOM      4  O   UNL     1       8.522  -2.134   2.045  1.00  0.00    -0.550 OA
ENDROOT
TORSDOF 0
ENDMDL
MODEL 5
REMARK VINA RESULT:    -2.087     23.163     23.757
REMARK INTER + INTRA:          -2.087
REMARK INTER:                  -2.087
REMARK INTRA:                   0.000
REMARK UNBOUND:                 0.000
REMARK SMILES CC(=O)[O-]
REMARK SMILES IDX 1 1 2 2 3 3 4 4
REMARK H PARENT
REMARK Flexibility Score: inf
ROOT
ATOM      1  C   UNL     1       3.403 -11.408   5.087  1.00  0.00     0.063 C 
ATOM      2  C   UNL     1       3.161 -10.130   5.815  1.00  0.00     0.038 C 
ATOM      3  O   UNL     1       2.749 -10.149   7.004  1.00  0.00    -0.550 OA
ATOM      4  O   UNL     1       3.439  -8.915   5.202  1.00  0.00    -0.550 OA
ENDROOT
TORSDOF 0
ENDMDL
MODEL 6
REMARK VINA RESULT:    -2.073     13.512     13.798
REMARK INTER + INTRA:          -2.073
REMARK INTER:                  -2.073
REMARK INTRA:                   0.000
REMARK UNBOUND:                 0.000
REMARK SMILES CC(=O)[O-]
REMARK SMILES IDX 1 1 2 2 3 3 4 4
REMARK H PARENT
REMARK Flexibility Score: inf
ROOT
ATOM      1  C   UNL     1      11.295   0.446   0.872  1.00  0.00     0.063 C 
ATOM      2  C   UNL     1      11.910  -0.694   0.134  1.00  0.00     0.038 C 
ATOM      3  O   UNL     1      11.415  -1.848   0.228  1.00  0.00    -0.550 OA
ATOM      4  O   UNL     1      13.000  -0.477  -0.700  1.00  0.00    -0.550 OA
ENDROOT
TORSDOF 0
ENDMDL
MODEL 7
REMARK VINA RESULT:    -2.035     13.545     14.018
REMARK INTER + INTRA:          -2.035
REMARK INTER:                  -2.035
REMARK INTRA:                   0.000
REMARK UNBOUND:                 0.000
REMARK SMILES CC(=O)[O-]
REMARK SMILES IDX 1 1 2 2 3 3 4 4
REMARK H PARENT
REMARK Flexibility Score: inf
ROOT
ATOM      1  C   UNL     1      15.110  -0.440  -1.777  1.00  0.00     0.063 C 
ATOM      2  C   UNL     1      14.230  -0.423  -0.572  1.00  0.00     0.038 C 
ATOM      3  O   UNL     1      13.001  -0.668  -0.684  1.00  0.00    -0.550 OA
ATOM      4  O   UNL     1      14.775  -0.188   0.684  1.00  0.00    -0.550 OA
ENDROOT
TORSDOF 0
ENDMDL
MODEL 8
REMARK VINA RESULT:    -2.004     14.384     14.808
REMARK INTER + INTRA:          -2.004
REMARK INTER:                  -2.004
REMARK INTRA:                   0.000
REMARK UNBOUND:                 0.000
REMARK SMILES CC(=O)[O-]
REMARK SMILES IDX 1 1 2 2 3 3 4 4
REMARK H PARENT
REMARK Flexibility Score: inf
ROOT
ATOM      1  C   UNL     1      10.866   0.361   1.126  1.00  0.00     0.063 C 
ATOM      2  C   UNL     1      10.320  -0.726   1.988  1.00  0.00     0.038 C 
ATOM      3  O   UNL     1      11.058  -1.682   2.341  1.00  0.00    -0.550 OA
ATOM      4  O   UNL     1       9.010  -0.659   2.446  1.00  0.00    -0.550 OA
ENDROOT
TORSDOF 0
ENDMDL
MODEL 9
REMARK VINA RESULT:    -1.953      3.260      3.510
REMARK INTER + INTRA:          -1.953
REMARK INTER:                  -1.953
REMARK INTRA:                   0.000
REMARK UNBOUND:                 0.000
REMARK SMILES CC(=O)[O-]
REMARK SMILES IDX 1 1 2 2 3 3 4 4
REMARK H PARENT
REMARK Flexibility Score: inf
ROOT
ATOM      1  C   UNL     1       7.157   4.727  -6.579  1.00  0.00     0.063 C 
ATOM      2  C   UNL     1       7.412   5.859  -7.515  1.00  0.00     0.038 C 
ATOM      3  O   UNL     1       7.972   6.908  -7.101  1.00  0.00    -0.550 OA
ATOM      4  O   UNL     1       7.078   5.741  -8.859  1.00  0.00    -0.550 OA
ENDROOT
TORSDOF 0
ENDMDL
