MODEL 1
REMARK VINA RESULT:    -2.440      0.000      0.000
REMARK INTER + INTRA:          -2.440
REMARK INTER:                  -2.440
REMARK INTRA:                   0.000
REMARK UNBOUND:                 0.000
REMARK SMILES CC(=O)[O-]
REMARK SMILES IDX 1 1 2 2 3 3 4 4
REMARK H PARENT
REMARK Flexibility Score: inf
ROOT
ATOM      1  C   UNL     1      50.757 -43.088 172.621  1.00  0.00     0.063 C 
ATOM      2  C   UNL     1      51.756 -42.260 173.356  1.00  0.00     0.038 C 
ATOM      3  O   UNL     1      52.588 -42.809 174.125  1.00  0.00    -0.550 OA
ATOM      4  O   UNL     1      51.806 -40.887 173.152  1.00  0.00    -0.550 OA
ENDROOT
TORSDOF 0
ENDMDL
MODEL 2
REMARK VINA RESULT:    -2.387      1.396      2.025
REMARK INTER + INTRA:          -2.387
REMARK INTER:                  -2.387
REMARK INTRA:                   0.000
REMARK UNBOUND:                 0.000
REMARK SMILES CC(=O)[O-]
REMARK SMILES IDX 1 1 2 2 3 3 4 4
REMARK H PARENT
REMARK Flexibility Score: inf
ROOT
ATOM      1  C   UNL     1      51.747 -40.853 172.998  1.00  0.00     0.063 C 
ATOM      2  C   UNL     1      51.744 -42.305 173.340  1.00  0.00     0.038 C 
ATOM      3  O   UNL     1      50.850 -43.060 172.879  1.00  0.00    -0.550 OA
ATOM      4  O   UNL     1      52.760 -42.836 174.125  1.00  0.00    -0.550 OA
ENDROOT
TORSDOF 0
ENDMDL
MODEL 3
REMARK VINA RESULT:    -2.292     10.620     11.057
REMARK INTER + INTRA:          -2.292
REMARK INTER:                  -2.292
REMARK INTRA:                   0.000
REMARK UNBOUND:                 0.000
REMARK SMILES CC(=O)[O-]
REMARK SMILES IDX 1 1 2 2 3 3 4 4
REMARK H PARENT
REMARK Flexibility Score: inf
ROOT
ATOM      1  C   UNL     1      53.933 -51.991 168.804  1.00  0.00     0.063 C 
ATOM      2  C   UNL     1      54.059 -51.283 167.498  1.00  0.00     0.038 C 
ATOM      3  O   UNL     1      54.807 -51.745 166.598  1.00  0.00    -0.550 OA
ATOM      4  O   UNL     1      53.310 -50.139 167.252  1.00  0.00    -0.550 OA
ENDROOT
TORSDOF 0
ENDMDL
MODEL 4
REMARK VINA RESULT:    -2.276     11.076     11.454
REMARK INTER + INTRA:          -2.276
REMARK INTER:                  -2.276
REMARK INTRA:                   0.000
REMARK UNBOUND:                 0.000
REMARK SMILES CC(=O)[O-]
REMARK SMILES IDX 1 1 2 2 3 3 4 4
REMARK H PARENT
REMARK Flexibility Score: inf
ROOT
ATOM      1  C   UNL     1      46.126 -45.525 165.879  1.00  0.00     0.063 C 
ATOM      2  C   UNL     1      45.364 -46.308 164.865  1.00  0.00     0.038 C 
ATOM      3  O   UNL     1      44.404 -47.039 165.223  1.00  0.00    -0.550 OA
ATOM      4  O   UNL     1      45.677 -46.191 163.517  1.00  0.00    -0.550 OA
ENDROOT
TORSDOF 0
ENDMDL
MODEL 5
REMARK VINA RESULT:    -2.265     12.482     12.913
REMARK INTER + INTRA:          -2.265
REMARK INTER:                  -2.265
REMARK INTRA:                   0.000
REMARK UNBOUND:                 0.000
REMARK SMILES CC(=O)[O-]
REMARK SMILES IDX 1 1 2 2 3 3 4 4
REMARK H PARENT
REMARK Flexibility Score: inf
ROOT
ATOM      1  C   UNL     1      42.432 -48.213 165.751  1.00  0.00     0.063 C 
ATOM      2  C   UNL     1      43.822 -48.173 165.214  1.00  0.00     0.038 C 
ATOM      3  O   UNL     1      44.468 -47.093 165.212  1.00  0.00    -0.550 OA
ATOM      4  O   UNL     1      44.428 -49.339 164.763  1.00  0.00    -0.550 OA
ENDROOT
TORSDOF 0
ENDMDL
MODEL 6
REMARK VINA RESULT:    -2.261     11.126     11.522
REMARK INTER + INTRA:          -2.261
REMARK INTER:                  -2.261
REMARK INTRA:                   0.000
REMARK UNBOUND:                 0.000
REMARK SMILES CC(=O)[O-]
REMARK SMILES IDX 1 1 2 2 3 3 4 4
REMARK H PARENT
REMARK Flexibility Score: inf
ROOT
ATOM      1  C   UNL     1      46.120 -45.508 165.863  1.00  0.00     0.063 C 
ATOM      2  C   UNL     1      45.336 -46.198 164.800  1.00  0.00     0.038 C 
ATOM      3  O   UNL     1      45.672 -46.085 163.593  1.00  0.00    -0.550 OA
ATOM      4  O   UNL     1      44.263 -47.010 165.143  1.00  0.00    -0.550 OA
ENDROOT
TORSDOF 0
ENDMDL
MODEL 7
REMARK VINA RESULT:    -2.248     14.259     14.643
REMARK INTER + INTRA:          -2.248
REMARK INTER:                  -2.248
REMARK INTRA:                   0.000
REMARK UNBOUND:                 0.000
REMARK SMILES CC(=O)[O-]
REMARK SMILES IDX 1 1 2 2 3 3 4 4
REMARK H PARENT
REMARK Flexibility Score: inf
ROOT
ATOM      1  C   UNL     1      43.917 -48.018 160.540  1.00  0.00     0.063 C 
ATOM      2  C   UNL     1      44.674 -47.824 161.809  1.00  0.00     0.038 C 
ATOM      3  O   UNL     1      45.444 -48.727 162.230  1.00  0.00    -0.550 OA
ATOM      4  O   UNL     1      44.572 -46.626 162.504  1.00  0.00    -0.550 OA
ENDROOT
TORSDOF 0
ENDMDL
MODEL 8
REMARK VINA RESULT:    -2.192     13.508     13.832
REMARK INTER + INTRA:          -2.192
REMARK INTER:                  -2.192
REMARK INTRA:                   0.000
REMARK UNBOUND:                 0.000
REMARK SMILES CC(=O)[O-]
REMARK SMILES IDX 1 1 2 2 3 3 4 4
REMARK H PARENT
REMARK Flexibility Score: inf
ROOT
ATOM      1  C   UNL     1      45.000 -49.499 164.215  1.00  0.00     0.063 C 
ATOM      2  C   UNL     1      45.779 -49.105 163.006  1.00  0.00     0.038 C 
ATOM      3  O   UNL     1      45.254 -48.375 162.126  1.00  0.00    -0.550 OA
ATOM      4  O   UNL     1      47.104 -49.501 162.873  1.00  0.00    -0.550 OA
ENDROOT
TORSDOF 0
ENDMDL
MODEL 9
REMARK VINA RESULT:    -2.190     13.987     14.364
REMARK INTER + INTRA:          -2.190
REMARK INTER:                  -2.190
REMARK INTRA:                   0.000
REMARK UNBOUND:                 0.000
REMARK SMILES CC(=O)[O-]
REMARK SMILES IDX 1 1 2 2 3 3 4 4
REMARK H PARENT
REMARK Flexibility Score: inf
ROOT
ATOM      1  C   UNL     1      44.913 -46.513 162.818  1.00  0.00     0.063 C 
ATOM      2  C   UNL     1      44.992 -47.752 161.992  1.00  0.00     0.038 C 
ATOM      3  O   UNL     1      45.743 -48.699 162.344  1.00  0.00    -0.550 OA
ATOM      4  O   UNL     1      44.199 -47.886 160.860  1.00  0.00    -0.550 OA
ENDROOT
TORSDOF 0
ENDMDL
