MODEL 1
REMARK VINA RESULT:    -3.555      0.000      0.000
REMARK INTER + INTRA:          -4.059
REMARK INTER:                  -4.074
REMARK INTRA:                   0.015
REMARK UNBOUND:                 0.015
REMARK SMILES CC(C)[C@@H]([NH3+])C(=O)[O-]
REMARK SMILES IDX 4 1 5 2 6 6 7 7 8 8 2 9 1 10 3 11
REMARK H PARENT 5 3 5 4 5 5
REMARK Flexibility Score: inf
ROOT
ATOM      1  C   UNL     1     -10.278  11.266 -33.985  1.00  0.00     0.230 C 
ENDROOT
BRANCH   1   2
ATOM      2  N   UNL     1     -10.980  11.971 -35.069  1.00  0.00    -0.350 N 
ATOM      3  H   UNL     1     -10.431  12.804 -35.386  1.00  0.00     0.345 HD
ATOM      4  H   UNL     1     -11.927  12.277 -34.747  1.00  0.00     0.345 HD
ATOM      5  H   UNL     1     -11.125  11.329 -35.883  1.00  0.00     0.345 HD
ENDBRANCH   1   2
BRANCH   1   6
ATOM      6  C   UNL     1     -11.215  11.094 -32.816  1.00  0.00     0.099 C 
ATOM      7  O   UNL     1     -11.259  11.964 -31.906  1.00  0.00    -0.544 OA
ATOM      8  O   UNL     1     -12.035   9.974 -32.734  1.00  0.00    -0.544 OA
ENDBRANCH   1   6
BRANCH   1   9
ATOM      9  C   UNL     1      -9.724   9.887 -34.455  1.00  0.00     0.047 C 
ATOM     10  C   UNL     1      -8.876  10.014 -35.733  1.00  0.00     0.014 C 
ATOM     11  C   UNL     1      -8.877   9.222 -33.354  1.00  0.00     0.014 C 
ENDBRANCH   1   9
TORSDOF 3
ENDMDL
MODEL 2
REMARK VINA RESULT:    -3.050      1.697      2.336
REMARK INTER + INTRA:          -3.480
REMARK INTER:                  -3.490
REMARK INTRA:                   0.010
REMARK UNBOUND:                 0.015
REMARK SMILES CC(C)[C@@H]([NH3+])C(=O)[O-]
REMARK SMILES IDX 4 1 5 2 6 6 7 7 8 8 2 9 1 10 3 11
REMARK H PARENT 5 3 5 4 5 5
REMARK Flexibility Score: inf
ROOT
ATOM      1  C   UNL     1     -10.110  10.047 -33.952  1.00  0.00     0.230 C 
ENDROOT
BRANCH   1   2
ATOM      2  N   UNL     1      -9.174   9.146 -33.262  1.00  0.00    -0.350 N 
ATOM      3  H   UNL     1      -9.076   8.245 -33.783  1.00  0.00     0.345 HD
ATOM      4  H   UNL     1      -9.508   8.955 -32.290  1.00  0.00     0.345 HD
ATOM      5  H   UNL     1      -8.233   9.597 -33.180  1.00  0.00     0.345 HD
ENDBRANCH   1   2
BRANCH   1   6
ATOM      6  C   UNL     1     -10.711  11.002 -32.950  1.00  0.00     0.099 C 
ATOM      7  O   UNL     1     -11.882  10.819 -32.525  1.00  0.00    -0.544 OA
ATOM      8  O   UNL     1      -9.976  12.089 -32.491  1.00  0.00    -0.544 OA
ENDBRANCH   1   6
BRANCH   1   9
ATOM      9  C   UNL     1      -9.416  10.828 -35.109  1.00  0.00     0.047 C 
ATOM     10  C   UNL     1      -8.875   9.883 -36.195  1.00  0.00     0.014 C 
ATOM     11  C   UNL     1     -10.381  11.838 -35.757  1.00  0.00     0.014 C 
ENDBRANCH   1   9
TORSDOF 3
ENDMDL
MODEL 3
REMARK VINA RESULT:    -3.001      2.628      3.084
REMARK INTER + INTRA:          -3.424
REMARK INTER:                  -3.377
REMARK INTRA:                  -0.047
REMARK UNBOUND:                 0.015
REMARK SMILES CC(C)[C@@H]([NH3+])C(=O)[O-]
REMARK SMILES IDX 4 1 5 2 6 6 7 7 8 8 2 9 1 10 3 11
REMARK H PARENT 5 3 5 4 5 5
REMARK Flexibility Score: inf
ROOT
ATOM      1  C   UNL     1     -10.120  11.448 -34.160  1.00  0.00     0.230 C 
ENDROOT
BRANCH   1   2
ATOM      2  N   UNL     1      -8.929  12.010 -33.507  1.00  0.00    -0.350 N 
ATOM      3  H   UNL     1      -8.441  12.683 -34.143  1.00  0.00     0.345 HD
ATOM      4  H   UNL     1      -8.271  11.245 -33.235  1.00  0.00     0.345 HD
ATOM      5  H   UNL     1      -9.201  12.509 -32.628  1.00  0.00     0.345 HD
ENDBRANCH   1   2
BRANCH   1   6
ATOM      6  C   UNL     1      -9.999  11.624 -35.653  1.00  0.00     0.099 C 
ATOM      7  O   UNL     1      -8.927  11.322 -36.241  1.00  0.00    -0.544 OA
ATOM      8  O   UNL     1     -11.068  12.121 -36.389  1.00  0.00    -0.544 OA
ENDBRANCH   1   6
BRANCH   1   9
ATOM      9  C   UNL     1     -10.325   9.945 -33.797  1.00  0.00     0.047 C 
ATOM     10  C   UNL     1      -9.095   9.353 -33.089  1.00  0.00     0.014 C 
ATOM     11  C   UNL     1     -11.563   9.752 -32.902  1.00  0.00     0.014 C 
ENDBRANCH   1   9
TORSDOF 3
ENDMDL
MODEL 4
REMARK VINA RESULT:    -2.902      1.151      1.667
REMARK INTER + INTRA:          -3.311
REMARK INTER:                  -3.479
REMARK INTRA:                   0.168
REMARK UNBOUND:                 0.015
REMARK SMILES CC(C)[C@@H]([NH3+])C(=O)[O-]
REMARK SMILES IDX 4 1 5 2 6 6 7 7 8 8 2 9 1 10 3 11
REMARK H PARENT 5 3 5 4 5 5
REMARK Flexibility Score: inf
ROOT
ATOM      1  C   UNL     1      -9.936  11.949 -34.472  1.00  0.00     0.230 C 
ENDROOT
BRANCH   1   2
ATOM      2  N   UNL     1     -10.804  12.121 -35.646  1.00  0.00    -0.350 N 
ATOM      3  H   UNL     1     -11.806  12.208 -35.357  1.00  0.00     0.345 HD
ATOM      4  H   UNL     1     -10.697  11.309 -36.297  1.00  0.00     0.345 HD
ATOM      5  H   UNL     1     -10.527  12.979 -36.177  1.00  0.00     0.345 HD
ENDBRANCH   1   2
BRANCH   1   6
ATOM      6  C   UNL     1     -10.772  12.038 -33.219  1.00  0.00     0.099 C 
ATOM      7  O   UNL     1     -10.219  12.035 -32.087  1.00  0.00    -0.544 OA
ATOM      8  O   UNL     1     -12.157  12.122 -33.306  1.00  0.00    -0.544 OA
ENDBRANCH   1   6
BRANCH   1   9
ATOM      9  C   UNL     1      -9.156  10.600 -34.519  1.00  0.00     0.047 C 
ATOM     10  C   UNL     1      -9.916   9.472 -33.800  1.00  0.00     0.014 C 
ATOM     11  C   UNL     1      -8.875  10.170 -35.971  1.00  0.00     0.014 C 
ENDBRANCH   1   9
TORSDOF 3
ENDMDL
MODEL 5
REMARK VINA RESULT:    -2.871      2.748      3.642
REMARK INTER + INTRA:          -3.275
REMARK INTER:                  -3.229
REMARK INTRA:                  -0.046
REMARK UNBOUND:                 0.015
REMARK SMILES CC(C)[C@@H]([NH3+])C(=O)[O-]
REMARK SMILES IDX 4 1 5 2 6 6 7 7 8 8 2 9 1 10 3 11
REMARK H PARENT 5 3 5 4 5 5
REMARK Flexibility Score: inf
ROOT
ATOM      1  C   UNL     1      -9.458  10.689 -33.951  1.00  0.00     0.230 C 
ENDROOT
BRANCH   1   2
ATOM      2  N   UNL     1      -8.964   9.365 -33.542  1.00  0.00    -0.350 N 
ATOM      3  H   UNL     1      -9.165   8.650 -34.279  1.00  0.00     0.345 HD
ATOM      4  H   UNL     1      -9.410   9.075 -32.642  1.00  0.00     0.345 HD
ATOM      5  H   UNL     1      -7.931   9.401 -33.376  1.00  0.00     0.345 HD
ENDBRANCH   1   2
BRANCH   1   6
ATOM      6  C   UNL     1      -9.317  10.831 -35.446  1.00  0.00     0.099 C 
ATOM      7  O   UNL     1      -8.875   9.874 -36.135  1.00  0.00    -0.544 OA
ATOM      8  O   UNL     1      -9.674  12.020 -36.073  1.00  0.00    -0.544 OA
ENDBRANCH   1   6
BRANCH   1   9
ATOM      9  C   UNL     1     -10.936  10.917 -33.512  1.00  0.00     0.047 C 
ATOM     10  C   UNL     1     -11.546   9.657 -32.873  1.00  0.00     0.014 C 
ATOM     11  C   UNL     1     -11.048  12.088 -32.519  1.00  0.00     0.014 C 
ENDBRANCH   1   9
TORSDOF 3
ENDMDL
MODEL 6
REMARK VINA RESULT:    -2.528      1.734      2.381
REMARK INTER + INTRA:          -2.882
REMARK INTER:                  -3.243
REMARK INTRA:                   0.361
REMARK UNBOUND:                 0.015
REMARK SMILES CC(C)[C@@H]([NH3+])C(=O)[O-]
REMARK SMILES IDX 4 1 5 2 6 6 7 7 8 8 2 9 1 10 3 11
REMARK H PARENT 5 3 5 4 5 5
REMARK Flexibility Score: inf
ROOT
ATOM      1  C   UNL     1     -10.030  11.263 -33.635  1.00  0.00     0.230 C 
ENDROOT
BRANCH   1   2
ATOM      2  N   UNL     1     -11.405  11.738 -33.423  1.00  0.00    -0.350 N 
ATOM      3  H   UNL     1     -12.087  11.147 -33.952  1.00  0.00     0.345 HD
ATOM      4  H   UNL     1     -11.495  12.734 -33.729  1.00  0.00     0.345 HD
ATOM      5  H   UNL     1     -11.645  11.706 -32.405  1.00  0.00     0.345 HD
ENDBRANCH   1   2
BRANCH   1   6
ATOM      6  C   UNL     1      -9.971   9.779 -33.372  1.00  0.00     0.099 C 
ATOM      7  O   UNL     1      -8.877   9.231 -33.076  1.00  0.00    -0.544 OA
ATOM      8  O   UNL     1     -11.124   9.006 -33.458  1.00  0.00    -0.544 OA
ENDBRANCH   1   6
BRANCH   1   9
ATOM      9  C   UNL     1      -9.518  11.590 -35.071  1.00  0.00     0.047 C 
ATOM     10  C   UNL     1      -8.887  10.361 -35.748  1.00  0.00     0.014 C 
ATOM     11  C   UNL     1     -10.656  12.125 -35.960  1.00  0.00     0.014 C 
ENDBRANCH   1   9
TORSDOF 3
ENDMDL
MODEL 7
REMARK VINA RESULT:    -2.265      2.252      3.262
REMARK INTER + INTRA:          -2.581
REMARK INTER:                  -2.883
REMARK INTRA:                   0.301
REMARK UNBOUND:                 0.015
REMARK SMILES CC(C)[C@@H]([NH3+])C(=O)[O-]
REMARK SMILES IDX 4 1 5 2 6 6 7 7 8 8 2 9 1 10 3 11
REMARK H PARENT 5 3 5 4 5 5
REMARK Flexibility Score: inf
ROOT
ATOM      1  C   UNL     1     -10.011  11.401 -33.525  1.00  0.00     0.230 C 
ENDROOT
BRANCH   1   2
ATOM      2  N   UNL     1      -8.941  12.087 -32.785  1.00  0.00    -0.350 N 
ATOM      3  H   UNL     1      -8.058  11.526 -32.805  1.00  0.00     0.345 HD
ATOM      4  H   UNL     1      -9.232  12.247 -31.794  1.00  0.00     0.345 HD
ATOM      5  H   UNL     1      -8.756  13.027 -33.207  1.00  0.00     0.345 HD
ENDBRANCH   1   2
BRANCH   1   6
ATOM      6  C   UNL     1      -9.465  10.128 -34.122  1.00  0.00     0.099 C 
ATOM      7  O   UNL     1      -8.879   9.286 -33.391  1.00  0.00    -0.544 OA
ATOM      8  O   UNL     1      -9.605   9.876 -35.482  1.00  0.00    -0.544 OA
ENDBRANCH   1   6
BRANCH   1   9
ATOM      9  C   UNL     1     -11.243  11.101 -32.618  1.00  0.00     0.047 C 
ATOM     10  C   UNL     1     -12.373  12.124 -32.828  1.00  0.00     0.014 C 
ATOM     11  C   UNL     1     -11.792   9.686 -32.875  1.00  0.00     0.014 C 
ENDBRANCH   1   9
TORSDOF 3
ENDMDL
MODEL 8
REMARK VINA RESULT:    -2.215      2.053      2.972
REMARK INTER + INTRA:          -2.524
REMARK INTER:                  -2.610
REMARK INTRA:                   0.086
REMARK UNBOUND:                 0.015
REMARK SMILES CC(C)[C@@H]([NH3+])C(=O)[O-]
REMARK SMILES IDX 4 1 5 2 6 6 7 7 8 8 2 9 1 10 3 11
REMARK H PARENT 5 3 5 4 5 5
REMARK Flexibility Score: inf
ROOT
ATOM      1  C   UNL     1     -10.167  10.182 -34.381  1.00  0.00     0.230 C 
ENDROOT
BRANCH   1   2
ATOM      2  N   UNL     1      -9.502   9.698 -35.601  1.00  0.00    -0.350 N 
ATOM      3  H   UNL     1      -8.464   9.793 -35.519  1.00  0.00     0.345 HD
ATOM      4  H   UNL     1      -9.839  10.235 -36.432  1.00  0.00     0.345 HD
ATOM      5  H   UNL     1      -9.741   8.692 -35.766  1.00  0.00     0.345 HD
ENDBRANCH   1   2
BRANCH   1   6
ATOM      6  C   UNL     1      -9.285   9.898 -33.190  1.00  0.00     0.099 C 
ATOM      7  O   UNL     1      -8.914   8.721 -32.942  1.00  0.00    -0.544 OA
ATOM      8  O   UNL     1      -8.878  10.935 -32.358  1.00  0.00    -0.544 OA
ENDBRANCH   1   6
BRANCH   1   9
ATOM      9  C   UNL     1     -10.504  11.701 -34.468  1.00  0.00     0.047 C 
ATOM     10  C   UNL     1     -10.879  12.124 -35.898  1.00  0.00     0.014 C 
ATOM     11  C   UNL     1     -11.656  12.071 -33.515  1.00  0.00     0.014 C 
ENDBRANCH   1   9
TORSDOF 3
ENDMDL
