MODEL 1
REMARK VINA RESULT:    -4.197      0.000      0.000
REMARK INTER + INTRA:         -13.959
REMARK INTER:                  -9.595
REMARK INTRA:                  -4.365
REMARK UNBOUND:                -4.365
REMARK SMILES CCCCCCCCCCCCCCCCCCCCCCCC(=O)[O-]
REMARK SMILES IDX 13 1 14 2 15 3 16 4 17 5 18 6 19 7 20 8 21 9 22 10 23 11
REMARK SMILES IDX 24 12 25 13 26 14 12 15 11 16 10 17 9 18 8 19 7 20 6 21 5 22
REMARK SMILES IDX 4 23 3 24 2 25 1 26
REMARK H PARENT
REMARK Flexibility Score: inf
ROOT
ATOM      1  C   UNL     1      23.349  -5.030  16.164  1.00  0.00     0.000 C 
ENDROOT
BRANCH   1   2
ATOM      2  C   UNL     1      22.201  -4.016  16.052  1.00  0.00     0.000 C 
BRANCH   2   3
ATOM      3  C   UNL     1      22.320  -2.935  17.132  1.00  0.00     0.000 C 
BRANCH   3   4
ATOM      4  C   UNL     1      22.171  -1.532  16.528  1.00  0.00     0.000 C 
BRANCH   4   5
ATOM      5  C   UNL     1      22.960  -1.359  15.219  1.00  0.00     0.000 C 
BRANCH   5   6
ATOM      6  C   UNL     1      22.251  -0.464  14.182  1.00  0.00     0.000 C 
BRANCH   6   7
ATOM      7  C   UNL     1      21.903  -1.229  12.893  1.00  0.00     0.000 C 
BRANCH   7   8
ATOM      8  C   UNL     1      22.632  -2.579  12.793  1.00  0.00     0.000 C 
BRANCH   8   9
ATOM      9  C   UNL     1      21.667  -3.752  12.553  1.00  0.00     0.000 C 
BRANCH   9  10
ATOM     10  C   UNL     1      22.398  -5.066  12.237  1.00  0.00     0.006 C 
BRANCH  10  11
ATOM     11  C   UNL     1      21.843  -6.263  13.021  1.00  0.00     0.053 C 
BRANCH  11  12
ATOM     12  C   UNL     1      22.387  -7.553  12.488  1.00  0.00     0.041 C 
ATOM     13  O   UNL     1      23.529  -7.592  11.956  1.00  0.00    -0.550 OA
ATOM     14  O   UNL     1      21.635  -8.718  12.586  1.00  0.00    -0.550 OA
ENDBRANCH  11  12
ENDBRANCH  10  11
ENDBRANCH   9  10
ENDBRANCH   8   9
ENDBRANCH   7   8
ENDBRANCH   6   7
ENDBRANCH   5   6
ENDBRANCH   4   5
ENDBRANCH   3   4
ENDBRANCH   2   3
ENDBRANCH   1   2
BRANCH   1  15
ATOM     15  C   UNL     1      24.614  -4.592  15.404  1.00  0.00     0.000 C 
BRANCH  15  16
ATOM     16  C   UNL     1      25.863  -4.367  16.283  1.00  0.00     0.000 C 
BRANCH  16  17
ATOM     17  C   UNL     1      25.928  -3.004  16.994  1.00  0.00     0.000 C 
BRANCH  17  18
ATOM     18  C   UNL     1      26.482  -3.100  18.422  1.00  0.00    -0.000 C 
BRANCH  18  19
ATOM     19  C   UNL     1      25.894  -4.315  19.153  1.00  0.00    -0.000 C 
BRANCH  19  20
ATOM     20  C   UNL     1      24.457  -4.080  19.649  1.00  0.00    -0.000 C 
BRANCH  20  21
ATOM     21  C   UNL     1      23.627  -5.361  19.850  1.00  0.00    -0.000 C 
BRANCH  21  22
ATOM     22  C   UNL     1      24.386  -6.635  19.434  1.00  0.00    -0.000 C 
BRANCH  22  23
ATOM     23  C   UNL     1      23.476  -7.672  18.759  1.00  0.00    -0.000 C 
BRANCH  23  24
ATOM     24  C   UNL     1      24.266  -8.786  18.057  1.00  0.00    -0.000 C 
BRANCH  24  25
ATOM     25  C   UNL     1      25.015  -8.235  16.839  1.00  0.00    -0.003 C 
ATOM     26  C   UNL     1      24.263  -8.535  15.547  1.00  0.00     0.004 C 
ENDBRANCH  24  25
ENDBRANCH  23  24
ENDBRANCH  22  23
ENDBRANCH  21  22
ENDBRANCH  20  21
ENDBRANCH  19  20
ENDBRANCH  18  19
ENDBRANCH  17  18
ENDBRANCH  16  17
ENDBRANCH  15  16
ENDBRANCH   1  15
TORSDOF 22
ENDMDL
MODEL 2
REMARK VINA RESULT:    -4.071      3.070      6.530
REMARK INTER + INTRA:         -13.672
REMARK INTER:                  -9.303
REMARK INTRA:                  -4.369
REMARK UNBOUND:                -4.365
REMARK SMILES CCCCCCCCCCCCCCCCCCCCCCCC(=O)[O-]
REMARK SMILES IDX 13 1 14 2 15 3 16 4 17 5 18 6 19 7 20 8 21 9 22 10 23 11
REMARK SMILES IDX 24 12 25 13 26 14 12 15 11 16 10 17 9 18 8 19 7 20 6 21 5 22
REMARK SMILES IDX 4 23 3 24 2 25 1 26
REMARK H PARENT
REMARK Flexibility Score: inf
ROOT
ATOM      1  C   UNL     1      26.472  -3.331  16.002  1.00  0.00     0.000 C 
ENDROOT
BRANCH   1   2
ATOM      2  C   UNL     1      25.928  -2.861  17.359  1.00  0.00     0.000 C 
BRANCH   2   3
ATOM      3  C   UNL     1      26.893  -3.231  18.492  1.00  0.00     0.000 C 
BRANCH   3   4
ATOM      4  C   UNL     1      27.916  -4.276  18.027  1.00  0.00     0.000 C 
BRANCH   4   5
ATOM      5  C   UNL     1      28.004  -5.486  18.973  1.00  0.00     0.000 C 
BRANCH   5   6
ATOM      6  C   UNL     1      27.756  -6.838  18.274  1.00  0.00     0.000 C 
BRANCH   6   7
ATOM      7  C   UNL     1      26.619  -6.760  17.239  1.00  0.00     0.000 C 
BRANCH   7   8
ATOM      8  C   UNL     1      25.320  -7.412  17.740  1.00  0.00     0.000 C 
BRANCH   8   9
ATOM      9  C   UNL     1      24.242  -6.374  18.097  1.00  0.00     0.000 C 
BRANCH   9  10
ATOM     10  C   UNL     1      24.319  -5.921  19.564  1.00  0.00     0.006 C 
BRANCH  10  11
ATOM     11  C   UNL     1      23.653  -4.558  19.805  1.00  0.00     0.053 C 
BRANCH  11  12
ATOM     12  C   UNL     1      22.419  -4.705  20.641  1.00  0.00     0.041 C 
ATOM     13  O   UNL     1      21.586  -5.619  20.394  1.00  0.00    -0.550 OA
ATOM     14  O   UNL     1      22.191  -3.836  21.701  1.00  0.00    -0.550 OA
ENDBRANCH  11  12
ENDBRANCH  10  11
ENDBRANCH   9  10
ENDBRANCH   8   9
ENDBRANCH   7   8
ENDBRANCH   6   7
ENDBRANCH   5   6
ENDBRANCH   4   5
ENDBRANCH   3   4
ENDBRANCH   2   3
ENDBRANCH   1   2
BRANCH   1  15
ATOM     15  C   UNL     1      26.859  -2.165  15.073  1.00  0.00     0.000 C 
BRANCH  15  16
ATOM     16  C   UNL     1      25.772  -1.742  14.062  1.00  0.00     0.000 C 
BRANCH  16  17
ATOM     17  C   UNL     1      25.159  -0.351  14.302  1.00  0.00     0.000 C 
BRANCH  17  18
ATOM     18  C   UNL     1      24.056  -0.360  15.370  1.00  0.00    -0.000 C 
BRANCH  18  19
ATOM     19  C   UNL     1      23.004  -1.433  15.056  1.00  0.00    -0.000 C 
BRANCH  19  20
ATOM     20  C   UNL     1      22.379  -2.047  16.321  1.00  0.00    -0.000 C 
BRANCH  20  21
ATOM     21  C   UNL     1      22.542  -3.574  16.444  1.00  0.00    -0.000 C 
BRANCH  21  22
ATOM     22  C   UNL     1      23.000  -4.233  15.130  1.00  0.00    -0.000 C 
BRANCH  22  23
ATOM     23  C   UNL     1      22.020  -5.305  14.632  1.00  0.00    -0.000 C 
BRANCH  23  24
ATOM     24  C   UNL     1      21.157  -4.820  13.458  1.00  0.00    -0.000 C 
BRANCH  24  25
ATOM     25  C   UNL     1      22.007  -4.052  12.440  1.00  0.00    -0.003 C 
ATOM     26  C   UNL     1      21.346  -2.735  12.049  1.00  0.00     0.004 C 
ENDBRANCH  24  25
ENDBRANCH  23  24
ENDBRANCH  22  23
ENDBRANCH  21  22
ENDBRANCH  20  21
ENDBRANCH  19  20
ENDBRANCH  18  19
ENDBRANCH  17  18
ENDBRANCH  16  17
ENDBRANCH  15  16
ENDBRANCH   1  15
TORSDOF 22
ENDMDL
MODEL 3
REMARK VINA RESULT:    -4.036      3.361      6.643
REMARK INTER + INTRA:         -13.590
REMARK INTER:                  -9.532
REMARK INTRA:                  -4.058
REMARK UNBOUND:                -4.365
REMARK SMILES CCCCCCCCCCCCCCCCCCCCCCCC(=O)[O-]
REMARK SMILES IDX 13 1 14 2 15 3 16 4 17 5 18 6 19 7 20 8 21 9 22 10 23 11
REMARK SMILES IDX 24 12 25 13 26 14 12 15 11 16 10 17 9 18 8 19 7 20 6 21 5 22
REMARK SMILES IDX 4 23 3 24 2 25 1 26
REMARK H PARENT
REMARK Flexibility Score: inf
ROOT
ATOM      1  C   UNL     1      23.371  -6.743  20.111  1.00  0.00     0.000 C 
ENDROOT
BRANCH   1   2
ATOM      2  C   UNL     1      22.864  -5.428  20.721  1.00  0.00     0.000 C 
BRANCH   2   3
ATOM      3  C   UNL     1      23.309  -4.228  19.878  1.00  0.00     0.000 C 
BRANCH   3   4
ATOM      4  C   UNL     1      22.242  -3.856  18.839  1.00  0.00     0.000 C 
BRANCH   4   5
ATOM      5  C   UNL     1      22.700  -4.117  17.394  1.00  0.00     0.000 C 
BRANCH   5   6
ATOM      6  C   UNL     1      23.945  -3.304  16.982  1.00  0.00     0.000 C 
BRANCH   6   7
ATOM      7  C   UNL     1      25.038  -4.188  16.356  1.00  0.00     0.000 C 
BRANCH   7   8
ATOM      8  C   UNL     1      26.452  -3.789  16.810  1.00  0.00     0.000 C 
BRANCH   8   9
ATOM      9  C   UNL     1      26.440  -2.951  18.100  1.00  0.00     0.000 C 
BRANCH   9  10
ATOM     10  C   UNL     1      26.940  -3.738  19.322  1.00  0.00     0.006 C 
BRANCH  10  11
ATOM     11  C   UNL     1      27.928  -4.853  18.952  1.00  0.00     0.053 C 
BRANCH  11  12
ATOM     12  C   UNL     1      29.047  -4.929  19.945  1.00  0.00     0.041 C 
ATOM     13  O   UNL     1      29.635  -3.880  20.325  1.00  0.00    -0.550 OA
ATOM     14  O   UNL     1      29.438  -6.159  20.459  1.00  0.00    -0.550 OA
ENDBRANCH  11  12
ENDBRANCH  10  11
ENDBRANCH   9  10
ENDBRANCH   8   9
ENDBRANCH   7   8
ENDBRANCH   6   7
ENDBRANCH   5   6
ENDBRANCH   4   5
ENDBRANCH   3   4
ENDBRANCH   2   3
ENDBRANCH   1   2
BRANCH   1  15
ATOM     15  C   UNL     1      24.810  -6.641  19.572  1.00  0.00     0.000 C 
BRANCH  15  16
ATOM     16  C   UNL     1      25.068  -7.378  18.241  1.00  0.00     0.000 C 
BRANCH  16  17
ATOM     17  C   UNL     1      23.837  -8.065  17.623  1.00  0.00     0.000 C 
BRANCH  17  18
ATOM     18  C   UNL     1      24.193  -9.335  16.836  1.00  0.00    -0.000 C 
BRANCH  18  19
ATOM     19  C   UNL     1      23.491  -9.343  15.471  1.00  0.00    -0.000 C 
BRANCH  19  20
ATOM     20  C   UNL     1      24.135  -8.377  14.460  1.00  0.00    -0.000 C 
BRANCH  20  21
ATOM     21  C   UNL     1      23.139  -7.478  13.704  1.00  0.00    -0.000 C 
BRANCH  21  22
ATOM     22  C   UNL     1      22.583  -6.339  14.577  1.00  0.00    -0.000 C 
BRANCH  22  23
ATOM     23  C   UNL     1      21.251  -5.785  14.050  1.00  0.00    -0.000 C 
BRANCH  23  24
ATOM     24  C   UNL     1      21.441  -4.629  13.057  1.00  0.00    -0.000 C 
BRANCH  24  25
ATOM     25  C   UNL     1      22.130  -3.439  13.734  1.00  0.00    -0.003 C 
ATOM     26  C   UNL     1      23.387  -3.026  12.977  1.00  0.00     0.004 C 
ENDBRANCH  24  25
ENDBRANCH  23  24
ENDBRANCH  22  23
ENDBRANCH  21  22
ENDBRANCH  20  21
ENDBRANCH  19  20
ENDBRANCH  18  19
ENDBRANCH  17  18
ENDBRANCH  16  17
ENDBRANCH  15  16
ENDBRANCH   1  15
TORSDOF 22
ENDMDL
MODEL 4
REMARK VINA RESULT:    -4.019      2.805      5.306
REMARK INTER + INTRA:         -13.553
REMARK INTER:                  -9.766
REMARK INTRA:                  -3.786
REMARK UNBOUND:                -4.365
REMARK SMILES CCCCCCCCCCCCCCCCCCCCCCCC(=O)[O-]
REMARK SMILES IDX 13 1 14 2 15 3 16 4 17 5 18 6 19 7 20 8 21 9 22 10 23 11
REMARK SMILES IDX 24 12 25 13 26 14 12 15 11 16 10 17 9 18 8 19 7 20 6 21 5 22
REMARK SMILES IDX 4 23 3 24 2 25 1 26
REMARK H PARENT
REMARK Flexibility Score: inf
ROOT
ATOM      1  C   UNL     1      21.415  -5.354  13.911  1.00  0.00     0.000 C 
ENDROOT
BRANCH   1   2
ATOM      2  C   UNL     1      21.192  -4.154  12.978  1.00  0.00     0.000 C 
BRANCH   2   3
ATOM      3  C   UNL     1      22.410  -3.224  12.984  1.00  0.00     0.000 C 
BRANCH   3   4
ATOM      4  C   UNL     1      21.981  -1.751  13.000  1.00  0.00     0.000 C 
BRANCH   4   5
ATOM      5  C   UNL     1      22.888  -0.873  13.880  1.00  0.00     0.000 C 
BRANCH   5   6
ATOM      6  C   UNL     1      22.861  -1.258  15.374  1.00  0.00     0.000 C 
BRANCH   6   7
ATOM      7  C   UNL     1      24.136  -2.003  15.807  1.00  0.00     0.000 C 
BRANCH   7   8
ATOM      8  C   UNL     1      23.838  -3.195  16.733  1.00  0.00     0.000 C 
BRANCH   8   9
ATOM      9  C   UNL     1      22.331  -3.391  16.971  1.00  0.00     0.000 C 
BRANCH   9  10
ATOM     10  C   UNL     1      22.003  -3.748  18.429  1.00  0.00     0.006 C 
BRANCH  10  11
ATOM     11  C   UNL     1      23.195  -4.366  19.176  1.00  0.00     0.053 C 
BRANCH  11  12
ATOM     12  C   UNL     1      22.735  -5.143  20.371  1.00  0.00     0.041 C 
ATOM     13  O   UNL     1      21.774  -4.725  21.072  1.00  0.00    -0.550 OA
ATOM     14  O   UNL     1      23.362  -6.337  20.706  1.00  0.00    -0.550 OA
ENDBRANCH  11  12
ENDBRANCH  10  11
ENDBRANCH   9  10
ENDBRANCH   8   9
ENDBRANCH   7   8
ENDBRANCH   6   7
ENDBRANCH   5   6
ENDBRANCH   4   5
ENDBRANCH   3   4
ENDBRANCH   2   3
ENDBRANCH   1   2
BRANCH   1  15
ATOM     15  C   UNL     1      22.878  -5.833  13.936  1.00  0.00     0.000 C 
BRANCH  15  16
ATOM     16  C   UNL     1      23.313  -6.550  15.231  1.00  0.00     0.000 C 
BRANCH  16  17
ATOM     17  C   UNL     1      24.196  -7.794  15.027  1.00  0.00     0.000 C 
BRANCH  17  18
ATOM     18  C   UNL     1      24.490  -8.541  16.336  1.00  0.00    -0.000 C 
BRANCH  18  19
ATOM     19  C   UNL     1      24.305  -7.613  17.545  1.00  0.00    -0.000 C 
BRANCH  19  20
ATOM     20  C   UNL     1      25.640  -7.142  18.149  1.00  0.00    -0.000 C 
BRANCH  20  21
ATOM     21  C   UNL     1      26.342  -6.018  17.365  1.00  0.00    -0.000 C 
BRANCH  21  22
ATOM     22  C   UNL     1      27.418  -5.294  18.194  1.00  0.00    -0.000 C 
BRANCH  22  23
ATOM     23  C   UNL     1      26.825  -4.479  19.353  1.00  0.00    -0.000 C 
BRANCH  23  24
ATOM     24  C   UNL     1      26.923  -2.965  19.124  1.00  0.00    -0.000 C 
BRANCH  24  25
ATOM     25  C   UNL     1      28.015  -2.640  18.099  1.00  0.00    -0.003 C 
ATOM     26  C   UNL     1      27.473  -1.764  16.974  1.00  0.00     0.004 C 
ENDBRANCH  24  25
ENDBRANCH  23  24
ENDBRANCH  22  23
ENDBRANCH  21  22
ENDBRANCH  20  21
ENDBRANCH  19  20
ENDBRANCH  18  19
ENDBRANCH  17  18
ENDBRANCH  16  17
ENDBRANCH  15  16
ENDBRANCH   1  15
TORSDOF 22
ENDMDL
MODEL 5
REMARK VINA RESULT:    -4.006      3.062      6.924
REMARK INTER + INTRA:         -13.524
REMARK INTER:                  -9.473
REMARK INTRA:                  -4.050
REMARK UNBOUND:                -4.365
REMARK SMILES CCCCCCCCCCCCCCCCCCCCCCCC(=O)[O-]
REMARK SMILES IDX 13 1 14 2 15 3 16 4 17 5 18 6 19 7 20 8 21 9 22 10 23 11
REMARK SMILES IDX 24 12 25 13 26 14 12 15 11 16 10 17 9 18 8 19 7 20 6 21 5 22
REMARK SMILES IDX 4 23 3 24 2 25 1 26
REMARK H PARENT
REMARK Flexibility Score: inf
ROOT
ATOM      1  C   UNL     1      24.948  -7.896  18.288  1.00  0.00     0.000 C 
ENDROOT
BRANCH   1   2
ATOM      2  C   UNL     1      24.609  -6.790  19.298  1.00  0.00     0.000 C 
BRANCH   2   3
ATOM      3  C   UNL     1      23.110  -6.467  19.271  1.00  0.00     0.000 C 
BRANCH   3   4
ATOM      4  C   UNL     1      22.805  -5.196  20.077  1.00  0.00     0.000 C 
BRANCH   4   5
ATOM      5  C   UNL     1      22.152  -4.093  19.226  1.00  0.00     0.000 C 
BRANCH   5   6
ATOM      6  C   UNL     1      22.510  -4.173  17.728  1.00  0.00     0.000 C 
BRANCH   6   7
ATOM      7  C   UNL     1      23.596  -3.157  17.332  1.00  0.00     0.000 C 
BRANCH   7   8
ATOM      8  C   UNL     1      24.840  -3.828  16.727  1.00  0.00     0.000 C 
BRANCH   8   9
ATOM      9  C   UNL     1      26.123  -3.503  17.511  1.00  0.00     0.000 C 
BRANCH   9  10
ATOM     10  C   UNL     1      25.900  -3.489  19.031  1.00  0.00     0.006 C 
BRANCH  10  11
ATOM     11  C   UNL     1      27.147  -3.054  19.815  1.00  0.00     0.053 C 
BRANCH  11  12
ATOM     12  C   UNL     1      28.189  -4.131  19.804  1.00  0.00     0.041 C 
ATOM     13  O   UNL     1      29.413  -3.833  19.767  1.00  0.00    -0.550 OA
ATOM     14  O   UNL     1      27.808  -5.467  19.845  1.00  0.00    -0.550 OA
ENDBRANCH  11  12
ENDBRANCH  10  11
ENDBRANCH   9  10
ENDBRANCH   8   9
ENDBRANCH   7   8
ENDBRANCH   6   7
ENDBRANCH   5   6
ENDBRANCH   4   5
ENDBRANCH   3   4
ENDBRANCH   2   3
ENDBRANCH   1   2
BRANCH   1  15
ATOM     15  C   UNL     1      25.422  -7.346  16.930  1.00  0.00     0.000 C 
BRANCH  15  16
ATOM     16  C   UNL     1      24.617  -7.830  15.706  1.00  0.00     0.000 C 
BRANCH  16  17
ATOM     17  C   UNL     1      23.496  -6.882  15.242  1.00  0.00     0.000 C 
BRANCH  17  18
ATOM     18  C   UNL     1      22.751  -7.398  14.004  1.00  0.00    -0.000 C 
BRANCH  18  19
ATOM     19  C   UNL     1      21.581  -6.470  13.647  1.00  0.00    -0.000 C 
BRANCH  19  20
ATOM     20  C   UNL     1      21.719  -5.067  14.263  1.00  0.00    -0.000 C 
BRANCH  20  21
ATOM     21  C   UNL     1      21.863  -3.925  13.240  1.00  0.00    -0.000 C 
BRANCH  21  22
ATOM     22  C   UNL     1      22.890  -2.863  13.671  1.00  0.00    -0.000 C 
BRANCH  22  23
ATOM     23  C   UNL     1      22.251  -1.490  13.927  1.00  0.00    -0.000 C 
BRANCH  23  24
ATOM     24  C   UNL     1      23.156  -0.559  14.745  1.00  0.00    -0.000 C 
BRANCH  24  25
ATOM     25  C   UNL     1      24.603  -0.630  14.246  1.00  0.00    -0.003 C 
ATOM     26  C   UNL     1      25.592  -0.478  15.397  1.00  0.00     0.004 C 
ENDBRANCH  24  25
ENDBRANCH  23  24
ENDBRANCH  22  23
ENDBRANCH  21  22
ENDBRANCH  20  21
ENDBRANCH  19  20
ENDBRANCH  18  19
ENDBRANCH  17  18
ENDBRANCH  16  17
ENDBRANCH  15  16
ENDBRANCH   1  15
TORSDOF 22
ENDMDL
MODEL 6
REMARK VINA RESULT:    -3.986      3.084      7.301
REMARK INTER + INTRA:         -13.476
REMARK INTER:                  -9.635
REMARK INTRA:                  -3.841
REMARK UNBOUND:                -4.365
REMARK SMILES CCCCCCCCCCCCCCCCCCCCCCCC(=O)[O-]
REMARK SMILES IDX 13 1 14 2 15 3 16 4 17 5 18 6 19 7 20 8 21 9 22 10 23 11
REMARK SMILES IDX 24 12 25 13 26 14 12 15 11 16 10 17 9 18 8 19 7 20 6 21 5 22
REMARK SMILES IDX 4 23 3 24 2 25 1 26
REMARK H PARENT
REMARK Flexibility Score: inf
ROOT
ATOM      1  C   UNL     1      27.099  -2.655  18.393  1.00  0.00     0.000 C 
ENDROOT
BRANCH   1   2
ATOM      2  C   UNL     1      27.223  -3.166  19.836  1.00  0.00     0.000 C 
BRANCH   2   3
ATOM      3  C   UNL     1      28.687  -3.167  20.291  1.00  0.00     0.000 C 
BRANCH   3   4
ATOM      4  C   UNL     1      29.342  -4.533  20.042  1.00  0.00     0.000 C 
BRANCH   4   5
ATOM      5  C   UNL     1      28.315  -5.673  19.917  1.00  0.00     0.000 C 
BRANCH   5   6
ATOM      6  C   UNL     1      28.397  -6.435  18.579  1.00  0.00     0.000 C 
BRANCH   6   7
ATOM      7  C   UNL     1      27.011  -6.867  18.068  1.00  0.00     0.000 C 
BRANCH   7   8
ATOM      8  C   UNL     1      25.904  -6.654  19.114  1.00  0.00     0.000 C 
BRANCH   8   9
ATOM      9  C   UNL     1      24.531  -7.146  18.624  1.00  0.00     0.000 C 
BRANCH   9  10
ATOM     10  C   UNL     1      23.455  -6.050  18.681  1.00  0.00     0.006 C 
BRANCH  10  11
ATOM     11  C   UNL     1      23.723  -5.005  19.774  1.00  0.00     0.053 C 
BRANCH  11  12
ATOM     12  C   UNL     1      22.535  -4.855  20.675  1.00  0.00     0.041 C 
ATOM     13  O   UNL     1      22.513  -3.954  21.556  1.00  0.00    -0.550 OA
ATOM     14  O   UNL     1      21.446  -5.708  20.536  1.00  0.00    -0.550 OA
ENDBRANCH  11  12
ENDBRANCH  10  11
ENDBRANCH   9  10
ENDBRANCH   8   9
ENDBRANCH   7   8
ENDBRANCH   6   7
ENDBRANCH   5   6
ENDBRANCH   4   5
ENDBRANCH   3   4
ENDBRANCH   2   3
ENDBRANCH   1   2
BRANCH   1  15
ATOM     15  C   UNL     1      25.850  -3.191  17.670  1.00  0.00     0.000 C 
BRANCH  15  16
ATOM     16  C   UNL     1      26.115  -3.849  16.300  1.00  0.00     0.000 C 
BRANCH  16  17
ATOM     17  C   UNL     1      24.859  -4.319  15.544  1.00  0.00     0.000 C 
BRANCH  17  18
ATOM     18  C   UNL     1      23.604  -3.514  15.911  1.00  0.00    -0.000 C 
BRANCH  18  19
ATOM     19  C   UNL     1      22.335  -4.336  15.648  1.00  0.00    -0.000 C 
BRANCH  19  20
ATOM     20  C   UNL     1      22.575  -5.525  14.701  1.00  0.00    -0.000 C 
BRANCH  20  21
ATOM     21  C   UNL     1      21.791  -5.462  13.377  1.00  0.00    -0.000 C 
BRANCH  21  22
ATOM     22  C   UNL     1      21.177  -4.075  13.113  1.00  0.00    -0.000 C 
BRANCH  22  23
ATOM     23  C   UNL     1      21.883  -3.321  11.976  1.00  0.00    -0.000 C 
BRANCH  23  24
ATOM     24  C   UNL     1      21.587  -1.815  11.990  1.00  0.00    -0.000 C 
BRANCH  24  25
ATOM     25  C   UNL     1      22.068  -1.179  13.299  1.00  0.00    -0.003 C 
ATOM     26  C   UNL     1      23.580  -0.981  13.294  1.00  0.00     0.004 C 
ENDBRANCH  24  25
ENDBRANCH  23  24
ENDBRANCH  22  23
ENDBRANCH  21  22
ENDBRANCH  20  21
ENDBRANCH  19  20
ENDBRANCH  18  19
ENDBRANCH  17  18
ENDBRANCH  16  17
ENDBRANCH  15  16
ENDBRANCH   1  15
TORSDOF 22
ENDMDL
MODEL 7
REMARK VINA RESULT:    -3.983      3.643      6.330
REMARK INTER + INTRA:         -13.471
REMARK INTER:                  -9.462
REMARK INTRA:                  -4.008
REMARK UNBOUND:                -4.365
REMARK SMILES CCCCCCCCCCCCCCCCCCCCCCCC(=O)[O-]
REMARK SMILES IDX 13 1 14 2 15 3 16 4 17 5 18 6 19 7 20 8 21 9 22 10 23 11
REMARK SMILES IDX 24 12 25 13 26 14 12 15 11 16 10 17 9 18 8 19 7 20 6 21 5 22
REMARK SMILES IDX 4 23 3 24 2 25 1 26
REMARK H PARENT
REMARK Flexibility Score: inf
ROOT
ATOM      1  C   UNL     1      26.914  -6.887  18.215  1.00  0.00     0.000 C 
ENDROOT
BRANCH   1   2
ATOM      2  C   UNL     1      26.904  -6.059  19.509  1.00  0.00     0.000 C 
BRANCH   2   3
ATOM      3  C   UNL     1      28.102  -5.103  19.555  1.00  0.00     0.000 C 
BRANCH   3   4
ATOM      4  C   UNL     1      27.639  -3.641  19.616  1.00  0.00     0.000 C 
BRANCH   4   5
ATOM      5  C   UNL     1      26.134  -3.479  19.340  1.00  0.00     0.000 C 
BRANCH   5   6
ATOM      6  C   UNL     1      25.811  -3.077  17.886  1.00  0.00     0.000 C 
BRANCH   6   7
ATOM      7  C   UNL     1      27.081  -2.795  17.063  1.00  0.00     0.000 C 
BRANCH   7   8
ATOM      8  C   UNL     1      26.995  -1.475  16.278  1.00  0.00     0.000 C 
BRANCH   8   9
ATOM      9  C   UNL     1      26.462  -1.676  14.849  1.00  0.00     0.000 C 
BRANCH   9  10
ATOM     10  C   UNL     1      25.666  -0.464  14.339  1.00  0.00     0.006 C 
BRANCH  10  11
ATOM     11  C   UNL     1      25.061   0.375  15.474  1.00  0.00     0.053 C 
BRANCH  11  12
ATOM     12  C   UNL     1      25.504   1.803  15.380  1.00  0.00     0.041 C 
ATOM     13  O   UNL     1      25.621   2.504  16.422  1.00  0.00    -0.550 OA
ATOM     14  O   UNL     1      25.798   2.359  14.141  1.00  0.00    -0.550 OA
ENDBRANCH  11  12
ENDBRANCH  10  11
ENDBRANCH   9  10
ENDBRANCH   8   9
ENDBRANCH   7   8
ENDBRANCH   6   7
ENDBRANCH   5   6
ENDBRANCH   4   5
ENDBRANCH   3   4
ENDBRANCH   2   3
ENDBRANCH   1   2
BRANCH   1  15
ATOM     15  C   UNL     1      25.533  -7.470  17.864  1.00  0.00     0.000 C 
BRANCH  15  16
ATOM     16  C   UNL     1      24.353  -6.482  17.979  1.00  0.00     0.000 C 
BRANCH  16  17
ATOM     17  C   UNL     1      23.248  -6.891  18.970  1.00  0.00     0.000 C 
BRANCH  17  18
ATOM     18  C   UNL     1      23.442  -6.285  20.367  1.00  0.00    -0.000 C 
BRANCH  18  19
ATOM     19  C   UNL     1      23.024  -4.808  20.381  1.00  0.00    -0.000 C 
BRANCH  19  20
ATOM     20  C   UNL     1      21.554  -4.596  19.980  1.00  0.00    -0.000 C 
BRANCH  20  21
ATOM     21  C   UNL     1      21.316  -3.447  18.984  1.00  0.00    -0.000 C 
BRANCH  21  22
ATOM     22  C   UNL     1      22.065  -3.646  17.654  1.00  0.00    -0.000 C 
BRANCH  22  23
ATOM     23  C   UNL     1      22.307  -2.326  16.907  1.00  0.00    -0.000 C 
BRANCH  23  24
ATOM     24  C   UNL     1      22.752  -2.540  15.453  1.00  0.00    -0.000 C 
BRANCH  24  25
ATOM     25  C   UNL     1      23.440  -3.900  15.291  1.00  0.00    -0.003 C 
ATOM     26  C   UNL     1      23.907  -4.114  13.855  1.00  0.00     0.004 C 
ENDBRANCH  24  25
ENDBRANCH  23  24
ENDBRANCH  22  23
ENDBRANCH  21  22
ENDBRANCH  20  21
ENDBRANCH  19  20
ENDBRANCH  18  19
ENDBRANCH  17  18
ENDBRANCH  16  17
ENDBRANCH  15  16
ENDBRANCH   1  15
TORSDOF 22
ENDMDL
MODEL 8
REMARK VINA RESULT:    -3.973      3.741      5.592
REMARK INTER + INTRA:         -13.447
REMARK INTER:                  -9.723
REMARK INTRA:                  -3.724
REMARK UNBOUND:                -4.365
REMARK SMILES CCCCCCCCCCCCCCCCCCCCCCCC(=O)[O-]
REMARK SMILES IDX 13 1 14 2 15 3 16 4 17 5 18 6 19 7 20 8 21 9 22 10 23 11
REMARK SMILES IDX 24 12 25 13 26 14 12 15 11 16 10 17 9 18 8 19 7 20 6 21 5 22
REMARK SMILES IDX 4 23 3 24 2 25 1 26
REMARK H PARENT
REMARK Flexibility Score: inf
ROOT
ATOM      1  C   UNL     1      26.534  -3.126  19.279  1.00  0.00     0.000 C 
ENDROOT
BRANCH   1   2
ATOM      2  C   UNL     1      26.922  -2.642  17.873  1.00  0.00     0.000 C 
BRANCH   2   3
ATOM      3  C   UNL     1      26.394  -3.601  16.801  1.00  0.00     0.000 C 
BRANCH   3   4
ATOM      4  C   UNL     1      25.250  -2.961  16.002  1.00  0.00     0.000 C 
BRANCH   4   5
ATOM      5  C   UNL     1      23.902  -3.013  16.744  1.00  0.00     0.000 C 
BRANCH   5   6
ATOM      6  C   UNL     1      22.780  -2.217  16.046  1.00  0.00     0.000 C 
BRANCH   6   7
ATOM      7  C   UNL     1      22.473  -2.754  14.638  1.00  0.00     0.000 C 
BRANCH   7   8
ATOM      8  C   UNL     1      22.358  -1.634  13.591  1.00  0.00     0.000 C 
BRANCH   8   9
ATOM      9  C   UNL     1      22.909  -0.292  14.104  1.00  0.00     0.000 C 
BRANCH   9  10
ATOM     10  C   UNL     1      24.134   0.188  13.310  1.00  0.00     0.006 C 
BRANCH  10  11
ATOM     11  C   UNL     1      25.385   0.356  14.184  1.00  0.00     0.053 C 
BRANCH  11  12
ATOM     12  C   UNL     1      25.661   1.804  14.453  1.00  0.00     0.041 C 
ATOM     13  O   UNL     1      25.446   2.293  15.595  1.00  0.00    -0.550 OA
ATOM     14  O   UNL     1      26.165   2.614  13.443  1.00  0.00    -0.550 OA
ENDBRANCH  11  12
ENDBRANCH  10  11
ENDBRANCH   9  10
ENDBRANCH   8   9
ENDBRANCH   7   8
ENDBRANCH   6   7
ENDBRANCH   5   6
ENDBRANCH   4   5
ENDBRANCH   3   4
ENDBRANCH   2   3
ENDBRANCH   1   2
BRANCH   1  15
ATOM     15  C   UNL     1      27.722  -3.139  20.259  1.00  0.00     0.000 C 
BRANCH  15  16
ATOM     16  C   UNL     1      28.746  -4.271  20.035  1.00  0.00     0.000 C 
BRANCH  16  17
ATOM     17  C   UNL     1      28.142  -5.670  19.818  1.00  0.00     0.000 C 
BRANCH  17  18
ATOM     18  C   UNL     1      28.446  -6.244  18.427  1.00  0.00    -0.000 C 
BRANCH  18  19
ATOM     19  C   UNL     1      27.252  -7.051  17.898  1.00  0.00    -0.000 C 
BRANCH  19  20
ATOM     20  C   UNL     1      25.943  -6.747  18.648  1.00  0.00    -0.000 C 
BRANCH  20  21
ATOM     21  C   UNL     1      24.686  -6.710  17.760  1.00  0.00    -0.000 C 
BRANCH  21  22
ATOM     22  C   UNL     1      23.437  -6.219  18.514  1.00  0.00    -0.000 C 
BRANCH  22  23
ATOM     23  C   UNL     1      23.773  -5.608  19.883  1.00  0.00    -0.000 C 
BRANCH  23  24
ATOM     24  C   UNL     1      23.079  -4.259  20.116  1.00  0.00    -0.000 C 
BRANCH  24  25
ATOM     25  C   UNL     1      21.557  -4.406  20.015  1.00  0.00    -0.003 C 
ATOM     26  C   UNL     1      20.955  -3.323  19.126  1.00  0.00     0.004 C 
ENDBRANCH  24  25
ENDBRANCH  23  24
ENDBRANCH  22  23
ENDBRANCH  21  22
ENDBRANCH  20  21
ENDBRANCH  19  20
ENDBRANCH  18  19
ENDBRANCH  17  18
ENDBRANCH  16  17
ENDBRANCH  15  16
ENDBRANCH   1  15
TORSDOF 22
ENDMDL
MODEL 9
REMARK VINA RESULT:    -3.895      1.351      2.860
REMARK INTER + INTRA:         -13.268
REMARK INTER:                  -9.177
REMARK INTRA:                  -4.091
REMARK UNBOUND:                -4.365
REMARK SMILES CCCCCCCCCCCCCCCCCCCCCCCC(=O)[O-]
REMARK SMILES IDX 13 1 14 2 15 3 16 4 17 5 18 6 19 7 20 8 21 9 22 10 23 11
REMARK SMILES IDX 24 12 25 13 26 14 12 15 11 16 10 17 9 18 8 19 7 20 6 21 5 22
REMARK SMILES IDX 4 23 3 24 2 25 1 26
REMARK H PARENT
REMARK Flexibility Score: inf
ROOT
ATOM      1  C   UNL     1      25.460  -3.594  16.616  1.00  0.00     0.000 C 
ENDROOT
BRANCH   1   2
ATOM      2  C   UNL     1      24.485  -2.831  15.707  1.00  0.00     0.000 C 
BRANCH   2   3
ATOM      3  C   UNL     1      23.250  -2.375  16.492  1.00  0.00     0.000 C 
BRANCH   3   4
ATOM      4  C   UNL     1      22.436  -1.347  15.694  1.00  0.00     0.000 C 
BRANCH   4   5
ATOM      5  C   UNL     1      23.065  -1.017  14.330  1.00  0.00     0.000 C 
BRANCH   5   6
ATOM      6  C   UNL     1      22.124  -1.273  13.135  1.00  0.00     0.000 C 
BRANCH   6   7
ATOM      7  C   UNL     1      22.344  -2.661  12.507  1.00  0.00     0.000 C 
BRANCH   7   8
ATOM      8  C   UNL     1      21.136  -3.594  12.700  1.00  0.00     0.000 C 
BRANCH   8   9
ATOM      9  C   UNL     1      21.554  -5.042  13.005  1.00  0.00     0.000 C 
BRANCH   9  10
ATOM     10  C   UNL     1      21.961  -5.243  14.473  1.00  0.00     0.006 C 
BRANCH  10  11
ATOM     11  C   UNL     1      23.213  -6.119  14.633  1.00  0.00     0.053 C 
BRANCH  11  12
ATOM     12  C   UNL     1      23.138  -7.327  13.750  1.00  0.00     0.041 C 
ATOM     13  O   UNL     1      22.386  -8.292  14.052  1.00  0.00    -0.550 OA
ATOM     14  O   UNL     1      23.894  -7.384  12.585  1.00  0.00    -0.550 OA
ENDBRANCH  11  12
ENDBRANCH  10  11
ENDBRANCH   9  10
ENDBRANCH   8   9
ENDBRANCH   7   8
ENDBRANCH   6   7
ENDBRANCH   5   6
ENDBRANCH   4   5
ENDBRANCH   3   4
ENDBRANCH   2   3
ENDBRANCH   1   2
BRANCH   1  15
ATOM     15  C   UNL     1      25.295  -3.242  18.105  1.00  0.00     0.000 C 
BRANCH  15  16
ATOM     16  C   UNL     1      26.502  -3.592  19.001  1.00  0.00     0.000 C 
BRANCH  16  17
ATOM     17  C   UNL     1      27.463  -4.647  18.424  1.00  0.00     0.000 C 
BRANCH  17  18
ATOM     18  C   UNL     1      27.219  -6.053  18.991  1.00  0.00    -0.000 C 
BRANCH  18  19
ATOM     19  C   UNL     1      27.094  -7.082  17.858  1.00  0.00    -0.000 C 
BRANCH  19  20
ATOM     20  C   UNL     1      25.741  -7.009  17.129  1.00  0.00    -0.000 C 
BRANCH  20  21
ATOM     21  C   UNL     1      24.808  -8.208  17.381  1.00  0.00    -0.000 C 
BRANCH  21  22
ATOM     22  C   UNL     1      23.703  -7.898  18.407  1.00  0.00    -0.000 C 
BRANCH  22  23
ATOM     23  C   UNL     1      23.554  -6.394  18.681  1.00  0.00    -0.000 C 
BRANCH  23  24
ATOM     24  C   UNL     1      23.763  -6.036  20.159  1.00  0.00    -0.000 C 
BRANCH  24  25
ATOM     25  C   UNL     1      22.961  -4.785  20.534  1.00  0.00    -0.003 C 
ATOM     26  C   UNL     1      22.058  -4.344  19.387  1.00  0.00     0.004 C 
ENDBRANCH  24  25
ENDBRANCH  23  24
ENDBRANCH  22  23
ENDBRANCH  21  22
ENDBRANCH  20  21
ENDBRANCH  19  20
ENDBRANCH  18  19
ENDBRANCH  17  18
ENDBRANCH  16  17
ENDBRANCH  15  16
ENDBRANCH   1  15
TORSDOF 22
ENDMDL
