MODEL 1
REMARK VINA RESULT:    -3.540      0.000      0.000
REMARK INTER + INTRA:          -4.915
REMARK INTER:                  -4.575
REMARK INTRA:                  -0.340
REMARK UNBOUND:                -0.340
REMARK SMILES CCO[C@@H]1O[C@H](CO)[C@H](O)[C@@H](O)[C@H]1O
REMARK SMILES IDX 4 1 13 2 11 3 9 4 6 5 5 6 3 7 2 8 1 9 14 10 12 12 7 14 8 15
REMARK SMILES IDX 10 17
REMARK H PARENT 14 11 12 13 8 16 10 18
REMARK Flexibility Score: inf
ROOT
ATOM      1  C   UNL     1       8.434  -7.554  -5.879  1.00  0.00     0.281 C 
ATOM      2  C   UNL     1       9.217  -8.318  -4.799  1.00  0.00     0.202 C 
ATOM      3  C   UNL     1       8.285  -8.720  -3.647  1.00  0.00     0.179 C 
ATOM      4  C   UNL     1       7.084  -9.496  -4.209  1.00  0.00     0.177 C 
ATOM      5  C   UNL     1       6.401  -8.710  -5.358  1.00  0.00     0.178 C 
ATOM      6  O   UNL     1       7.320  -8.296  -6.366  1.00  0.00    -0.341 OA
ENDROOT
BRANCH   1   7
ATOM      7  O   UNL     1       8.020  -6.289  -5.377  1.00  0.00    -0.350 OA
BRANCH   7   8
ATOM      8  C   UNL     1       9.079  -5.350  -5.346  1.00  0.00     0.160 C 
ATOM      9  C   UNL     1       9.113  -4.501  -6.615  1.00  0.00     0.035 C 
ENDBRANCH   7   8
ENDBRANCH   1   7
BRANCH   2  10
ATOM     10  O   UNL     1       9.807  -9.457  -5.375  1.00  0.00    -0.385 OA
ATOM     11  H   UNL     1       9.479  -9.513  -6.310  1.00  0.00     0.211 HD
ENDBRANCH   2  10
BRANCH   3  12
ATOM     12  O   UNL     1       8.993  -9.515  -2.730  1.00  0.00    -0.387 OA
ATOM     13  H   UNL     1       8.544  -9.413  -1.850  1.00  0.00     0.211 HD
ENDBRANCH   3  12
BRANCH   5  14
ATOM     14  C   UNL     1       5.487  -7.555  -4.892  1.00  0.00     0.191 C 
BRANCH  14  15
ATOM     15  O   UNL     1       4.147  -7.964  -4.905  1.00  0.00    -0.394 OA
ATOM     16  H   UNL     1       4.014  -8.448  -5.762  1.00  0.00     0.210 HD
ENDBRANCH  14  15
ENDBRANCH   5  14
BRANCH   4  17
ATOM     17  O   UNL     1       6.156  -9.767  -3.189  1.00  0.00    -0.387 OA
ATOM     18  H   UNL     1       5.262  -9.820  -3.615  1.00  0.00     0.211 HD
ENDBRANCH   4  17
TORSDOF 7
ENDMDL
MODEL 2
REMARK VINA RESULT:    -3.068     14.915     15.869
REMARK INTER + INTRA:          -4.304
REMARK INTER:                  -3.856
REMARK INTRA:                  -0.448
REMARK UNBOUND:                -0.340
REMARK SMILES CCO[C@@H]1O[C@H](CO)[C@H](O)[C@@H](O)[C@H]1O
REMARK SMILES IDX 4 1 13 2 11 3 9 4 6 5 5 6 3 7 2 8 1 9 14 10 12 12 7 14 8 15
REMARK SMILES IDX 10 17
REMARK H PARENT 14 11 12 13 8 16 10 18
REMARK Flexibility Score: inf
ROOT
ATOM      1  C   UNL     1       6.046  -1.302   8.522  1.00  0.00     0.281 C 
ATOM      2  C   UNL     1       7.370  -2.014   8.200  1.00  0.00     0.202 C 
ATOM      3  C   UNL     1       8.553  -1.054   8.385  1.00  0.00     0.179 C 
ATOM      4  C   UNL     1       8.501  -0.445   9.795  1.00  0.00     0.177 C 
ATOM      5  C   UNL     1       7.108   0.170  10.086  1.00  0.00     0.178 C 
ATOM      6  O   UNL     1       6.039  -0.737   9.830  1.00  0.00    -0.341 OA
ENDROOT
BRANCH   1   7
ATOM      7  O   UNL     1       5.777  -0.309   7.540  1.00  0.00    -0.350 OA
BRANCH   7   8
ATOM      8  C   UNL     1       4.427  -0.324   7.115  1.00  0.00     0.160 C 
ATOM      9  C   UNL     1       4.072  -1.639   6.424  1.00  0.00     0.035 C 
ENDBRANCH   7   8
ENDBRANCH   1   7
BRANCH   2  10
ATOM     10  O   UNL     1       7.508  -3.133   9.042  1.00  0.00    -0.385 OA
ATOM     11  H   UNL     1       8.196  -2.905   9.719  1.00  0.00     0.211 HD
ENDBRANCH   2  10
BRANCH   3  12
ATOM     12  O   UNL     1       9.757  -1.754   8.200  1.00  0.00    -0.387 OA
ATOM     13  H   UNL     1      10.055  -1.578   7.270  1.00  0.00     0.211 HD
ENDBRANCH   3  12
BRANCH   5  14
ATOM     14  C   UNL     1       6.867   1.552   9.437  1.00  0.00     0.191 C 
BRANCH  14  15
ATOM     15  O   UNL     1       5.543   1.958   9.644  1.00  0.00    -0.394 OA
ATOM     16  H   UNL     1       5.552   2.951   9.628  1.00  0.00     0.210 HD
ENDBRANCH  14  15
ENDBRANCH   5  14
BRANCH   4  17
ATOM     17  O   UNL     1       9.502   0.531   9.943  1.00  0.00    -0.387 OA
ATOM     18  H   UNL     1      10.373   0.055   9.952  1.00  0.00     0.211 HD
ENDBRANCH   4  17
TORSDOF 7
ENDMDL
MODEL 3
REMARK VINA RESULT:    -3.052     20.824     22.640
REMARK INTER + INTRA:          -4.284
REMARK INTER:                  -3.866
REMARK INTRA:                  -0.418
REMARK UNBOUND:                -0.340
REMARK SMILES CCO[C@@H]1O[C@H](CO)[C@H](O)[C@@H](O)[C@H]1O
REMARK SMILES IDX 4 1 13 2 11 3 9 4 6 5 5 6 3 7 2 8 1 9 14 10 12 12 7 14 8 15
REMARK SMILES IDX 10 17
REMARK H PARENT 14 11 12 13 8 16 10 18
REMARK Flexibility Score: inf
ROOT
ATOM      1  C   UNL     1      -9.156   6.231  -2.149  1.00  0.00     0.281 C 
ATOM      2  C   UNL     1      -8.204   7.146  -1.361  1.00  0.00     0.202 C 
ATOM      3  C   UNL     1      -7.455   8.087  -2.314  1.00  0.00     0.179 C 
ATOM      4  C   UNL     1      -8.468   8.847  -3.183  1.00  0.00     0.177 C 
ATOM      5  C   UNL     1      -9.455   7.869  -3.872  1.00  0.00     0.178 C 
ATOM      6  O   UNL     1     -10.070   6.968  -2.955  1.00  0.00    -0.341 OA
ENDROOT
BRANCH   1   7
ATOM      7  O   UNL     1      -8.407   5.316  -2.940  1.00  0.00    -0.350 OA
BRANCH   7   8
ATOM      8  C   UNL     1      -9.007   4.035  -2.994  1.00  0.00     0.160 C 
ATOM      9  C   UNL     1      -9.186   3.561  -4.435  1.00  0.00     0.035 C 
ENDBRANCH   7   8
ENDBRANCH   1   7
BRANCH   2  10
ATOM     10  O   UNL     1      -8.947   7.885  -0.422  1.00  0.00    -0.385 OA
ATOM     11  H   UNL     1      -9.486   7.236   0.100  1.00  0.00     0.211 HD
ENDBRANCH   2  10
BRANCH   3  12
ATOM     12  O   UNL     1      -6.680   8.990  -1.566  1.00  0.00    -0.387 OA
ATOM     13  H   UNL     1      -6.249   8.469  -0.839  1.00  0.00     0.211 HD
ENDBRANCH   3  12
BRANCH   5  14
ATOM     14  C   UNL     1      -8.881   7.141  -5.108  1.00  0.00     0.191 C 
BRANCH  14  15
ATOM     15  O   UNL     1      -8.819   8.018  -6.199  1.00  0.00    -0.394 OA
ATOM     16  H   UNL     1      -9.660   7.886  -6.709  1.00  0.00     0.210 HD
ENDBRANCH  14  15
ENDBRANCH   5  14
BRANCH   4  17
ATOM     17  O   UNL     1      -7.801   9.622  -4.148  1.00  0.00    -0.387 OA
ATOM     18  H   UNL     1      -7.380   8.991  -4.788  1.00  0.00     0.211 HD
ENDBRANCH   4  17
TORSDOF 7
ENDMDL
MODEL 4
REMARK VINA RESULT:    -2.998      1.880      4.423
REMARK INTER + INTRA:          -4.213
REMARK INTER:                  -3.801
REMARK INTRA:                  -0.412
REMARK UNBOUND:                -0.340
REMARK SMILES CCO[C@@H]1O[C@H](CO)[C@H](O)[C@@H](O)[C@H]1O
REMARK SMILES IDX 4 1 13 2 11 3 9 4 6 5 5 6 3 7 2 8 1 9 14 10 12 12 7 14 8 15
REMARK SMILES IDX 10 17
REMARK H PARENT 14 11 12 13 8 16 10 18
REMARK Flexibility Score: inf
ROOT
ATOM      1  C   UNL     1       8.799  -7.996  -4.948  1.00  0.00     0.281 C 
ATOM      2  C   UNL     1       8.569  -8.740  -6.274  1.00  0.00     0.202 C 
ATOM      3  C   UNL     1       8.397  -7.740  -7.426  1.00  0.00     0.179 C 
ATOM      4  C   UNL     1       9.595  -6.779  -7.452  1.00  0.00     0.177 C 
ATOM      5  C   UNL     1       9.826  -6.138  -6.059  1.00  0.00     0.178 C 
ATOM      6  O   UNL     1       9.907  -7.103  -5.014  1.00  0.00    -0.341 OA
ENDROOT
BRANCH   1   7
ATOM      7  O   UNL     1       7.615  -7.306  -4.566  1.00  0.00    -0.350 OA
BRANCH   7   8
ATOM      8  C   UNL     1       6.580  -8.190  -4.177  1.00  0.00     0.160 C 
ATOM      9  C   UNL     1       5.236  -7.775  -4.773  1.00  0.00     0.035 C 
ENDBRANCH   7   8
ENDBRANCH   1   7
BRANCH   2  10
ATOM     10  O   UNL     1       9.662  -9.591  -6.521  1.00  0.00    -0.385 OA
ATOM     11  H   UNL     1      10.367  -9.359  -5.862  1.00  0.00     0.211 HD
ENDBRANCH   2  10
BRANCH   3  12
ATOM     12  O   UNL     1       8.305  -8.439  -8.641  1.00  0.00    -0.387 OA
ATOM     13  H   UNL     1       9.221  -8.480  -9.023  1.00  0.00     0.211 HD
ENDBRANCH   3  12
BRANCH   5  14
ATOM     14  C   UNL     1       8.858  -4.985  -5.714  1.00  0.00     0.191 C 
BRANCH  14  15
ATOM     15  O   UNL     1       9.178  -3.845  -6.464  1.00  0.00    -0.394 OA
ATOM     16  H   UNL     1       9.820  -3.324  -5.915  1.00  0.00     0.210 HD
ENDBRANCH  14  15
ENDBRANCH   5  14
BRANCH   4  17
ATOM     17  O   UNL     1       9.398  -5.779  -8.420  1.00  0.00    -0.387 OA
ATOM     18  H   UNL     1       8.421  -5.715  -8.579  1.00  0.00     0.211 HD
ENDBRANCH   4  17
TORSDOF 7
ENDMDL
MODEL 5
REMARK VINA RESULT:    -2.912     13.773     14.775
REMARK INTER + INTRA:          -4.102
REMARK INTER:                  -3.763
REMARK INTRA:                  -0.340
REMARK UNBOUND:                -0.340
REMARK SMILES CCO[C@@H]1O[C@H](CO)[C@H](O)[C@@H](O)[C@H]1O
REMARK SMILES IDX 4 1 13 2 11 3 9 4 6 5 5 6 3 7 2 8 1 9 14 10 12 12 7 14 8 15
REMARK SMILES IDX 10 17
REMARK H PARENT 14 11 12 13 8 16 10 18
REMARK Flexibility Score: inf
ROOT
ATOM      1  C   UNL     1       7.986  -2.992   8.371  1.00  0.00     0.281 C 
ATOM      2  C   UNL     1       9.152  -2.060   8.740  1.00  0.00     0.202 C 
ATOM      3  C   UNL     1       8.819  -0.611   8.356  1.00  0.00     0.179 C 
ATOM      4  C   UNL     1       7.478  -0.210   8.989  1.00  0.00     0.177 C 
ATOM      5  C   UNL     1       6.373  -1.244   8.655  1.00  0.00     0.178 C 
ATOM      6  O   UNL     1       6.757  -2.582   8.962  1.00  0.00    -0.341 OA
ENDROOT
BRANCH   1   7
ATOM      7  O   UNL     1       7.863  -3.081   6.956  1.00  0.00    -0.350 OA
BRANCH   7   8
ATOM      8  C   UNL     1       9.012  -3.644   6.351  1.00  0.00     0.160 C 
ATOM      9  C   UNL     1       8.639  -4.588   5.210  1.00  0.00     0.035 C 
ENDBRANCH   7   8
ENDBRANCH   1   7
BRANCH   2  10
ATOM     10  O   UNL     1       9.402  -2.158  10.120  1.00  0.00    -0.385 OA
ATOM     11  H   UNL     1       9.531  -1.235  10.460  1.00  0.00     0.211 HD
ENDBRANCH   2  10
BRANCH   3  12
ATOM     12  O   UNL     1       9.845   0.238   8.806  1.00  0.00    -0.387 OA
ATOM     13  H   UNL     1       9.736   0.329   9.789  1.00  0.00     0.211 HD
ENDBRANCH   3  12
BRANCH   5  14
ATOM     14  C   UNL     1       5.784  -1.119   7.232  1.00  0.00     0.191 C 
BRANCH  14  15
ATOM     15  O   UNL     1       5.032   0.059   7.123  1.00  0.00    -0.394 OA
ATOM     16  H   UNL     1       5.394   0.683   7.806  1.00  0.00     0.210 HD
ENDBRANCH  14  15
ENDBRANCH   5  14
BRANCH   4  17
ATOM     17  O   UNL     1       7.094   1.069   8.551  1.00  0.00    -0.387 OA
ATOM     18  H   UNL     1       6.196   0.979   8.139  1.00  0.00     0.211 HD
ENDBRANCH   4  17
TORSDOF 7
ENDMDL
MODEL 6
REMARK VINA RESULT:    -2.855     16.635     18.931
REMARK INTER + INTRA:          -4.029
REMARK INTER:                  -3.612
REMARK INTRA:                  -0.417
REMARK UNBOUND:                -0.340
REMARK SMILES CCO[C@@H]1O[C@H](CO)[C@H](O)[C@@H](O)[C@H]1O
REMARK SMILES IDX 4 1 13 2 11 3 9 4 6 5 5 6 3 7 2 8 1 9 14 10 12 12 7 14 8 15
REMARK SMILES IDX 10 17
REMARK H PARENT 14 11 12 13 8 16 10 18
REMARK Flexibility Score: inf
ROOT
ATOM      1  C   UNL     1      -7.385   1.293  -8.776  1.00  0.00     0.281 C 
ATOM      2  C   UNL     1      -8.568   1.790  -7.930  1.00  0.00     0.202 C 
ATOM      3  C   UNL     1      -8.181   3.063  -7.165  1.00  0.00     0.179 C 
ATOM      4  C   UNL     1      -7.641   4.108  -8.153  1.00  0.00     0.177 C 
ATOM      5  C   UNL     1      -6.517   3.510  -9.038  1.00  0.00     0.178 C 
ATOM      6  O   UNL     1      -6.901   2.291  -9.669  1.00  0.00    -0.341 OA
ENDROOT
BRANCH   1   7
ATOM      7  O   UNL     1      -6.344   0.823  -7.929  1.00  0.00    -0.350 OA
BRANCH   7   8
ATOM      8  C   UNL     1      -6.706  -0.356  -7.235  1.00  0.00     0.160 C 
ATOM      9  C   UNL     1      -6.727  -1.569  -8.164  1.00  0.00     0.035 C 
ENDBRANCH   7   8
ENDBRANCH   1   7
BRANCH   2  10
ATOM     10  O   UNL     1      -9.667   2.038  -8.773  1.00  0.00    -0.385 OA
ATOM     11  H   UNL     1     -10.466   2.125  -8.192  1.00  0.00     0.211 HD
ENDBRANCH   2  10
BRANCH   3  12
ATOM     12  O   UNL     1      -9.308   3.565  -6.492  1.00  0.00    -0.387 OA
ATOM     13  H   UNL     1     -10.105   3.284  -7.012  1.00  0.00     0.211 HD
ENDBRANCH   3  12
BRANCH   5  14
ATOM     14  C   UNL     1      -5.142   3.399  -8.343  1.00  0.00     0.191 C 
BRANCH  14  15
ATOM     15  O   UNL     1      -4.514   4.651  -8.311  1.00  0.00    -0.394 OA
ATOM     16  H   UNL     1      -5.229   5.315  -8.128  1.00  0.00     0.210 HD
ENDBRANCH  14  15
ENDBRANCH   5  14
BRANCH   4  17
ATOM     17  O   UNL     1      -7.164   5.236  -7.461  1.00  0.00    -0.387 OA
ATOM     18  H   UNL     1      -6.467   5.653  -8.029  1.00  0.00     0.211 HD
ENDBRANCH   4  17
TORSDOF 7
ENDMDL
MODEL 7
REMARK VINA RESULT:    -2.851     17.678     19.184
REMARK INTER + INTRA:          -4.024
REMARK INTER:                  -3.595
REMARK INTRA:                  -0.429
REMARK UNBOUND:                -0.340
REMARK SMILES CCO[C@@H]1O[C@H](CO)[C@H](O)[C@@H](O)[C@H]1O
REMARK SMILES IDX 4 1 13 2 11 3 9 4 6 5 5 6 3 7 2 8 1 9 14 10 12 12 7 14 8 15
REMARK SMILES IDX 10 17
REMARK H PARENT 14 11 12 13 8 16 10 18
REMARK Flexibility Score: inf
ROOT
ATOM      1  C   UNL     1      -8.136   3.622  -7.886  1.00  0.00     0.281 C 
ATOM      2  C   UNL     1      -6.832   4.419  -7.717  1.00  0.00     0.202 C 
ATOM      3  C   UNL     1      -5.635   3.598  -8.215  1.00  0.00     0.179 C 
ATOM      4  C   UNL     1      -5.898   3.133  -9.656  1.00  0.00     0.177 C 
ATOM      5  C   UNL     1      -7.271   2.423  -9.771  1.00  0.00     0.178 C 
ATOM      6  O   UNL     1      -8.339   3.195  -9.229  1.00  0.00    -0.341 OA
ENDROOT
BRANCH   1   7
ATOM      7  O   UNL     1      -8.147   2.513  -6.994  1.00  0.00    -0.350 OA
BRANCH   7   8
ATOM      8  C   UNL     1      -9.306   2.487  -6.182  1.00  0.00     0.160 C 
ATOM      9  C   UNL     1      -9.119   3.315  -4.913  1.00  0.00     0.035 C 
ENDBRANCH   7   8
ENDBRANCH   1   7
BRANCH   2  10
ATOM     10  O   UNL     1      -6.933   5.625  -8.434  1.00  0.00    -0.385 OA
ATOM     11  H   UNL     1      -7.612   5.487  -9.144  1.00  0.00     0.211 HD
ENDBRANCH   2  10
BRANCH   3  12
ATOM     12  O   UNL     1      -4.473   4.386  -8.161  1.00  0.00    -0.387 OA
ATOM     13  H   UNL     1      -4.484   4.860  -7.289  1.00  0.00     0.211 HD
ENDBRANCH   3  12
BRANCH   5  14
ATOM     14  C   UNL     1      -7.286   0.966  -9.256  1.00  0.00     0.191 C 
BRANCH  14  15
ATOM     15  O   UNL     1      -8.602   0.491  -9.190  1.00  0.00    -0.394 OA
ATOM     16  H   UNL     1      -9.018   0.935  -8.406  1.00  0.00     0.210 HD
ENDBRANCH  14  15
ENDBRANCH   5  14
BRANCH   4  17
ATOM     17  O   UNL     1      -4.871   2.276 -10.088  1.00  0.00    -0.387 OA
ATOM     18  H   UNL     1      -4.070   2.481  -9.539  1.00  0.00     0.211 HD
ENDBRANCH   4  17
TORSDOF 7
ENDMDL
MODEL 8
REMARK VINA RESULT:    -2.836      1.797      3.297
REMARK INTER + INTRA:          -4.004
REMARK INTER:                  -3.746
REMARK INTRA:                  -0.258
REMARK UNBOUND:                -0.340
REMARK SMILES CCO[C@@H]1O[C@H](CO)[C@H](O)[C@@H](O)[C@H]1O
REMARK SMILES IDX 4 1 13 2 11 3 9 4 6 5 5 6 3 7 2 8 1 9 14 10 12 12 7 14 8 15
REMARK SMILES IDX 10 17
REMARK H PARENT 14 11 12 13 8 16 10 18
REMARK Flexibility Score: inf
ROOT
ATOM      1  C   UNL     1       9.421  -6.827  -5.939  1.00  0.00     0.281 C 
ATOM      2  C   UNL     1       8.015  -6.383  -5.503  1.00  0.00     0.202 C 
ATOM      3  C   UNL     1       7.196  -7.592  -5.029  1.00  0.00     0.179 C 
ATOM      4  C   UNL     1       7.977  -8.341  -3.939  1.00  0.00     0.177 C 
ATOM      5  C   UNL     1       9.416  -8.672  -4.411  1.00  0.00     0.178 C 
ATOM      6  O   UNL     1      10.109  -7.531  -4.910  1.00  0.00    -0.341 OA
ENDROOT
BRANCH   1   7
ATOM      7  O   UNL     1       9.339  -7.611  -7.123  1.00  0.00    -0.350 OA
BRANCH   7   8
ATOM      8  C   UNL     1       9.015  -6.835  -8.261  1.00  0.00     0.160 C 
ATOM      9  C   UNL     1       7.917  -7.492  -9.094  1.00  0.00     0.035 C 
ENDBRANCH   7   8
ENDBRANCH   1   7
BRANCH   2  10
ATOM     10  O   UNL     1       8.130  -5.432  -4.474  1.00  0.00    -0.385 OA
ATOM     11  H   UNL     1       8.197  -4.541  -4.906  1.00  0.00     0.211 HD
ENDBRANCH   2  10
BRANCH   3  12
ATOM     12  O   UNL     1       5.960  -7.150  -4.527  1.00  0.00    -0.387 OA
ATOM     13  H   UNL     1       5.349  -7.933  -4.530  1.00  0.00     0.211 HD
ENDBRANCH   3  12
BRANCH   5  14
ATOM     14  C   UNL     1       9.516  -9.880  -5.369  1.00  0.00     0.191 C 
BRANCH  14  15
ATOM     15  O   UNL     1       8.297 -10.073  -6.032  1.00  0.00    -0.394 OA
ATOM     16  H   UNL     1       7.870  -9.179  -6.092  1.00  0.00     0.210 HD
ENDBRANCH  14  15
ENDBRANCH   5  14
BRANCH   4  17
ATOM     17  O   UNL     1       7.302  -9.521  -3.577  1.00  0.00    -0.387 OA
ATOM     18  H   UNL     1       6.666  -9.729  -4.310  1.00  0.00     0.211 HD
ENDBRANCH   4  17
TORSDOF 7
ENDMDL
MODEL 9
REMARK VINA RESULT:    -2.731     18.805     20.559
REMARK INTER + INTRA:          -3.869
REMARK INTER:                  -3.440
REMARK INTRA:                  -0.429
REMARK UNBOUND:                -0.340
REMARK SMILES CCO[C@@H]1O[C@H](CO)[C@H](O)[C@@H](O)[C@H]1O
REMARK SMILES IDX 4 1 13 2 11 3 9 4 6 5 5 6 3 7 2 8 1 9 14 10 12 12 7 14 8 15
REMARK SMILES IDX 10 17
REMARK H PARENT 14 11 12 13 8 16 10 18
REMARK Flexibility Score: inf
ROOT
ATOM      1  C   UNL     1      -8.966   5.080  -8.053  1.00  0.00     0.281 C 
ATOM      2  C   UNL     1      -8.257   3.931  -8.789  1.00  0.00     0.202 C 
ATOM      3  C   UNL     1      -7.668   2.933  -7.782  1.00  0.00     0.179 C 
ATOM      4  C   UNL     1      -8.771   2.468  -6.819  1.00  0.00     0.177 C 
ATOM      5  C   UNL     1      -9.506   3.677  -6.187  1.00  0.00     0.178 C 
ATOM      6  O   UNL     1      -9.971   4.610  -7.159  1.00  0.00    -0.341 OA
ENDROOT
BRANCH   1   7
ATOM      7  O   UNL     1      -8.012   5.881  -7.368  1.00  0.00    -0.350 OA
BRANCH   7   8
ATOM      8  C   UNL     1      -8.255   7.266  -7.532  1.00  0.00     0.160 C 
ATOM      9  C   UNL     1      -8.732   7.908  -6.231  1.00  0.00     0.035 C 
ENDBRANCH   7   8
ENDBRANCH   1   7
BRANCH   2  10
ATOM     10  O   UNL     1      -9.178   3.288  -9.637  1.00  0.00    -0.385 OA
ATOM     11  H   UNL     1      -9.656   2.613  -9.089  1.00  0.00     0.211 HD
ENDBRANCH   2  10
BRANCH   3  12
ATOM     12  O   UNL     1      -7.128   1.836  -8.473  1.00  0.00    -0.387 OA
ATOM     13  H   UNL     1      -7.735   1.645  -9.235  1.00  0.00     0.211 HD
ENDBRANCH   3  12
BRANCH   5  14
ATOM     14  C   UNL     1      -8.739   4.367  -5.037  1.00  0.00     0.191 C 
BRANCH  14  15
ATOM     15  O   UNL     1      -8.736   3.549  -3.900  1.00  0.00    -0.394 OA
ATOM     16  H   UNL     1      -9.680   3.490  -3.599  1.00  0.00     0.210 HD
ENDBRANCH  14  15
ENDBRANCH   5  14
BRANCH   4  17
ATOM     17  O   UNL     1      -8.227   1.650  -5.813  1.00  0.00    -0.387 OA
ATOM     18  H   UNL     1      -7.255   1.846  -5.771  1.00  0.00     0.211 HD
ENDBRANCH   4  17
TORSDOF 7
ENDMDL
