MODEL 1
REMARK VINA RESULT:    -7.796      0.000      0.000
REMARK INTER + INTRA:          -9.660
REMARK INTER:                  -9.618
REMARK INTRA:                  -0.041
REMARK UNBOUND:                -0.041
REMARK SMILES Oc1cc(O)c2cc(O)c(-c3cc(O)c(O)c(O)c3)[o+]c2c1.[Cl-]
REMARK SMILES IDX 10 1 20 2 21 3 22 4 2 5 3 6 4 7 6 8 7 9 8 10 11 11 12 12
REMARK SMILES IDX 13 13 19 14 15 15 17 16 14 17 16 19 18 21 9 23 1 25 5 27
REMARK H PARENT 14 18 16 20 18 22 9 24 1 26 5 28
REMARK Flexibility Score: inf
ROOT
ATOM      1  C   UNL     1      22.210  -5.618 -38.926  1.00  0.00     0.402 A 
ATOM      2  O   UNL     1      21.681  -5.110 -40.039  1.00  0.00    -0.202 OA
ATOM      3  C   UNL     1      20.808  -4.108 -40.038  1.00  0.00     0.368 A 
ATOM      4  C   UNL     1      20.296  -3.635 -41.249  1.00  0.00     0.162 A 
ATOM      5  C   UNL     1      19.373  -2.581 -41.261  1.00  0.00     0.128 A 
ATOM      6  C   UNL     1      18.962  -2.001 -40.055  1.00  0.00     0.093 A 
ATOM      7  C   UNL     1      19.468  -2.464 -38.832  1.00  0.00     0.136 A 
ATOM      8  C   UNL     1      20.395  -3.523 -38.821  1.00  0.00     0.125 A 
ATOM      9  C   UNL     1      20.939  -4.020 -37.631  1.00  0.00     0.078 A 
ATOM     10  C   UNL     1      21.863  -5.070 -37.675  1.00  0.00     0.223 A 
ENDROOT
BRANCH   1  11
ATOM     11  C   UNL     1      23.166  -6.741 -39.055  1.00  0.00     0.091 A 
ATOM     12  C   UNL     1      24.411  -6.722 -38.400  1.00  0.00     0.068 A 
ATOM     13  C   UNL     1      25.293  -7.805 -38.517  1.00  0.00     0.162 A 
ATOM     14  C   UNL     1      22.803  -7.876 -39.797  1.00  0.00     0.068 A 
ATOM     15  C   UNL     1      24.929  -8.926 -39.282  1.00  0.00     0.200 A 
ATOM     16  C   UNL     1      23.682  -8.960 -39.918  1.00  0.00     0.162 A 
BRANCH  13  17
ATOM     17  O   UNL     1      26.528  -7.773 -37.870  1.00  0.00    -0.504 OA
ATOM     18  H   UNL     1      27.378  -7.521 -38.360  1.00  0.00     0.293 HD
ENDBRANCH  13  17
BRANCH  15  19
ATOM     19  O   UNL     1      25.793 -10.014 -39.415  1.00  0.00    -0.502 OA
ATOM     20  H   UNL     1      26.285 -10.208 -40.279  1.00  0.00     0.293 HD
ENDBRANCH  15  19
BRANCH  16  21
ATOM     21  O   UNL     1      23.322 -10.078 -40.669  1.00  0.00    -0.504 OA
ATOM     22  H   UNL     1      23.035  -9.996 -41.638  1.00  0.00     0.293 HD
ENDBRANCH  16  21
ENDBRANCH   1  11
BRANCH  10  23
ATOM     23  O   UNL     1      22.447  -5.537 -36.498  1.00  0.00    -0.500 OA
ATOM     24  H   UNL     1      23.072  -6.335 -36.496  1.00  0.00     0.294 HD
ENDBRANCH  10  23
BRANCH   5  25
ATOM     25  O   UNL     1      18.857  -2.103 -42.463  1.00  0.00    -0.507 OA
ATOM     26  H   UNL     1      19.463  -1.764 -43.201  1.00  0.00     0.293 HD
ENDBRANCH   5  25
BRANCH   7  27
ATOM     27  O   UNL     1      19.051  -1.875 -37.638  1.00  0.00    -0.507 OA
ATOM     28  H   UNL     1      18.150  -1.419 -37.557  1.00  0.00     0.293 HD
ENDBRANCH   7  27
TORSDOF 7
ENDMDL
MODEL 2
REMARK VINA RESULT:    -7.684      0.108      1.791
REMARK INTER + INTRA:          -9.522
REMARK INTER:                  -9.500
REMARK INTRA:                  -0.022
REMARK UNBOUND:                -0.041
REMARK SMILES Oc1cc(O)c2cc(O)c(-c3cc(O)c(O)c(O)c3)[o+]c2c1.[Cl-]
REMARK SMILES IDX 10 1 20 2 21 3 22 4 2 5 3 6 4 7 6 8 7 9 8 10 11 11 12 12
REMARK SMILES IDX 13 13 19 14 15 15 17 16 14 17 16 19 18 21 9 23 1 25 5 27
REMARK H PARENT 14 18 16 20 18 22 9 24 1 26 5 28
REMARK Flexibility Score: inf
ROOT
ATOM      1  C   UNL     1      22.131  -5.709 -38.918  1.00  0.00     0.402 A 
ATOM      2  O   UNL     1      21.616  -5.176 -40.026  1.00  0.00    -0.202 OA
ATOM      3  C   UNL     1      20.776  -4.146 -40.015  1.00  0.00     0.368 A 
ATOM      4  C   UNL     1      20.277  -3.647 -41.221  1.00  0.00     0.162 A 
ATOM      5  C   UNL     1      19.388  -2.563 -41.222  1.00  0.00     0.128 A 
ATOM      6  C   UNL     1      19.000  -1.979 -40.011  1.00  0.00     0.093 A 
ATOM      7  C   UNL     1      19.494  -2.468 -38.793  1.00  0.00     0.136 A 
ATOM      8  C   UNL     1      20.386  -3.557 -38.792  1.00  0.00     0.125 A 
ATOM      9  C   UNL     1      20.917  -4.080 -37.608  1.00  0.00     0.078 A 
ATOM     10  C   UNL     1      21.806  -5.159 -37.662  1.00  0.00     0.223 A 
ENDROOT
BRANCH   1  11
ATOM     11  C   UNL     1      23.050  -6.862 -39.058  1.00  0.00     0.091 A 
ATOM     12  C   UNL     1      22.723  -7.965 -39.866  1.00  0.00     0.068 A 
ATOM     13  C   UNL     1      23.616  -9.036 -40.004  1.00  0.00     0.162 A 
ATOM     14  C   UNL     1      24.299  -6.831 -38.420  1.00  0.00     0.068 A 
ATOM     15  C   UNL     1      24.855  -9.006 -39.341  1.00  0.00     0.200 A 
ATOM     16  C   UNL     1      25.195  -7.899 -38.552  1.00  0.00     0.162 A 
BRANCH  13  17
ATOM     17  O   UNL     1      23.279 -10.129 -40.802  1.00  0.00    -0.504 OA
ATOM     18  H   UNL     1      22.791 -10.933 -40.424  1.00  0.00     0.293 HD
ENDBRANCH  13  17
BRANCH  15  19
ATOM     19  O   UNL     1      25.758 -10.063 -39.460  1.00  0.00    -0.502 OA
ATOM     20  H   UNL     1      25.673 -10.908 -38.908  1.00  0.00     0.293 HD
ENDBRANCH  15  19
BRANCH  16  21
ATOM     21  O   UNL     1      26.428  -7.870 -37.903  1.00  0.00    -0.504 OA
ATOM     22  H   UNL     1      27.052  -7.076 -37.985  1.00  0.00     0.293 HD
ENDBRANCH  16  21
ENDBRANCH   1  11
BRANCH  10  23
ATOM     23  O   UNL     1      22.377  -5.654 -36.490  1.00  0.00    -0.500 OA
ATOM     24  H   UNL     1      22.039  -5.377 -35.576  1.00  0.00     0.294 HD
ENDBRANCH  10  23
BRANCH   5  25
ATOM     25  O   UNL     1      18.885  -2.060 -42.419  1.00  0.00    -0.507 OA
ATOM     26  H   UNL     1      18.424  -2.661 -43.093  1.00  0.00     0.293 HD
ENDBRANCH   5  25
BRANCH   7  27
ATOM     27  O   UNL     1      19.100  -1.875 -37.594  1.00  0.00    -0.507 OA
ATOM     28  H   UNL     1      18.441  -1.104 -37.573  1.00  0.00     0.293 HD
ENDBRANCH   7  27
TORSDOF 7
ENDMDL
MODEL 3
REMARK VINA RESULT:    -7.494      2.435      7.101
REMARK INTER + INTRA:          -9.288
REMARK INTER:                  -8.944
REMARK INTRA:                  -0.343
REMARK UNBOUND:                -0.041
REMARK SMILES Oc1cc(O)c2cc(O)c(-c3cc(O)c(O)c(O)c3)[o+]c2c1.[Cl-]
REMARK SMILES IDX 10 1 20 2 21 3 22 4 2 5 3 6 4 7 6 8 7 9 8 10 11 11 12 12
REMARK SMILES IDX 13 13 19 14 15 15 17 16 14 17 16 19 18 21 9 23 1 25 5 27
REMARK H PARENT 14 18 16 20 18 22 9 24 1 26 5 28
REMARK Flexibility Score: inf
ROOT
ATOM      1  C   UNL     1      23.233  -4.577 -38.633  1.00  0.00     0.402 A 
ATOM      2  O   UNL     1      24.323  -3.811 -38.622  1.00  0.00    -0.202 OA
ATOM      3  C   UNL     1      25.542  -4.284 -38.388  1.00  0.00     0.368 A 
ATOM      4  C   UNL     1      26.636  -3.413 -38.390  1.00  0.00     0.162 A 
ATOM      5  C   UNL     1      27.926  -3.899 -38.142  1.00  0.00     0.128 A 
ATOM      6  C   UNL     1      28.121  -5.262 -37.890  1.00  0.00     0.093 A 
ATOM      7  C   UNL     1      27.034  -6.149 -37.886  1.00  0.00     0.136 A 
ATOM      8  C   UNL     1      25.738  -5.659 -38.136  1.00  0.00     0.125 A 
ATOM      9  C   UNL     1      24.618  -6.499 -38.152  1.00  0.00     0.078 A 
ATOM     10  C   UNL     1      23.352  -5.964 -38.412  1.00  0.00     0.223 A 
ENDROOT
BRANCH   1  11
ATOM     11  C   UNL     1      21.926  -3.932 -38.897  1.00  0.00     0.091 A 
ATOM     12  C   UNL     1      21.252  -3.208 -37.898  1.00  0.00     0.068 A 
ATOM     13  C   UNL     1      20.027  -2.585 -38.175  1.00  0.00     0.162 A 
ATOM     14  C   UNL     1      21.374  -3.994 -40.186  1.00  0.00     0.068 A 
ATOM     15  C   UNL     1      19.471  -2.673 -39.462  1.00  0.00     0.200 A 
ATOM     16  C   UNL     1      20.149  -3.375 -40.467  1.00  0.00     0.162 A 
BRANCH  13  17
ATOM     17  O   UNL     1      19.363  -1.875 -37.175  1.00  0.00    -0.504 OA
ATOM     18  H   UNL     1      18.747  -2.336 -36.515  1.00  0.00     0.293 HD
ENDBRANCH  13  17
BRANCH  15  19
ATOM     19  O   UNL     1      18.251  -2.065 -39.760  1.00  0.00    -0.502 OA
ATOM     20  H   UNL     1      17.658  -2.387 -40.515  1.00  0.00     0.293 HD
ENDBRANCH  15  19
BRANCH  16  21
ATOM     21  O   UNL     1      19.598  -3.452 -41.745  1.00  0.00    -0.504 OA
ATOM     22  H   UNL     1      19.506  -2.632 -42.334  1.00  0.00     0.293 HD
ENDBRANCH  16  21
ENDBRANCH   1  11
BRANCH  10  23
ATOM     23  O   UNL     1      22.239  -6.801 -38.480  1.00  0.00    -0.500 OA
ATOM     24  H   UNL     1      22.217  -7.607 -39.095  1.00  0.00     0.294 HD
ENDBRANCH  10  23
BRANCH   5  25
ATOM     25  O   UNL     1      29.020  -3.038 -38.141  1.00  0.00    -0.507 OA
ATOM     26  H   UNL     1      28.902  -2.032 -38.094  1.00  0.00     0.293 HD
ENDBRANCH   5  25
BRANCH   7  27
ATOM     27  O   UNL     1      27.243  -7.505 -37.636  1.00  0.00    -0.507 OA
ATOM     28  H   UNL     1      26.481  -8.173 -37.660  1.00  0.00     0.293 HD
ENDBRANCH   7  27
TORSDOF 7
ENDMDL
MODEL 4
REMARK VINA RESULT:    -7.325      1.640      7.225
REMARK INTER + INTRA:          -9.079
REMARK INTER:                  -8.780
REMARK INTRA:                  -0.298
REMARK UNBOUND:                -0.041
REMARK SMILES Oc1cc(O)c2cc(O)c(-c3cc(O)c(O)c(O)c3)[o+]c2c1.[Cl-]
REMARK SMILES IDX 10 1 20 2 21 3 22 4 2 5 3 6 4 7 6 8 7 9 8 10 11 11 12 12
REMARK SMILES IDX 13 13 19 14 15 15 17 16 14 17 16 19 18 21 9 23 1 25 5 27
REMARK H PARENT 14 18 16 20 18 22 9 24 1 26 5 28
REMARK Flexibility Score: inf
ROOT
ATOM      1  C   UNL     1      22.844  -4.428 -38.962  1.00  0.00     0.402 A 
ATOM      2  O   UNL     1      22.865  -5.760 -38.933  1.00  0.00    -0.202 OA
ATOM      3  C   UNL     1      23.962  -6.465 -38.678  1.00  0.00     0.368 A 
ATOM      4  C   UNL     1      23.901  -7.862 -38.669  1.00  0.00     0.162 A 
ATOM      5  C   UNL     1      25.051  -8.617 -38.404  1.00  0.00     0.128 A 
ATOM      6  C   UNL     1      26.265  -7.970 -38.147  1.00  0.00     0.093 A 
ATOM      7  C   UNL     1      26.342  -6.569 -38.151  1.00  0.00     0.136 A 
ATOM      8  C   UNL     1      25.186  -5.812 -38.417  1.00  0.00     0.125 A 
ATOM      9  C   UNL     1      25.201  -4.412 -38.425  1.00  0.00     0.078 A 
ATOM     10  C   UNL     1      24.023  -3.705 -38.689  1.00  0.00     0.223 A 
ENDROOT
BRANCH   1  11
ATOM     11  C   UNL     1      21.561  -3.754 -39.267  1.00  0.00     0.091 A 
ATOM     12  C   UNL     1      21.014  -3.773 -40.562  1.00  0.00     0.068 A 
ATOM     13  C   UNL     1      19.788  -3.149 -40.826  1.00  0.00     0.162 A 
ATOM     14  C   UNL     1      20.845  -3.132 -38.233  1.00  0.00     0.068 A 
ATOM     15  C   UNL     1      19.089  -2.508 -39.789  1.00  0.00     0.200 A 
ATOM     16  C   UNL     1      19.620  -2.505 -38.491  1.00  0.00     0.162 A 
BRANCH  13  17
ATOM     17  O   UNL     1      19.257  -3.167 -42.116  1.00  0.00    -0.504 OA
ATOM     18  H   UNL     1      19.321  -2.362 -42.728  1.00  0.00     0.293 HD
ENDBRANCH  13  17
BRANCH  15  19
ATOM     19  O   UNL     1      17.869  -1.876 -40.028  1.00  0.00    -0.502 OA
ATOM     20  H   UNL     1      17.766  -0.870 -39.986  1.00  0.00     0.293 HD
ENDBRANCH  15  19
BRANCH  16  21
ATOM     21  O   UNL     1      18.920  -1.875 -37.464  1.00  0.00    -0.504 OA
ATOM     22  H   UNL     1      17.922  -1.708 -37.526  1.00  0.00     0.293 HD
ENDBRANCH  16  21
ENDBRANCH   1  11
BRANCH  10  23
ATOM     23  O   UNL     1      24.020  -2.312 -38.649  1.00  0.00    -0.500 OA
ATOM     24  H   UNL     1      24.531  -1.760 -39.328  1.00  0.00     0.294 HD
ENDBRANCH  10  23
BRANCH   5  25
ATOM     25  O   UNL     1      25.000 -10.008 -38.395  1.00  0.00    -0.507 OA
ATOM     26  H   UNL     1      24.692 -10.521 -37.577  1.00  0.00     0.293 HD
ENDBRANCH   5  25
BRANCH   7  27
ATOM     27  O   UNL     1      27.557  -5.938 -37.891  1.00  0.00    -0.507 OA
ATOM     28  H   UNL     1      27.990  -5.318 -38.566  1.00  0.00     0.293 HD
ENDBRANCH   7  27
TORSDOF 7
ENDMDL
MODEL 5
REMARK VINA RESULT:    -7.203      1.458      2.543
REMARK INTER + INTRA:          -8.928
REMARK INTER:                  -8.605
REMARK INTRA:                  -0.323
REMARK UNBOUND:                -0.041
REMARK SMILES Oc1cc(O)c2cc(O)c(-c3cc(O)c(O)c(O)c3)[o+]c2c1.[Cl-]
REMARK SMILES IDX 10 1 20 2 21 3 22 4 2 5 3 6 4 7 6 8 7 9 8 10 11 11 12 12
REMARK SMILES IDX 13 13 19 14 15 15 17 16 14 17 16 19 18 21 9 23 1 25 5 27
REMARK H PARENT 14 18 16 20 18 22 9 24 1 26 5 28
REMARK Flexibility Score: inf
ROOT
ATOM      1  C   UNL     1      22.787  -4.596 -38.169  1.00  0.00     0.402 A 
ATOM      2  O   UNL     1      22.282  -4.452 -39.394  1.00  0.00    -0.202 OA
ATOM      3  C   UNL     1      21.161  -3.784 -39.645  1.00  0.00     0.368 A 
ATOM      4  C   UNL     1      20.694  -3.682 -40.958  1.00  0.00     0.162 A 
ATOM      5  C   UNL     1      19.512  -2.983 -41.235  1.00  0.00     0.128 A 
ATOM      6  C   UNL     1      18.795  -2.386 -40.192  1.00  0.00     0.093 A 
ATOM      7  C   UNL     1      19.251  -2.478 -38.869  1.00  0.00     0.136 A 
ATOM      8  C   UNL     1      20.439  -3.181 -38.592  1.00  0.00     0.125 A 
ATOM      9  C   UNL     1      20.945  -3.298 -37.292  1.00  0.00     0.078 A 
ATOM     10  C   UNL     1      22.134  -4.002 -37.070  1.00  0.00     0.223 A 
ENDROOT
BRANCH   1  11
ATOM     11  C   UNL     1      24.040  -5.371 -38.015  1.00  0.00     0.091 A 
ATOM     12  C   UNL     1      24.048  -6.774 -38.102  1.00  0.00     0.068 A 
ATOM     13  C   UNL     1      25.248  -7.488 -37.976  1.00  0.00     0.162 A 
ATOM     14  C   UNL     1      25.254  -4.691 -37.837  1.00  0.00     0.068 A 
ATOM     15  C   UNL     1      26.455  -6.799 -37.774  1.00  0.00     0.200 A 
ATOM     16  C   UNL     1      26.456  -5.399 -37.708  1.00  0.00     0.162 A 
BRANCH  13  17
ATOM     17  O   UNL     1      25.244  -8.880 -38.057  1.00  0.00    -0.504 OA
ATOM     18  H   UNL     1      25.461  -9.460 -37.254  1.00  0.00     0.293 HD
ENDBRANCH  13  17
BRANCH  15  19
ATOM     19  O   UNL     1      27.661  -7.488 -37.641  1.00  0.00    -0.502 OA
ATOM     20  H   UNL     1      28.549  -7.075 -37.897  1.00  0.00     0.293 HD
ENDBRANCH  15  19
BRANCH  16  21
ATOM     21  O   UNL     1      27.657  -4.720 -37.516  1.00  0.00    -0.504 OA
ATOM     22  H   UNL     1      28.552  -5.162 -37.696  1.00  0.00     0.293 HD
ENDBRANCH  16  21
ENDBRANCH   1  11
BRANCH  10  23
ATOM     23  O   UNL     1      22.671  -4.081 -35.786  1.00  0.00    -0.500 OA
ATOM     24  H   UNL     1      23.667  -3.986 -35.620  1.00  0.00     0.294 HD
ENDBRANCH  10  23
BRANCH   5  25
ATOM     25  O   UNL     1      19.040  -2.877 -42.541  1.00  0.00    -0.507 OA
ATOM     26  H   UNL     1      18.395  -2.144 -42.813  1.00  0.00     0.293 HD
ENDBRANCH   5  25
BRANCH   7  27
ATOM     27  O   UNL     1      18.528  -1.876 -37.840  1.00  0.00    -0.507 OA
ATOM     28  H   UNL     1      17.936  -1.070 -38.006  1.00  0.00     0.293 HD
ENDBRANCH   7  27
TORSDOF 7
ENDMDL
MODEL 6
REMARK VINA RESULT:    -7.162      1.516      3.632
REMARK INTER + INTRA:          -8.878
REMARK INTER:                  -9.013
REMARK INTRA:                   0.135
REMARK UNBOUND:                -0.041
REMARK SMILES Oc1cc(O)c2cc(O)c(-c3cc(O)c(O)c(O)c3)[o+]c2c1.[Cl-]
REMARK SMILES IDX 10 1 20 2 21 3 22 4 2 5 3 6 4 7 6 8 7 9 8 10 11 11 12 12
REMARK SMILES IDX 13 13 19 14 15 15 17 16 14 17 16 19 18 21 9 23 1 25 5 27
REMARK H PARENT 14 18 16 20 18 22 9 24 1 26 5 28
REMARK Flexibility Score: inf
ROOT
ATOM      1  C   UNL     1      22.545  -5.701 -38.431  1.00  0.00     0.402 A 
ATOM      2  O   UNL     1      22.621  -5.125 -37.231  1.00  0.00    -0.202 OA
ATOM      3  C   UNL     1      21.875  -4.085 -36.875  1.00  0.00     0.368 A 
ATOM      4  C   UNL     1      22.018  -3.535 -35.598  1.00  0.00     0.162 A 
ATOM      5  C   UNL     1      21.239  -2.437 -35.212  1.00  0.00     0.128 A 
ATOM      6  C   UNL     1      20.314  -1.888 -36.107  1.00  0.00     0.093 A 
ATOM      7  C   UNL     1      20.158  -2.430 -37.392  1.00  0.00     0.136 A 
ATOM      8  C   UNL     1      20.941  -3.534 -37.780  1.00  0.00     0.125 A 
ATOM      9  C   UNL     1      20.822  -4.120 -39.045  1.00  0.00     0.078 A 
ATOM     10  C   UNL     1      21.619  -5.220 -39.379  1.00  0.00     0.223 A 
ENDROOT
BRANCH   1  11
ATOM     11  C   UNL     1      23.436  -6.850 -38.714  1.00  0.00     0.091 A 
ATOM     12  C   UNL     1      23.004  -7.936 -39.496  1.00  0.00     0.068 A 
ATOM     13  C   UNL     1      23.870  -9.002 -39.772  1.00  0.00     0.162 A 
ATOM     14  C   UNL     1      24.757  -6.830 -38.243  1.00  0.00     0.068 A 
ATOM     15  C   UNL     1      25.185  -8.985 -39.276  1.00  0.00     0.200 A 
ATOM     16  C   UNL     1      25.626  -7.895 -38.514  1.00  0.00     0.162 A 
BRANCH  13  17
ATOM     17  O   UNL     1      23.430 -10.078 -40.542  1.00  0.00    -0.504 OA
ATOM     18  H   UNL     1      23.997 -10.465 -41.288  1.00  0.00     0.293 HD
ENDBRANCH  13  17
BRANCH  15  19
ATOM     19  O   UNL     1      26.063 -10.037 -39.533  1.00  0.00    -0.502 OA
ATOM     20  H   UNL     1      25.746 -10.995 -39.620  1.00  0.00     0.293 HD
ENDBRANCH  15  19
BRANCH  16  21
ATOM     21  O   UNL     1      26.934  -7.878 -38.030  1.00  0.00    -0.504 OA
ATOM     22  H   UNL     1      27.362  -8.705 -37.630  1.00  0.00     0.293 HD
ENDBRANCH  16  21
ENDBRANCH   1  11
BRANCH  10  23
ATOM     23  O   UNL     1      21.471  -5.841 -40.618  1.00  0.00    -0.500 OA
ATOM     24  H   UNL     1      22.112  -5.662 -41.382  1.00  0.00     0.294 HD
ENDBRANCH  10  23
BRANCH   5  25
ATOM     25  O   UNL     1      21.376  -1.882 -33.942  1.00  0.00    -0.507 OA
ATOM     26  H   UNL     1      21.010  -2.347 -33.119  1.00  0.00     0.293 HD
ENDBRANCH   5  25
BRANCH   7  27
ATOM     27  O   UNL     1      19.231  -1.875 -38.274  1.00  0.00    -0.507 OA
ATOM     28  H   UNL     1      19.380  -1.885 -39.276  1.00  0.00     0.293 HD
ENDBRANCH   7  27
TORSDOF 7
ENDMDL
MODEL 7
REMARK VINA RESULT:    -6.845      1.314      1.687
REMARK INTER + INTRA:          -8.487
REMARK INTER:                  -8.538
REMARK INTRA:                   0.050
REMARK UNBOUND:                -0.041
REMARK SMILES Oc1cc(O)c2cc(O)c(-c3cc(O)c(O)c(O)c3)[o+]c2c1.[Cl-]
REMARK SMILES IDX 10 1 20 2 21 3 22 4 2 5 3 6 4 7 6 8 7 9 8 10 11 11 12 12
REMARK SMILES IDX 13 13 19 14 15 15 17 16 14 17 16 19 18 21 9 23 1 25 5 27
REMARK H PARENT 14 18 16 20 18 22 9 24 1 26 5 28
REMARK Flexibility Score: inf
ROOT
ATOM      1  C   UNL     1      22.798  -5.547 -37.779  1.00  0.00     0.402 A 
ATOM      2  O   UNL     1      21.910  -4.988 -38.601  1.00  0.00    -0.202 OA
ATOM      3  C   UNL     1      21.112  -3.990 -38.238  1.00  0.00     0.368 A 
ATOM      4  C   UNL     1      20.202  -3.461 -39.159  1.00  0.00     0.162 A 
ATOM      5  C   UNL     1      19.354  -2.409 -38.789  1.00  0.00     0.128 A 
ATOM      6  C   UNL     1      19.416  -1.887 -37.492  1.00  0.00     0.093 A 
ATOM      7  C   UNL     1      20.324  -2.406 -36.557  1.00  0.00     0.136 A 
ATOM      8  C   UNL     1      21.176  -3.463 -36.930  1.00  0.00     0.125 A 
ATOM      9  C   UNL     1      22.107  -4.014 -36.042  1.00  0.00     0.078 A 
ATOM     10  C   UNL     1      22.936  -5.058 -36.464  1.00  0.00     0.223 A 
ENDROOT
BRANCH   1  11
ATOM     11  C   UNL     1      23.626  -6.661 -38.296  1.00  0.00     0.091 A 
ATOM     12  C   UNL     1      25.001  -6.743 -38.012  1.00  0.00     0.068 A 
ATOM     13  C   UNL     1      25.763  -7.818 -38.492  1.00  0.00     0.162 A 
ATOM     14  C   UNL     1      23.019  -7.687 -39.035  1.00  0.00     0.068 A 
ATOM     15  C   UNL     1      25.149  -8.829 -39.251  1.00  0.00     0.200 A 
ATOM     16  C   UNL     1      23.775  -8.762 -39.518  1.00  0.00     0.162 A 
BRANCH  13  17
ATOM     17  O   UNL     1      27.127  -7.887 -38.211  1.00  0.00    -0.504 OA
ATOM     18  H   UNL     1      27.484  -8.435 -37.438  1.00  0.00     0.293 HD
ENDBRANCH  13  17
BRANCH  15  19
ATOM     19  O   UNL     1      25.888  -9.905 -39.742  1.00  0.00    -0.502 OA
ATOM     20  H   UNL     1      26.868 -10.032 -39.520  1.00  0.00     0.293 HD
ENDBRANCH  15  19
BRANCH  16  21
ATOM     21  O   UNL     1      23.170  -9.771 -40.264  1.00  0.00    -0.504 OA
ATOM     22  H   UNL     1      22.767 -10.590 -39.822  1.00  0.00     0.293 HD
ENDBRANCH  16  21
ENDBRANCH   1  11
BRANCH  10  23
ATOM     23  O   UNL     1      23.900  -5.579 -35.601  1.00  0.00    -0.500 OA
ATOM     24  H   UNL     1      24.523  -6.325 -35.889  1.00  0.00     0.294 HD
ENDBRANCH  10  23
BRANCH   5  25
ATOM     25  O   UNL     1      18.445  -1.877 -39.700  1.00  0.00    -0.507 OA
ATOM     26  H   UNL     1      18.753  -1.341 -40.503  1.00  0.00     0.293 HD
ENDBRANCH   5  25
BRANCH   7  27
ATOM     27  O   UNL     1      20.377  -1.875 -35.269  1.00  0.00    -0.507 OA
ATOM     28  H   UNL     1      21.144  -2.083 -34.639  1.00  0.00     0.293 HD
ENDBRANCH   7  27
TORSDOF 7
ENDMDL
