MODEL 1
REMARK VINA RESULT:    -8.184      0.000      0.000
REMARK INTER + INTRA:         -10.179
REMARK INTER:                  -9.858
REMARK INTRA:                  -0.320
REMARK UNBOUND:                -0.320
REMARK SMILES O=c1c(O)c(-c2ccc(O)c(O)c2)oc2cc(O)cc(O)c12
REMARK SMILES IDX 5 1 3 2 2 3 1 4 22 5 20 6 19 7 17 8 16 9 15 10 14 11 6 12
REMARK SMILES IDX 7 13 8 14 9 15 13 16 11 17 10 18 12 20 4 22 21 24 18 26
REMARK H PARENT 10 19 12 21 4 23 21 25 18 27
REMARK Flexibility Score: inf
ROOT
ATOM      1  C   UNL     1      80.474 -26.780  84.620  1.00  0.00     0.180 A 
ATOM      2  C   UNL     1      81.763 -27.216  84.972  1.00  0.00     0.208 A 
ATOM      3  C   UNL     1      82.440 -26.564  86.016  1.00  0.00     0.238 A 
ATOM      4  O   UNL     1      83.614 -26.922  86.291  1.00  0.00    -0.285 OA
ATOM      5  C   UNL     1      81.813 -25.497  86.705  1.00  0.00     0.111 A 
ATOM      6  C   UNL     1      82.389 -24.793  87.804  1.00  0.00     0.134 A 
ATOM      7  C   UNL     1      81.734 -23.670  88.324  1.00  0.00     0.093 A 
ATOM      8  C   UNL     1      80.492 -23.266  87.827  1.00  0.00     0.123 A 
ATOM      9  C   UNL     1      79.894 -23.983  86.795  1.00  0.00     0.094 A 
ATOM     10  C   UNL     1      80.540 -25.086  86.230  1.00  0.00     0.146 A 
ATOM     11  O   UNL     1      79.939 -25.735  85.240  1.00  0.00    -0.452 OA
ENDROOT
BRANCH   1  12
ATOM     12  C   UNL     1      79.688 -27.433  83.547  1.00  0.00     0.025 A 
ATOM     13  C   UNL     1      79.838 -27.000  82.220  1.00  0.00     0.016 A 
ATOM     14  C   UNL     1      79.090 -27.587  81.196  1.00  0.00     0.051 A 
ATOM     15  C   UNL     1      78.172 -28.605  81.484  1.00  0.00     0.157 A 
ATOM     16  C   UNL     1      78.750 -28.440  83.836  1.00  0.00     0.062 A 
ATOM     17  C   UNL     1      77.998 -29.029  82.813  1.00  0.00     0.158 A 
BRANCH  15  18
ATOM     18  O   UNL     1      77.430 -29.190  80.461  1.00  0.00    -0.504 OA
ATOM     19  H   UNL     1      76.474 -28.910  80.271  1.00  0.00     0.293 HD
ENDBRANCH  15  18
BRANCH  17  20
ATOM     20  O   UNL     1      77.082 -30.029  83.135  1.00  0.00    -0.504 OA
ATOM     21  H   UNL     1      76.334 -30.296  82.507  1.00  0.00     0.293 HD
ENDBRANCH  17  20
ENDBRANCH   1  12
BRANCH   2  22
ATOM     22  O   UNL     1      82.372 -28.255  84.265  1.00  0.00    -0.502 OA
ATOM     23  H   UNL     1      83.375 -28.319  84.148  1.00  0.00     0.293 HD
ENDBRANCH   2  22
BRANCH   6  24
ATOM     24  O   UNL     1      83.579 -25.168  88.434  1.00  0.00    -0.507 OA
ATOM     25  H   UNL     1      83.788 -26.100  88.758  1.00  0.00     0.293 HD
ENDBRANCH   6  24
BRANCH   8  26
ATOM     26  O   UNL     1      79.840 -22.157  88.361  1.00  0.00    -0.508 OA
ATOM     27  H   UNL     1      79.734 -21.298  87.832  1.00  0.00     0.293 HD
ENDBRANCH   8  26
TORSDOF 6
ENDMDL
MODEL 2
REMARK VINA RESULT:    -8.008      3.063      4.204
REMARK INTER + INTRA:          -9.967
REMARK INTER:                  -9.838
REMARK INTRA:                  -0.129
REMARK UNBOUND:                -0.320
REMARK SMILES O=c1c(O)c(-c2ccc(O)c(O)c2)oc2cc(O)cc(O)c12
REMARK SMILES IDX 5 1 3 2 2 3 1 4 22 5 20 6 19 7 17 8 16 9 15 10 14 11 6 12
REMARK SMILES IDX 7 13 8 14 9 15 13 16 11 17 10 18 12 20 4 22 21 24 18 26
REMARK H PARENT 10 19 12 21 4 23 21 25 18 27
REMARK Flexibility Score: inf
ROOT
ATOM      1  C   UNL     1      78.924 -26.468  85.536  1.00  0.00     0.180 A 
ATOM      2  C   UNL     1      79.428 -27.508  84.736  1.00  0.00     0.208 A 
ATOM      3  C   UNL     1      80.815 -27.729  84.702  1.00  0.00     0.238 A 
ATOM      4  O   UNL     1      81.265 -28.625  83.943  1.00  0.00    -0.285 OA
ATOM      5  C   UNL     1      81.677 -26.918  85.480  1.00  0.00     0.111 A 
ATOM      6  C   UNL     1      83.093 -27.080  85.553  1.00  0.00     0.134 A 
ATOM      7  C   UNL     1      83.860 -26.139  86.252  1.00  0.00     0.093 A 
ATOM      8  C   UNL     1      83.255 -25.081  86.934  1.00  0.00     0.123 A 
ATOM      9  C   UNL     1      81.869 -24.950  86.919  1.00  0.00     0.094 A 
ATOM     10  C   UNL     1      81.080 -25.851  86.201  1.00  0.00     0.146 A 
ATOM     11  O   UNL     1      79.763 -25.684  86.203  1.00  0.00    -0.452 OA
ENDROOT
BRANCH   1  12
ATOM     12  C   UNL     1      77.473 -26.189  85.643  1.00  0.00     0.025 A 
ATOM     13  C   UNL     1      76.826 -26.358  86.878  1.00  0.00     0.016 A 
ATOM     14  C   UNL     1      75.454 -26.121  86.996  1.00  0.00     0.051 A 
ATOM     15  C   UNL     1      74.706 -25.727  85.880  1.00  0.00     0.157 A 
ATOM     16  C   UNL     1      76.715 -25.814  84.520  1.00  0.00     0.062 A 
ATOM     17  C   UNL     1      75.340 -25.577  84.634  1.00  0.00     0.158 A 
BRANCH  15  18
ATOM     18  O   UNL     1      73.338 -25.489  86.001  1.00  0.00    -0.504 OA
ATOM     19  H   UNL     1      72.917 -25.262  86.894  1.00  0.00     0.293 HD
ENDBRANCH  15  18
BRANCH  17  20
ATOM     20  O   UNL     1      74.621 -25.200  83.501  1.00  0.00    -0.504 OA
ATOM     21  H   UNL     1      74.705 -25.694  82.621  1.00  0.00     0.293 HD
ENDBRANCH  17  20
ENDBRANCH   1  12
BRANCH   2  22
ATOM     22  O   UNL     1      78.562 -28.281  83.960  1.00  0.00    -0.502 OA
ATOM     23  H   UNL     1      77.942 -27.876  83.269  1.00  0.00     0.293 HD
ENDBRANCH   2  22
BRANCH   6  24
ATOM     24  O   UNL     1      83.787 -28.152  84.985  1.00  0.00    -0.507 OA
ATOM     25  H   UNL     1      83.360 -29.008  84.666  1.00  0.00     0.293 HD
ENDBRANCH   6  24
BRANCH   8  26
ATOM     26  O   UNL     1      84.024 -24.158  87.641  1.00  0.00    -0.508 OA
ATOM     27  H   UNL     1      83.620 -23.307  88.016  1.00  0.00     0.293 HD
ENDBRANCH   8  26
TORSDOF 6
ENDMDL
MODEL 3
REMARK VINA RESULT:    -7.994      3.049      4.782
REMARK INTER + INTRA:          -9.950
REMARK INTER:                  -9.642
REMARK INTRA:                  -0.308
REMARK UNBOUND:                -0.320
REMARK SMILES O=c1c(O)c(-c2ccc(O)c(O)c2)oc2cc(O)cc(O)c12
REMARK SMILES IDX 5 1 3 2 2 3 1 4 22 5 20 6 19 7 17 8 16 9 15 10 14 11 6 12
REMARK SMILES IDX 7 13 8 14 9 15 13 16 11 17 10 18 12 20 4 22 21 24 18 26
REMARK H PARENT 10 19 12 21 4 23 21 25 18 27
REMARK Flexibility Score: inf
ROOT
ATOM      1  C   UNL     1      78.956 -25.620  86.284  1.00  0.00     0.180 A 
ATOM      2  C   UNL     1      79.564 -24.574  87.000  1.00  0.00     0.208 A 
ATOM      3  C   UNL     1      80.962 -24.561  87.130  1.00  0.00     0.238 A 
ATOM      4  O   UNL     1      81.496 -23.653  87.818  1.00  0.00    -0.285 OA
ATOM      5  C   UNL     1      81.736 -25.584  86.529  1.00  0.00     0.111 A 
ATOM      6  C   UNL     1      83.161 -25.647  86.562  1.00  0.00     0.134 A 
ATOM      7  C   UNL     1      83.814 -26.773  86.046  1.00  0.00     0.093 A 
ATOM      8  C   UNL     1      83.097 -27.807  85.439  1.00  0.00     0.123 A 
ATOM      9  C   UNL     1      81.710 -27.725  85.348  1.00  0.00     0.094 A 
ATOM     10  C   UNL     1      81.027 -26.632  85.886  1.00  0.00     0.146 A 
ATOM     11  O   UNL     1      79.703 -26.599  85.787  1.00  0.00    -0.452 OA
ENDROOT
BRANCH   1  12
ATOM     12  C   UNL     1      77.491 -25.689  86.082  1.00  0.00     0.025 A 
ATOM     13  C   UNL     1      76.683 -26.267  87.075  1.00  0.00     0.016 A 
ATOM     14  C   UNL     1      75.301 -26.362  86.896  1.00  0.00     0.051 A 
ATOM     15  C   UNL     1      74.706 -25.895  85.717  1.00  0.00     0.157 A 
ATOM     16  C   UNL     1      76.893 -25.240  84.891  1.00  0.00     0.062 A 
ATOM     17  C   UNL     1      75.509 -25.335  84.708  1.00  0.00     0.158 A 
BRANCH  15  18
ATOM     18  O   UNL     1      73.327 -25.988  85.542  1.00  0.00    -0.504 OA
ATOM     19  H   UNL     1      72.862 -26.885  85.462  1.00  0.00     0.293 HD
ENDBRANCH  15  18
BRANCH  17  20
ATOM     20  O   UNL     1      74.950 -24.873  83.517  1.00  0.00    -0.504 OA
ATOM     21  H   UNL     1      73.948 -24.795  83.387  1.00  0.00     0.293 HD
ENDBRANCH  17  20
ENDBRANCH   1  12
BRANCH   2  22
ATOM     22  O   UNL     1      78.781 -23.588  87.604  1.00  0.00    -0.502 OA
ATOM     23  H   UNL     1      77.841 -23.373  87.293  1.00  0.00     0.293 HD
ENDBRANCH   2  22
BRANCH   6  24
ATOM     24  O   UNL     1      83.976 -24.627  87.062  1.00  0.00    -0.507 OA
ATOM     25  H   UNL     1      83.686 -23.940  87.741  1.00  0.00     0.293 HD
ENDBRANCH   6  24
BRANCH   8  26
ATOM     26  O   UNL     1      83.756 -28.916  84.914  1.00  0.00    -0.508 OA
ATOM     27  H   UNL     1      83.438 -29.860  85.102  1.00  0.00     0.293 HD
ENDBRANCH   8  26
TORSDOF 6
ENDMDL
MODEL 4
REMARK VINA RESULT:    -7.850      1.192      2.919
REMARK INTER + INTRA:          -9.776
REMARK INTER:                  -9.664
REMARK INTRA:                  -0.112
REMARK UNBOUND:                -0.320
REMARK SMILES O=c1c(O)c(-c2ccc(O)c(O)c2)oc2cc(O)cc(O)c12
REMARK SMILES IDX 5 1 3 2 2 3 1 4 22 5 20 6 19 7 17 8 16 9 15 10 14 11 6 12
REMARK SMILES IDX 7 13 8 14 9 15 13 16 11 17 10 18 12 20 4 22 21 24 18 26
REMARK H PARENT 10 19 12 21 4 23 21 25 18 27
REMARK Flexibility Score: inf
ROOT
ATOM      1  C   UNL     1      79.378 -26.151  84.683  1.00  0.00     0.180 A 
ATOM      2  C   UNL     1      78.400 -25.335  85.276  1.00  0.00     0.208 A 
ATOM      3  C   UNL     1      78.765 -24.506  86.349  1.00  0.00     0.238 A 
ATOM      4  O   UNL     1      77.874 -23.818  86.912  1.00  0.00    -0.285 OA
ATOM      5  C   UNL     1      80.106 -24.491  86.804  1.00  0.00     0.111 A 
ATOM      6  C   UNL     1      80.596 -23.660  87.856  1.00  0.00     0.134 A 
ATOM      7  C   UNL     1      81.911 -23.824  88.309  1.00  0.00     0.093 A 
ATOM      8  C   UNL     1      82.772 -24.742  87.704  1.00  0.00     0.123 A 
ATOM      9  C   UNL     1      82.321 -25.515  86.638  1.00  0.00     0.094 A 
ATOM     10  C   UNL     1      81.004 -25.401  86.186  1.00  0.00     0.146 A 
ATOM     11  O   UNL     1      80.612 -26.164  85.174  1.00  0.00    -0.452 OA
ENDROOT
BRANCH   1  12
ATOM     12  C   UNL     1      79.076 -27.034  83.532  1.00  0.00     0.025 A 
ATOM     13  C   UNL     1      79.714 -26.809  82.302  1.00  0.00     0.016 A 
ATOM     14  C   UNL     1      79.428 -27.616  81.198  1.00  0.00     0.051 A 
ATOM     15  C   UNL     1      78.488 -28.650  81.302  1.00  0.00     0.157 A 
ATOM     16  C   UNL     1      78.117 -28.059  83.628  1.00  0.00     0.062 A 
ATOM     17  C   UNL     1      77.827 -28.869  82.523  1.00  0.00     0.158 A 
BRANCH  15  18
ATOM     18  O   UNL     1      78.206 -29.455  80.201  1.00  0.00    -0.504 OA
ATOM     19  H   UNL     1      77.390 -29.295  79.622  1.00  0.00     0.293 HD
ENDBRANCH  15  18
BRANCH  17  20
ATOM     20  O   UNL     1      76.877 -29.880  82.656  1.00  0.00    -0.504 OA
ATOM     21  H   UNL     1      76.555 -30.200  83.562  1.00  0.00     0.293 HD
ENDBRANCH  17  20
ENDBRANCH   1  12
BRANCH   2  22
ATOM     22  O   UNL     1      77.078 -25.382  84.827  1.00  0.00    -0.502 OA
ATOM     23  H   UNL     1      76.821 -25.785  83.934  1.00  0.00     0.293 HD
ENDBRANCH   2  22
BRANCH   6  24
ATOM     24  O   UNL     1      79.847 -22.649  88.465  1.00  0.00    -0.507 OA
ATOM     25  H   UNL     1      78.845 -22.556  88.397  1.00  0.00     0.293 HD
ENDBRANCH   6  24
BRANCH   8  26
ATOM     26  O   UNL     1      84.084 -24.887  88.151  1.00  0.00    -0.508 OA
ATOM     27  H   UNL     1      84.807 -24.223  87.898  1.00  0.00     0.293 HD
ENDBRANCH   8  26
TORSDOF 6
ENDMDL
MODEL 5
REMARK VINA RESULT:    -7.716      2.509      6.695
REMARK INTER + INTRA:          -9.615
REMARK INTER:                  -9.302
REMARK INTRA:                  -0.313
REMARK UNBOUND:                -0.320
REMARK SMILES O=c1c(O)c(-c2ccc(O)c(O)c2)oc2cc(O)cc(O)c12
REMARK SMILES IDX 5 1 3 2 2 3 1 4 22 5 20 6 19 7 17 8 16 9 15 10 14 11 6 12
REMARK SMILES IDX 7 13 8 14 9 15 13 16 11 17 10 18 12 20 4 22 21 24 18 26
REMARK H PARENT 10 19 12 21 4 23 21 25 18 27
REMARK Flexibility Score: inf
ROOT
ATOM      1  C   UNL     1      81.888 -25.603  86.863  1.00  0.00     0.180 A 
ATOM      2  C   UNL     1      81.801 -26.893  86.312  1.00  0.00     0.208 A 
ATOM      3  C   UNL     1      80.580 -27.319  85.766  1.00  0.00     0.238 A 
ATOM      4  O   UNL     1      80.493 -28.494  85.324  1.00  0.00    -0.285 OA
ATOM      5  C   UNL     1      79.466 -26.445  85.762  1.00  0.00     0.111 A 
ATOM      6  C   UNL     1      78.192 -26.758  85.199  1.00  0.00     0.134 A 
ATOM      7  C   UNL     1      77.125 -25.867  85.369  1.00  0.00     0.093 A 
ATOM      8  C   UNL     1      77.303 -24.646  86.024  1.00  0.00     0.123 A 
ATOM      9  C   UNL     1      78.557 -24.306  86.524  1.00  0.00     0.094 A 
ATOM     10  C   UNL     1      79.632 -25.189  86.403  1.00  0.00     0.146 A 
ATOM     11  O   UNL     1      80.808 -24.830  86.904  1.00  0.00    -0.452 OA
ENDROOT
BRANCH   1  12
ATOM     12  C   UNL     1      83.147 -25.073  87.434  1.00  0.00     0.025 A 
ATOM     13  C   UNL     1      84.113 -24.515  86.581  1.00  0.00     0.016 A 
ATOM     14  C   UNL     1      85.317 -24.029  87.097  1.00  0.00     0.051 A 
ATOM     15  C   UNL     1      85.580 -24.106  88.471  1.00  0.00     0.157 A 
ATOM     16  C   UNL     1      83.424 -25.167  88.810  1.00  0.00     0.062 A 
ATOM     17  C   UNL     1      84.629 -24.683  89.330  1.00  0.00     0.158 A 
BRANCH  15  18
ATOM     18  O   UNL     1      86.780 -23.618  88.983  1.00  0.00    -0.504 OA
ATOM     19  H   UNL     1      86.801 -22.987  89.776  1.00  0.00     0.293 HD
ENDBRANCH  15  18
BRANCH  17  20
ATOM     20  O   UNL     1      84.866 -24.787  90.700  1.00  0.00    -0.504 OA
ATOM     21  H   UNL     1      85.169 -23.995  91.255  1.00  0.00     0.293 HD
ENDBRANCH  17  20
ENDBRANCH   1  12
BRANCH   2  22
ATOM     22  O   UNL     1      82.906 -27.747  86.346  1.00  0.00    -0.502 OA
ATOM     23  H   UNL     1      82.838 -28.713  86.642  1.00  0.00     0.293 HD
ENDBRANCH   2  22
BRANCH   6  24
ATOM     24  O   UNL     1      77.932 -27.907  84.447  1.00  0.00    -0.507 OA
ATOM     25  H   UNL     1      77.273 -28.625  84.704  1.00  0.00     0.293 HD
ENDBRANCH   6  24
BRANCH   8  26
ATOM     26  O   UNL     1      76.240 -23.759  86.174  1.00  0.00    -0.508 OA
ATOM     27  H   UNL     1      76.250 -23.033  86.883  1.00  0.00     0.293 HD
ENDBRANCH   8  26
TORSDOF 6
ENDMDL
MODEL 6
REMARK VINA RESULT:    -7.563      2.221      7.563
REMARK INTER + INTRA:          -9.431
REMARK INTER:                  -9.147
REMARK INTRA:                  -0.284
REMARK UNBOUND:                -0.320
REMARK SMILES O=c1c(O)c(-c2ccc(O)c(O)c2)oc2cc(O)cc(O)c12
REMARK SMILES IDX 5 1 3 2 2 3 1 4 22 5 20 6 19 7 17 8 16 9 15 10 14 11 6 12
REMARK SMILES IDX 7 13 8 14 9 15 13 16 11 17 10 18 12 20 4 22 21 24 18 26
REMARK H PARENT 10 19 12 21 4 23 21 25 18 27
REMARK Flexibility Score: inf
ROOT
ATOM      1  C   UNL     1      82.235 -25.037  86.825  1.00  0.00     0.180 A 
ATOM      2  C   UNL     1      81.135 -24.162  86.823  1.00  0.00     0.208 A 
ATOM      3  C   UNL     1      79.996 -24.502  86.074  1.00  0.00     0.238 A 
ATOM      4  O   UNL     1      79.037 -23.689  86.032  1.00  0.00    -0.285 OA
ATOM      5  C   UNL     1      79.965 -25.718  85.351  1.00  0.00     0.111 A 
ATOM      6  C   UNL     1      78.849 -26.182  84.592  1.00  0.00     0.134 A 
ATOM      7  C   UNL     1      78.977 -27.337  83.811  1.00  0.00     0.093 A 
ATOM      8  C   UNL     1      80.160 -28.080  83.813  1.00  0.00     0.123 A 
ATOM      9  C   UNL     1      81.234 -27.669  84.597  1.00  0.00     0.094 A 
ATOM     10  C   UNL     1      81.150 -26.501  85.359  1.00  0.00     0.146 A 
ATOM     11  O   UNL     1      82.201 -26.139  86.085  1.00  0.00    -0.452 OA
ENDROOT
BRANCH   1  12
ATOM     12  C   UNL     1      83.461 -24.761  87.609  1.00  0.00     0.025 A 
ATOM     13  C   UNL     1      83.455 -24.972  88.997  1.00  0.00     0.016 A 
ATOM     14  C   UNL     1      84.594 -24.697  89.759  1.00  0.00     0.051 A 
ATOM     15  C   UNL     1      85.750 -24.194  89.148  1.00  0.00     0.157 A 
ATOM     16  C   UNL     1      84.615 -24.235  87.002  1.00  0.00     0.062 A 
ATOM     17  C   UNL     1      85.757 -23.958  87.762  1.00  0.00     0.158 A 
BRANCH  15  18
ATOM     18  O   UNL     1      86.885 -23.924  89.909  1.00  0.00    -0.504 OA
ATOM     19  H   UNL     1      86.821 -23.702  90.896  1.00  0.00     0.293 HD
ENDBRANCH  15  18
BRANCH  17  20
ATOM     20  O   UNL     1      86.886 -23.444  87.126  1.00  0.00    -0.504 OA
ATOM     21  H   UNL     1      87.669 -24.031  86.862  1.00  0.00     0.293 HD
ENDBRANCH  17  20
ENDBRANCH   1  12
BRANCH   2  22
ATOM     22  O   UNL     1      81.195 -22.956  87.526  1.00  0.00    -0.502 OA
ATOM     23  H   UNL     1      81.655 -22.872  88.424  1.00  0.00     0.293 HD
ENDBRANCH   2  22
BRANCH   6  24
ATOM     24  O   UNL     1      77.595 -25.565  84.593  1.00  0.00    -0.507 OA
ATOM     25  H   UNL     1      76.716 -26.049  84.700  1.00  0.00     0.293 HD
ENDBRANCH   6  24
BRANCH   8  26
ATOM     26  O   UNL     1      80.273 -29.238  83.045  1.00  0.00    -0.508 OA
ATOM     27  H   UNL     1      79.456 -29.710  82.674  1.00  0.00     0.293 HD
ENDBRANCH   8  26
TORSDOF 6
ENDMDL
MODEL 7
REMARK VINA RESULT:    -7.331      1.866      7.184
REMARK INTER + INTRA:          -9.152
REMARK INTER:                  -8.831
REMARK INTRA:                  -0.320
REMARK UNBOUND:                -0.320
REMARK SMILES O=c1c(O)c(-c2ccc(O)c(O)c2)oc2cc(O)cc(O)c12
REMARK SMILES IDX 5 1 3 2 2 3 1 4 22 5 20 6 19 7 17 8 16 9 15 10 14 11 6 12
REMARK SMILES IDX 7 13 8 14 9 15 13 16 11 17 10 18 12 20 4 22 21 24 18 26
REMARK H PARENT 10 19 12 21 4 23 21 25 18 27
REMARK Flexibility Score: inf
ROOT
ATOM      1  C   UNL     1      80.398 -26.220  85.495  1.00  0.00     0.180 A 
ATOM      2  C   UNL     1      79.072 -26.098  85.943  1.00  0.00     0.208 A 
ATOM      3  C   UNL     1      78.032 -26.582  85.131  1.00  0.00     0.238 A 
ATOM      4  O   UNL     1      76.844 -26.420  85.512  1.00  0.00    -0.285 OA
ATOM      5  C   UNL     1      78.334 -27.196  83.892  1.00  0.00     0.111 A 
ATOM      6  C   UNL     1      77.363 -27.758  83.009  1.00  0.00     0.134 A 
ATOM      7  C   UNL     1      77.763 -28.223  81.750  1.00  0.00     0.093 A 
ATOM      8  C   UNL     1      79.107 -28.206  81.369  1.00  0.00     0.123 A 
ATOM      9  C   UNL     1      80.068 -27.715  82.247  1.00  0.00     0.094 A 
ATOM     10  C   UNL     1      79.697 -27.211  83.496  1.00  0.00     0.146 A 
ATOM     11  O   UNL     1      80.645 -26.742  84.299  1.00  0.00    -0.452 OA
ENDROOT
BRANCH   1  12
ATOM     12  C   UNL     1      81.549 -25.757  86.305  1.00  0.00     0.025 A 
ATOM     13  C   UNL     1      82.097 -26.608  87.277  1.00  0.00     0.016 A 
ATOM     14  C   UNL     1      83.169 -26.183  88.067  1.00  0.00     0.051 A 
ATOM     15  C   UNL     1      83.699 -24.896  87.906  1.00  0.00     0.157 A 
ATOM     16  C   UNL     1      82.070 -24.458  86.160  1.00  0.00     0.062 A 
ATOM     17  C   UNL     1      83.143 -24.029  86.950  1.00  0.00     0.158 A 
BRANCH  15  18
ATOM     18  O   UNL     1      84.770 -24.476  88.692  1.00  0.00    -0.504 OA
ATOM     19  H   UNL     1      84.798 -23.548  89.097  1.00  0.00     0.293 HD
ENDBRANCH  15  18
BRANCH  17  20
ATOM     20  O   UNL     1      83.638 -22.738  86.775  1.00  0.00    -0.504 OA
ATOM     21  H   UNL     1      83.029 -21.944  86.617  1.00  0.00     0.293 HD
ENDBRANCH  17  20
ENDBRANCH   1  12
BRANCH   2  22
ATOM     22  O   UNL     1      78.795 -25.468  87.159  1.00  0.00    -0.502 OA
ATOM     23  H   UNL     1      79.475 -25.408  87.907  1.00  0.00     0.293 HD
ENDBRANCH   2  22
BRANCH   6  24
ATOM     24  O   UNL     1      76.011 -27.907  83.329  1.00  0.00    -0.507 OA
ATOM     25  H   UNL     1      75.649 -28.562  84.005  1.00  0.00     0.293 HD
ENDBRANCH   6  24
BRANCH   8  26
ATOM     26  O   UNL     1      79.497 -28.685  80.120  1.00  0.00    -0.508 OA
ATOM     27  H   UNL     1      79.755 -28.057  79.367  1.00  0.00     0.293 HD
ENDBRANCH   8  26
TORSDOF 6
ENDMDL
MODEL 8
REMARK VINA RESULT:    -7.269      2.445      6.529
REMARK INTER + INTRA:          -9.077
REMARK INTER:                  -8.840
REMARK INTRA:                  -0.237
REMARK UNBOUND:                -0.320
REMARK SMILES O=c1c(O)c(-c2ccc(O)c(O)c2)oc2cc(O)cc(O)c12
REMARK SMILES IDX 5 1 3 2 2 3 1 4 22 5 20 6 19 7 17 8 16 9 15 10 14 11 6 12
REMARK SMILES IDX 7 13 8 14 9 15 13 16 11 17 10 18 12 20 4 22 21 24 18 26
REMARK H PARENT 10 19 12 21 4 23 21 25 18 27
REMARK Flexibility Score: inf
ROOT
ATOM      1  C   UNL     1      80.368 -26.082  85.638  1.00  0.00     0.180 A 
ATOM      2  C   UNL     1      80.422 -27.078  84.648  1.00  0.00     0.208 A 
ATOM      3  C   UNL     1      79.242 -27.433  83.975  1.00  0.00     0.238 A 
ATOM      4  O   UNL     1      79.286 -28.363  83.128  1.00  0.00    -0.285 OA
ATOM      5  C   UNL     1      78.027 -26.778  84.289  1.00  0.00     0.111 A 
ATOM      6  C   UNL     1      76.780 -27.029  83.642  1.00  0.00     0.134 A 
ATOM      7  C   UNL     1      75.617 -26.415  84.123  1.00  0.00     0.093 A 
ATOM      8  C   UNL     1      75.667 -25.510  85.185  1.00  0.00     0.123 A 
ATOM      9  C   UNL     1      76.888 -25.212  85.784  1.00  0.00     0.094 A 
ATOM     10  C   UNL     1      78.060 -25.836  85.351  1.00  0.00     0.146 A 
ATOM     11  O   UNL     1      79.202 -25.532  85.956  1.00  0.00    -0.452 OA
ENDROOT
BRANCH   1  12
ATOM     12  C   UNL     1      81.574 -25.636  86.374  1.00  0.00     0.025 A 
ATOM     13  C   UNL     1      82.128 -26.467  87.361  1.00  0.00     0.016 A 
ATOM     14  C   UNL     1      83.253 -26.056  88.081  1.00  0.00     0.051 A 
ATOM     15  C   UNL     1      83.831 -24.804  87.837  1.00  0.00     0.157 A 
ATOM     16  C   UNL     1      82.144 -24.371  86.146  1.00  0.00     0.062 A 
ATOM     17  C   UNL     1      83.270 -23.956  86.866  1.00  0.00     0.158 A 
BRANCH  15  18
ATOM     18  O   UNL     1      84.954 -24.398  88.555  1.00  0.00    -0.504 OA
ATOM     19  H   UNL     1      85.861 -24.302  88.112  1.00  0.00     0.293 HD
ENDBRANCH  15  18
BRANCH  17  20
ATOM     20  O   UNL     1      83.813 -22.698  86.609  1.00  0.00    -0.504 OA
ATOM     21  H   UNL     1      83.237 -21.868  86.536  1.00  0.00     0.293 HD
ENDBRANCH  17  20
ENDBRANCH   1  12
BRANCH   2  22
ATOM     22  O   UNL     1      81.627 -27.728  84.370  1.00  0.00    -0.502 OA
ATOM     23  H   UNL     1      82.419 -27.698  85.000  1.00  0.00     0.293 HD
ENDBRANCH   2  22
BRANCH   6  24
ATOM     24  O   UNL     1      76.635 -27.844  82.515  1.00  0.00    -0.507 OA
ATOM     25  H   UNL     1      75.768 -28.262  82.216  1.00  0.00     0.293 HD
ENDBRANCH   6  24
BRANCH   8  26
ATOM     26  O   UNL     1      74.506 -24.891  85.647  1.00  0.00    -0.508 OA
ATOM     27  H   UNL     1      73.992 -25.254  86.442  1.00  0.00     0.293 HD
ENDBRANCH   8  26
TORSDOF 6
ENDMDL
MODEL 9
REMARK VINA RESULT:    -7.033      3.337      3.946
REMARK INTER + INTRA:          -8.793
REMARK INTER:                  -8.469
REMARK INTRA:                  -0.323
REMARK UNBOUND:                -0.320
REMARK SMILES O=c1c(O)c(-c2ccc(O)c(O)c2)oc2cc(O)cc(O)c12
REMARK SMILES IDX 5 1 3 2 2 3 1 4 22 5 20 6 19 7 17 8 16 9 15 10 14 11 6 12
REMARK SMILES IDX 7 13 8 14 9 15 13 16 11 17 10 18 12 20 4 22 21 24 18 26
REMARK H PARENT 10 19 12 21 4 23 21 25 18 27
REMARK Flexibility Score: inf
ROOT
ATOM      1  C   UNL     1      78.119 -25.306  86.254  1.00  0.00     0.180 A 
ATOM      2  C   UNL     1      79.082 -26.300  86.011  1.00  0.00     0.208 A 
ATOM      3  C   UNL     1      80.413 -26.069  86.398  1.00  0.00     0.238 A 
ATOM      4  O   UNL     1      81.280 -26.939  86.129  1.00  0.00    -0.285 OA
ATOM      5  C   UNL     1      80.759 -24.854  87.038  1.00  0.00     0.111 A 
ATOM      6  C   UNL     1      82.067 -24.530  87.509  1.00  0.00     0.134 A 
ATOM      7  C   UNL     1      82.323 -23.248  88.008  1.00  0.00     0.093 A 
ATOM      8  C   UNL     1      81.302 -22.299  88.114  1.00  0.00     0.123 A 
ATOM      9  C   UNL     1      80.010 -22.625  87.712  1.00  0.00     0.094 A 
ATOM     10  C   UNL     1      79.731 -23.884  87.176  1.00  0.00     0.146 A 
ATOM     11  O   UNL     1      78.487 -24.151  86.796  1.00  0.00    -0.452 OA
ENDROOT
BRANCH   1  12
ATOM     12  C   UNL     1      76.693 -25.487  85.897  1.00  0.00     0.025 A 
ATOM     13  C   UNL     1      75.820 -26.085  86.819  1.00  0.00     0.016 A 
ATOM     14  C   UNL     1      74.476 -26.284  86.495  1.00  0.00     0.051 A 
ATOM     15  C   UNL     1      73.987 -25.902  85.239  1.00  0.00     0.157 A 
ATOM     16  C   UNL     1      76.204 -25.123  84.629  1.00  0.00     0.062 A 
ATOM     17  C   UNL     1      74.858 -25.323  84.300  1.00  0.00     0.158 A 
BRANCH  15  18
ATOM     18  O   UNL     1      72.645 -26.099  84.919  1.00  0.00    -0.504 OA
ATOM     19  H   UNL     1      72.001 -26.523  85.575  1.00  0.00     0.293 HD
ENDBRANCH  15  18
BRANCH  17  20
ATOM     20  O   UNL     1      74.407 -24.944  83.037  1.00  0.00    -0.504 OA
ATOM     21  H   UNL     1      74.481 -25.557  82.233  1.00  0.00     0.293 HD
ENDBRANCH  17  20
ENDBRANCH   1  12
BRANCH   2  22
ATOM     22  O   UNL     1      78.724 -27.483  85.359  1.00  0.00    -0.502 OA
ATOM     23  H   UNL     1      78.429 -28.312  85.859  1.00  0.00     0.293 HD
ENDBRANCH   2  22
BRANCH   6  24
ATOM     24  O   UNL     1      83.133 -25.434  87.534  1.00  0.00    -0.507 OA
ATOM     25  H   UNL     1      83.957 -25.366  86.958  1.00  0.00     0.293 HD
ENDBRANCH   6  24
BRANCH   8  26
ATOM     26  O   UNL     1      81.563 -21.030  88.627  1.00  0.00    -0.508 OA
ATOM     27  H   UNL     1      82.418 -20.827  89.131  1.00  0.00     0.293 HD
ENDBRANCH   8  26
TORSDOF 6
ENDMDL
