MODEL 1
REMARK VINA RESULT:    -3.794      0.000      0.000
REMARK INTER + INTRA:          -5.606
REMARK INTER:                  -5.346
REMARK INTRA:                  -0.259
REMARK UNBOUND:                -0.259
REMARK SMILES CCCCCCCCC(=O)[O-]
REMARK SMILES IDX 6 1 7 2 8 3 9 4 10 5 11 6 5 7 4 8 3 9 2 10 1 11
REMARK H PARENT
REMARK Flexibility Score: inf
ROOT
ATOM      1  C   UNL     1     -24.024  28.349   8.232  1.00  0.00     0.000 C 
ENDROOT
BRANCH   1   2
ATOM      2  C   UNL     1     -24.125  29.536   7.262  1.00  0.00     0.006 C 
BRANCH   2   3
ATOM      3  C   UNL     1     -24.101  30.886   7.993  1.00  0.00     0.053 C 
BRANCH   3   4
ATOM      4  C   UNL     1     -22.702  31.357   8.246  1.00  0.00     0.041 C 
ATOM      5  O   UNL     1     -22.247  31.390   9.419  1.00  0.00    -0.550 OA
ATOM      6  O   UNL     1     -21.912  31.792   7.189  1.00  0.00    -0.550 OA
ENDBRANCH   3   4
ENDBRANCH   2   3
ENDBRANCH   1   2
BRANCH   1   7
ATOM      7  C   UNL     1     -23.755  27.043   7.474  1.00  0.00     0.000 C 
BRANCH   7   8
ATOM      8  C   UNL     1     -24.060  25.824   8.358  1.00  0.00    -0.000 C 
BRANCH   8   9
ATOM      9  C   UNL     1     -23.365  25.896   9.727  1.00  0.00    -0.000 C 
BRANCH   9  10
ATOM     10  C   UNL     1     -22.032  25.135   9.755  1.00  0.00    -0.003 C 
ATOM     11  C   UNL     1     -22.025  24.082  10.860  1.00  0.00     0.004 C 
ENDBRANCH   9  10
ENDBRANCH   8   9
ENDBRANCH   7   8
ENDBRANCH   1   7
TORSDOF 7
ENDMDL
MODEL 2
REMARK VINA RESULT:    -3.464      4.299      6.034
REMARK INTER + INTRA:          -5.141
REMARK INTER:                  -4.685
REMARK INTRA:                  -0.455
REMARK UNBOUND:                -0.259
REMARK SMILES CCCCCCCCC(=O)[O-]
REMARK SMILES IDX 6 1 7 2 8 3 9 4 10 5 11 6 5 7 4 8 3 9 2 10 1 11
REMARK H PARENT
REMARK Flexibility Score: inf
ROOT
ATOM      1  C   UNL     1     -23.902  24.683  12.032  1.00  0.00     0.000 C 
ENDROOT
BRANCH   1   2
ATOM      2  C   UNL     1     -22.686  25.445  11.484  1.00  0.00     0.006 C 
BRANCH   2   3
ATOM      3  C   UNL     1     -22.916  25.956  10.056  1.00  0.00     0.053 C 
BRANCH   3   4
ATOM      4  C   UNL     1     -22.520  24.939   9.029  1.00  0.00     0.041 C 
ATOM      5  O   UNL     1     -21.347  24.925   8.573  1.00  0.00    -0.550 OA
ATOM      6  O   UNL     1     -23.457  24.030   8.553  1.00  0.00    -0.550 OA
ENDBRANCH   3   4
ENDBRANCH   2   3
ENDBRANCH   1   2
BRANCH   1   7
ATOM      7  C   UNL     1     -23.481  23.336  12.632  1.00  0.00     0.000 C 
BRANCH   7   8
ATOM      8  C   UNL     1     -22.014  23.372  13.087  1.00  0.00    -0.000 C 
BRANCH   8   9
ATOM      9  C   UNL     1     -21.869  23.342  14.617  1.00  0.00    -0.000 C 
BRANCH   9  10
ATOM     10  C   UNL     1     -20.408  23.466  15.075  1.00  0.00    -0.003 C 
ATOM     11  C   UNL     1     -19.645  24.464  14.210  1.00  0.00     0.004 C 
ENDBRANCH   9  10
ENDBRANCH   8   9
ENDBRANCH   7   8
ENDBRANCH   1   7
TORSDOF 7
ENDMDL
MODEL 3
REMARK VINA RESULT:    -3.459      3.277      5.884
REMARK INTER + INTRA:          -5.133
REMARK INTER:                  -4.874
REMARK INTRA:                  -0.260
REMARK UNBOUND:                -0.259
REMARK SMILES CCCCCCCCC(=O)[O-]
REMARK SMILES IDX 6 1 7 2 8 3 9 4 10 5 11 6 5 7 4 8 3 9 2 10 1 11
REMARK H PARENT
REMARK Flexibility Score: inf
ROOT
ATOM      1  C   UNL     1     -23.996  26.257   7.716  1.00  0.00     0.000 C 
ENDROOT
BRANCH   1   2
ATOM      2  C   UNL     1     -23.330  26.267   9.100  1.00  0.00     0.006 C 
BRANCH   2   3
ATOM      3  C   UNL     1     -22.790  24.886   9.495  1.00  0.00     0.053 C 
BRANCH   3   4
ATOM      4  C   UNL     1     -23.056  24.574  10.935  1.00  0.00     0.041 C 
ATOM      5  O   UNL     1     -24.027  23.840  11.256  1.00  0.00    -0.550 OA
ATOM      6  O   UNL     1     -22.251  25.123  11.926  1.00  0.00    -0.550 OA
ENDBRANCH   3   4
ENDBRANCH   2   3
ENDBRANCH   1   2
BRANCH   1   7
ATOM      7  C   UNL     1     -23.954  27.650   7.076  1.00  0.00     0.000 C 
BRANCH   7   8
ATOM      8  C   UNL     1     -24.011  28.748   8.149  1.00  0.00    -0.000 C 
BRANCH   8   9
ATOM      9  C   UNL     1     -24.125  30.158   7.548  1.00  0.00    -0.000 C 
BRANCH   9  10
ATOM     10  C   UNL     1     -23.344  31.208   8.351  1.00  0.00    -0.003 C 
ATOM     11  C   UNL     1     -21.974  31.465   7.732  1.00  0.00     0.004 C 
ENDBRANCH   9  10
ENDBRANCH   8   9
ENDBRANCH   7   8
ENDBRANCH   1   7
TORSDOF 7
ENDMDL
MODEL 4
REMARK VINA RESULT:    -3.392      5.266      7.243
REMARK INTER + INTRA:          -5.039
REMARK INTER:                  -4.527
REMARK INTRA:                  -0.512
REMARK UNBOUND:                -0.259
REMARK SMILES CCCCCCCCC(=O)[O-]
REMARK SMILES IDX 6 1 7 2 8 3 9 4 10 5 11 6 5 7 4 8 3 9 2 10 1 11
REMARK H PARENT
REMARK Flexibility Score: inf
ROOT
ATOM      1  C   UNL     1     -22.701  23.518  12.240  1.00  0.00     0.000 C 
ENDROOT
BRANCH   1   2
ATOM      2  C   UNL     1     -21.226  23.945  12.256  1.00  0.00     0.006 C 
BRANCH   2   3
ATOM      3  C   UNL     1     -20.386  23.098  13.221  1.00  0.00     0.053 C 
BRANCH   3   4
ATOM      4  C   UNL     1     -20.227  23.764  14.554  1.00  0.00     0.041 C 
ATOM      5  O   UNL     1     -19.194  24.438  14.805  1.00  0.00    -0.550 OA
ATOM      6  O   UNL     1     -21.204  23.611  15.529  1.00  0.00    -0.550 OA
ENDBRANCH   3   4
ENDBRANCH   2   3
ENDBRANCH   1   2
BRANCH   1   7
ATOM      7  C   UNL     1     -23.618  24.717  11.973  1.00  0.00     0.000 C 
BRANCH   7   8
ATOM      8  C   UNL     1     -23.021  25.636  10.896  1.00  0.00    -0.000 C 
BRANCH   8   9
ATOM      9  C   UNL     1     -23.788  25.566   9.566  1.00  0.00    -0.000 C 
BRANCH   9  10
ATOM     10  C   UNL     1     -22.860  25.619   8.344  1.00  0.00    -0.003 C 
ATOM     11  C   UNL     1     -21.590  24.808   8.584  1.00  0.00     0.004 C 
ENDBRANCH   9  10
ENDBRANCH   8   9
ENDBRANCH   7   8
ENDBRANCH   1   7
TORSDOF 7
ENDMDL
MODEL 5
REMARK VINA RESULT:    -3.289     12.456     13.435
REMARK INTER + INTRA:          -4.894
REMARK INTER:                  -4.586
REMARK INTRA:                  -0.308
REMARK UNBOUND:                -0.259
REMARK SMILES CCCCCCCCC(=O)[O-]
REMARK SMILES IDX 6 1 7 2 8 3 9 4 10 5 11 6 5 7 4 8 3 9 2 10 1 11
REMARK H PARENT
REMARK Flexibility Score: inf
ROOT
ATOM      1  C   UNL     1     -20.962  32.137  22.988  1.00  0.00     0.000 C 
ENDROOT
BRANCH   1   2
ATOM      2  C   UNL     1     -21.662  32.912  21.862  1.00  0.00     0.006 C 
BRANCH   2   3
ATOM      3  C   UNL     1     -21.412  34.423  21.954  1.00  0.00     0.053 C 
BRANCH   3   4
ATOM      4  C   UNL     1     -22.202  35.182  20.933  1.00  0.00     0.041 C 
ATOM      5  O   UNL     1     -22.589  34.612  19.879  1.00  0.00    -0.550 OA
ATOM      6  O   UNL     1     -22.483  36.529  21.130  1.00  0.00    -0.550 OA
ENDBRANCH   3   4
ENDBRANCH   2   3
ENDBRANCH   1   2
BRANCH   1   7
ATOM      7  C   UNL     1     -20.125  30.984  22.423  1.00  0.00     0.000 C 
BRANCH   7   8
ATOM      8  C   UNL     1     -20.753  30.429  21.135  1.00  0.00    -0.000 C 
BRANCH   8   9
ATOM      9  C   UNL     1     -19.727  29.729  20.230  1.00  0.00    -0.000 C 
BRANCH   9  10
ATOM     10  C   UNL     1     -20.377  28.732  19.260  1.00  0.00    -0.003 C 
ATOM     11  C   UNL     1     -21.899  28.816  19.327  1.00  0.00     0.004 C 
ENDBRANCH   9  10
ENDBRANCH   8   9
ENDBRANCH   7   8
ENDBRANCH   1   7
TORSDOF 7
ENDMDL
MODEL 6
REMARK VINA RESULT:    -3.270     12.658     14.270
REMARK INTER + INTRA:          -4.868
REMARK INTER:                  -4.551
REMARK INTRA:                  -0.317
REMARK UNBOUND:                -0.259
REMARK SMILES CCCCCCCCC(=O)[O-]
REMARK SMILES IDX 6 1 7 2 8 3 9 4 10 5 11 6 5 7 4 8 3 9 2 10 1 11
REMARK H PARENT
REMARK Flexibility Score: inf
ROOT
ATOM      1  C   UNL     1     -20.554  30.959  22.098  1.00  0.00     0.000 C 
ENDROOT
BRANCH   1   2
ATOM      2  C   UNL     1     -19.713  29.783  21.578  1.00  0.00     0.006 C 
BRANCH   2   3
ATOM      3  C   UNL     1     -19.763  29.664  20.049  1.00  0.00     0.053 C 
BRANCH   3   4
ATOM      4  C   UNL     1     -20.630  28.525  19.607  1.00  0.00     0.041 C 
ATOM      5  O   UNL     1     -20.227  27.339  19.728  1.00  0.00    -0.550 OA
ATOM      6  O   UNL     1     -21.869  28.777  19.031  1.00  0.00    -0.550 OA
ENDBRANCH   3   4
ENDBRANCH   2   3
ENDBRANCH   1   2
BRANCH   1   7
ATOM      7  C   UNL     1     -19.735  31.846  23.042  1.00  0.00     0.000 C 
BRANCH   7   8
ATOM      8  C   UNL     1     -20.355  33.247  23.155  1.00  0.00    -0.000 C 
BRANCH   8   9
ATOM      9  C   UNL     1     -21.486  33.478  22.140  1.00  0.00    -0.000 C 
BRANCH   9  10
ATOM     10  C   UNL     1     -21.423  34.867  21.489  1.00  0.00    -0.003 C 
ATOM     11  C   UNL     1     -22.218  34.900  20.187  1.00  0.00     0.004 C 
ENDBRANCH   9  10
ENDBRANCH   8   9
ENDBRANCH   7   8
ENDBRANCH   1   7
TORSDOF 7
ENDMDL
MODEL 7
REMARK VINA RESULT:    -3.255     12.635     14.170
REMARK INTER + INTRA:          -4.847
REMARK INTER:                  -4.396
REMARK INTRA:                  -0.451
REMARK UNBOUND:                -0.259
REMARK SMILES CCCCCCCCC(=O)[O-]
REMARK SMILES IDX 6 1 7 2 8 3 9 4 10 5 11 6 5 7 4 8 3 9 2 10 1 11
REMARK H PARENT
REMARK Flexibility Score: inf
ROOT
ATOM      1  C   UNL     1     -19.507  28.996  21.615  1.00  0.00     0.000 C 
ENDROOT
BRANCH   1   2
ATOM      2  C   UNL     1     -19.789  29.756  20.310  1.00  0.00     0.006 C 
BRANCH   2   3
ATOM      3  C   UNL     1     -20.346  28.840  19.213  1.00  0.00     0.053 C 
BRANCH   3   4
ATOM      4  C   UNL     1     -21.746  28.399  19.513  1.00  0.00     0.041 C 
ATOM      5  O   UNL     1     -21.968  27.227  19.914  1.00  0.00    -0.550 OA
ATOM      6  O   UNL     1     -22.808  29.273  19.317  1.00  0.00    -0.550 OA
ENDBRANCH   3   4
ENDBRANCH   2   3
ENDBRANCH   1   2
BRANCH   1   7
ATOM      7  C   UNL     1     -18.003  28.949  21.910  1.00  0.00     0.000 C 
BRANCH   7   8
ATOM      8  C   UNL     1     -17.692  29.581  23.275  1.00  0.00    -0.000 C 
BRANCH   8   9
ATOM      9  C   UNL     1     -18.828  30.483  23.783  1.00  0.00    -0.000 C 
BRANCH   9  10
ATOM     10  C   UNL     1     -18.445  31.970  23.790  1.00  0.00    -0.003 C 
ATOM     11  C   UNL     1     -19.624  32.841  23.368  1.00  0.00     0.004 C 
ENDBRANCH   9  10
ENDBRANCH   8   9
ENDBRANCH   7   8
ENDBRANCH   1   7
TORSDOF 7
ENDMDL
MODEL 8
REMARK VINA RESULT:    -3.242      3.235      5.194
REMARK INTER + INTRA:          -4.829
REMARK INTER:                  -4.462
REMARK INTRA:                  -0.367
REMARK UNBOUND:                -0.259
REMARK SMILES CCCCCCCCC(=O)[O-]
REMARK SMILES IDX 6 1 7 2 8 3 9 4 10 5 11 6 5 7 4 8 3 9 2 10 1 11
REMARK H PARENT
REMARK Flexibility Score: inf
ROOT
ATOM      1  C   UNL     1     -22.807  24.555  10.971  1.00  0.00     0.000 C 
ENDROOT
BRANCH   1   2
ATOM      2  C   UNL     1     -23.963  24.668   9.966  1.00  0.00     0.006 C 
BRANCH   2   3
ATOM      3  C   UNL     1     -23.466  24.897   8.532  1.00  0.00     0.053 C 
BRANCH   3   4
ATOM      4  C   UNL     1     -23.634  26.322   8.105  1.00  0.00     0.041 C 
ATOM      5  O   UNL     1     -23.646  26.619   6.881  1.00  0.00    -0.550 OA
ATOM      6  O   UNL     1     -23.745  27.326   9.058  1.00  0.00    -0.550 OA
ENDBRANCH   3   4
ENDBRANCH   2   3
ENDBRANCH   1   2
BRANCH   1   7
ATOM      7  C   UNL     1     -23.336  24.369  12.398  1.00  0.00     0.000 C 
BRANCH   7   8
ATOM      8  C   UNL     1     -22.410  23.451  13.211  1.00  0.00    -0.000 C 
BRANCH   8   9
ATOM      9  C   UNL     1     -21.163  23.019  12.422  1.00  0.00    -0.000 C 
BRANCH   9  10
ATOM     10  C   UNL     1     -19.900  22.968  13.294  1.00  0.00    -0.003 C 
ATOM     11  C   UNL     1     -19.775  24.224  14.151  1.00  0.00     0.004 C 
ENDBRANCH   9  10
ENDBRANCH   8   9
ENDBRANCH   7   8
ENDBRANCH   1   7
TORSDOF 7
ENDMDL
MODEL 9
REMARK VINA RESULT:    -3.124     12.782     13.652
REMARK INTER + INTRA:          -4.662
REMARK INTER:                  -4.223
REMARK INTRA:                  -0.439
REMARK UNBOUND:                -0.259
REMARK SMILES CCCCCCCCC(=O)[O-]
REMARK SMILES IDX 6 1 7 2 8 3 9 4 10 5 11 6 5 7 4 8 3 9 2 10 1 11
REMARK H PARENT
REMARK Flexibility Score: inf
ROOT
ATOM      1  C   UNL     1     -21.362  32.730  22.459  1.00  0.00     0.000 C 
ENDROOT
BRANCH   1   2
ATOM      2  C   UNL     1     -21.150  34.219  22.145  1.00  0.00     0.006 C 
BRANCH   2   3
ATOM      3  C   UNL     1     -21.856  34.646  20.852  1.00  0.00     0.053 C 
BRANCH   3   4
ATOM      4  C   UNL     1     -22.933  35.654  21.112  1.00  0.00     0.041 C 
ATOM      5  O   UNL     1     -24.125  35.281  21.268  1.00  0.00    -0.550 OA
ATOM      6  O   UNL     1     -22.624  37.009  21.148  1.00  0.00    -0.550 OA
ENDBRANCH   3   4
ENDBRANCH   2   3
ENDBRANCH   1   2
BRANCH   1   7
ATOM      7  C   UNL     1     -22.296  32.080  21.431  1.00  0.00     0.000 C 
BRANCH   7   8
ATOM      8  C   UNL     1     -21.859  30.639  21.127  1.00  0.00    -0.000 C 
BRANCH   8   9
ATOM      9  C   UNL     1     -20.390  30.375  21.495  1.00  0.00    -0.000 C 
BRANCH   9  10
ATOM     10  C   UNL     1     -19.629  29.624  20.393  1.00  0.00    -0.003 C 
ATOM     11  C   UNL     1     -20.594  28.898  19.459  1.00  0.00     0.004 C 
ENDBRANCH   9  10
ENDBRANCH   8   9
ENDBRANCH   7   8
ENDBRANCH   1   7
TORSDOF 7
ENDMDL
