MODEL 1
REMARK VINA RESULT:     0.000      0.000      0.000
REMARK INTER + INTRA:          -1.263
REMARK INTER:                   0.000
REMARK INTRA:                  -1.263
REMARK UNBOUND:                -1.263
REMARK SMILES COc1c(O[C@H]2O[C@@H](C(=O)[O-])[C@H](O)[C@H](O)[C@@H]2O)cc(O)c2c(=O)cc(-c3ccccc3)oc12
REMARK SMILES IDX 5 1 6 2 8 3 12 4 7 5 14 6 16 7 9 8 10 9 11 10 13 11 15 13
REMARK SMILES IDX 17 15 4 17 3 18 18 19 33 20 19 21 21 22 32 23 22 24 25 25
REMARK SMILES IDX 24 26 23 27 2 28 1 29 20 30 26 32 27 33 31 34 28 35 30 36
REMARK SMILES IDX 29 37
REMARK H PARENT 13 12 15 14 17 16 20 31
REMARK Flexibility Score: inf
ROOT
ATOM      1  O   UNL     1      17.028  14.955  49.185  1.00  0.00    -0.458 OA
ENDROOT
BRANCH   1   2
ATOM      2  C   UNL     1      17.186  13.870  48.263  1.00  0.00     0.339 C 
ATOM      3  C   UNL     1      17.370  12.212  49.966  1.00  0.00     0.199 C 
ATOM      4  C   UNL     1      15.968  11.627  49.638  1.00  0.00     0.180 C 
ATOM      5  O   UNL     1      17.974  12.834  48.837  1.00  0.00    -0.328 OA
ATOM      6  C   UNL     1      15.075  12.667  48.940  1.00  0.00     0.181 C 
ATOM      7  C   UNL     1      15.813  13.357  47.784  1.00  0.00     0.214 C 
BRANCH   3   8
ATOM      8  C   UNL     1      17.402  13.106  51.185  1.00  0.00     0.073 C 
ATOM      9  O   UNL     1      18.493  13.609  51.557  1.00  0.00    -0.547 OA
ATOM     10  O   UNL     1      16.252  13.361  51.923  1.00  0.00    -0.547 OA
ENDBRANCH   3   8
BRANCH   4  11
ATOM     11  O   UNL     1      16.069  10.448  48.872  1.00  0.00    -0.387 OA
ATOM     12  H   UNL     1      16.981  10.075  48.985  1.00  0.00     0.211 HD
ENDBRANCH   4  11
BRANCH   6  13
ATOM     13  O   UNL     1      13.905  12.048  48.466  1.00  0.00    -0.387 OA
ATOM     14  H   UNL     1      14.167  11.482  47.695  1.00  0.00     0.211 HD
ENDBRANCH   6  13
BRANCH   7  15
ATOM     15  O   UNL     1      15.986  12.463  46.713  1.00  0.00    -0.384 OA
ATOM     16  H   UNL     1      16.656  11.789  46.998  1.00  0.00     0.211 HD
ENDBRANCH   7  15
ENDBRANCH   1   2
BRANCH   1  17
ATOM     17  C   UNL     1      17.680  16.195  49.106  1.00  0.00     0.172 A 
ATOM     18  C   UNL     1      17.601  17.053  50.212  1.00  0.00     0.205 A 
ATOM     19  C   UNL     1      18.423  16.568  47.975  1.00  0.00     0.097 A 
ATOM     20  C   UNL     1      18.266  18.304  50.176  1.00  0.00     0.188 A 
ATOM     21  C   UNL     1      19.105  17.788  47.937  1.00  0.00     0.134 A 
ATOM     22  C   UNL     1      19.039  18.665  49.041  1.00  0.00     0.111 A 
ATOM     23  O   UNL     1      18.173  19.146  51.204  1.00  0.00    -0.452 OA
ATOM     24  C   UNL     1      19.718  19.902  49.069  1.00  0.00     0.197 A 
ATOM     25  C   UNL     1      18.796  20.321  51.257  1.00  0.00     0.138 A 
ATOM     26  C   UNL     1      19.592  20.731  50.180  1.00  0.00     0.100 A 
ATOM     27  O   UNL     1      20.450  20.275  48.111  1.00  0.00    -0.289 OA
BRANCH  18  28
ATOM     28  O   UNL     1      16.848  16.596  51.312  1.00  0.00    -0.490 OA
ATOM     29  C   UNL     1      15.494  16.922  51.608  1.00  0.00     0.278 C 
ENDBRANCH  18  28
BRANCH  21  30
ATOM     30  O   UNL     1      19.845  18.118  46.801  1.00  0.00    -0.507 OA
ATOM     31  H   UNL     1      20.746  18.580  46.865  1.00  0.00     0.293 HD
ENDBRANCH  21  30
BRANCH  25  32
ATOM     32  C   UNL     1      18.625  21.171  52.457  1.00  0.00     0.017 A 
ATOM     33  C   UNL     1      19.183  22.461  52.483  1.00  0.00     0.012 A 
ATOM     34  C   UNL     1      17.890  20.723  53.573  1.00  0.00     0.012 A 
ATOM     35  C   UNL     1      19.027  23.278  53.606  1.00  0.00     0.001 A 
ATOM     36  C   UNL     1      17.736  21.545  54.693  1.00  0.00     0.001 A 
ATOM     37  C   UNL     1      18.307  22.820  54.712  1.00  0.00     0.000 A 
ENDBRANCH  25  32
ENDBRANCH   1  17
TORSDOF 9
ENDMDL
MODEL 2
REMARK VINA RESULT:     0.000      5.713      7.625
REMARK INTER + INTRA:          -1.263
REMARK INTER:                   0.000
REMARK INTRA:                  -1.263
REMARK UNBOUND:                -1.263
REMARK SMILES COc1c(O[C@H]2O[C@@H](C(=O)[O-])[C@H](O)[C@H](O)[C@@H]2O)cc(O)c2c(=O)cc(-c3ccccc3)oc12
REMARK SMILES IDX 5 1 6 2 8 3 12 4 7 5 14 6 16 7 9 8 10 9 11 10 13 11 15 13
REMARK SMILES IDX 17 15 4 17 3 18 18 19 33 20 19 21 21 22 32 23 22 24 25 25
REMARK SMILES IDX 24 26 23 27 2 28 1 29 20 30 26 32 27 33 31 34 28 35 30 36
REMARK SMILES IDX 29 37
REMARK H PARENT 13 12 15 14 17 16 20 31
REMARK Flexibility Score: inf
ROOT
ATOM      1  O   UNL     1      13.234  16.365  54.728  1.00  0.00    -0.458 OA
ENDROOT
BRANCH   1   2
ATOM      2  C   UNL     1      13.132  15.434  55.811  1.00  0.00     0.339 C 
ATOM      3  C   UNL     1      11.276  14.269  54.871  1.00  0.00     0.199 C 
ATOM      4  C   UNL     1      12.143  13.022  54.540  1.00  0.00     0.180 C 
ATOM      5  O   UNL     1      11.786  15.004  55.979  1.00  0.00    -0.328 OA
ATOM      6  C   UNL     1      13.632  13.390  54.419  1.00  0.00     0.181 C 
ATOM      7  C   UNL     1      14.097  14.249  55.604  1.00  0.00     0.214 C 
BRANCH   3   8
ATOM      8  C   UNL     1      10.993  15.163  53.685  1.00  0.00     0.073 C 
ATOM      9  O   UNL     1      10.274  16.185  53.836  1.00  0.00    -0.547 OA
ATOM     10  O   UNL     1      11.486  14.862  52.421  1.00  0.00    -0.547 OA
ENDBRANCH   3   8
BRANCH   4  11
ATOM     11  O   UNL     1      11.948  11.995  55.486  1.00  0.00    -0.387 OA
ATOM     12  H   UNL     1      11.944  11.124  55.011  1.00  0.00     0.211 HD
ENDBRANCH   4  11
BRANCH   6  13
ATOM     13  O   UNL     1      14.406  12.219  54.338  1.00  0.00    -0.387 OA
ATOM     14  H   UNL     1      15.338  12.470  54.564  1.00  0.00     0.211 HD
ENDBRANCH   6  13
BRANCH   7  15
ATOM     15  O   UNL     1      14.157  13.474  56.775  1.00  0.00    -0.384 OA
ATOM     16  H   UNL     1      13.315  13.630  57.275  1.00  0.00     0.211 HD
ENDBRANCH   7  15
ENDBRANCH   1   2
BRANCH   1  17
ATOM     17  C   UNL     1      13.414  17.751  54.857  1.00  0.00     0.172 A 
ATOM     18  C   UNL     1      13.252  18.547  53.715  1.00  0.00     0.205 A 
ATOM     19  C   UNL     1      13.716  18.344  56.093  1.00  0.00     0.097 A 
ATOM     20  C   UNL     1      13.405  19.953  53.813  1.00  0.00     0.188 A 
ATOM     21  C   UNL     1      13.844  19.731  56.210  1.00  0.00     0.134 A 
ATOM     22  C   UNL     1      13.682  20.550  55.071  1.00  0.00     0.111 A 
ATOM     23  O   UNL     1      13.287  20.720  52.731  1.00  0.00    -0.452 OA
ATOM     24  C   UNL     1      13.783  21.957  55.128  1.00  0.00     0.197 A 
ATOM     25  C   UNL     1      13.384  22.047  52.752  1.00  0.00     0.138 A 
ATOM     26  C   UNL     1      13.635  22.704  53.962  1.00  0.00     0.100 A 
ATOM     27  O   UNL     1      13.995  22.560  56.215  1.00  0.00    -0.289 OA
BRANCH  18  28
ATOM     28  O   UNL     1      12.935  17.874  52.518  1.00  0.00    -0.490 OA
ATOM     29  C   UNL     1      13.846  17.489  51.494  1.00  0.00     0.278 C 
ENDBRANCH  18  28
BRANCH  21  30
ATOM     30  O   UNL     1      14.130  20.286  57.458  1.00  0.00    -0.507 OA
ATOM     31  H   UNL     1      14.729  21.098  57.559  1.00  0.00     0.293 HD
ENDBRANCH  21  30
BRANCH  25  32
ATOM     32  C   UNL     1      13.227  22.798  51.485  1.00  0.00     0.017 A 
ATOM     33  C   UNL     1      13.430  24.189  51.469  1.00  0.00     0.012 A 
ATOM     34  C   UNL     1      12.900  22.143  50.281  1.00  0.00     0.012 A 
ATOM     35  C   UNL     1      13.291  24.913  50.282  1.00  0.00     0.001 A 
ATOM     36  C   UNL     1      12.763  22.871  49.096  1.00  0.00     0.001 A 
ATOM     37  C   UNL     1      12.954  24.255  49.096  1.00  0.00     0.000 A 
ENDBRANCH  25  32
ENDBRANCH   1  17
TORSDOF 9
ENDMDL
MODEL 3
REMARK VINA RESULT:     0.000      6.799      8.651
REMARK INTER + INTRA:          -1.263
REMARK INTER:                   0.000
REMARK INTRA:                  -1.263
REMARK UNBOUND:                -1.263
REMARK SMILES COc1c(O[C@H]2O[C@@H](C(=O)[O-])[C@H](O)[C@H](O)[C@@H]2O)cc(O)c2c(=O)cc(-c3ccccc3)oc12
REMARK SMILES IDX 5 1 6 2 8 3 12 4 7 5 14 6 16 7 9 8 10 9 11 10 13 11 15 13
REMARK SMILES IDX 17 15 4 17 3 18 18 19 33 20 19 21 21 22 32 23 22 24 25 25
REMARK SMILES IDX 24 26 23 27 2 28 1 29 20 30 26 32 27 33 31 34 28 35 30 36
REMARK SMILES IDX 29 37
REMARK H PARENT 13 12 15 14 17 16 20 31
REMARK Flexibility Score: inf
ROOT
ATOM      1  O   UNL     1      10.014  17.637  51.311  1.00  0.00    -0.458 OA
ENDROOT
BRANCH   1   2
ATOM      2  C   UNL     1       8.936  16.853  50.789  1.00  0.00     0.339 C 
ATOM      3  C   UNL     1       7.429  18.696  50.642  1.00  0.00     0.199 C 
ATOM      4  C   UNL     1       7.504  18.716  49.090  1.00  0.00     0.180 C 
ATOM      5  O   UNL     1       7.681  17.401  51.178  1.00  0.00    -0.328 OA
ATOM      6  C   UNL     1       8.802  18.067  48.581  1.00  0.00     0.181 C 
ATOM      7  C   UNL     1       9.056  16.712  49.258  1.00  0.00     0.214 C 
BRANCH   3   8
ATOM      8  C   UNL     1       8.265  19.758  51.320  1.00  0.00     0.073 C 
ATOM      9  O   UNL     1       8.256  19.849  52.575  1.00  0.00    -0.547 OA
ATOM     10  O   UNL     1       9.024  20.659  50.582  1.00  0.00    -0.547 OA
ENDBRANCH   3   8
BRANCH   4  11
ATOM     11  O   UNL     1       6.371  18.107  48.513  1.00  0.00    -0.387 OA
ATOM     12  H   UNL     1       6.658  17.608  47.705  1.00  0.00     0.211 HD
ENDBRANCH   4  11
BRANCH   6  13
ATOM     13  O   UNL     1       8.739  17.906  47.186  1.00  0.00    -0.387 OA
ATOM     14  H   UNL     1       9.667  17.762  46.867  1.00  0.00     0.211 HD
ENDBRANCH   6  13
BRANCH   7  15
ATOM     15  O   UNL     1       8.136  15.755  48.795  1.00  0.00    -0.384 OA
ATOM     16  H   UNL     1       7.925  15.157  49.556  1.00  0.00     0.211 HD
ENDBRANCH   7  15
ENDBRANCH   1   2
BRANCH   1  17
ATOM     17  C   UNL     1      10.841  17.275  52.386  1.00  0.00     0.172 A 
ATOM     18  C   UNL     1      11.687  18.253  52.927  1.00  0.00     0.205 A 
ATOM     19  C   UNL     1      10.810  15.985  52.940  1.00  0.00     0.097 A 
ATOM     20  C   UNL     1      12.519  17.929  54.027  1.00  0.00     0.188 A 
ATOM     21  C   UNL     1      11.606  15.659  54.041  1.00  0.00     0.134 A 
ATOM     22  C   UNL     1      12.464  16.631  54.600  1.00  0.00     0.111 A 
ATOM     23  O   UNL     1      13.354  18.836  54.531  1.00  0.00    -0.452 OA
ATOM     24  C   UNL     1      13.279  16.367  55.722  1.00  0.00     0.197 A 
ATOM     25  C   UNL     1      14.139  18.615  55.582  1.00  0.00     0.138 A 
ATOM     26  C   UNL     1      14.120  17.364  56.210  1.00  0.00     0.100 A 
ATOM     27  O   UNL     1      13.260  15.248  56.304  1.00  0.00    -0.289 OA
BRANCH  18  28
ATOM     28  O   UNL     1      11.646  19.526  52.322  1.00  0.00    -0.490 OA
ATOM     29  C   UNL     1      12.542  20.026  51.335  1.00  0.00     0.278 C 
ENDBRANCH  18  28
BRANCH  21  30
ATOM     30  O   UNL     1      11.537  14.371  54.573  1.00  0.00    -0.507 OA
ATOM     31  H   UNL     1      10.739  14.056  55.114  1.00  0.00     0.293 HD
ENDBRANCH  21  30
BRANCH  25  32
ATOM     32  C   UNL     1      15.022  19.704  56.060  1.00  0.00     0.017 A 
ATOM     33  C   UNL     1      15.931  19.458  57.103  1.00  0.00     0.012 A 
ATOM     34  C   UNL     1      14.989  20.984  55.473  1.00  0.00     0.012 A 
ATOM     35  C   UNL     1      16.775  20.472  57.563  1.00  0.00     0.001 A 
ATOM     36  C   UNL     1      15.836  21.996  55.935  1.00  0.00     0.001 A 
ATOM     37  C   UNL     1      16.725  21.742  56.983  1.00  0.00     0.000 A 
ENDBRANCH  25  32
ENDBRANCH   1  17
TORSDOF 9
ENDMDL
MODEL 4
REMARK VINA RESULT:     0.000      8.888     12.964
REMARK INTER + INTRA:          -1.263
REMARK INTER:                   0.000
REMARK INTRA:                  -1.263
REMARK UNBOUND:                -1.263
REMARK SMILES COc1c(O[C@H]2O[C@@H](C(=O)[O-])[C@H](O)[C@H](O)[C@@H]2O)cc(O)c2c(=O)cc(-c3ccccc3)oc12
REMARK SMILES IDX 5 1 6 2 8 3 12 4 7 5 14 6 16 7 9 8 10 9 11 10 13 11 15 13
REMARK SMILES IDX 17 15 4 17 3 18 18 19 33 20 19 21 21 22 32 23 22 24 25 25
REMARK SMILES IDX 24 26 23 27 2 28 1 29 20 30 26 32 27 33 31 34 28 35 30 36
REMARK SMILES IDX 29 37
REMARK H PARENT 13 12 15 14 17 16 20 31
REMARK Flexibility Score: inf
ROOT
ATOM      1  O   UNL     1      12.155  25.450  50.223  1.00  0.00    -0.458 OA
ENDROOT
BRANCH   1   2
ATOM      2  C   UNL     1      12.862  26.445  50.972  1.00  0.00     0.339 C 
ATOM      3  C   UNL     1      15.000  25.452  50.617  1.00  0.00     0.199 C 
ATOM      4  C   UNL     1      15.438  26.586  49.650  1.00  0.00     0.180 C 
ATOM      5  O   UNL     1      14.032  25.892  51.564  1.00  0.00    -0.328 OA
ATOM      6  C   UNL     1      14.223  27.293  49.025  1.00  0.00     0.181 C 
ATOM      7  C   UNL     1      13.182  27.668  50.089  1.00  0.00     0.214 C 
BRANCH   3   8
ATOM      8  C   UNL     1      14.572  24.177  49.927  1.00  0.00     0.073 C 
ATOM      9  O   UNL     1      14.226  23.183  50.617  1.00  0.00    -0.547 OA
ATOM     10  O   UNL     1      14.584  24.067  48.542  1.00  0.00    -0.547 OA
ENDBRANCH   3   8
BRANCH   4  11
ATOM     11  O   UNL     1      16.287  27.510  50.293  1.00  0.00    -0.387 OA
ATOM     12  H   UNL     1      15.907  28.420  50.181  1.00  0.00     0.211 HD
ENDBRANCH   4  11
BRANCH   6  13
ATOM     13  O   UNL     1      14.644  28.442  48.334  1.00  0.00    -0.387 OA
ATOM     14  H   UNL     1      13.852  28.803  47.860  1.00  0.00     0.211 HD
ENDBRANCH   6  13
BRANCH   7  15
ATOM     15  O   UNL     1      13.659  28.721  50.888  1.00  0.00    -0.384 OA
ATOM     16  H   UNL     1      14.650  28.700  50.842  1.00  0.00     0.211 HD
ENDBRANCH   7  15
ENDBRANCH   1   2
BRANCH   1  17
ATOM     17  C   UNL     1      10.962  24.826  50.618  1.00  0.00     0.172 A 
ATOM     18  C   UNL     1      10.531  23.707  49.891  1.00  0.00     0.205 A 
ATOM     19  C   UNL     1      10.226  25.273  51.727  1.00  0.00     0.097 A 
ATOM     20  C   UNL     1       9.342  23.038  50.275  1.00  0.00     0.188 A 
ATOM     21  C   UNL     1       9.066  24.607  52.132  1.00  0.00     0.134 A 
ATOM     22  C   UNL     1       8.617  23.478  51.414  1.00  0.00     0.111 A 
ATOM     23  O   UNL     1       8.900  21.995  49.575  1.00  0.00    -0.452 OA
ATOM     24  C   UNL     1       7.462  22.754  51.784  1.00  0.00     0.197 A 
ATOM     25  C   UNL     1       7.813  21.297  49.895  1.00  0.00     0.138 A 
ATOM     26  C   UNL     1       7.061  21.662  51.018  1.00  0.00     0.100 A 
ATOM     27  O   UNL     1       6.786  23.065  52.802  1.00  0.00    -0.289 OA
BRANCH  18  28
ATOM     28  O   UNL     1      11.335  23.315  48.802  1.00  0.00    -0.490 OA
ATOM     29  C   UNL     1      11.129  23.646  47.433  1.00  0.00     0.278 C 
ENDBRANCH  18  28
BRANCH  21  30
ATOM     30  O   UNL     1       8.369  25.072  53.248  1.00  0.00    -0.507 OA
ATOM     31  H   UNL     1       8.713  25.843  53.811  1.00  0.00     0.293 HD
ENDBRANCH  21  30
BRANCH  25  32
ATOM     32  C   UNL     1       7.422  20.149  49.045  1.00  0.00     0.017 A 
ATOM     33  C   UNL     1       6.218  19.469  49.302  1.00  0.00     0.012 A 
ATOM     34  C   UNL     1       8.221  19.734  47.962  1.00  0.00     0.012 A 
ATOM     35  C   UNL     1       5.831  18.386  48.508  1.00  0.00     0.001 A 
ATOM     36  C   UNL     1       7.829  18.651  47.169  1.00  0.00     0.001 A 
ATOM     37  C   UNL     1       6.638  17.975  47.444  1.00  0.00     0.000 A 
ENDBRANCH  25  32
ENDBRANCH   1  17
TORSDOF 9
ENDMDL
MODEL 5
REMARK VINA RESULT:     0.000      9.114     12.411
REMARK INTER + INTRA:          -1.263
REMARK INTER:                   0.000
REMARK INTRA:                  -1.263
REMARK UNBOUND:                -1.263
REMARK SMILES COc1c(O[C@H]2O[C@@H](C(=O)[O-])[C@H](O)[C@H](O)[C@@H]2O)cc(O)c2c(=O)cc(-c3ccccc3)oc12
REMARK SMILES IDX 5 1 6 2 8 3 12 4 7 5 14 6 16 7 9 8 10 9 11 10 13 11 15 13
REMARK SMILES IDX 17 15 4 17 3 18 18 19 33 20 19 21 21 22 32 23 22 24 25 25
REMARK SMILES IDX 24 26 23 27 2 28 1 29 20 30 26 32 27 33 31 34 28 35 30 36
REMARK SMILES IDX 29 37
REMARK H PARENT 13 12 15 14 17 16 20 31
REMARK Flexibility Score: inf
ROOT
ATOM      1  O   UNL     1       8.302  17.630  56.426  1.00  0.00    -0.458 OA
ENDROOT
BRANCH   1   2
ATOM      2  C   UNL     1       8.787  17.467  57.763  1.00  0.00     0.339 C 
ATOM      3  C   UNL     1       8.436  19.749  58.361  1.00  0.00     0.199 C 
ATOM      4  C   UNL     1       7.240  19.390  59.285  1.00  0.00     0.180 C 
ATOM      5  O   UNL     1       9.366  18.677  58.239  1.00  0.00    -0.328 OA
ATOM      6  C   UNL     1       6.604  18.048  58.886  1.00  0.00     0.181 C 
ATOM      7  C   UNL     1       7.667  16.956  58.692  1.00  0.00     0.214 C 
BRANCH   3   8
ATOM      8  C   UNL     1       8.036  20.302  57.012  1.00  0.00     0.073 C 
ATOM      9  O   UNL     1       8.927  20.651  56.195  1.00  0.00    -0.547 OA
ATOM     10  O   UNL     1       6.700  20.463  56.666  1.00  0.00    -0.547 OA
ENDBRANCH   3   8
BRANCH   4  11
ATOM     11  O   UNL     1       7.622  19.387  60.642  1.00  0.00    -0.387 OA
ATOM     12  H   UNL     1       6.809  19.272  61.200  1.00  0.00     0.211 HD
ENDBRANCH   4  11
BRANCH   6  13
ATOM     13  O   UNL     1       5.676  17.650  59.864  1.00  0.00    -0.387 OA
ATOM     14  H   UNL     1       5.458  16.699  59.690  1.00  0.00     0.211 HD
ENDBRANCH   6  13
BRANCH   7  15
ATOM     15  O   UNL     1       8.211  16.580  59.932  1.00  0.00    -0.384 OA
ATOM     16  H   UNL     1       7.788  15.722  60.191  1.00  0.00     0.211 HD
ENDBRANCH   7  15
ENDBRANCH   1   2
BRANCH   1  17
ATOM     17  C   UNL     1       8.910  17.119  55.269  1.00  0.00     0.172 A 
ATOM     18  C   UNL     1       8.443  17.568  54.026  1.00  0.00     0.205 A 
ATOM     19  C   UNL     1       9.977  16.209  55.336  1.00  0.00     0.097 A 
ATOM     20  C   UNL     1       9.048  17.090  52.836  1.00  0.00     0.188 A 
ATOM     21  C   UNL     1      10.600  15.750  54.172  1.00  0.00     0.134 A 
ATOM     22  C   UNL     1      10.146  16.192  52.910  1.00  0.00     0.111 A 
ATOM     23  O   UNL     1       8.596  17.480  51.646  1.00  0.00    -0.452 OA
ATOM     24  C   UNL     1      10.744  15.776  51.701  1.00  0.00     0.197 A 
ATOM     25  C   UNL     1       9.134  17.101  50.490  1.00  0.00     0.138 A 
ATOM     26  C   UNL     1      10.233  16.233  50.489  1.00  0.00     0.100 A 
ATOM     27  O   UNL     1      11.743  15.006  51.689  1.00  0.00    -0.289 OA
BRANCH  18  28
ATOM     28  O   UNL     1       7.379  18.492  54.048  1.00  0.00    -0.490 OA
ATOM     29  C   UNL     1       5.996  18.197  53.885  1.00  0.00     0.278 C 
ENDBRANCH  18  28
BRANCH  21  30
ATOM     30  O   UNL     1      11.667  14.857  54.278  1.00  0.00    -0.507 OA
ATOM     31  H   UNL     1      11.574  13.879  54.028  1.00  0.00     0.293 HD
ENDBRANCH  21  30
BRANCH  25  32
ATOM     32  C   UNL     1       8.550  17.606  49.227  1.00  0.00     0.017 A 
ATOM     33  C   UNL     1       9.035  17.133  47.995  1.00  0.00     0.012 A 
ATOM     34  C   UNL     1       7.496  18.541  49.230  1.00  0.00     0.012 A 
ATOM     35  C   UNL     1       8.492  17.595  46.793  1.00  0.00     0.001 A 
ATOM     36  C   UNL     1       6.955  19.000  48.025  1.00  0.00     0.001 A 
ATOM     37  C   UNL     1       7.455  18.531  46.807  1.00  0.00     0.000 A 
ENDBRANCH  25  32
ENDBRANCH   1  17
TORSDOF 9
ENDMDL
MODEL 6
REMARK VINA RESULT:     0.000     10.184     13.304
REMARK INTER + INTRA:          -1.262
REMARK INTER:                   0.000
REMARK INTRA:                  -1.262
REMARK UNBOUND:                -1.263
REMARK SMILES COc1c(O[C@H]2O[C@@H](C(=O)[O-])[C@H](O)[C@H](O)[C@@H]2O)cc(O)c2c(=O)cc(-c3ccccc3)oc12
REMARK SMILES IDX 5 1 6 2 8 3 12 4 7 5 14 6 16 7 9 8 10 9 11 10 13 11 15 13
REMARK SMILES IDX 17 15 4 17 3 18 18 19 33 20 19 21 21 22 32 23 22 24 25 25
REMARK SMILES IDX 24 26 23 27 2 28 1 29 20 30 26 32 27 33 31 34 28 35 30 36
REMARK SMILES IDX 29 37
REMARK H PARENT 13 12 15 14 17 16 20 31
REMARK Flexibility Score: inf
ROOT
ATOM      1  O   UNL     1       6.242  19.503  56.000  1.00  0.00    -0.458 OA
ENDROOT
BRANCH   1   2
ATOM      2  C   UNL     1       5.888  19.977  57.304  1.00  0.00     0.339 C 
ATOM      3  C   UNL     1       4.689  21.870  56.489  1.00  0.00     0.199 C 
ATOM      4  C   UNL     1       3.319  21.255  56.888  1.00  0.00     0.180 C 
ATOM      5  O   UNL     1       5.754  21.394  57.305  1.00  0.00    -0.328 OA
ATOM      6  C   UNL     1       3.399  19.722  56.988  1.00  0.00     0.181 C 
ATOM      7  C   UNL     1       4.614  19.274  57.813  1.00  0.00     0.214 C 
BRANCH   3   8
ATOM      8  C   UNL     1       5.015  21.758  55.017  1.00  0.00     0.073 C 
ATOM      9  O   UNL     1       6.088  22.250  54.579  1.00  0.00    -0.547 OA
ATOM     10  O   UNL     1       4.138  21.149  54.127  1.00  0.00    -0.547 OA
ENDBRANCH   3   8
BRANCH   4  11
ATOM     11  O   UNL     1       2.833  21.817  58.087  1.00  0.00    -0.387 OA
ATOM     12  H   UNL     1       3.358  22.635  58.288  1.00  0.00     0.211 HD
ENDBRANCH   4  11
BRANCH   6  13
ATOM     13  O   UNL     1       2.216  19.220  57.558  1.00  0.00    -0.387 OA
ATOM     14  H   UNL     1       1.667  18.856  56.817  1.00  0.00     0.211 HD
ENDBRANCH   6  13
BRANCH   7  15
ATOM     15  O   UNL     1       4.417  19.572  59.173  1.00  0.00    -0.384 OA
ATOM     16  H   UNL     1       4.049  20.491  59.222  1.00  0.00     0.211 HD
ENDBRANCH   7  15
ENDBRANCH   1   2
BRANCH   1  17
ATOM     17  C   UNL     1       7.511  19.047  55.613  1.00  0.00     0.172 A 
ATOM     18  C   UNL     1       7.752  18.846  54.247  1.00  0.00     0.205 A 
ATOM     19  C   UNL     1       8.533  18.825  56.550  1.00  0.00     0.097 A 
ATOM     20  C   UNL     1       9.030  18.407  53.818  1.00  0.00     0.188 A 
ATOM     21  C   UNL     1       9.805  18.417  56.138  1.00  0.00     0.134 A 
ATOM     22  C   UNL     1      10.068  18.211  54.767  1.00  0.00     0.111 A 
ATOM     23  O   UNL     1       9.266  18.179  52.527  1.00  0.00    -0.452 OA
ATOM     24  C   UNL     1      11.336  17.815  54.288  1.00  0.00     0.197 A 
ATOM     25  C   UNL     1      10.447  17.799  52.047  1.00  0.00     0.138 A 
ATOM     26  C   UNL     1      11.522  17.607  52.925  1.00  0.00     0.100 A 
ATOM     27  O   UNL     1      12.315  17.653  55.068  1.00  0.00    -0.289 OA
BRANCH  18  28
ATOM     28  O   UNL     1       6.678  19.106  53.372  1.00  0.00    -0.490 OA
ATOM     29  C   UNL     1       5.773  18.149  52.831  1.00  0.00     0.278 C 
ENDBRANCH  18  28
BRANCH  21  30
ATOM     30  O   UNL     1      10.800  18.221  57.097  1.00  0.00    -0.507 OA
ATOM     31  H   UNL     1      11.740  17.935  56.844  1.00  0.00     0.293 HD
ENDBRANCH  21  30
BRANCH  25  32
ATOM     32  C   UNL     1      10.593  17.582  50.590  1.00  0.00     0.017 A 
ATOM     33  C   UNL     1      11.800  17.073  50.078  1.00  0.00     0.012 A 
ATOM     34  C   UNL     1       9.536  17.854  49.699  1.00  0.00     0.012 A 
ATOM     35  C   UNL     1      11.954  16.858  48.706  1.00  0.00     0.001 A 
ATOM     36  C   UNL     1       9.695  17.636  48.327  1.00  0.00     0.001 A 
ATOM     37  C   UNL     1      10.903  17.142  47.830  1.00  0.00     0.000 A 
ENDBRANCH  25  32
ENDBRANCH   1  17
TORSDOF 9
ENDMDL
MODEL 7
REMARK VINA RESULT:     0.001     10.107     13.330
REMARK INTER + INTRA:          -1.262
REMARK INTER:                   0.000
REMARK INTRA:                  -1.262
REMARK UNBOUND:                -1.263
REMARK SMILES COc1c(O[C@H]2O[C@@H](C(=O)[O-])[C@H](O)[C@H](O)[C@@H]2O)cc(O)c2c(=O)cc(-c3ccccc3)oc12
REMARK SMILES IDX 5 1 6 2 8 3 12 4 7 5 14 6 16 7 9 8 10 9 11 10 13 11 15 13
REMARK SMILES IDX 17 15 4 17 3 18 18 19 33 20 19 21 21 22 32 23 22 24 25 25
REMARK SMILES IDX 24 26 23 27 2 28 1 29 20 30 26 32 27 33 31 34 28 35 30 36
REMARK SMILES IDX 29 37
REMARK H PARENT 13 12 15 14 17 16 20 31
REMARK Flexibility Score: inf
ROOT
ATOM      1  O   UNL     1       8.330  19.172  46.789  1.00  0.00    -0.458 OA
ENDROOT
BRANCH   1   2
ATOM      2  C   UNL     1       9.076  20.376  46.579  1.00  0.00     0.339 C 
ATOM      3  C   UNL     1      11.195  19.286  46.626  1.00  0.00     0.199 C 
ATOM      4  C   UNL     1      11.403  19.483  45.099  1.00  0.00     0.180 C 
ATOM      5  O   UNL     1      10.357  20.288  47.192  1.00  0.00    -0.328 OA
ATOM      6  C   UNL     1      10.062  19.668  44.368  1.00  0.00     0.181 C 
ATOM      7  C   UNL     1       9.174  20.702  45.075  1.00  0.00     0.214 C 
BRANCH   3   8
ATOM      8  C   UNL     1      10.752  17.894  47.018  1.00  0.00     0.073 C 
ATOM      9  O   UNL     1      10.582  17.617  48.234  1.00  0.00    -0.547 OA
ATOM     10  O   UNL     1      10.559  16.903  46.064  1.00  0.00    -0.547 OA
ENDBRANCH   3   8
BRANCH   4  11
ATOM     11  O   UNL     1      12.278  20.557  44.834  1.00  0.00    -0.387 OA
ATOM     12  H   UNL     1      12.466  21.029  45.686  1.00  0.00     0.211 HD
ENDBRANCH   4  11
BRANCH   6  13
ATOM     13  O   UNL     1      10.295  20.059  43.038  1.00  0.00    -0.387 OA
ATOM     14  H   UNL     1       9.464  20.490  42.712  1.00  0.00     0.211 HD
ENDBRANCH   6  13
BRANCH   7  15
ATOM     15  O   UNL     1       9.698  21.995  44.901  1.00  0.00    -0.384 OA
ATOM     16  H   UNL     1      10.254  21.979  44.080  1.00  0.00     0.211 HD
ENDBRANCH   7  15
ENDBRANCH   1   2
BRANCH   1  17
ATOM     17  C   UNL     1       7.255  19.022  47.679  1.00  0.00     0.172 A 
ATOM     18  C   UNL     1       6.792  17.725  47.941  1.00  0.00     0.205 A 
ATOM     19  C   UNL     1       6.671  20.124  48.324  1.00  0.00     0.097 A 
ATOM     20  C   UNL     1       5.723  17.534  48.852  1.00  0.00     0.188 A 
ATOM     21  C   UNL     1       5.634  19.947  49.244  1.00  0.00     0.134 A 
ATOM     22  C   UNL     1       5.154  18.649  49.522  1.00  0.00     0.111 A 
ATOM     23  O   UNL     1       5.248  16.312  49.087  1.00  0.00    -0.452 OA
ATOM     24  C   UNL     1       4.121  18.406  50.453  1.00  0.00     0.197 A 
ATOM     25  C   UNL     1       4.272  16.052  49.952  1.00  0.00     0.138 A 
ATOM     26  C   UNL     1       3.679  17.102  50.664  1.00  0.00     0.100 A 
ATOM     27  O   UNL     1       3.590  19.343  51.110  1.00  0.00    -0.289 OA
BRANCH  18  28
ATOM     28  O   UNL     1       7.443  16.674  47.264  1.00  0.00    -0.490 OA
ATOM     29  C   UNL     1       7.008  16.038  46.067  1.00  0.00     0.278 C 
ENDBRANCH  18  28
BRANCH  21  30
ATOM     30  O   UNL     1       5.088  21.065  49.876  1.00  0.00    -0.507 OA
ATOM     31  H   UNL     1       4.711  21.018  50.817  1.00  0.00     0.293 HD
ENDBRANCH  21  30
BRANCH  25  32
ATOM     32  C   UNL     1       3.831  14.651  50.136  1.00  0.00     0.017 A 
ATOM     33  C   UNL     1       2.724  14.370  50.957  1.00  0.00     0.012 A 
ATOM     34  C   UNL     1       4.484  13.586  49.485  1.00  0.00     0.012 A 
ATOM     35  C   UNL     1       2.291  13.053  51.139  1.00  0.00     0.001 A 
ATOM     36  C   UNL     1       4.046  12.270  49.669  1.00  0.00     0.001 A 
ATOM     37  C   UNL     1       2.954  12.004  50.498  1.00  0.00     0.000 A 
ENDBRANCH  25  32
ENDBRANCH   1  17
TORSDOF 9
ENDMDL
MODEL 8
REMARK VINA RESULT:     0.001      7.945      9.926
REMARK INTER + INTRA:          -1.262
REMARK INTER:                   0.000
REMARK INTRA:                  -1.262
REMARK UNBOUND:                -1.263
REMARK SMILES COc1c(O[C@H]2O[C@@H](C(=O)[O-])[C@H](O)[C@H](O)[C@@H]2O)cc(O)c2c(=O)cc(-c3ccccc3)oc12
REMARK SMILES IDX 5 1 6 2 8 3 12 4 7 5 14 6 16 7 9 8 10 9 11 10 13 11 15 13
REMARK SMILES IDX 17 15 4 17 3 18 18 19 33 20 19 21 21 22 32 23 22 24 25 25
REMARK SMILES IDX 24 26 23 27 2 28 1 29 20 30 26 32 27 33 31 34 28 35 30 36
REMARK SMILES IDX 29 37
REMARK H PARENT 13 12 15 14 17 16 20 31
REMARK Flexibility Score: inf
ROOT
ATOM      1  O   UNL     1       8.264  17.995  53.894  1.00  0.00    -0.458 OA
ENDROOT
BRANCH   1   2
ATOM      2  C   UNL     1       6.937  17.642  54.298  1.00  0.00     0.339 C 
ATOM      3  C   UNL     1       6.865  15.664  52.969  1.00  0.00     0.199 C 
ATOM      4  C   UNL     1       6.951  14.744  54.218  1.00  0.00     0.180 C 
ATOM      5  O   UNL     1       6.271  16.924  53.265  1.00  0.00    -0.328 OA
ATOM      6  C   UNL     1       7.590  15.475  55.411  1.00  0.00     0.181 C 
ATOM      7  C   UNL     1       6.960  16.859  55.626  1.00  0.00     0.214 C 
BRANCH   3   8
ATOM      8  C   UNL     1       8.168  15.818  52.218  1.00  0.00     0.073 C 
ATOM      9  O   UNL     1       8.204  16.520  51.174  1.00  0.00    -0.547 OA
ATOM     10  O   UNL     1       9.325  15.175  52.641  1.00  0.00    -0.547 OA
ENDBRANCH   3   8
BRANCH   4  11
ATOM     11  O   UNL     1       5.687  14.222  54.560  1.00  0.00    -0.387 OA
ATOM     12  H   UNL     1       5.093  14.288  53.769  1.00  0.00     0.211 HD
ENDBRANCH   4  11
BRANCH   6  13
ATOM     13  O   UNL     1       7.455  14.697  56.574  1.00  0.00    -0.387 OA
ATOM     14  H   UNL     1       6.708  14.065  56.417  1.00  0.00     0.211 HD
ENDBRANCH   6  13
BRANCH   7  15
ATOM     15  O   UNL     1       5.652  16.728  56.124  1.00  0.00    -0.384 OA
ATOM     16  H   UNL     1       5.690  16.094  56.886  1.00  0.00     0.211 HD
ENDBRANCH   7  15
ENDBRANCH   1   2
BRANCH   1  17
ATOM     17  C   UNL     1       8.689  19.279  53.518  1.00  0.00     0.172 A 
ATOM     18  C   UNL     1       9.951  19.407  52.920  1.00  0.00     0.205 A 
ATOM     19  C   UNL     1       7.875  20.408  53.696  1.00  0.00     0.097 A 
ATOM     20  C   UNL     1      10.404  20.685  52.508  1.00  0.00     0.188 A 
ATOM     21  C   UNL     1       8.298  21.671  53.270  1.00  0.00     0.134 A 
ATOM     22  C   UNL     1       9.564  21.820  52.665  1.00  0.00     0.111 A 
ATOM     23  O   UNL     1      11.613  20.830  51.970  1.00  0.00    -0.452 OA
ATOM     24  C   UNL     1      10.040  23.065  52.200  1.00  0.00     0.197 A 
ATOM     25  C   UNL     1      12.092  21.991  51.529  1.00  0.00     0.138 A 
ATOM     26  C   UNL     1      11.309  23.147  51.633  1.00  0.00     0.100 A 
ATOM     27  O   UNL     1       9.338  24.111  52.276  1.00  0.00    -0.289 OA
BRANCH  18  28
ATOM     28  O   UNL     1      10.698  18.222  52.765  1.00  0.00    -0.490 OA
ATOM     29  C   UNL     1      11.724  17.746  53.630  1.00  0.00     0.278 C 
ENDBRANCH  18  28
BRANCH  21  30
ATOM     30  O   UNL     1       7.454  22.767  53.451  1.00  0.00    -0.507 OA
ATOM     31  H   UNL     1       6.813  22.826  54.235  1.00  0.00     0.293 HD
ENDBRANCH  21  30
BRANCH  25  32
ATOM     32  C   UNL     1      13.450  22.030  50.941  1.00  0.00     0.017 A 
ATOM     33  C   UNL     1      14.011  23.262  50.562  1.00  0.00     0.012 A 
ATOM     34  C   UNL     1      14.209  20.855  50.772  1.00  0.00     0.012 A 
ATOM     35  C   UNL     1      15.294  23.318  50.009  1.00  0.00     0.001 A 
ATOM     36  C   UNL     1      15.493  20.916  50.221  1.00  0.00     0.001 A 
ATOM     37  C   UNL     1      16.033  22.145  49.835  1.00  0.00     0.000 A 
ENDBRANCH  25  32
ENDBRANCH   1  17
TORSDOF 9
ENDMDL
MODEL 9
REMARK VINA RESULT:     0.001     12.075     13.467
REMARK INTER + INTRA:          -1.262
REMARK INTER:                   0.000
REMARK INTRA:                  -1.262
REMARK UNBOUND:                -1.263
REMARK SMILES COc1c(O[C@H]2O[C@@H](C(=O)[O-])[C@H](O)[C@H](O)[C@@H]2O)cc(O)c2c(=O)cc(-c3ccccc3)oc12
REMARK SMILES IDX 5 1 6 2 8 3 12 4 7 5 14 6 16 7 9 8 10 9 11 10 13 11 15 13
REMARK SMILES IDX 17 15 4 17 3 18 18 19 33 20 19 21 21 22 32 23 22 24 25 25
REMARK SMILES IDX 24 26 23 27 2 28 1 29 20 30 26 32 27 33 31 34 28 35 30 36
REMARK SMILES IDX 29 37
REMARK H PARENT 13 12 15 14 17 16 20 31
REMARK Flexibility Score: inf
ROOT
ATOM      1  O   UNL     1       7.775  25.997  52.308  1.00  0.00    -0.458 OA
ENDROOT
BRANCH   1   2
ATOM      2  C   UNL     1       7.291  26.166  50.971  1.00  0.00     0.339 C 
ATOM      3  C   UNL     1       6.250  24.023  50.884  1.00  0.00     0.199 C 
ATOM      4  C   UNL     1       4.825  24.640  50.944  1.00  0.00     0.180 C 
ATOM      5  O   UNL     1       7.201  24.910  50.306  1.00  0.00    -0.328 OA
ATOM      6  C   UNL     1       4.846  26.041  51.581  1.00  0.00     0.181 C 
ATOM      7  C   UNL     1       5.946  26.920  50.969  1.00  0.00     0.214 C 
BRANCH   3   8
ATOM      8  C   UNL     1       6.737  23.454  52.198  1.00  0.00     0.073 C 
ATOM      9  O   UNL     1       7.867  22.904  52.255  1.00  0.00    -0.547 OA
ATOM     10  O   UNL     1       5.948  23.498  53.341  1.00  0.00    -0.547 OA
ENDBRANCH   3   8
BRANCH   4  11
ATOM     11  O   UNL     1       4.224  24.672  49.669  1.00  0.00    -0.387 OA
ATOM     12  H   UNL     1       4.335  23.781  49.246  1.00  0.00     0.211 HD
ENDBRANCH   4  11
BRANCH   6  13
ATOM     13  O   UNL     1       3.592  26.655  51.422  1.00  0.00    -0.387 OA
ATOM     14  H   UNL     1       3.382  26.643  50.453  1.00  0.00     0.211 HD
ENDBRANCH   6  13
BRANCH   7  15
ATOM     15  O   UNL     1       5.606  27.283  49.655  1.00  0.00    -0.384 OA
ATOM     16  H   UNL     1       4.932  26.629  49.334  1.00  0.00     0.211 HD
ENDBRANCH   7  15
ENDBRANCH   1   2
BRANCH   1  17
ATOM     17  C   UNL     1       9.066  26.317  52.756  1.00  0.00     0.172 A 
ATOM     18  C   UNL     1       9.454  25.869  54.026  1.00  0.00     0.205 A 
ATOM     19  C   UNL     1       9.968  27.036  51.955  1.00  0.00     0.097 A 
ATOM     20  C   UNL     1      10.758  26.156  54.502  1.00  0.00     0.188 A 
ATOM     21  C   UNL     1      11.265  27.303  52.401  1.00  0.00     0.134 A 
ATOM     22  C   UNL     1      11.675  26.859  53.677  1.00  0.00     0.111 A 
ATOM     23  O   UNL     1      11.131  25.767  55.719  1.00  0.00    -0.452 OA
ATOM     24  C   UNL     1      12.977  27.084  54.176  1.00  0.00     0.197 A 
ATOM     25  C   UNL     1      12.348  25.970  56.220  1.00  0.00     0.138 A 
ATOM     26  C   UNL     1      13.309  26.638  55.453  1.00  0.00     0.100 A 
ATOM     27  O   UNL     1      13.855  27.672  53.488  1.00  0.00    -0.289 OA
BRANCH  18  28
ATOM     28  O   UNL     1       8.494  25.142  54.758  1.00  0.00    -0.490 OA
ATOM     29  C   UNL     1       7.629  25.654  55.767  1.00  0.00     0.278 C 
ENDBRANCH  18  28
BRANCH  21  30
ATOM     30  O   UNL     1      12.138  28.008  51.572  1.00  0.00    -0.507 OA
ATOM     31  H   UNL     1      12.416  27.654  50.662  1.00  0.00     0.293 HD
ENDBRANCH  21  30
BRANCH  25  32
ATOM     32  C   UNL     1      12.652  25.485  57.585  1.00  0.00     0.017 A 
ATOM     33  C   UNL     1      13.895  25.782  58.170  1.00  0.00     0.012 A 
ATOM     34  C   UNL     1      11.708  24.747  58.328  1.00  0.00     0.012 A 
ATOM     35  C   UNL     1      14.197  25.336  59.460  1.00  0.00     0.001 A 
ATOM     36  C   UNL     1      12.015  24.304  59.618  1.00  0.00     0.001 A 
ATOM     37  C   UNL     1      13.259  24.595  60.182  1.00  0.00     0.000 A 
ENDBRANCH  25  32
ENDBRANCH   1  17
TORSDOF 9
ENDMDL
