MODEL 1
REMARK VINA RESULT:    -4.714      0.000      0.000
REMARK INTER + INTRA:          -5.892
REMARK INTER:                  -5.679
REMARK INTRA:                  -0.213
REMARK UNBOUND:                -0.213
REMARK SMILES [NH3+][C@H](Cc1c[nH]c2ccccc12)C(=O)[O-]
REMARK SMILES IDX 3 1 2 2 1 3 13 7 14 8 15 9 4 10 12 11 5 12 7 13 11 14 6 15
REMARK SMILES IDX 8 16 10 17 9 19
REMARK H PARENT 1 4 1 5 1 6 6 18
REMARK Flexibility Score: inf
ROOT
ATOM      1  C   UNL     1      13.519   6.995   1.427  1.00  0.00     0.109 C 
ENDROOT
BRANCH   1   2
ATOM      2  C   UNL     1      12.819   8.357   1.247  1.00  0.00     0.232 C 
BRANCH   2   3
ATOM      3  N   UNL     1      12.235   8.489  -0.095  1.00  0.00    -0.350 N 
ATOM      4  H   UNL     1      12.584   9.361  -0.555  1.00  0.00     0.345 HD
ATOM      5  H   UNL     1      11.193   8.563  -0.022  1.00  0.00     0.345 HD
ATOM      6  H   UNL     1      12.478   7.663  -0.690  1.00  0.00     0.345 HD
ENDBRANCH   2   3
BRANCH   2   7
ATOM      7  C   UNL     1      11.749   8.518   2.293  1.00  0.00     0.099 C 
ATOM      8  O   UNL     1      11.755   9.519   3.057  1.00  0.00    -0.544 OA
ATOM      9  O   UNL     1      10.758   7.553   2.436  1.00  0.00    -0.544 OA
ENDBRANCH   2   7
ENDBRANCH   1   2
BRANCH   1  10
ATOM     10  C   UNL     1      15.014   7.137   1.456  1.00  0.00    -0.016 A 
ATOM     11  C   UNL     1      15.946   6.204   1.868  1.00  0.00     0.003 A 
ATOM     12  C   UNL     1      15.747   8.225   0.992  1.00  0.00     0.087 A 
ATOM     13  C   UNL     1      17.182   6.758   1.651  1.00  0.00     0.046 A 
ATOM     14  C   UNL     1      15.800   4.920   2.394  1.00  0.00     0.010 A 
ATOM     15  N   UNL     1      17.073   7.989   1.120  1.00  0.00    -0.361 N 
ATOM     16  C   UNL     1      18.357   6.070   1.951  1.00  0.00     0.026 A 
ATOM     17  C   UNL     1      16.969   4.202   2.707  1.00  0.00     0.001 A 
ATOM     18  H   UNL     1      17.852   8.630   0.847  1.00  0.00     0.166 HD
ATOM     19  C   UNL     1      18.241   4.775   2.488  1.00  0.00     0.002 A 
ENDBRANCH   1  10
TORSDOF 4
ENDMDL
MODEL 2
REMARK VINA RESULT:    -4.608      3.694      5.550
REMARK INTER + INTRA:          -5.764
REMARK INTER:                  -5.509
REMARK INTRA:                  -0.255
REMARK UNBOUND:                -0.213
REMARK SMILES [NH3+][C@H](Cc1c[nH]c2ccccc12)C(=O)[O-]
REMARK SMILES IDX 3 1 2 2 1 3 13 7 14 8 15 9 4 10 12 11 5 12 7 13 11 14 6 15
REMARK SMILES IDX 8 16 10 17 9 19
REMARK H PARENT 1 4 1 5 1 6 6 18
REMARK Flexibility Score: inf
ROOT
ATOM      1  C   UNL     1      15.400   9.469   1.485  1.00  0.00     0.109 C 
ENDROOT
BRANCH   1   2
ATOM      2  C   UNL     1      16.384   8.743   2.424  1.00  0.00     0.232 C 
BRANCH   2   3
ATOM      3  N   UNL     1      16.432   7.302   2.142  1.00  0.00    -0.350 N 
ATOM      4  H   UNL     1      17.262   7.080   1.545  1.00  0.00     0.345 HD
ATOM      5  H   UNL     1      15.575   7.014   1.616  1.00  0.00     0.345 HD
ATOM      6  H   UNL     1      16.489   6.751   3.030  1.00  0.00     0.345 HD
ENDBRANCH   2   3
BRANCH   2   7
ATOM      7  C   UNL     1      17.756   9.343   2.279  1.00  0.00     0.099 C 
ATOM      8  O   UNL     1      18.120   9.833   1.177  1.00  0.00    -0.544 OA
ATOM      9  O   UNL     1      18.638   9.345   3.354  1.00  0.00    -0.544 OA
ENDBRANCH   2   7
ENDBRANCH   1   2
BRANCH   1  10
ATOM     10  C   UNL     1      13.971   9.176   1.841  1.00  0.00    -0.016 A 
ATOM     11  C   UNL     1      13.102   8.303   1.214  1.00  0.00     0.003 A 
ATOM     12  C   UNL     1      13.274   9.682   2.934  1.00  0.00     0.087 A 
ATOM     13  C   UNL     1      11.934   8.323   1.932  1.00  0.00     0.046 A 
ATOM     14  C   UNL     1      13.259   7.490   0.090  1.00  0.00     0.010 A 
ATOM     15  N   UNL     1      12.026   9.161   2.980  1.00  0.00    -0.361 N 
ATOM     16  C   UNL     1      10.839   7.539   1.573  1.00  0.00     0.026 A 
ATOM     17  C   UNL     1      12.169   6.689  -0.296  1.00  0.00     0.001 A 
ATOM     18  H   UNL     1      11.291   9.360   3.695  1.00  0.00     0.166 HD
ATOM     19  C   UNL     1      10.965   6.713   0.441  1.00  0.00     0.002 A 
ENDBRANCH   1  10
TORSDOF 4
ENDMDL
MODEL 3
REMARK VINA RESULT:    -4.561      3.510      5.532
REMARK INTER + INTRA:          -5.708
REMARK INTER:                  -5.453
REMARK INTRA:                  -0.255
REMARK UNBOUND:                -0.213
REMARK SMILES [NH3+][C@H](Cc1c[nH]c2ccccc12)C(=O)[O-]
REMARK SMILES IDX 3 1 2 2 1 3 13 7 14 8 15 9 4 10 12 11 5 12 7 13 11 14 6 15
REMARK SMILES IDX 8 16 10 17 9 19
REMARK H PARENT 1 4 1 5 1 6 6 18
REMARK Flexibility Score: inf
ROOT
ATOM      1  C   UNL     1      16.462   6.174   1.077  1.00  0.00     0.109 C 
ENDROOT
BRANCH   1   2
ATOM      2  C   UNL     1      17.013   5.337   2.249  1.00  0.00     0.232 C 
BRANCH   2   3
ATOM      3  N   UNL     1      15.935   4.660   2.982  1.00  0.00    -0.350 N 
ATOM      4  H   UNL     1      15.240   5.361   3.328  1.00  0.00     0.345 HD
ATOM      5  H   UNL     1      16.329   4.164   3.815  1.00  0.00     0.345 HD
ATOM      6  H   UNL     1      15.448   3.965   2.370  1.00  0.00     0.345 HD
ENDBRANCH   2   3
BRANCH   2   7
ATOM      7  C   UNL     1      17.997   4.325   1.728  1.00  0.00     0.099 C 
ATOM      8  O   UNL     1      18.919   3.896   2.471  1.00  0.00    -0.544 OA
ATOM      9  O   UNL     1      17.906   3.870   0.417  1.00  0.00    -0.544 OA
ENDBRANCH   2   7
ENDBRANCH   1   2
BRANCH   1  10
ATOM     10  C   UNL     1      15.648   7.340   1.560  1.00  0.00    -0.016 A 
ATOM     11  C   UNL     1      14.277   7.498   1.505  1.00  0.00     0.003 A 
ATOM     12  C   UNL     1      16.130   8.459   2.232  1.00  0.00     0.087 A 
ATOM     13  C   UNL     1      13.990   8.688   2.124  1.00  0.00     0.046 A 
ATOM     14  C   UNL     1      13.272   6.685   0.977  1.00  0.00     0.010 A 
ATOM     15  N   UNL     1      15.111   9.283   2.569  1.00  0.00    -0.361 N 
ATOM     16  C   UNL     1      12.682   9.151   2.254  1.00  0.00     0.026 A 
ATOM     17  C   UNL     1      11.942   7.128   1.093  1.00  0.00     0.001 A 
ATOM     18  H   UNL     1      15.183  10.189   3.084  1.00  0.00     0.166 HD
ATOM     19  C   UNL     1      11.648   8.355   1.727  1.00  0.00     0.002 A 
ENDBRANCH   1  10
TORSDOF 4
ENDMDL
MODEL 4
REMARK VINA RESULT:    -4.501      2.215      3.593
REMARK INTER + INTRA:          -5.635
REMARK INTER:                  -5.333
REMARK INTRA:                  -0.302
REMARK UNBOUND:                -0.213
REMARK SMILES [NH3+][C@H](Cc1c[nH]c2ccccc12)C(=O)[O-]
REMARK SMILES IDX 3 1 2 2 1 3 13 7 14 8 15 9 4 10 12 11 5 12 7 13 11 14 6 15
REMARK SMILES IDX 8 16 10 17 9 19
REMARK H PARENT 1 4 1 5 1 6 6 18
REMARK Flexibility Score: inf
ROOT
ATOM      1  C   UNL     1      12.559   6.965   1.285  1.00  0.00     0.109 C 
ENDROOT
BRANCH   1   2
ATOM      2  C   UNL     1      12.075   7.324  -0.134  1.00  0.00     0.232 C 
BRANCH   2   3
ATOM      3  N   UNL     1      11.482   6.163  -0.812  1.00  0.00    -0.350 N 
ATOM      4  H   UNL     1      12.236   5.540  -1.183  1.00  0.00     0.345 HD
ATOM      5  H   UNL     1      10.905   6.483  -1.624  1.00  0.00     0.345 HD
ATOM      6  H   UNL     1      10.876   5.619  -0.156  1.00  0.00     0.345 HD
ENDBRANCH   2   3
BRANCH   2   7
ATOM      7  C   UNL     1      11.071   8.443  -0.056  1.00  0.00     0.099 C 
ATOM      8  O   UNL     1      11.075   9.359  -0.920  1.00  0.00    -0.544 OA
ATOM      9  O   UNL     1      10.144   8.483   0.980  1.00  0.00    -0.544 OA
ENDBRANCH   2   7
ENDBRANCH   1   2
BRANCH   1  10
ATOM     10  C   UNL     1      13.976   7.403   1.517  1.00  0.00    -0.016 A 
ATOM     11  C   UNL     1      14.421   8.634   1.960  1.00  0.00     0.003 A 
ATOM     12  C   UNL     1      15.114   6.610   1.401  1.00  0.00     0.087 A 
ATOM     13  C   UNL     1      15.784   8.542   2.082  1.00  0.00     0.046 A 
ATOM     14  C   UNL     1      13.734   9.807   2.277  1.00  0.00     0.010 A 
ATOM     15  N   UNL     1      16.217   7.315   1.742  1.00  0.00    -0.361 N 
ATOM     16  C   UNL     1      16.556   9.616   2.522  1.00  0.00     0.026 A 
ATOM     17  C   UNL     1      14.487  10.908   2.723  1.00  0.00     0.001 A 
ATOM     18  H   UNL     1      17.203   6.968   1.752  1.00  0.00     0.166 HD
ATOM     19  C   UNL     1      15.891  10.814   2.843  1.00  0.00     0.002 A 
ENDBRANCH   1  10
TORSDOF 4
ENDMDL
MODEL 5
REMARK VINA RESULT:    -4.365      4.019      5.770
REMARK INTER + INTRA:          -5.471
REMARK INTER:                  -5.215
REMARK INTRA:                  -0.256
REMARK UNBOUND:                -0.213
REMARK SMILES [NH3+][C@H](Cc1c[nH]c2ccccc12)C(=O)[O-]
REMARK SMILES IDX 3 1 2 2 1 3 13 7 14 8 15 9 4 10 12 11 5 12 7 13 11 14 6 15
REMARK SMILES IDX 8 16 10 17 9 19
REMARK H PARENT 1 4 1 5 1 6 6 18
REMARK Flexibility Score: inf
ROOT
ATOM      1  C   UNL     1      17.213   4.537   1.169  1.00  0.00     0.109 C 
ENDROOT
BRANCH   1   2
ATOM      2  C   UNL     1      17.428   3.650   2.412  1.00  0.00     0.232 C 
BRANCH   2   3
ATOM      3  N   UNL     1      16.149   3.214   2.990  1.00  0.00    -0.350 N 
ATOM      4  H   UNL     1      15.358   3.507   2.373  1.00  0.00     0.345 HD
ATOM      5  H   UNL     1      16.010   3.667   3.924  1.00  0.00     0.345 HD
ATOM      6  H   UNL     1      16.129   2.175   3.108  1.00  0.00     0.345 HD
ENDBRANCH   2   3
BRANCH   2   7
ATOM      7  C   UNL     1      18.260   2.452   2.039  1.00  0.00     0.099 C 
ATOM      8  O   UNL     1      18.167   1.950   0.888  1.00  0.00    -0.544 OA
ATOM      9  O   UNL     1      19.123   1.882   2.968  1.00  0.00    -0.544 OA
ENDBRANCH   2   7
ENDBRANCH   1   2
BRANCH   1  10
ATOM     10  C   UNL     1      17.016   5.979   1.541  1.00  0.00    -0.016 A 
ATOM     11  C   UNL     1      15.828   6.679   1.621  1.00  0.00     0.003 A 
ATOM     12  C   UNL     1      18.006   6.865   1.954  1.00  0.00     0.087 A 
ATOM     13  C   UNL     1      16.141   7.940   2.061  1.00  0.00     0.046 A 
ATOM     14  C   UNL     1      14.511   6.299   1.360  1.00  0.00     0.010 A 
ATOM     15  N   UNL     1      17.465   8.065   2.265  1.00  0.00    -0.361 N 
ATOM     16  C   UNL     1      15.162   8.910   2.264  1.00  0.00     0.026 A 
ATOM     17  C   UNL     1      13.501   7.259   1.555  1.00  0.00     0.001 A 
ATOM     18  H   UNL     1      17.973   8.911   2.608  1.00  0.00     0.166 HD
ATOM     19  C   UNL     1      13.824   8.559   2.003  1.00  0.00     0.002 A 
ENDBRANCH   1  10
TORSDOF 4
ENDMDL
MODEL 6
REMARK VINA RESULT:    -4.314      1.907      2.428
REMARK INTER + INTRA:          -5.410
REMARK INTER:                  -5.178
REMARK INTRA:                  -0.232
REMARK UNBOUND:                -0.213
REMARK SMILES [NH3+][C@H](Cc1c[nH]c2ccccc12)C(=O)[O-]
REMARK SMILES IDX 3 1 2 2 1 3 13 7 14 8 15 9 4 10 12 11 5 12 7 13 11 14 6 15
REMARK SMILES IDX 8 16 10 17 9 19
REMARK H PARENT 1 4 1 5 1 6 6 18
REMARK Flexibility Score: inf
ROOT
ATOM      1  C   UNL     1      13.093   9.010   0.995  1.00  0.00     0.109 C 
ENDROOT
BRANCH   1   2
ATOM      2  C   UNL     1      12.177   8.188   1.924  1.00  0.00     0.232 C 
BRANCH   2   3
ATOM      3  N   UNL     1      11.621   9.017   3.003  1.00  0.00    -0.350 N 
ATOM      4  H   UNL     1      11.748   8.539   3.924  1.00  0.00     0.345 HD
ATOM      5  H   UNL     1      10.594   9.152   2.853  1.00  0.00     0.345 HD
ATOM      6  H   UNL     1      12.088   9.953   3.031  1.00  0.00     0.345 HD
ENDBRANCH   2   3
BRANCH   2   7
ATOM      7  C   UNL     1      11.063   7.574   1.119  1.00  0.00     0.099 C 
ATOM      8  O   UNL     1      11.283   6.563   0.401  1.00  0.00    -0.544 OA
ATOM      9  O   UNL     1       9.788   8.128   1.149  1.00  0.00    -0.544 OA
ENDBRANCH   2   7
ENDBRANCH   1   2
BRANCH   1  10
ATOM     10  C   UNL     1      14.468   9.177   1.574  1.00  0.00    -0.016 A 
ATOM     11  C   UNL     1      15.512   8.272   1.555  1.00  0.00     0.003 A 
ATOM     12  C   UNL     1      14.974  10.324   2.177  1.00  0.00     0.087 A 
ATOM     13  C   UNL     1      16.583   8.891   2.146  1.00  0.00     0.046 A 
ATOM     14  C   UNL     1      15.600   6.972   1.053  1.00  0.00     0.010 A 
ATOM     15  N   UNL     1      16.267  10.141   2.530  1.00  0.00    -0.361 N 
ATOM     16  C   UNL     1      17.815   8.254   2.282  1.00  0.00     0.026 A 
ATOM     17  C   UNL     1      16.832   6.304   1.178  1.00  0.00     0.001 A 
ATOM     18  H   UNL     1      16.893  10.836   2.994  1.00  0.00     0.166 HD
ATOM     19  C   UNL     1      17.934   6.941   1.790  1.00  0.00     0.002 A 
ENDBRANCH   1  10
TORSDOF 4
ENDMDL
MODEL 7
REMARK VINA RESULT:    -4.197     16.168     17.190
REMARK INTER + INTRA:          -5.269
REMARK INTER:                  -5.235
REMARK INTRA:                  -0.033
REMARK UNBOUND:                -0.213
REMARK SMILES [NH3+][C@H](Cc1c[nH]c2ccccc12)C(=O)[O-]
REMARK SMILES IDX 3 1 2 2 1 3 13 7 14 8 15 9 4 10 12 11 5 12 7 13 11 14 6 15
REMARK SMILES IDX 8 16 10 17 9 19
REMARK H PARENT 1 4 1 5 1 6 6 18
REMARK Flexibility Score: inf
ROOT
ATOM      1  C   UNL     1      16.784  -5.787  14.440  1.00  0.00     0.109 C 
ENDROOT
BRANCH   1   2
ATOM      2  C   UNL     1      15.366  -5.834  13.837  1.00  0.00     0.232 C 
BRANCH   2   3
ATOM      3  N   UNL     1      15.073  -4.627  13.052  1.00  0.00    -0.350 N 
ATOM      4  H   UNL     1      14.068  -4.362  13.162  1.00  0.00     0.345 HD
ATOM      5  H   UNL     1      15.245  -4.813  12.037  1.00  0.00     0.345 HD
ATOM      6  H   UNL     1      15.676  -3.828  13.359  1.00  0.00     0.345 HD
ENDBRANCH   2   3
BRANCH   2   7
ATOM      7  C   UNL     1      15.226  -7.057  12.971  1.00  0.00     0.099 C 
ATOM      8  O   UNL     1      16.044  -7.269  12.037  1.00  0.00    -0.544 OA
ATOM      9  O   UNL     1      14.184  -7.953  13.185  1.00  0.00    -0.544 OA
ENDBRANCH   2   7
ENDBRANCH   1   2
BRANCH   1  10
ATOM     10  C   UNL     1      17.540  -4.570  13.990  1.00  0.00    -0.016 A 
ATOM     11  C   UNL     1      17.751  -3.396  14.687  1.00  0.00     0.003 A 
ATOM     12  C   UNL     1      18.245  -4.433  12.798  1.00  0.00     0.087 A 
ATOM     13  C   UNL     1      18.549  -2.606  13.900  1.00  0.00     0.046 A 
ATOM     14  C   UNL     1      17.317  -2.977  15.946  1.00  0.00     0.010 A 
ATOM     15  N   UNL     1      18.855  -3.227  12.747  1.00  0.00    -0.361 N 
ATOM     16  C   UNL     1      18.965  -1.342  14.313  1.00  0.00     0.026 A 
ATOM     17  C   UNL     1      17.720  -1.704  16.389  1.00  0.00     0.001 A 
ATOM     18  H   UNL     1      19.454  -2.861  11.973  1.00  0.00     0.166 HD
ATOM     19  C   UNL     1      18.540  -0.890  15.576  1.00  0.00     0.002 A 
ENDBRANCH   1  10
TORSDOF 4
ENDMDL
MODEL 8
REMARK VINA RESULT:    -4.156     16.405     18.061
REMARK INTER + INTRA:          -5.220
REMARK INTER:                  -4.974
REMARK INTRA:                  -0.246
REMARK UNBOUND:                -0.213
REMARK SMILES [NH3+][C@H](Cc1c[nH]c2ccccc12)C(=O)[O-]
REMARK SMILES IDX 3 1 2 2 1 3 13 7 14 8 15 9 4 10 12 11 5 12 7 13 11 14 6 15
REMARK SMILES IDX 8 16 10 17 9 19
REMARK H PARENT 1 4 1 5 1 6 6 18
REMARK Flexibility Score: inf
ROOT
ATOM      1  C   UNL     1      17.073  -6.088  13.811  1.00  0.00     0.109 C 
ENDROOT
BRANCH   1   2
ATOM      2  C   UNL     1      15.564  -6.159  13.503  1.00  0.00     0.232 C 
BRANCH   2   3
ATOM      3  N   UNL     1      15.133  -5.037  12.658  1.00  0.00    -0.350 N 
ATOM      4  H   UNL     1      14.956  -4.191  13.247  1.00  0.00     0.345 HD
ATOM      5  H   UNL     1      14.238  -5.281  12.173  1.00  0.00     0.345 HD
ATOM      6  H   UNL     1      15.860  -4.812  11.940  1.00  0.00     0.345 HD
ENDBRANCH   2   3
BRANCH   2   7
ATOM      7  C   UNL     1      15.248  -7.465  12.826  1.00  0.00     0.099 C 
ATOM      8  O   UNL     1      14.209  -8.106  13.138  1.00  0.00    -0.544 OA
ATOM      9  O   UNL     1      16.108  -7.983  11.864  1.00  0.00    -0.544 OA
ENDBRANCH   2   7
ENDBRANCH   1   2
BRANCH   1  10
ATOM     10  C   UNL     1      17.355  -5.252  15.026  1.00  0.00    -0.016 A 
ATOM     11  C   UNL     1      17.603  -3.894  15.082  1.00  0.00     0.003 A 
ATOM     12  C   UNL     1      17.340  -5.688  16.347  1.00  0.00     0.087 A 
ATOM     13  C   UNL     1      17.736  -3.571  16.408  1.00  0.00     0.046 A 
ATOM     14  C   UNL     1      17.702  -2.930  14.078  1.00  0.00     0.010 A 
ATOM     15  N   UNL     1      17.581  -4.655  17.188  1.00  0.00    -0.361 N 
ATOM     16  C   UNL     1      17.985  -2.263  16.823  1.00  0.00     0.026 A 
ATOM     17  C   UNL     1      17.954  -1.601  14.467  1.00  0.00     0.001 A 
ATOM     18  H   UNL     1      17.622  -4.694  18.231  1.00  0.00     0.166 HD
ATOM     19  C   UNL     1      18.096  -1.270  15.832  1.00  0.00     0.002 A 
ENDBRANCH   1  10
TORSDOF 4
ENDMDL
MODEL 9
REMARK VINA RESULT:    -4.080      3.059      5.588
REMARK INTER + INTRA:          -5.128
REMARK INTER:                  -4.935
REMARK INTRA:                  -0.193
REMARK UNBOUND:                -0.213
REMARK SMILES [NH3+][C@H](Cc1c[nH]c2ccccc12)C(=O)[O-]
REMARK SMILES IDX 3 1 2 2 1 3 13 7 14 8 15 9 4 10 12 11 5 12 7 13 11 14 6 15
REMARK SMILES IDX 8 16 10 17 9 19
REMARK H PARENT 1 4 1 5 1 6 6 18
REMARK Flexibility Score: inf
ROOT
ATOM      1  C   UNL     1      15.123   6.214   1.938  1.00  0.00     0.109 C 
ENDROOT
BRANCH   1   2
ATOM      2  C   UNL     1      16.592   5.824   1.678  1.00  0.00     0.232 C 
BRANCH   2   3
ATOM      3  N   UNL     1      17.520   6.772   2.308  1.00  0.00    -0.350 N 
ATOM      4  H   UNL     1      18.089   7.258   1.578  1.00  0.00     0.345 HD
ATOM      5  H   UNL     1      18.181   6.257   2.936  1.00  0.00     0.345 HD
ATOM      6  H   UNL     1      17.000   7.484   2.871  1.00  0.00     0.345 HD
ENDBRANCH   2   3
BRANCH   2   7
ATOM      7  C   UNL     1      16.844   4.434   2.197  1.00  0.00     0.099 C 
ATOM      8  O   UNL     1      18.009   3.955   2.185  1.00  0.00    -0.544 OA
ATOM      9  O   UNL     1      15.791   3.662   2.675  1.00  0.00    -0.544 OA
ENDBRANCH   2   7
ENDBRANCH   1   2
BRANCH   1  10
ATOM     10  C   UNL     1      14.541   6.986   0.789  1.00  0.00    -0.016 A 
ATOM     11  C   UNL     1      13.241   7.429   0.637  1.00  0.00     0.003 A 
ATOM     12  C   UNL     1      15.237   7.472  -0.314  1.00  0.00     0.087 A 
ATOM     13  C   UNL     1      13.200   8.142  -0.534  1.00  0.00     0.046 A 
ATOM     14  C   UNL     1      12.111   7.274   1.441  1.00  0.00     0.010 A 
ATOM     15  N   UNL     1      14.409   8.173  -1.123  1.00  0.00    -0.361 N 
ATOM     16  C   UNL     1      12.027   8.743  -0.987  1.00  0.00     0.026 A 
ATOM     17  C   UNL     1      10.911   7.869   1.008  1.00  0.00     0.001 A 
ATOM     18  H   UNL     1      14.664   8.651  -2.016  1.00  0.00     0.166 HD
ATOM     19  C   UNL     1      10.869   8.599  -0.200  1.00  0.00     0.002 A 
ENDBRANCH   1  10
TORSDOF 4
ENDMDL
