MODEL 1
REMARK VINA RESULT:    -7.662      0.000      0.000
REMARK INTER + INTRA:          -9.310
REMARK INTER:                  -9.006
REMARK INTRA:                  -0.305
REMARK UNBOUND:                -0.305
REMARK SMILES O=c1cc(-c2ccc(O)c(O)c2)oc2cc(O)cc(O)c12
REMARK SMILES IDX 4 1 3 2 2 3 1 4 21 5 19 6 18 7 16 8 15 9 14 10 13 11 5 12
REMARK SMILES IDX 6 13 7 14 8 15 12 16 10 17 9 18 11 20 20 22 17 24
REMARK H PARENT 9 19 11 21 20 23 17 25
REMARK Flexibility Score: inf
ROOT
ATOM      1  C   UNL     1       9.645  -1.689  19.263  1.00  0.00     0.138 A 
ATOM      2  C   UNL     1      10.992  -2.088  19.284  1.00  0.00     0.100 A 
ATOM      3  C   UNL     1      11.306  -3.438  19.449  1.00  0.00     0.197 A 
ATOM      4  O   UNL     1      12.518  -3.785  19.467  1.00  0.00    -0.289 OA
ATOM      5  C   UNL     1      10.269  -4.380  19.596  1.00  0.00     0.107 A 
ATOM      6  C   UNL     1      10.500  -5.766  19.765  1.00  0.00     0.134 A 
ATOM      7  C   UNL     1       9.413  -6.640  19.911  1.00  0.00     0.093 A 
ATOM      8  C   UNL     1       8.100  -6.153  19.889  1.00  0.00     0.123 A 
ATOM      9  C   UNL     1       7.868  -4.786  19.721  1.00  0.00     0.094 A 
ATOM     10  C   UNL     1       8.938  -3.900  19.575  1.00  0.00     0.146 A 
ATOM     11  O   UNL     1       8.689  -2.603  19.415  1.00  0.00    -0.456 OA
ENDROOT
BRANCH   1  12
ATOM     12  C   UNL     1       9.251  -0.268  19.093  1.00  0.00     0.021 A 
ATOM     13  C   UNL     1      10.059   0.785  19.565  1.00  0.00     0.016 A 
ATOM     14  C   UNL     1       9.667   2.114  19.381  1.00  0.00     0.051 A 
ATOM     15  C   UNL     1       8.474   2.417  18.721  1.00  0.00     0.157 A 
ATOM     16  C   UNL     1       8.058   0.044  18.418  1.00  0.00     0.062 A 
ATOM     17  C   UNL     1       7.665   1.377  18.234  1.00  0.00     0.158 A 
BRANCH  15  18
ATOM     18  O   UNL     1       8.111   3.753  18.555  1.00  0.00    -0.504 OA
ATOM     19  H   UNL     1       7.586   4.072  17.750  1.00  0.00     0.293 HD
ENDBRANCH  15  18
BRANCH  17  20
ATOM     20  O   UNL     1       6.474   1.673  17.571  1.00  0.00    -0.504 OA
ATOM     21  H   UNL     1       5.940   0.956  17.094  1.00  0.00     0.293 HD
ENDBRANCH  17  20
ENDBRANCH   1  12
BRANCH   6  22
ATOM     22  O   UNL     1      11.798  -6.278  19.791  1.00  0.00    -0.507 OA
ATOM     23  H   UNL     1      12.326  -6.349  20.654  1.00  0.00     0.293 HD
ENDBRANCH   6  22
BRANCH   8  24
ATOM     24  O   UNL     1       7.020  -7.021  20.034  1.00  0.00    -0.508 OA
ATOM     25  H   UNL     1       6.256  -6.816  20.666  1.00  0.00     0.293 HD
ENDBRANCH   8  24
TORSDOF 5
ENDMDL
MODEL 2
REMARK VINA RESULT:    -7.544      1.661      6.751
REMARK INTER + INTRA:          -9.171
REMARK INTER:                  -8.853
REMARK INTRA:                  -0.318
REMARK UNBOUND:                -0.305
REMARK SMILES O=c1cc(-c2ccc(O)c(O)c2)oc2cc(O)cc(O)c12
REMARK SMILES IDX 4 1 3 2 2 3 1 4 21 5 19 6 18 7 16 8 15 9 14 10 13 11 5 12
REMARK SMILES IDX 6 13 7 14 8 15 12 16 10 17 9 18 11 20 20 22 17 24
REMARK H PARENT 9 19 11 21 20 23 17 25
REMARK Flexibility Score: inf
ROOT
ATOM      1  C   UNL     1      10.576  -2.543  19.492  1.00  0.00     0.138 A 
ATOM      2  C   UNL     1      11.888  -2.041  19.500  1.00  0.00     0.100 A 
ATOM      3  C   UNL     1      12.099  -0.666  19.385  1.00  0.00     0.197 A 
ATOM      4  O   UNL     1      13.281  -0.226  19.393  1.00  0.00    -0.289 OA
ATOM      5  C   UNL     1      10.993   0.198  19.258  1.00  0.00     0.107 A 
ATOM      6  C   UNL     1      11.118   1.602  19.138  1.00  0.00     0.134 A 
ATOM      7  C   UNL     1       9.968   2.395  19.010  1.00  0.00     0.093 A 
ATOM      8  C   UNL     1       8.696   1.808  18.999  1.00  0.00     0.123 A 
ATOM      9  C   UNL     1       8.569   0.422  19.118  1.00  0.00     0.094 A 
ATOM     10  C   UNL     1       9.703  -0.383  19.247  1.00  0.00     0.146 A 
ATOM     11  O   UNL     1       9.555  -1.700  19.359  1.00  0.00    -0.456 OA
ENDROOT
BRANCH   1  12
ATOM     12  C   UNL     1      10.292  -3.995  19.609  1.00  0.00     0.021 A 
ATOM     13  C   UNL     1      11.327  -4.948  19.677  1.00  0.00     0.016 A 
ATOM     14  C   UNL     1      11.029  -6.309  19.797  1.00  0.00     0.051 A 
ATOM     15  C   UNL     1       9.702  -6.741  19.859  1.00  0.00     0.157 A 
ATOM     16  C   UNL     1       8.959  -4.436  19.685  1.00  0.00     0.062 A 
ATOM     17  C   UNL     1       8.660  -5.801  19.806  1.00  0.00     0.158 A 
BRANCH  15  18
ATOM     18  O   UNL     1       9.438  -8.105  19.978  1.00  0.00    -0.504 OA
ATOM     19  H   UNL     1       8.933  -8.620  19.267  1.00  0.00     0.293 HD
ENDBRANCH  15  18
BRANCH  17  20
ATOM     20  O   UNL     1       7.334  -6.226  19.870  1.00  0.00    -0.504 OA
ATOM     21  H   UNL     1       6.986  -6.760  20.658  1.00  0.00     0.293 HD
ENDBRANCH  17  20
ENDBRANCH   1  12
BRANCH   6  22
ATOM     22  O   UNL     1      12.372   2.214  19.145  1.00  0.00    -0.507 OA
ATOM     23  H   UNL     1      12.475   3.221  19.069  1.00  0.00     0.293 HD
ENDBRANCH   6  22
BRANCH   8  24
ATOM     24  O   UNL     1       7.554   2.595  18.872  1.00  0.00    -0.508 OA
ATOM     25  H   UNL     1       6.735   2.438  19.447  1.00  0.00     0.293 HD
ENDBRANCH   8  24
TORSDOF 5
ENDMDL
MODEL 3
REMARK VINA RESULT:    -7.325      1.636      7.208
REMARK INTER + INTRA:          -8.914
REMARK INTER:                  -8.619
REMARK INTRA:                  -0.295
REMARK UNBOUND:                -0.305
REMARK SMILES O=c1cc(-c2ccc(O)c(O)c2)oc2cc(O)cc(O)c12
REMARK SMILES IDX 4 1 3 2 2 3 1 4 21 5 19 6 18 7 16 8 15 9 14 10 13 11 5 12
REMARK SMILES IDX 6 13 7 14 8 15 12 16 10 17 9 18 11 20 20 22 17 24
REMARK H PARENT 9 19 11 21 20 23 17 25
REMARK Flexibility Score: inf
ROOT
ATOM      1  C   UNL     1       9.117  -2.598  19.433  1.00  0.00     0.138 A 
ATOM      2  C   UNL     1       7.857  -1.977  19.403  1.00  0.00     0.100 A 
ATOM      3  C   UNL     1       7.779  -0.588  19.292  1.00  0.00     0.197 A 
ATOM      4  O   UNL     1       6.643  -0.041  19.266  1.00  0.00    -0.289 OA
ATOM      5  C   UNL     1       8.963   0.171  19.215  1.00  0.00     0.107 A 
ATOM      6  C   UNL     1       8.972   1.581  19.099  1.00  0.00     0.134 A 
ATOM      7  C   UNL     1      10.195   2.266  19.034  1.00  0.00     0.093 A 
ATOM      8  C   UNL     1      11.406   1.566  19.082  1.00  0.00     0.123 A 
ATOM      9  C   UNL     1      11.401   0.174  19.196  1.00  0.00     0.094 A 
ATOM     10  C   UNL     1      10.194  -0.525  19.262  1.00  0.00     0.146 A 
ATOM     11  O   UNL     1      10.217  -1.851  19.369  1.00  0.00    -0.456 OA
ENDROOT
BRANCH   1  12
ATOM     12  C   UNL     1       9.262  -4.071  19.552  1.00  0.00     0.021 A 
ATOM     13  C   UNL     1      10.527  -4.683  19.658  1.00  0.00     0.016 A 
ATOM     14  C   UNL     1      10.633  -6.071  19.780  1.00  0.00     0.051 A 
ATOM     15  C   UNL     1       9.487  -6.870  19.805  1.00  0.00     0.157 A 
ATOM     16  C   UNL     1       8.113  -4.880  19.592  1.00  0.00     0.062 A 
ATOM     17  C   UNL     1       8.219  -6.272  19.713  1.00  0.00     0.158 A 
BRANCH  15  18
ATOM     18  O   UNL     1       9.626  -8.252  19.926  1.00  0.00    -0.504 OA
ATOM     19  H   UNL     1       9.650  -8.714  20.827  1.00  0.00     0.293 HD
ENDBRANCH  15  18
BRANCH  17  20
ATOM     20  O   UNL     1       7.072  -7.064  19.741  1.00  0.00    -0.504 OA
ATOM     21  H   UNL     1       6.378  -6.966  20.473  1.00  0.00     0.293 HD
ENDBRANCH  17  20
ENDBRANCH   1  12
BRANCH   6  22
ATOM     22  O   UNL     1       7.780   2.305  19.049  1.00  0.00    -0.507 OA
ATOM     23  H   UNL     1       7.562   2.922  18.274  1.00  0.00     0.293 HD
ENDBRANCH   6  22
BRANCH   8  24
ATOM     24  O   UNL     1      12.621   2.246  19.017  1.00  0.00    -0.508 OA
ATOM     25  H   UNL     1      13.454   1.808  18.644  1.00  0.00     0.293 HD
ENDBRANCH   8  24
TORSDOF 5
ENDMDL
MODEL 4
REMARK VINA RESULT:    -6.997      1.231      3.082
REMARK INTER + INTRA:          -8.528
REMARK INTER:                  -8.210
REMARK INTRA:                  -0.318
REMARK UNBOUND:                -0.305
REMARK SMILES O=c1cc(-c2ccc(O)c(O)c2)oc2cc(O)cc(O)c12
REMARK SMILES IDX 4 1 3 2 2 3 1 4 21 5 19 6 18 7 16 8 15 9 14 10 13 11 5 12
REMARK SMILES IDX 6 13 7 14 8 15 12 16 10 17 9 18 11 20 20 22 17 24
REMARK H PARENT 9 19 11 21 20 23 17 25
REMARK Flexibility Score: inf
ROOT
ATOM      1  C   UNL     1       8.196  -1.841  19.378  1.00  0.00     0.138 A 
ATOM      2  C   UNL     1       6.975  -2.531  19.466  1.00  0.00     0.100 A 
ATOM      3  C   UNL     1       6.979  -3.911  19.675  1.00  0.00     0.197 A 
ATOM      4  O   UNL     1       5.878  -4.520  19.752  1.00  0.00    -0.289 OA
ATOM      5  C   UNL     1       8.207  -4.593  19.790  1.00  0.00     0.107 A 
ATOM      6  C   UNL     1       8.300  -5.988  20.004  1.00  0.00     0.134 A 
ATOM      7  C   UNL     1       9.561  -6.595  20.102  1.00  0.00     0.093 A 
ATOM      8  C   UNL     1      10.729  -5.830  19.990  1.00  0.00     0.123 A 
ATOM      9  C   UNL     1      10.641  -4.452  19.780  1.00  0.00     0.094 A 
ATOM     10  C   UNL     1       9.394  -3.831  19.679  1.00  0.00     0.146 A 
ATOM     11  O   UNL     1       9.338  -2.517  19.481  1.00  0.00    -0.456 OA
ENDROOT
BRANCH   1  12
ATOM     12  C   UNL     1       8.253  -0.375  19.155  1.00  0.00     0.021 A 
ATOM     13  C   UNL     1       7.087   0.389  18.952  1.00  0.00     0.016 A 
ATOM     14  C   UNL     1       7.171   1.770  18.755  1.00  0.00     0.051 A 
ATOM     15  C   UNL     1       8.410   2.413  18.764  1.00  0.00     0.157 A 
ATOM     16  C   UNL     1       9.497   0.282  19.176  1.00  0.00     0.062 A 
ATOM     17  C   UNL     1       9.581   1.667  18.978  1.00  0.00     0.158 A 
BRANCH  15  18
ATOM     18  O   UNL     1       8.461   3.792  18.563  1.00  0.00    -0.504 OA
ATOM     19  H   UNL     1       7.633   4.336  18.353  1.00  0.00     0.293 HD
ENDBRANCH  15  18
BRANCH  17  20
ATOM     20  O   UNL     1      10.821   2.304  18.991  1.00  0.00    -0.504 OA
ATOM     21  H   UNL     1      11.658   1.828  19.309  1.00  0.00     0.293 HD
ENDBRANCH  17  20
ENDBRANCH   1  12
BRANCH   6  22
ATOM     22  O   UNL     1       7.153  -6.775  20.118  1.00  0.00    -0.507 OA
ATOM     23  H   UNL     1       6.787  -7.302  19.333  1.00  0.00     0.293 HD
ENDBRANCH   6  22
BRANCH   8  24
ATOM     24  O   UNL     1      11.982  -6.432  20.087  1.00  0.00    -0.508 OA
ATOM     25  H   UNL     1      12.459  -6.522  20.976  1.00  0.00     0.293 HD
ENDBRANCH   8  24
TORSDOF 5
ENDMDL
MODEL 5
REMARK VINA RESULT:    -6.963      1.590      6.656
REMARK INTER + INTRA:          -8.488
REMARK INTER:                  -8.195
REMARK INTRA:                  -0.293
REMARK UNBOUND:                -0.305
REMARK SMILES O=c1cc(-c2ccc(O)c(O)c2)oc2cc(O)cc(O)c12
REMARK SMILES IDX 4 1 3 2 2 3 1 4 21 5 19 6 18 7 16 8 15 9 14 10 13 11 5 12
REMARK SMILES IDX 6 13 7 14 8 15 12 16 10 17 9 18 11 20 20 22 17 24
REMARK H PARENT 9 19 11 21 20 23 17 25
REMARK Flexibility Score: inf
ROOT
ATOM      1  C   UNL     1       9.826  -2.950  19.757  1.00  0.00     0.138 A 
ATOM      2  C   UNL     1      11.219  -3.074  19.889  1.00  0.00     0.100 A 
ATOM      3  C   UNL     1      12.021  -1.935  19.806  1.00  0.00     0.197 A 
ATOM      4  O   UNL     1      13.270  -2.058  19.926  1.00  0.00    -0.289 OA
ATOM      5  C   UNL     1      11.424  -0.678  19.587  1.00  0.00     0.107 A 
ATOM      6  C   UNL     1      12.163   0.525  19.492  1.00  0.00     0.134 A 
ATOM      7  C   UNL     1      11.493   1.737  19.266  1.00  0.00     0.093 A 
ATOM      8  C   UNL     1      10.100   1.767  19.134  1.00  0.00     0.123 A 
ATOM      9  C   UNL     1       9.367   0.582  19.228  1.00  0.00     0.094 A 
ATOM     10  C   UNL     1      10.015  -0.635  19.452  1.00  0.00     0.146 A 
ATOM     11  O   UNL     1       9.294  -1.749  19.539  1.00  0.00    -0.456 OA
ENDROOT
BRANCH   1  12
ATOM     12  C   UNL     1       8.923  -4.125  19.834  1.00  0.00     0.021 A 
ATOM     13  C   UNL     1       7.529  -3.979  19.969  1.00  0.00     0.016 A 
ATOM     14  C   UNL     1       6.702  -5.105  20.029  1.00  0.00     0.051 A 
ATOM     15  C   UNL     1       7.246  -6.389  19.947  1.00  0.00     0.157 A 
ATOM     16  C   UNL     1       9.462  -5.420  19.738  1.00  0.00     0.062 A 
ATOM     17  C   UNL     1       8.633  -6.549  19.798  1.00  0.00     0.158 A 
BRANCH  15  18
ATOM     18  O   UNL     1       6.395  -7.491  20.011  1.00  0.00    -0.504 OA
ATOM     19  H   UNL     1       5.642  -7.630  19.348  1.00  0.00     0.293 HD
ENDBRANCH  15  18
BRANCH  17  20
ATOM     20  O   UNL     1       9.182  -7.828  19.713  1.00  0.00    -0.504 OA
ATOM     21  H   UNL     1      10.069  -7.995  19.252  1.00  0.00     0.293 HD
ENDBRANCH  17  20
ENDBRANCH   1  12
BRANCH   6  22
ATOM     22  O   UNL     1      13.552   0.525  19.619  1.00  0.00    -0.507 OA
ATOM     23  H   UNL     1      14.162   0.515  18.808  1.00  0.00     0.293 HD
ENDBRANCH   6  22
BRANCH   8  24
ATOM     24  O   UNL     1       9.435   2.970  18.910  1.00  0.00    -0.508 OA
ATOM     25  H   UNL     1       9.711   3.824  19.379  1.00  0.00     0.293 HD
ENDBRANCH   8  24
TORSDOF 5
ENDMDL
MODEL 6
REMARK VINA RESULT:    -6.697      2.097      6.771
REMARK INTER + INTRA:          -8.176
REMARK INTER:                  -7.858
REMARK INTRA:                  -0.318
REMARK UNBOUND:                -0.305
REMARK SMILES O=c1cc(-c2ccc(O)c(O)c2)oc2cc(O)cc(O)c12
REMARK SMILES IDX 4 1 3 2 2 3 1 4 21 5 19 6 18 7 16 8 15 9 14 10 13 11 5 12
REMARK SMILES IDX 6 13 7 14 8 15 12 16 10 17 9 18 11 20 20 22 17 24
REMARK H PARENT 9 19 11 21 20 23 17 25
REMARK Flexibility Score: inf
ROOT
ATOM      1  C   UNL     1       9.483  -2.789  19.705  1.00  0.00     0.138 A 
ATOM      2  C   UNL     1       8.918  -1.505  19.643  1.00  0.00     0.100 A 
ATOM      3  C   UNL     1       9.752  -0.391  19.543  1.00  0.00     0.197 A 
ATOM      4  O   UNL     1       9.234   0.758  19.488  1.00  0.00    -0.289 OA
ATOM      5  C   UNL     1      11.149  -0.569  19.510  1.00  0.00     0.107 A 
ATOM      6  C   UNL     1      12.065   0.505  19.408  1.00  0.00     0.134 A 
ATOM      7  C   UNL     1      13.443   0.244  19.387  1.00  0.00     0.093 A 
ATOM      8  C   UNL     1      13.921  -1.070  19.465  1.00  0.00     0.123 A 
ATOM      9  C   UNL     1      13.020  -2.132  19.565  1.00  0.00     0.094 A 
ATOM     10  C   UNL     1      11.644  -1.893  19.588  1.00  0.00     0.146 A 
ATOM     11  O   UNL     1      10.808  -2.922  19.682  1.00  0.00    -0.456 OA
ENDROOT
BRANCH   1  12
ATOM     12  C   UNL     1       8.646  -4.010  19.814  1.00  0.00     0.021 A 
ATOM     13  C   UNL     1       7.249  -3.936  19.978  1.00  0.00     0.016 A 
ATOM     14  C   UNL     1       6.484  -5.103  20.067  1.00  0.00     0.051 A 
ATOM     15  C   UNL     1       7.094  -6.357  19.988  1.00  0.00     0.157 A 
ATOM     16  C   UNL     1       9.251  -5.276  19.721  1.00  0.00     0.062 A 
ATOM     17  C   UNL     1       8.484  -6.446  19.811  1.00  0.00     0.158 A 
BRANCH  15  18
ATOM     18  O   UNL     1       6.304  -7.502  20.082  1.00  0.00    -0.504 OA
ATOM     19  H   UNL     1       5.377  -7.485  20.490  1.00  0.00     0.293 HD
ENDBRANCH  15  18
BRANCH  17  20
ATOM     20  O   UNL     1       9.098  -7.695  19.728  1.00  0.00    -0.504 OA
ATOM     21  H   UNL     1       9.444  -8.172  20.553  1.00  0.00     0.293 HD
ENDBRANCH  17  20
ENDBRANCH   1  12
BRANCH   6  22
ATOM     22  O   UNL     1      11.617   1.824  19.329  1.00  0.00    -0.507 OA
ATOM     23  H   UNL     1      10.679   2.052  19.016  1.00  0.00     0.293 HD
ENDBRANCH   6  22
BRANCH   8  24
ATOM     24  O   UNL     1      15.290  -1.329  19.444  1.00  0.00    -0.508 OA
ATOM     25  H   UNL     1      15.708  -2.020  20.054  1.00  0.00     0.293 HD
ENDBRANCH   8  24
TORSDOF 5
ENDMDL
MODEL 7
REMARK VINA RESULT:    -5.905      1.890      3.312
REMARK INTER + INTRA:          -7.246
REMARK INTER:                  -6.952
REMARK INTRA:                  -0.293
REMARK UNBOUND:                -0.305
REMARK SMILES O=c1cc(-c2ccc(O)c(O)c2)oc2cc(O)cc(O)c12
REMARK SMILES IDX 4 1 3 2 2 3 1 4 21 5 19 6 18 7 16 8 15 9 14 10 13 11 5 12
REMARK SMILES IDX 6 13 7 14 8 15 12 16 10 17 9 18 11 20 20 22 17 24
REMARK H PARENT 9 19 11 21 20 23 17 25
REMARK Flexibility Score: inf
ROOT
ATOM      1  C   UNL     1       9.572  -1.921  19.622  1.00  0.00     0.138 A 
ATOM      2  C   UNL     1       8.178  -1.786  19.730  1.00  0.00     0.100 A 
ATOM      3  C   UNL     1       7.385  -2.928  19.857  1.00  0.00     0.197 A 
ATOM      4  O   UNL     1       6.135  -2.796  19.953  1.00  0.00    -0.289 OA
ATOM      5  C   UNL     1       7.994  -4.199  19.872  1.00  0.00     0.107 A 
ATOM      6  C   UNL     1       7.265  -5.405  20.000  1.00  0.00     0.134 A 
ATOM      7  C   UNL     1       7.945  -6.632  20.000  1.00  0.00     0.093 A 
ATOM      8  C   UNL     1       9.339  -6.674  19.875  1.00  0.00     0.123 A 
ATOM      9  C   UNL     1      10.062  -5.486  19.750  1.00  0.00     0.094 A 
ATOM     10  C   UNL     1       9.402  -4.254  19.748  1.00  0.00     0.146 A 
ATOM     11  O   UNL     1      10.114  -3.137  19.628  1.00  0.00    -0.456 OA
ENDROOT
BRANCH   1  12
ATOM     12  C   UNL     1      10.465  -0.744  19.481  1.00  0.00     0.021 A 
ATOM     13  C   UNL     1      11.863  -0.857  19.606  1.00  0.00     0.016 A 
ATOM     14  C   UNL     1      12.681   0.268  19.458  1.00  0.00     0.051 A 
ATOM     15  C   UNL     1      12.122   1.517  19.178  1.00  0.00     0.157 A 
ATOM     16  C   UNL     1       9.911   0.515  19.186  1.00  0.00     0.062 A 
ATOM     17  C   UNL     1      10.731   1.643  19.038  1.00  0.00     0.158 A 
BRANCH  15  18
ATOM     18  O   UNL     1      12.964   2.620  19.038  1.00  0.00    -0.504 OA
ATOM     19  H   UNL     1      12.826   3.314  18.314  1.00  0.00     0.293 HD
ENDBRANCH  15  18
BRANCH  17  20
ATOM     20  O   UNL     1      10.168   2.887  18.756  1.00  0.00    -0.504 OA
ATOM     21  H   UNL     1       9.585   3.371  19.429  1.00  0.00     0.293 HD
ENDBRANCH  17  20
ENDBRANCH   1  12
BRANCH   6  22
ATOM     22  O   UNL     1       5.875  -5.393  20.125  1.00  0.00    -0.507 OA
ATOM     23  H   UNL     1       5.266  -5.509  19.322  1.00  0.00     0.293 HD
ENDBRANCH   6  22
BRANCH   8  24
ATOM     24  O   UNL     1      10.014  -7.892  19.876  1.00  0.00    -0.508 OA
ATOM     25  H   UNL     1      10.242  -8.372  20.738  1.00  0.00     0.293 HD
ENDBRANCH   8  24
TORSDOF 5
ENDMDL
MODEL 8
REMARK VINA RESULT:    -4.978      1.572      2.470
REMARK INTER + INTRA:          -6.156
REMARK INTER:                  -5.864
REMARK INTRA:                  -0.293
REMARK UNBOUND:                -0.305
REMARK SMILES O=c1cc(-c2ccc(O)c(O)c2)oc2cc(O)cc(O)c12
REMARK SMILES IDX 4 1 3 2 2 3 1 4 21 5 19 6 18 7 16 8 15 9 14 10 13 11 5 12
REMARK SMILES IDX 6 13 7 14 8 15 12 16 10 17 9 18 11 20 20 22 17 24
REMARK H PARENT 9 19 11 21 20 23 17 25
REMARK Flexibility Score: inf
ROOT
ATOM      1  C   UNL     1       9.377  -0.319  19.520  1.00  0.00     0.138 A 
ATOM      2  C   UNL     1      10.738  -0.147  19.220  1.00  0.00     0.100 A 
ATOM      3  C   UNL     1      11.561  -1.268  19.095  1.00  0.00     0.197 A 
ATOM      4  O   UNL     1      12.782  -1.102  18.827  1.00  0.00    -0.289 OA
ATOM      5  C   UNL     1      11.016  -2.554  19.275  1.00  0.00     0.107 A 
ATOM      6  C   UNL     1      11.778  -3.741  19.164  1.00  0.00     0.134 A 
ATOM      7  C   UNL     1      11.162  -4.985  19.363  1.00  0.00     0.093 A 
ATOM      8  C   UNL     1       9.798  -5.063  19.671  1.00  0.00     0.123 A 
ATOM      9  C   UNL     1       9.042  -3.894  19.780  1.00  0.00     0.094 A 
ATOM     10  C   UNL     1       9.638  -2.646  19.585  1.00  0.00     0.146 A 
ATOM     11  O   UNL     1       8.895  -1.548  19.694  1.00  0.00    -0.456 OA
ENDROOT
BRANCH   1  12
ATOM     12  C   UNL     1       8.455   0.835  19.667  1.00  0.00     0.021 A 
ATOM     13  C   UNL     1       7.056   0.666  19.686  1.00  0.00     0.016 A 
ATOM     14  C   UNL     1       6.212   1.770  19.837  1.00  0.00     0.051 A 
ATOM     15  C   UNL     1       6.744   3.054  19.978  1.00  0.00     0.157 A 
ATOM     16  C   UNL     1       8.983   2.128  19.823  1.00  0.00     0.062 A 
ATOM     17  C   UNL     1       8.137   3.236  19.974  1.00  0.00     0.158 A 
BRANCH  15  18
ATOM     18  O   UNL     1       5.876   4.135  20.125  1.00  0.00    -0.504 OA
ATOM     19  H   UNL     1       5.187   4.372  19.422  1.00  0.00     0.293 HD
ENDBRANCH  15  18
BRANCH  17  20
ATOM     20  O   UNL     1       8.673   4.515  20.117  1.00  0.00    -0.504 OA
ATOM     21  H   UNL     1       8.387   5.281  19.518  1.00  0.00     0.293 HD
ENDBRANCH  17  20
ENDBRANCH   1  12
BRANCH   6  22
ATOM     22  O   UNL     1      13.139  -3.693  18.859  1.00  0.00    -0.507 OA
ATOM     23  H   UNL     1      13.553  -4.308  18.167  1.00  0.00     0.293 HD
ENDBRANCH   6  22
BRANCH   8  24
ATOM     24  O   UNL     1       9.186  -6.299  19.868  1.00  0.00    -0.508 OA
ATOM     25  H   UNL     1       8.867  -6.863  19.090  1.00  0.00     0.293 HD
ENDBRANCH   8  24
TORSDOF 5
ENDMDL
