MODEL 1
REMARK VINA RESULT:    -5.204      0.000      0.000
REMARK INTER + INTRA:          -5.204
REMARK INTER:                  -5.204
REMARK INTRA:                   0.000
REMARK UNBOUND:                 0.000
REMARK SMILES CC1(C)[C@H]2CC[C@]1(C)C(=O)C2
REMARK SMILES IDX 1 1 2 2 4 3 5 4 6 5 7 6 9 7 10 8 11 9 8 10 3 11
REMARK H PARENT
REMARK Flexibility Score: inf
ROOT
ATOM      1  C   UNL     1      -9.938 -18.667  30.422  1.00  0.00     0.012 C 
ATOM      2  C   UNL     1     -11.310 -18.288  29.790  1.00  0.00    -0.020 C 
ATOM      3  C   UNL     1     -12.463 -18.171  30.816  1.00  0.00     0.003 C 
ATOM      4  C   UNL     1     -12.014 -16.971  31.696  1.00  0.00     0.005 C 
ATOM      5  C   UNL     1     -11.324 -16.030  30.676  1.00  0.00     0.015 C 
ATOM      6  C   UNL     1     -11.455 -16.815  29.348  1.00  0.00     0.032 C 
ATOM      7  C   UNL     1     -12.926 -16.767  29.017  1.00  0.00     0.139 C 
ATOM      8  O   UNL     1     -13.449 -16.052  28.176  1.00  0.00    -0.299 OA
ATOM      9  C   UNL     1     -13.659 -17.666  29.963  1.00  0.00     0.080 C 
ATOM     10  C   UNL     1     -10.523 -16.342  28.228  1.00  0.00     0.020 C 
ATOM     11  C   UNL     1     -11.581 -19.333  28.663  1.00  0.00     0.012 C 
ENDROOT
TORSDOF 0
ENDMDL
MODEL 2
REMARK VINA RESULT:    -5.200      1.817      2.967
REMARK INTER + INTRA:          -5.200
REMARK INTER:                  -5.200
REMARK INTRA:                   0.000
REMARK UNBOUND:                 0.000
REMARK SMILES CC1(C)[C@H]2CC[C@]1(C)C(=O)C2
REMARK SMILES IDX 1 1 2 2 4 3 5 4 6 5 7 6 9 7 10 8 11 9 8 10 3 11
REMARK H PARENT
REMARK Flexibility Score: inf
ROOT
ATOM      1  C   UNL     1     -11.300 -16.756  28.118  1.00  0.00     0.012 C 
ATOM      2  C   UNL     1     -11.226 -17.853  29.221  1.00  0.00    -0.020 C 
ATOM      3  C   UNL     1      -9.890 -17.863  30.005  1.00  0.00     0.003 C 
ATOM      4  C   UNL     1      -9.908 -16.486  30.725  1.00  0.00     0.005 C 
ATOM      5  C   UNL     1     -11.407 -16.293  31.070  1.00  0.00     0.015 C 
ATOM      6  C   UNL     1     -12.055 -17.575  30.494  1.00  0.00     0.032 C 
ATOM      7  C   UNL     1     -11.571 -18.687  31.391  1.00  0.00     0.139 C 
ATOM      8  O   UNL     1     -12.222 -19.237  32.266  1.00  0.00    -0.299 OA
ATOM      9  C   UNL     1     -10.123 -18.936  31.105  1.00  0.00     0.080 C 
ATOM     10  C   UNL     1     -13.576 -17.501  30.317  1.00  0.00     0.020 C 
ATOM     11  C   UNL     1     -11.547 -19.209  28.519  1.00  0.00     0.012 C 
ENDROOT
TORSDOF 0
ENDMDL
MODEL 3
REMARK VINA RESULT:    -5.187      1.848      3.115
REMARK INTER + INTRA:          -5.187
REMARK INTER:                  -5.187
REMARK INTRA:                   0.000
REMARK UNBOUND:                 0.000
REMARK SMILES CC1(C)[C@H]2CC[C@]1(C)C(=O)C2
REMARK SMILES IDX 1 1 2 2 4 3 5 4 6 5 7 6 9 7 10 8 11 9 8 10 3 11
REMARK H PARENT
REMARK Flexibility Score: inf
ROOT
ATOM      1  C   UNL     1     -10.182 -16.209  28.203  1.00  0.00     0.012 C 
ATOM      2  C   UNL     1     -10.551 -16.668  29.645  1.00  0.00    -0.020 C 
ATOM      3  C   UNL     1     -11.897 -16.101  30.158  1.00  0.00     0.003 C 
ATOM      4  C   UNL     1     -12.929 -16.746  29.191  1.00  0.00     0.005 C 
ATOM      5  C   UNL     1     -12.333 -18.153  28.934  1.00  0.00     0.015 C 
ATOM      6  C   UNL     1     -11.033 -18.129  29.775  1.00  0.00     0.032 C 
ATOM      7  C   UNL     1     -11.503 -18.142  31.209  1.00  0.00     0.139 C 
ATOM      8  O   UNL     1     -11.491 -19.105  31.959  1.00  0.00    -0.299 OA
ATOM      9  C   UNL     1     -12.086 -16.802  31.532  1.00  0.00     0.080 C 
ATOM     10  C   UNL     1     -10.017 -19.219  29.417  1.00  0.00     0.020 C 
ATOM     11  C   UNL     1      -9.334 -16.302  30.550  1.00  0.00     0.012 C 
ENDROOT
TORSDOF 0
ENDMDL
MODEL 4
REMARK VINA RESULT:    -5.182      1.545      2.191
REMARK INTER + INTRA:          -5.182
REMARK INTER:                  -5.182
REMARK INTRA:                   0.000
REMARK UNBOUND:                 0.000
REMARK SMILES CC1(C)[C@H]2CC[C@]1(C)C(=O)C2
REMARK SMILES IDX 1 1 2 2 4 3 5 4 6 5 7 6 9 7 10 8 11 9 8 10 3 11
REMARK H PARENT
REMARK Flexibility Score: inf
ROOT
ATOM      1  C   UNL     1     -11.589 -18.640  31.484  1.00  0.00     0.012 C 
ATOM      2  C   UNL     1     -11.141 -18.192  30.061  1.00  0.00    -0.020 C 
ATOM      3  C   UNL     1     -12.313 -17.983  29.071  1.00  0.00     0.003 C 
ATOM      4  C   UNL     1     -13.086 -16.794  29.706  1.00  0.00     0.005 C 
ATOM      5  C   UNL     1     -11.953 -15.918  30.299  1.00  0.00     0.015 C 
ATOM      6  C   UNL     1     -10.680 -16.723  29.939  1.00  0.00     0.032 C 
ATOM      7  C   UNL     1     -10.553 -16.593  28.442  1.00  0.00     0.139 C 
ATOM      8  O   UNL     1      -9.772 -15.866  27.848  1.00  0.00    -0.299 OA
ATOM      9  C   UNL     1     -11.618 -17.425  27.798  1.00  0.00     0.080 C 
ATOM     10  C   UNL     1      -9.428 -16.331  30.732  1.00  0.00     0.020 C 
ATOM     11  C   UNL     1     -10.094 -19.243  29.576  1.00  0.00     0.012 C 
ENDROOT
TORSDOF 0
ENDMDL
MODEL 5
REMARK VINA RESULT:    -4.965      1.970      3.313
REMARK INTER + INTRA:          -4.965
REMARK INTER:                  -4.965
REMARK INTRA:                   0.000
REMARK UNBOUND:                 0.000
REMARK SMILES CC1(C)[C@H]2CC[C@]1(C)C(=O)C2
REMARK SMILES IDX 1 1 2 2 4 3 5 4 6 5 7 6 9 7 10 8 11 9 8 10 3 11
REMARK H PARENT
REMARK Flexibility Score: inf
ROOT
ATOM      1  C   UNL     1     -13.336 -16.394  29.149  1.00  0.00     0.012 C 
ATOM      2  C   UNL     1     -12.419 -17.578  29.579  1.00  0.00    -0.020 C 
ATOM      3  C   UNL     1     -11.332 -17.938  28.537  1.00  0.00     0.003 C 
ATOM      4  C   UNL     1     -10.450 -16.659  28.511  1.00  0.00     0.005 C 
ATOM      5  C   UNL     1     -10.473 -16.189  29.987  1.00  0.00     0.015 C 
ATOM      6  C   UNL     1     -11.373 -17.249  30.666  1.00  0.00     0.032 C 
ATOM      7  C   UNL     1     -10.552 -18.515  30.655  1.00  0.00     0.139 C 
ATOM      8  O   UNL     1      -9.960 -18.994  31.609  1.00  0.00    -0.299 OA
ATOM      9  C   UNL     1     -10.493 -19.034  29.252  1.00  0.00     0.080 C 
ATOM     10  C   UNL     1     -11.919 -16.844  32.040  1.00  0.00     0.020 C 
ATOM     11  C   UNL     1     -13.368 -18.767  29.927  1.00  0.00     0.012 C 
ENDROOT
TORSDOF 0
ENDMDL
MODEL 6
REMARK VINA RESULT:    -4.811      1.561      2.776
REMARK INTER + INTRA:          -4.811
REMARK INTER:                  -4.811
REMARK INTRA:                   0.000
REMARK UNBOUND:                 0.000
REMARK SMILES CC1(C)[C@H]2CC[C@]1(C)C(=O)C2
REMARK SMILES IDX 1 1 2 2 4 3 5 4 6 5 7 6 9 7 10 8 11 9 8 10 3 11
REMARK H PARENT
REMARK Flexibility Score: inf
ROOT
ATOM      1  C   UNL     1     -10.839 -16.371  27.973  1.00  0.00     0.012 C 
ATOM      2  C   UNL     1     -11.883 -17.001  28.942  1.00  0.00    -0.020 C 
ATOM      3  C   UNL     1     -11.970 -18.545  28.852  1.00  0.00     0.003 C 
ATOM      4  C   UNL     1     -10.563 -18.993  29.337  1.00  0.00     0.005 C 
ATOM      5  C   UNL     1     -10.224 -17.953  30.435  1.00  0.00     0.015 C 
ATOM      6  C   UNL     1     -11.473 -17.038  30.430  1.00  0.00     0.032 C 
ATOM      7  C   UNL     1     -12.577 -17.890  31.004  1.00  0.00     0.139 C 
ATOM      8  O   UNL     1     -13.026 -17.816  32.137  1.00  0.00    -0.299 OA
ATOM      9  C   UNL     1     -12.964 -18.919  29.987  1.00  0.00     0.080 C 
ATOM     10  C   UNL     1     -11.277 -15.683  31.119  1.00  0.00     0.020 C 
ATOM     11  C   UNL     1     -13.238 -16.282  28.659  1.00  0.00     0.012 C 
ENDROOT
TORSDOF 0
ENDMDL
MODEL 7
REMARK VINA RESULT:    -4.714      1.130      2.747
REMARK INTER + INTRA:          -4.714
REMARK INTER:                  -4.714
REMARK INTRA:                   0.000
REMARK UNBOUND:                 0.000
REMARK SMILES CC1(C)[C@H]2CC[C@]1(C)C(=O)C2
REMARK SMILES IDX 1 1 2 2 4 3 5 4 6 5 7 6 9 7 10 8 11 9 8 10 3 11
REMARK H PARENT
REMARK Flexibility Score: inf
ROOT
ATOM      1  C   UNL     1      -9.840 -18.991  31.144  1.00  0.00     0.012 C 
ATOM      2  C   UNL     1     -10.340 -17.717  30.401  1.00  0.00    -0.020 C 
ATOM      3  C   UNL     1     -10.496 -17.903  28.872  1.00  0.00     0.003 C 
ATOM      4  C   UNL     1     -11.625 -18.967  28.772  1.00  0.00     0.005 C 
ATOM      5  C   UNL     1     -12.556 -18.599  29.955  1.00  0.00     0.015 C 
ATOM      6  C   UNL     1     -11.836 -17.382  30.586  1.00  0.00     0.032 C 
ATOM      7  C   UNL     1     -12.001 -16.272  29.578  1.00  0.00     0.139 C 
ATOM      8  O   UNL     1     -12.785 -15.339  29.659  1.00  0.00    -0.299 OA
ATOM      9  C   UNL     1     -11.118 -16.558  28.403  1.00  0.00     0.080 C 
ATOM     10  C   UNL     1     -12.289 -17.037  32.009  1.00  0.00     0.020 C 
ATOM     11  C   UNL     1      -9.363 -16.565  30.793  1.00  0.00     0.012 C 
ENDROOT
TORSDOF 0
ENDMDL
MODEL 8
REMARK VINA RESULT:    -4.651      7.498      8.688
REMARK INTER + INTRA:          -4.651
REMARK INTER:                  -4.651
REMARK INTRA:                   0.000
REMARK UNBOUND:                 0.000
REMARK SMILES CC1(C)[C@H]2CC[C@]1(C)C(=O)C2
REMARK SMILES IDX 1 1 2 2 4 3 5 4 6 5 7 6 9 7 10 8 11 9 8 10 3 11
REMARK H PARENT
REMARK Flexibility Score: inf
ROOT
ATOM      1  C   UNL     1      -6.259 -14.029  32.704  1.00  0.00     0.012 C 
ATOM      2  C   UNL     1      -5.945 -13.156  31.452  1.00  0.00    -0.020 C 
ATOM      3  C   UNL     1      -5.899 -11.636  31.744  1.00  0.00     0.003 C 
ATOM      4  C   UNL     1      -4.686 -11.512  32.708  1.00  0.00     0.005 C 
ATOM      5  C   UNL     1      -3.700 -12.579  32.167  1.00  0.00     0.015 C 
ATOM      6  C   UNL     1      -4.477 -13.184  30.973  1.00  0.00     0.032 C 
ATOM      7  C   UNL     1      -4.502 -12.089  29.935  1.00  0.00     0.139 C 
ATOM      8  O   UNL     1      -3.807 -12.035  28.933  1.00  0.00    -0.299 OA
ATOM      9  C   UNL     1      -5.447 -11.021  30.390  1.00  0.00     0.080 C 
ATOM     10  C   UNL     1      -3.945 -14.533  30.478  1.00  0.00     0.020 C 
ATOM     11  C   UNL     1      -6.991 -13.551  30.364  1.00  0.00     0.012 C 
ENDROOT
TORSDOF 0
ENDMDL
MODEL 9
REMARK VINA RESULT:    -4.592      7.086      8.528
REMARK INTER + INTRA:          -4.592
REMARK INTER:                  -4.592
REMARK INTRA:                   0.000
REMARK UNBOUND:                 0.000
REMARK SMILES CC1(C)[C@H]2CC[C@]1(C)C(=O)C2
REMARK SMILES IDX 1 1 2 2 4 3 5 4 6 5 7 6 9 7 10 8 11 9 8 10 3 11
REMARK H PARENT
REMARK Flexibility Score: inf
ROOT
ATOM      1  C   UNL     1      -4.029 -11.465  29.558  1.00  0.00     0.012 C 
ATOM      2  C   UNL     1      -5.180 -12.062  30.421  1.00  0.00    -0.020 C 
ATOM      3  C   UNL     1      -6.086 -13.057  29.655  1.00  0.00     0.003 C 
ATOM      4  C   UNL     1      -5.110 -14.219  29.323  1.00  0.00     0.005 C 
ATOM      5  C   UNL     1      -4.194 -14.273  30.572  1.00  0.00     0.015 C 
ATOM      6  C   UNL     1      -4.755 -13.130  31.452  1.00  0.00     0.032 C 
ATOM      7  C   UNL     1      -6.103 -13.625  31.914  1.00  0.00     0.139 C 
ATOM      8  O   UNL     1      -6.365 -14.062  33.023  1.00  0.00    -0.299 OA
ATOM      9  C   UNL     1      -7.048 -13.592  30.753  1.00  0.00     0.080 C 
ATOM     10  C   UNL     1      -3.818 -12.664  32.572  1.00  0.00     0.020 C 
ATOM     11  C   UNL     1      -5.955 -10.849  31.023  1.00  0.00     0.012 C 
ENDROOT
TORSDOF 0
ENDMDL
