MODEL 1
REMARK VINA RESULT:    -4.467      0.000      0.000
REMARK INTER + INTRA:          -5.120
REMARK INTER:                  -4.989
REMARK INTRA:                  -0.130
REMARK UNBOUND:                -0.130
REMARK SMILES O=C([O-])C=Cc1ccccc1
REMARK SMILES IDX 4 1 5 2 2 3 1 4 3 5 6 6 7 7 11 8 8 9 10 10 9 11
REMARK H PARENT
REMARK Flexibility Score: inf
ROOT
ATOM      1  C   UNL     1      31.900   5.879  45.076  1.00  0.00     0.025 C 
ATOM      2  C   UNL     1      31.678   6.463  46.262  1.00  0.00     0.010 C 
ENDROOT
BRANCH   1   3
ATOM      3  C   UNL     1      32.773   6.490  44.061  1.00  0.00     0.064 C 
ATOM      4  O   UNL     1      33.311   7.604  44.294  1.00  0.00    -0.545 OA
ATOM      5  O   UNL     1      33.014   5.859  42.846  1.00  0.00    -0.545 OA
ENDBRANCH   1   3
BRANCH   2   6
ATOM      6  C   UNL     1      30.809   5.908  47.335  1.00  0.00    -0.026 A 
ATOM      7  C   UNL     1      31.429   5.338  48.462  1.00  0.00     0.008 A 
ATOM      8  C   UNL     1      29.398   5.926  47.277  1.00  0.00     0.008 A 
ATOM      9  C   UNL     1      30.664   4.800  49.501  1.00  0.00     0.001 A 
ATOM     10  C   UNL     1      28.639   5.386  48.321  1.00  0.00     0.001 A 
ATOM     11  C   UNL     1      29.271   4.824  49.432  1.00  0.00     0.000 A 
ENDBRANCH   2   6
TORSDOF 2
ENDMDL
MODEL 2
REMARK VINA RESULT:    -4.426      1.265      2.323
REMARK INTER + INTRA:          -5.074
REMARK INTER:                  -4.945
REMARK INTRA:                  -0.130
REMARK UNBOUND:                -0.130
REMARK SMILES O=C([O-])C=Cc1ccccc1
REMARK SMILES IDX 4 1 5 2 2 3 1 4 3 5 6 6 7 7 11 8 8 9 10 10 9 11
REMARK H PARENT
REMARK Flexibility Score: inf
ROOT
ATOM      1  C   UNL     1      32.582   7.658  46.667  1.00  0.00     0.025 C 
ATOM      2  C   UNL     1      31.492   6.903  46.467  1.00  0.00     0.010 C 
ENDROOT
BRANCH   1   3
ATOM      3  C   UNL     1      33.221   8.402  45.570  1.00  0.00     0.064 C 
ATOM      4  O   UNL     1      33.781   7.772  44.635  1.00  0.00    -0.545 OA
ATOM      5  O   UNL     1      33.221   9.792  45.549  1.00  0.00    -0.545 OA
ENDBRANCH   1   3
BRANCH   2   6
ATOM      6  C   UNL     1      30.792   6.123  47.523  1.00  0.00    -0.026 A 
ATOM      7  C   UNL     1      29.385   6.090  47.501  1.00  0.00     0.008 A 
ATOM      8  C   UNL     1      31.468   5.416  48.543  1.00  0.00     0.008 A 
ATOM      9  C   UNL     1      28.673   5.373  48.469  1.00  0.00     0.001 A 
ATOM     10  C   UNL     1      30.749   4.702  49.507  1.00  0.00     0.001 A 
ATOM     11  C   UNL     1      29.353   4.681  49.470  1.00  0.00     0.000 A 
ENDBRANCH   2   6
TORSDOF 2
ENDMDL
MODEL 3
REMARK VINA RESULT:    -4.412      4.816      6.255
REMARK INTER + INTRA:          -5.058
REMARK INTER:                  -4.913
REMARK INTRA:                  -0.145
REMARK UNBOUND:                -0.130
REMARK SMILES O=C([O-])C=Cc1ccccc1
REMARK SMILES IDX 4 1 5 2 2 3 1 4 3 5 6 6 7 7 11 8 8 9 10 10 9 11
REMARK H PARENT
REMARK Flexibility Score: inf
ROOT
ATOM      1  C   UNL     1      26.644   4.296  48.499  1.00  0.00     0.025 C 
ATOM      2  C   UNL     1      27.737   4.407  49.268  1.00  0.00     0.010 C 
ENDROOT
BRANCH   1   3
ATOM      3  C   UNL     1      25.395   3.708  49.008  1.00  0.00     0.064 C 
ATOM      4  O   UNL     1      25.404   3.079  50.099  1.00  0.00    -0.545 OA
ATOM      5  O   UNL     1      24.203   3.832  48.303  1.00  0.00    -0.545 OA
ENDBRANCH   1   3
BRANCH   2   6
ATOM      6  C   UNL     1      29.034   4.989  48.824  1.00  0.00    -0.026 A 
ATOM      7  C   UNL     1      29.016   5.926  47.776  1.00  0.00     0.008 A 
ATOM      8  C   UNL     1      30.276   4.647  49.403  1.00  0.00     0.008 A 
ATOM      9  C   UNL     1      30.203   6.506  47.316  1.00  0.00     0.001 A 
ATOM     10  C   UNL     1      31.459   5.230  48.939  1.00  0.00     0.001 A 
ATOM     11  C   UNL     1      31.423   6.159  47.897  1.00  0.00     0.000 A 
ENDBRANCH   2   6
TORSDOF 2
ENDMDL
MODEL 4
REMARK VINA RESULT:    -4.362      4.833      6.107
REMARK INTER + INTRA:          -5.003
REMARK INTER:                  -4.870
REMARK INTRA:                  -0.133
REMARK UNBOUND:                -0.130
REMARK SMILES O=C([O-])C=Cc1ccccc1
REMARK SMILES IDX 4 1 5 2 2 3 1 4 3 5 6 6 7 7 11 8 8 9 10 10 9 11
REMARK H PARENT
REMARK Flexibility Score: inf
ROOT
ATOM      1  C   UNL     1      26.598   4.266  48.409  1.00  0.00     0.025 C 
ATOM      2  C   UNL     1      27.664   4.500  49.188  1.00  0.00     0.010 C 
ENDROOT
BRANCH   1   3
ATOM      3  C   UNL     1      25.360   3.679  48.946  1.00  0.00     0.064 C 
ATOM      4  O   UNL     1      25.413   2.939  49.964  1.00  0.00    -0.545 OA
ATOM      5  O   UNL     1      24.130   3.924  48.348  1.00  0.00    -0.545 OA
ENDBRANCH   1   3
BRANCH   2   6
ATOM      6  C   UNL     1      28.948   5.089  48.718  1.00  0.00    -0.026 A 
ATOM      7  C   UNL     1      30.131   4.714  49.380  1.00  0.00     0.008 A 
ATOM      8  C   UNL     1      29.035   6.003  47.644  1.00  0.00     0.008 A 
ATOM      9  C   UNL     1      31.367   5.235  48.983  1.00  0.00     0.001 A 
ATOM     10  C   UNL     1      30.274   6.519  47.253  1.00  0.00     0.001 A 
ATOM     11  C   UNL     1      31.439   6.136  47.921  1.00  0.00     0.000 A 
ENDBRANCH   2   6
TORSDOF 2
ENDMDL
MODEL 5
REMARK VINA RESULT:    -4.329      8.943     10.008
REMARK INTER + INTRA:          -4.965
REMARK INTER:                  -4.831
REMARK INTRA:                  -0.134
REMARK UNBOUND:                -0.130
REMARK SMILES O=C([O-])C=Cc1ccccc1
REMARK SMILES IDX 4 1 5 2 2 3 1 4 3 5 6 6 7 7 11 8 8 9 10 10 9 11
REMARK H PARENT
REMARK Flexibility Score: inf
ROOT
ATOM      1  C   UNL     1      23.911   2.378  39.950  1.00  0.00     0.025 C 
ATOM      2  C   UNL     1      24.976   3.107  39.587  1.00  0.00     0.010 C 
ENDROOT
BRANCH   1   3
ATOM      3  C   UNL     1      23.352   1.333  39.078  1.00  0.00     0.064 C 
ATOM      4  O   UNL     1      22.520   1.648  38.187  1.00  0.00    -0.545 OA
ATOM      5  O   UNL     1      23.726   0.002  39.220  1.00  0.00    -0.545 OA
ENDBRANCH   1   3
BRANCH   2   6
ATOM      6  C   UNL     1      25.595   4.179  40.413  1.00  0.00    -0.026 A 
ATOM      7  C   UNL     1      24.766   5.210  40.893  1.00  0.00     0.008 A 
ATOM      8  C   UNL     1      26.970   4.212  40.738  1.00  0.00     0.008 A 
ATOM      9  C   UNL     1      25.292   6.244  41.674  1.00  0.00     0.001 A 
ATOM     10  C   UNL     1      27.488   5.249  41.519  1.00  0.00     0.001 A 
ATOM     11  C   UNL     1      26.651   6.264  41.987  1.00  0.00     0.000 A 
ENDBRANCH   2   6
TORSDOF 2
ENDMDL
MODEL 6
REMARK VINA RESULT:    -4.269      3.281      5.420
REMARK INTER + INTRA:          -4.898
REMARK INTER:                  -4.769
REMARK INTRA:                  -0.130
REMARK UNBOUND:                -0.130
REMARK SMILES O=C([O-])C=Cc1ccccc1
REMARK SMILES IDX 4 1 5 2 2 3 1 4 3 5 6 6 7 7 11 8 8 9 10 10 9 11
REMARK H PARENT
REMARK Flexibility Score: inf
ROOT
ATOM      1  C   UNL     1      31.420   5.553  48.448  1.00  0.00     0.025 C 
ATOM      2  C   UNL     1      31.068   6.058  47.257  1.00  0.00     0.010 C 
ENDROOT
BRANCH   1   3
ATOM      3  C   UNL     1      30.463   4.819  49.292  1.00  0.00     0.064 C 
ATOM      4  O   UNL     1      29.265   5.201  49.350  1.00  0.00    -0.545 OA
ATOM      5  O   UNL     1      30.860   3.710  50.030  1.00  0.00    -0.545 OA
ENDBRANCH   1   3
BRANCH   2   6
ATOM      6  C   UNL     1      31.976   6.811  46.350  1.00  0.00    -0.026 A 
ATOM      7  C   UNL     1      32.114   6.359  45.025  1.00  0.00     0.008 A 
ATOM      8  C   UNL     1      32.704   7.953  46.753  1.00  0.00     0.008 A 
ATOM      9  C   UNL     1      32.954   7.026  44.127  1.00  0.00     0.001 A 
ATOM     10  C   UNL     1      33.542   8.615  45.850  1.00  0.00     0.001 A 
ATOM     11  C   UNL     1      33.667   8.152  44.539  1.00  0.00     0.000 A 
ENDBRANCH   2   6
TORSDOF 2
ENDMDL
MODEL 7
REMARK VINA RESULT:    -4.081     14.315     15.017
REMARK INTER + INTRA:          -4.688
REMARK INTER:                  -4.552
REMARK INTRA:                  -0.136
REMARK UNBOUND:                -0.130
REMARK SMILES O=C([O-])C=Cc1ccccc1
REMARK SMILES IDX 4 1 5 2 2 3 1 4 3 5 6 6 7 7 11 8 8 9 10 10 9 11
REMARK H PARENT
REMARK Flexibility Score: inf
ROOT
ATOM      1  C   UNL     1      23.603  -4.478  53.612  1.00  0.00     0.025 C 
ATOM      2  C   UNL     1      24.023  -3.979  54.783  1.00  0.00     0.010 C 
ENDROOT
BRANCH   1   3
ATOM      3  C   UNL     1      24.440  -5.384  52.809  1.00  0.00     0.064 C 
ATOM      4  O   UNL     1      25.436  -5.942  53.340  1.00  0.00    -0.545 OA
ATOM      5  O   UNL     1      24.152  -5.633  51.472  1.00  0.00    -0.545 OA
ENDBRANCH   1   3
BRANCH   2   6
ATOM      6  C   UNL     1      23.236  -3.058  55.648  1.00  0.00    -0.026 A 
ATOM      7  C   UNL     1      22.831  -1.824  55.107  1.00  0.00     0.008 A 
ATOM      8  C   UNL     1      22.876  -3.363  56.980  1.00  0.00     0.008 A 
ATOM      9  C   UNL     1      22.089  -0.919  55.873  1.00  0.00     0.001 A 
ATOM     10  C   UNL     1      22.135  -2.453  57.739  1.00  0.00     0.001 A 
ATOM     11  C   UNL     1      21.741  -1.232  57.187  1.00  0.00     0.000 A 
ENDBRANCH   2   6
TORSDOF 2
ENDMDL
MODEL 8
REMARK VINA RESULT:    -4.061      5.685      8.974
REMARK INTER + INTRA:          -4.666
REMARK INTER:                  -4.538
REMARK INTRA:                  -0.129
REMARK UNBOUND:                -0.130
REMARK SMILES O=C([O-])C=Cc1ccccc1
REMARK SMILES IDX 4 1 5 2 2 3 1 4 3 5 6 6 7 7 11 8 8 9 10 10 9 11
REMARK H PARENT
REMARK Flexibility Score: inf
ROOT
ATOM      1  C   UNL     1      32.694   5.492  40.550  1.00  0.00     0.025 C 
ATOM      2  C   UNL     1      33.993   5.312  40.828  1.00  0.00     0.010 C 
ENDROOT
BRANCH   1   3
ATOM      3  C   UNL     1      31.684   5.620  41.612  1.00  0.00     0.064 C 
ATOM      4  O   UNL     1      31.766   6.568  42.436  1.00  0.00    -0.545 OA
ATOM      5  O   UNL     1      30.639   4.710  41.723  1.00  0.00    -0.545 OA
ENDBRANCH   1   3
BRANCH   2   6
ATOM      6  C   UNL     1      35.071   5.174  39.811  1.00  0.00    -0.026 A 
ATOM      7  C   UNL     1      35.608   6.347  39.251  1.00  0.00     0.008 A 
ATOM      8  C   UNL     1      35.578   3.927  39.382  1.00  0.00     0.008 A 
ATOM      9  C   UNL     1      36.622   6.279  38.290  1.00  0.00     0.001 A 
ATOM     10  C   UNL     1      36.592   3.867  38.421  1.00  0.00     0.001 A 
ATOM     11  C   UNL     1      37.114   5.042  37.875  1.00  0.00     0.000 A 
ENDBRANCH   2   6
TORSDOF 2
ENDMDL
MODEL 9
REMARK VINA RESULT:    -4.042      4.196      5.528
REMARK INTER + INTRA:          -4.645
REMARK INTER:                  -4.513
REMARK INTRA:                  -0.132
REMARK UNBOUND:                -0.130
REMARK SMILES O=C([O-])C=Cc1ccccc1
REMARK SMILES IDX 4 1 5 2 2 3 1 4 3 5 6 6 7 7 11 8 8 9 10 10 9 11
REMARK H PARENT
REMARK Flexibility Score: inf
ROOT
ATOM      1  C   UNL     1      26.542   5.567  48.187  1.00  0.00     0.025 C 
ATOM      2  C   UNL     1      27.747   6.139  48.060  1.00  0.00     0.010 C 
ENDROOT
BRANCH   1   3
ATOM      3  C   UNL     1      25.317   6.223  47.701  1.00  0.00     0.064 C 
ATOM      4  O   UNL     1      25.181   6.449  46.470  1.00  0.00    -0.545 OA
ATOM      5  O   UNL     1      24.307   6.600  48.578  1.00  0.00    -0.545 OA
ENDBRANCH   1   3
BRANCH   2   6
ATOM      6  C   UNL     1      29.027   5.538  48.527  1.00  0.00    -0.026 A 
ATOM      7  C   UNL     1      30.230   6.068  48.026  1.00  0.00     0.008 A 
ATOM      8  C   UNL     1      29.092   4.467  49.446  1.00  0.00     0.008 A 
ATOM      9  C   UNL     1      31.463   5.545  48.427  1.00  0.00     0.001 A 
ATOM     10  C   UNL     1      30.329   3.949  49.843  1.00  0.00     0.001 A 
ATOM     11  C   UNL     1      31.513   4.487  49.335  1.00  0.00     0.000 A 
ENDBRANCH   2   6
TORSDOF 2
ENDMDL
