MODEL 1
REMARK VINA RESULT:    -6.117      0.000      0.000
REMARK INTER + INTRA:          -7.651
REMARK INTER:                  -7.369
REMARK INTRA:                  -0.282
REMARK UNBOUND:                -0.282
REMARK SMILES CCCCc1oc(O)c2ccccc12
REMARK SMILES IDX 4 1 5 2 7 3 6 4 9 5 14 6 10 7 13 8 11 9 12 10 8 11 3 13 2 14
REMARK SMILES IDX 1 15
REMARK H PARENT 8 12
REMARK Flexibility Score: inf
ROOT
ATOM      1  C   UNL     1      46.000  31.647   0.975  1.00  0.00     0.076 C 
ENDROOT
BRANCH   1   2
ATOM      2  C   UNL     1      45.574  32.661   1.993  1.00  0.00     0.116 A 
ATOM      3  C   UNL     1      44.323  33.727   3.369  1.00  0.00     0.290 A 
ATOM      4  O   UNL     1      44.373  32.702   2.540  1.00  0.00    -0.430 OA
ATOM      5  C   UNL     1      45.530  34.386   3.366  1.00  0.00     0.066 A 
ATOM      6  C   UNL     1      46.332  33.710   2.486  1.00  0.00     0.027 A 
ATOM      7  C   UNL     1      45.973  35.515   4.053  1.00  0.00     0.016 A 
ATOM      8  C   UNL     1      47.640  34.117   2.225  1.00  0.00     0.012 A 
ATOM      9  C   UNL     1      47.290  35.949   3.813  1.00  0.00     0.001 A 
ATOM     10  C   UNL     1      48.119  35.254   2.902  1.00  0.00     0.001 A 
BRANCH   3  11
ATOM     11  O   UNL     1      43.208  34.074   4.122  1.00  0.00    -0.480 OA
ATOM     12  H   UNL     1      42.945  35.045   4.232  1.00  0.00     0.297 HD
ENDBRANCH   3  11
ENDBRANCH   1   2
BRANCH   1  13
ATOM     13  C   UNL     1      46.853  30.555   1.633  1.00  0.00     0.008 C 
BRANCH  13  14
ATOM     14  C   UNL     1      47.932  30.003   0.691  1.00  0.00    -0.003 C 
ATOM     15  C   UNL     1      47.357  29.110  -0.408  1.00  0.00     0.004 C 
ENDBRANCH  13  14
ENDBRANCH   1  13
TORSDOF 4
ENDMDL
MODEL 2
REMARK VINA RESULT:    -6.108      1.082      1.326
REMARK INTER + INTRA:          -7.639
REMARK INTER:                  -7.352
REMARK INTRA:                  -0.288
REMARK UNBOUND:                -0.282
REMARK SMILES CCCCc1oc(O)c2ccccc12
REMARK SMILES IDX 4 1 5 2 7 3 6 4 9 5 14 6 10 7 13 8 11 9 12 10 8 11 3 13 2 14
REMARK SMILES IDX 1 15
REMARK H PARENT 8 12
REMARK Flexibility Score: inf
ROOT
ATOM      1  C   UNL     1      48.015  32.271   1.116  1.00  0.00     0.076 C 
ENDROOT
BRANCH   1   2
ATOM      2  C   UNL     1      46.788  32.881   1.722  1.00  0.00     0.116 A 
ATOM      3  C   UNL     1      44.720  33.201   2.186  1.00  0.00     0.290 A 
ATOM      4  O   UNL     1      45.564  32.421   1.538  1.00  0.00    -0.430 OA
ATOM      5  C   UNL     1      45.409  34.210   2.816  1.00  0.00     0.066 A 
ATOM      6  C   UNL     1      46.731  34.012   2.520  1.00  0.00     0.027 A 
ATOM      7  C   UNL     1      44.980  35.275   3.606  1.00  0.00     0.016 A 
ATOM      8  C   UNL     1      47.724  34.869   2.992  1.00  0.00     0.012 A 
ATOM      9  C   UNL     1      45.959  36.156   4.101  1.00  0.00     0.001 A 
ATOM     10  C   UNL     1      47.324  35.955   3.794  1.00  0.00     0.001 A 
BRANCH   3  11
ATOM     11  O   UNL     1      43.342  33.014   2.215  1.00  0.00    -0.480 OA
ATOM     12  H   UNL     1      42.735  33.588   1.644  1.00  0.00     0.297 HD
ENDBRANCH   3  11
ENDBRANCH   1   2
BRANCH   1  13
ATOM     13  C   UNL     1      48.113  30.786   1.487  1.00  0.00     0.008 C 
BRANCH  13  14
ATOM     14  C   UNL     1      48.045  29.867   0.259  1.00  0.00    -0.003 C 
ATOM     15  C   UNL     1      46.632  29.353  -0.017  1.00  0.00     0.004 C 
ENDBRANCH  13  14
ENDBRANCH   1  13
TORSDOF 4
ENDMDL
MODEL 3
REMARK VINA RESULT:    -5.697      2.289      4.955
REMARK INTER + INTRA:          -7.145
REMARK INTER:                  -6.697
REMARK INTRA:                  -0.448
REMARK UNBOUND:                -0.282
REMARK SMILES CCCCc1oc(O)c2ccccc12
REMARK SMILES IDX 4 1 5 2 7 3 6 4 9 5 14 6 10 7 13 8 11 9 12 10 8 11 3 13 2 14
REMARK SMILES IDX 1 15
REMARK H PARENT 8 12
REMARK Flexibility Score: inf
ROOT
ATOM      1  C   UNL     1      47.095  34.374   1.882  1.00  0.00     0.076 C 
ENDROOT
BRANCH   1   2
ATOM      2  C   UNL     1      46.824  32.993   2.395  1.00  0.00     0.116 A 
ATOM      3  C   UNL     1      47.154  30.940   2.915  1.00  0.00     0.290 A 
ATOM      4  O   UNL     1      47.725  32.028   2.436  1.00  0.00    -0.430 OA
ATOM      5  C   UNL     1      45.832  31.194   3.198  1.00  0.00     0.066 A 
ATOM      6  C   UNL     1      45.616  32.504   2.865  1.00  0.00     0.027 A 
ATOM      7  C   UNL     1      44.819  30.383   3.706  1.00  0.00     0.016 A 
ATOM      8  C   UNL     1      44.365  33.101   3.013  1.00  0.00     0.012 A 
ATOM      9  C   UNL     1      43.545  30.958   3.871  1.00  0.00     0.001 A 
ATOM     10  C   UNL     1      43.319  32.310   3.525  1.00  0.00     0.001 A 
BRANCH   3  11
ATOM     11  O   UNL     1      47.806  29.726   3.099  1.00  0.00    -0.480 OA
ATOM     12  H   UNL     1      47.990  29.118   2.311  1.00  0.00     0.297 HD
ENDBRANCH   3  11
ENDBRANCH   1   2
BRANCH   1  13
ATOM     13  C   UNL     1      47.766  35.226   2.967  1.00  0.00     0.008 C 
BRANCH  13  14
ATOM     14  C   UNL     1      46.750  36.003   3.816  1.00  0.00    -0.003 C 
ATOM     15  C   UNL     1      45.501  36.400   3.030  1.00  0.00     0.004 C 
ENDBRANCH  13  14
ENDBRANCH   1  13
TORSDOF 4
ENDMDL
MODEL 4
REMARK VINA RESULT:    -5.567      2.449      3.704
REMARK INTER + INTRA:          -6.988
REMARK INTER:                  -6.811
REMARK INTRA:                  -0.178
REMARK UNBOUND:                -0.282
REMARK SMILES CCCCc1oc(O)c2ccccc12
REMARK SMILES IDX 4 1 5 2 7 3 6 4 9 5 14 6 10 7 13 8 11 9 12 10 8 11 3 13 2 14
REMARK SMILES IDX 1 15
REMARK H PARENT 8 12
REMARK Flexibility Score: inf
ROOT
ATOM      1  C   UNL     1      43.713  32.170   3.755  1.00  0.00     0.076 C 
ENDROOT
BRANCH   1   2
ATOM      2  C   UNL     1      45.014  32.513   3.095  1.00  0.00     0.116 A 
ATOM      3  C   UNL     1      46.767  32.312   1.877  1.00  0.00     0.290 A 
ATOM      4  O   UNL     1      45.647  31.722   2.248  1.00  0.00    -0.430 OA
ATOM      5  C   UNL     1      46.879  33.532   2.503  1.00  0.00     0.066 A 
ATOM      6  C   UNL     1      45.763  33.663   3.284  1.00  0.00     0.027 A 
ATOM      7  C   UNL     1      47.866  34.514   2.451  1.00  0.00     0.016 A 
ATOM      8  C   UNL     1      45.552  34.791   4.076  1.00  0.00     0.012 A 
ATOM      9  C   UNL     1      47.681  35.666   3.237  1.00  0.00     0.001 A 
ATOM     10  C   UNL     1      46.529  35.803   4.047  1.00  0.00     0.001 A 
BRANCH   3  11
ATOM     11  O   UNL     1      47.685  31.766   0.988  1.00  0.00    -0.480 OA
ATOM     12  H   UNL     1      47.630  31.976   0.000  1.00  0.00     0.297 HD
ENDBRANCH   3  11
ENDBRANCH   1   2
BRANCH   1  13
ATOM     13  C   UNL     1      43.504  30.651   3.766  1.00  0.00     0.008 C 
BRANCH  13  14
ATOM     14  C   UNL     1      42.020  30.261   3.732  1.00  0.00    -0.003 C 
ATOM     15  C   UNL     1      41.798  28.810   3.307  1.00  0.00     0.004 C 
ENDBRANCH  13  14
ENDBRANCH   1  13
TORSDOF 4
ENDMDL
MODEL 5
REMARK VINA RESULT:    -5.485      0.957      1.214
REMARK INTER + INTRA:          -6.889
REMARK INTER:                  -6.440
REMARK INTRA:                  -0.448
REMARK UNBOUND:                -0.282
REMARK SMILES CCCCc1oc(O)c2ccccc12
REMARK SMILES IDX 4 1 5 2 7 3 6 4 9 5 14 6 10 7 13 8 11 9 12 10 8 11 3 13 2 14
REMARK SMILES IDX 1 15
REMARK H PARENT 8 12
REMARK Flexibility Score: inf
ROOT
ATOM      1  C   UNL     1      45.966  30.165   2.244  1.00  0.00     0.076 C 
ENDROOT
BRANCH   1   2
ATOM      2  C   UNL     1      45.566  31.535   2.700  1.00  0.00     0.116 A 
ATOM      3  C   UNL     1      44.352  33.123   3.476  1.00  0.00     0.290 A 
ATOM      4  O   UNL     1      44.382  31.832   3.204  1.00  0.00    -0.430 OA
ATOM      5  C   UNL     1      45.554  33.698   3.136  1.00  0.00     0.066 A 
ATOM      6  C   UNL     1      46.332  32.687   2.638  1.00  0.00     0.027 A 
ATOM      7  C   UNL     1      46.012  35.011   3.219  1.00  0.00     0.016 A 
ATOM      8  C   UNL     1      47.629  32.919   2.180  1.00  0.00     0.012 A 
ATOM      9  C   UNL     1      47.318  35.276   2.769  1.00  0.00     0.001 A 
ATOM     10  C   UNL     1      48.122  34.235   2.251  1.00  0.00     0.001 A 
BRANCH   3  11
ATOM     11  O   UNL     1      43.259  33.786   4.021  1.00  0.00    -0.480 OA
ATOM     12  H   UNL     1      42.396  33.867   3.499  1.00  0.00     0.297 HD
ENDBRANCH   3  11
ENDBRANCH   1   2
BRANCH   1  13
ATOM     13  C   UNL     1      45.666  29.990   0.750  1.00  0.00     0.008 C 
BRANCH  13  14
ATOM     14  C   UNL     1      46.748  29.177   0.025  1.00  0.00    -0.003 C 
ATOM     15  C   UNL     1      48.125  29.838   0.085  1.00  0.00     0.004 C 
ENDBRANCH  13  14
ENDBRANCH   1  13
TORSDOF 4
ENDMDL
MODEL 6
REMARK VINA RESULT:    -5.430      2.479      3.445
REMARK INTER + INTRA:          -6.823
REMARK INTER:                  -6.633
REMARK INTRA:                  -0.191
REMARK UNBOUND:                -0.282
REMARK SMILES CCCCc1oc(O)c2ccccc12
REMARK SMILES IDX 4 1 5 2 7 3 6 4 9 5 14 6 10 7 13 8 11 9 12 10 8 11 3 13 2 14
REMARK SMILES IDX 1 15
REMARK H PARENT 8 12
REMARK Flexibility Score: inf
ROOT
ATOM      1  C   UNL     1      44.298  31.116   4.089  1.00  0.00     0.076 C 
ENDROOT
BRANCH   1   2
ATOM      2  C   UNL     1      44.787  32.501   3.800  1.00  0.00     0.116 A 
ATOM      3  C   UNL     1      44.823  34.643   3.702  1.00  0.00     0.290 A 
ATOM      4  O   UNL     1      44.130  33.601   4.121  1.00  0.00    -0.430 OA
ATOM      5  C   UNL     1      45.974  34.217   3.081  1.00  0.00     0.066 A 
ATOM      6  C   UNL     1      45.954  32.849   3.139  1.00  0.00     0.027 A 
ATOM      7  C   UNL     1      47.014  34.917   2.473  1.00  0.00     0.016 A 
ATOM      8  C   UNL     1      46.977  32.078   2.587  1.00  0.00     0.012 A 
ATOM      9  C   UNL     1      48.063  34.167   1.910  1.00  0.00     0.001 A 
ATOM     10  C   UNL     1      48.043  32.753   1.966  1.00  0.00     0.001 A 
BRANCH   3  11
ATOM     11  O   UNL     1      44.431  35.966   3.870  1.00  0.00    -0.480 OA
ATOM     12  H   UNL     1      44.948  36.714   3.427  1.00  0.00     0.297 HD
ENDBRANCH   3  11
ENDBRANCH   1   2
BRANCH   1  13
ATOM     13  C   UNL     1      42.819  30.979   3.705  1.00  0.00     0.008 C 
BRANCH  13  14
ATOM     14  C   UNL     1      42.379  29.515   3.568  1.00  0.00    -0.003 C 
ATOM     15  C   UNL     1      40.903  29.373   3.200  1.00  0.00     0.004 C 
ENDBRANCH  13  14
ENDBRANCH   1  13
TORSDOF 4
ENDMDL
MODEL 7
REMARK VINA RESULT:    -5.430      1.560      4.463
REMARK INTER + INTRA:          -6.822
REMARK INTER:                  -6.595
REMARK INTRA:                  -0.227
REMARK UNBOUND:                -0.282
REMARK SMILES CCCCc1oc(O)c2ccccc12
REMARK SMILES IDX 4 1 5 2 7 3 6 4 9 5 14 6 10 7 13 8 11 9 12 10 8 11 3 13 2 14
REMARK SMILES IDX 1 15
REMARK H PARENT 8 12
REMARK Flexibility Score: inf
ROOT
ATOM      1  C   UNL     1      46.724  34.395   1.555  1.00  0.00     0.076 C 
ENDROOT
BRANCH   1   2
ATOM      2  C   UNL     1      45.990  33.187   2.051  1.00  0.00     0.116 A 
ATOM      3  C   UNL     1      44.386  31.968   2.785  1.00  0.00     0.290 A 
ATOM      4  O   UNL     1      44.705  33.176   2.360  1.00  0.00    -0.430 OA
ATOM      5  C   UNL     1      45.496  31.157   2.759  1.00  0.00     0.066 A 
ATOM      6  C   UNL     1      46.524  31.933   2.293  1.00  0.00     0.027 A 
ATOM      7  C   UNL     1      45.678  29.822   3.112  1.00  0.00     0.016 A 
ATOM      8  C   UNL     1      47.815  31.427   2.148  1.00  0.00     0.012 A 
ATOM      9  C   UNL     1      46.970  29.281   2.973  1.00  0.00     0.001 A 
ATOM     10  C   UNL     1      48.034  30.081   2.495  1.00  0.00     0.001 A 
BRANCH   3  11
ATOM     11  O   UNL     1      43.112  31.592   3.195  1.00  0.00    -0.480 OA
ATOM     12  H   UNL     1      42.678  32.038   3.993  1.00  0.00     0.297 HD
ENDBRANCH   3  11
ENDBRANCH   1   2
BRANCH   1  13
ATOM     13  C   UNL     1      47.712  34.894   2.618  1.00  0.00     0.008 C 
BRANCH  13  14
ATOM     14  C   UNL     1      47.027  35.722   3.715  1.00  0.00    -0.003 C 
ATOM     15  C   UNL     1      45.750  36.407   3.229  1.00  0.00     0.004 C 
ENDBRANCH  13  14
ENDBRANCH   1  13
TORSDOF 4
ENDMDL
MODEL 8
REMARK VINA RESULT:    -5.301      1.503      4.611
REMARK INTER + INTRA:          -6.668
REMARK INTER:                  -6.221
REMARK INTRA:                  -0.447
REMARK UNBOUND:                -0.282
REMARK SMILES CCCCc1oc(O)c2ccccc12
REMARK SMILES IDX 4 1 5 2 7 3 6 4 9 5 14 6 10 7 13 8 11 9 12 10 8 11 3 13 2 14
REMARK SMILES IDX 1 15
REMARK H PARENT 8 12
REMARK Flexibility Score: inf
ROOT
ATOM      1  C   UNL     1      45.160  34.205   4.125  1.00  0.00     0.076 C 
ENDROOT
BRANCH   1   2
ATOM      2  C   UNL     1      45.089  32.843   3.505  1.00  0.00     0.116 A 
ATOM      3  C   UNL     1      44.356  30.886   3.028  1.00  0.00     0.290 A 
ATOM      4  O   UNL     1      44.093  31.996   3.691  1.00  0.00    -0.430 OA
ATOM      5  C   UNL     1      45.567  31.003   2.386  1.00  0.00     0.066 A 
ATOM      6  C   UNL     1      46.040  32.251   2.690  1.00  0.00     0.027 A 
ATOM      7  C   UNL     1      46.279  30.119   1.579  1.00  0.00     0.016 A 
ATOM      8  C   UNL     1      47.267  32.707   2.209  1.00  0.00     0.012 A 
ATOM      9  C   UNL     1      47.519  30.550   1.075  1.00  0.00     0.001 A 
ATOM     10  C   UNL     1      48.012  31.838   1.390  1.00  0.00     0.001 A 
BRANCH   3  11
ATOM     11  O   UNL     1      43.523  29.774   2.997  1.00  0.00    -0.480 OA
ATOM     12  H   UNL     1      43.478  29.144   3.787  1.00  0.00     0.297 HD
ENDBRANCH   3  11
ENDBRANCH   1   2
BRANCH   1  13
ATOM     13  C   UNL     1      44.994  35.290   3.053  1.00  0.00     0.008 C 
BRANCH  13  14
ATOM     14  C   UNL     1      46.116  36.337   3.096  1.00  0.00    -0.003 C 
ATOM     15  C   UNL     1      47.196  36.005   4.125  1.00  0.00     0.004 C 
ENDBRANCH  13  14
ENDBRANCH   1  13
TORSDOF 4
ENDMDL
MODEL 9
REMARK VINA RESULT:    -5.107      7.892      9.318
REMARK INTER + INTRA:          -6.434
REMARK INTER:                  -6.002
REMARK INTRA:                  -0.433
REMARK UNBOUND:                -0.282
REMARK SMILES CCCCc1oc(O)c2ccccc12
REMARK SMILES IDX 4 1 5 2 7 3 6 4 9 5 14 6 10 7 13 8 11 9 12 10 8 11 3 13 2 14
REMARK SMILES IDX 1 15
REMARK H PARENT 8 12
REMARK Flexibility Score: inf
ROOT
ATOM      1  C   UNL     1      41.784  26.367   3.149  1.00  0.00     0.076 C 
ENDROOT
BRANCH   1   2
ATOM      2  C   UNL     1      40.286  26.351   3.113  1.00  0.00     0.116 A 
ATOM      3  C   UNL     1      38.288  25.622   2.844  1.00  0.00     0.290 A 
ATOM      4  O   UNL     1      39.564  25.288   2.809  1.00  0.00    -0.430 OA
ATOM      5  C   UNL     1      38.164  26.950   3.180  1.00  0.00     0.066 A 
ATOM      6  C   UNL     1      39.438  27.420   3.350  1.00  0.00     0.027 A 
ATOM      7  C   UNL     1      37.047  27.767   3.338  1.00  0.00     0.016 A 
ATOM      8  C   UNL     1      39.689  28.750   3.688  1.00  0.00     0.012 A 
ATOM      9  C   UNL     1      37.267  29.114   3.683  1.00  0.00     0.001 A 
ATOM     10  C   UNL     1      38.583  29.603   3.856  1.00  0.00     0.001 A 
BRANCH   3  11
ATOM     11  O   UNL     1      37.239  24.749   2.578  1.00  0.00    -0.480 OA
ATOM     12  H   UNL     1      36.298  25.099   2.459  1.00  0.00     0.297 HD
ENDBRANCH   3  11
ENDBRANCH   1   2
BRANCH   1  13
ATOM     13  C   UNL     1      42.342  27.031   1.883  1.00  0.00     0.008 C 
BRANCH  13  14
ATOM     14  C   UNL     1      43.577  27.897   2.169  1.00  0.00    -0.003 C 
ATOM     15  C   UNL     1      43.297  29.013   3.175  1.00  0.00     0.004 C 
ENDBRANCH  13  14
ENDBRANCH   1  13
TORSDOF 4
ENDMDL
