MODEL 1
REMARK VINA RESULT:    -5.500      0.000      0.000
REMARK INTER + INTRA:          -6.384
REMARK INTER:                  -6.143
REMARK INTRA:                  -0.241
REMARK UNBOUND:                -0.241
REMARK SMILES COc1cc(C)ccc1C(C)C
REMARK SMILES IDX 6 1 5 2 4 3 3 4 9 5 8 6 7 7 2 8 1 9 10 10 11 11 12 12
REMARK H PARENT
REMARK Flexibility Score: inf
ROOT
ATOM      1  C   UNL     1      17.932   7.043 -23.842  1.00  0.00     0.044 C 
ATOM      2  C   UNL     1      18.564   8.234 -24.501  1.00  0.00    -0.047 A 
ATOM      3  C   UNL     1      19.927   8.501 -24.316  1.00  0.00     0.050 A 
ATOM      4  C   UNL     1      20.526   9.637 -24.900  1.00  0.00     0.122 A 
ATOM      5  C   UNL     1      19.734  10.521 -25.670  1.00  0.00    -0.003 A 
ATOM      6  C   UNL     1      18.361  10.250 -25.829  1.00  0.00     0.008 A 
ATOM      7  C   UNL     1      17.783   9.123 -25.246  1.00  0.00     0.004 A 
ENDROOT
BRANCH   4   8
ATOM      8  O   UNL     1      21.894   9.910 -24.730  1.00  0.00    -0.496 OA
ATOM      9  C   UNL     1      22.943   9.311 -25.483  1.00  0.00     0.278 C 
ENDBRANCH   4   8
BRANCH   5  10
ATOM     10  C   UNL     1      20.342  11.759 -26.317  1.00  0.00     0.017 C 
ATOM     11  C   UNL     1      20.100  13.005 -25.459  1.00  0.00     0.012 C 
ATOM     12  C   UNL     1      19.810  11.957 -27.742  1.00  0.00     0.012 C 
ENDBRANCH   5  10
TORSDOF 2
ENDMDL
MODEL 2
REMARK VINA RESULT:    -4.962      1.671      3.037
REMARK INTER + INTRA:          -5.784
REMARK INTER:                  -5.543
REMARK INTRA:                  -0.240
REMARK UNBOUND:                -0.241
REMARK SMILES COc1cc(C)ccc1C(C)C
REMARK SMILES IDX 6 1 5 2 4 3 3 4 9 5 8 6 7 7 2 8 1 9 10 10 11 11 12 12
REMARK H PARENT
REMARK Flexibility Score: inf
ROOT
ATOM      1  C   UNL     1      18.135   6.875 -23.819  1.00  0.00     0.044 C 
ATOM      2  C   UNL     1      18.652   8.129 -24.459  1.00  0.00    -0.047 A 
ATOM      3  C   UNL     1      17.833   8.871 -25.320  1.00  0.00     0.050 A 
ATOM      4  C   UNL     1      18.318  10.032 -25.957  1.00  0.00     0.122 A 
ATOM      5  C   UNL     1      19.652  10.442 -25.731  1.00  0.00    -0.003 A 
ATOM      6  C   UNL     1      20.470   9.675 -24.879  1.00  0.00     0.008 A 
ATOM      7  C   UNL     1      19.977   8.528 -24.256  1.00  0.00     0.004 A 
ENDROOT
BRANCH   4   8
ATOM      8  O   UNL     1      17.502  10.789 -26.816  1.00  0.00    -0.496 OA
ATOM      9  C   UNL     1      16.193  10.415 -27.233  1.00  0.00     0.278 C 
ENDBRANCH   4   8
BRANCH   5  10
ATOM     10  C   UNL     1      20.215  11.690 -26.400  1.00  0.00     0.017 C 
ATOM     11  C   UNL     1      21.669  11.475 -26.835  1.00  0.00     0.012 C 
ATOM     12  C   UNL     1      20.089  12.914 -25.485  1.00  0.00     0.012 C 
ENDBRANCH   5  10
TORSDOF 2
ENDMDL
MODEL 3
REMARK VINA RESULT:    -4.603     13.971     15.650
REMARK INTER + INTRA:          -5.382
REMARK INTER:                  -5.145
REMARK INTRA:                  -0.237
REMARK UNBOUND:                -0.241
REMARK SMILES COc1cc(C)ccc1C(C)C
REMARK SMILES IDX 6 1 5 2 4 3 3 4 9 5 8 6 7 7 2 8 1 9 10 10 11 11 12 12
REMARK H PARENT
REMARK Flexibility Score: inf
ROOT
ATOM      1  C   UNL     1       8.860  22.752 -22.142  1.00  0.00     0.044 C 
ATOM      2  C   UNL     1       9.185  21.419 -21.535  1.00  0.00    -0.047 A 
ATOM      3  C   UNL     1       8.225  20.398 -21.519  1.00  0.00     0.050 A 
ATOM      4  C   UNL     1       8.506  19.152 -20.920  1.00  0.00     0.122 A 
ATOM      5  C   UNL     1       9.768  18.939 -20.318  1.00  0.00    -0.003 A 
ATOM      6  C   UNL     1      10.715  19.982 -20.324  1.00  0.00     0.008 A 
ATOM      7  C   UNL     1      10.424  21.209 -20.920  1.00  0.00     0.004 A 
ENDROOT
BRANCH   4   8
ATOM      8  O   UNL     1       7.554  18.118 -20.905  1.00  0.00    -0.496 OA
ATOM      9  C   UNL     1       6.152  18.305 -20.736  1.00  0.00     0.278 C 
ENDBRANCH   4   8
BRANCH   5  10
ATOM     10  C   UNL     1      10.110  17.609 -19.660  1.00  0.00     0.017 C 
ATOM     11  C   UNL     1       9.660  17.586 -18.195  1.00  0.00     0.012 C 
ATOM     12  C   UNL     1      11.607  17.299 -19.782  1.00  0.00     0.012 C 
ENDBRANCH   5  10
TORSDOF 2
ENDMDL
MODEL 4
REMARK VINA RESULT:    -4.533      1.877      4.512
REMARK INTER + INTRA:          -5.304
REMARK INTER:                  -5.065
REMARK INTRA:                  -0.239
REMARK UNBOUND:                -0.241
REMARK SMILES COc1cc(C)ccc1C(C)C
REMARK SMILES IDX 6 1 5 2 4 3 3 4 9 5 8 6 7 7 2 8 1 9 10 10 11 11 12 12
REMARK H PARENT
REMARK Flexibility Score: inf
ROOT
ATOM      1  C   UNL     1      22.292  11.183 -25.323  1.00  0.00     0.044 C 
ATOM      2  C   UNL     1      21.017  10.393 -25.291  1.00  0.00    -0.047 A 
ATOM      3  C   UNL     1      19.882  10.858 -25.969  1.00  0.00     0.050 A 
ATOM      4  C   UNL     1      18.667  10.143 -25.918  1.00  0.00     0.122 A 
ATOM      5  C   UNL     1      18.594   8.950 -25.162  1.00  0.00    -0.003 A 
ATOM      6  C   UNL     1      19.738   8.506 -24.470  1.00  0.00     0.008 A 
ATOM      7  C   UNL     1      20.932   9.223 -24.529  1.00  0.00     0.004 A 
ENDROOT
BRANCH   4   8
ATOM      8  O   UNL     1      17.525  10.596 -26.601  1.00  0.00    -0.496 OA
ATOM      9  C   UNL     1      17.426  10.739 -28.014  1.00  0.00     0.278 C 
ENDBRANCH   4   8
BRANCH   5  10
ATOM     10  C   UNL     1      17.301   8.149 -25.081  1.00  0.00     0.017 C 
ATOM     11  C   UNL     1      17.240   7.329 -23.788  1.00  0.00     0.012 C 
ATOM     12  C   UNL     1      17.127   7.252 -26.312  1.00  0.00     0.012 C 
ENDBRANCH   5  10
TORSDOF 2
ENDMDL
MODEL 5
REMARK VINA RESULT:    -4.528     17.154     18.876
REMARK INTER + INTRA:          -5.299
REMARK INTER:                  -5.037
REMARK INTRA:                  -0.262
REMARK UNBOUND:                -0.241
REMARK SMILES COc1cc(C)ccc1C(C)C
REMARK SMILES IDX 6 1 5 2 4 3 3 4 9 5 8 6 7 7 2 8 1 9 10 10 11 11 12 12
REMARK H PARENT
REMARK Flexibility Score: inf
ROOT
ATOM      1  C   UNL     1       4.730  25.777 -21.406  1.00  0.00     0.044 C 
ATOM      2  C   UNL     1       5.776  24.796 -21.847  1.00  0.00    -0.047 A 
ATOM      3  C   UNL     1       5.407  23.504 -22.247  1.00  0.00     0.050 A 
ATOM      4  C   UNL     1       6.383  22.560 -22.630  1.00  0.00     0.122 A 
ATOM      5  C   UNL     1       7.750  22.922 -22.596  1.00  0.00    -0.003 A 
ATOM      6  C   UNL     1       8.107  24.217 -22.172  1.00  0.00     0.008 A 
ATOM      7  C   UNL     1       7.131  25.140 -21.796  1.00  0.00     0.004 A 
ENDROOT
BRANCH   4   8
ATOM      8  O   UNL     1       6.025  21.265 -23.041  1.00  0.00    -0.496 OA
ATOM      9  C   UNL     1       5.530  20.245 -22.178  1.00  0.00     0.278 C 
ENDBRANCH   4   8
BRANCH   5  10
ATOM     10  C   UNL     1       8.835  21.932 -23.001  1.00  0.00     0.017 C 
ATOM     11  C   UNL     1       9.714  21.556 -21.803  1.00  0.00     0.012 C 
ATOM     12  C   UNL     1       9.682  22.480 -24.156  1.00  0.00     0.012 C 
ENDBRANCH   5  10
TORSDOF 2
ENDMDL
MODEL 6
REMARK VINA RESULT:    -4.478     10.619     11.750
REMARK INTER + INTRA:          -5.242
REMARK INTER:                  -5.001
REMARK INTRA:                  -0.241
REMARK UNBOUND:                -0.241
REMARK SMILES COc1cc(C)ccc1C(C)C
REMARK SMILES IDX 6 1 5 2 4 3 3 4 9 5 8 6 7 7 2 8 1 9 10 10 11 11 12 12
REMARK H PARENT
REMARK Flexibility Score: inf
ROOT
ATOM      1  C   UNL     1       9.655  17.535 -18.518  1.00  0.00     0.044 C 
ATOM      2  C   UNL     1      10.477  17.459 -19.771  1.00  0.00    -0.047 A 
ATOM      3  C   UNL     1      11.861  17.670 -19.721  1.00  0.00     0.050 A 
ATOM      4  C   UNL     1      12.640  17.637 -20.896  1.00  0.00     0.122 A 
ATOM      5  C   UNL     1      12.010  17.401 -22.140  1.00  0.00    -0.003 A 
ATOM      6  C   UNL     1      10.615  17.212 -22.178  1.00  0.00     0.008 A 
ATOM      7  C   UNL     1       9.857  17.247 -21.007  1.00  0.00     0.004 A 
ENDROOT
BRANCH   4   8
ATOM      8  O   UNL     1      14.031  17.837 -20.857  1.00  0.00    -0.496 OA
ATOM      9  C   UNL     1      14.818  17.842 -19.670  1.00  0.00     0.278 C 
ENDBRANCH   4   8
BRANCH   5  10
ATOM     10  C   UNL     1      12.815  17.359 -23.433  1.00  0.00     0.017 C 
ATOM     11  C   UNL     1      12.178  18.245 -24.509  1.00  0.00     0.012 C 
ATOM     12  C   UNL     1      12.984  15.919 -23.934  1.00  0.00     0.012 C 
ENDBRANCH   5  10
TORSDOF 2
ENDMDL
MODEL 7
REMARK VINA RESULT:    -4.471     11.816     13.263
REMARK INTER + INTRA:          -5.235
REMARK INTER:                  -4.994
REMARK INTRA:                  -0.241
REMARK UNBOUND:                -0.241
REMARK SMILES COc1cc(C)ccc1C(C)C
REMARK SMILES IDX 6 1 5 2 4 3 3 4 9 5 8 6 7 7 2 8 1 9 10 10 11 11 12 12
REMARK H PARENT
REMARK Flexibility Score: inf
ROOT
ATOM      1  C   UNL     1      14.823  18.070 -20.051  1.00  0.00     0.044 C 
ATOM      2  C   UNL     1      13.359  17.877 -20.316  1.00  0.00    -0.047 A 
ATOM      3  C   UNL     1      12.445  17.859 -19.253  1.00  0.00     0.050 A 
ATOM      4  C   UNL     1      11.071  17.642 -19.485  1.00  0.00     0.122 A 
ATOM      5  C   UNL     1      10.615  17.429 -20.807  1.00  0.00    -0.003 A 
ATOM      6  C   UNL     1      11.547  17.429 -21.863  1.00  0.00     0.008 A 
ATOM      7  C   UNL     1      12.904  17.645 -21.618  1.00  0.00     0.004 A 
ENDROOT
BRANCH   4   8
ATOM      8  O   UNL     1      10.145  17.631 -18.428  1.00  0.00    -0.496 OA
ATOM      9  C   UNL     1      10.070  18.615 -17.402  1.00  0.00     0.278 C 
ENDBRANCH   4   8
BRANCH   5  10
ATOM     10  C   UNL     1       9.139  17.191 -21.100  1.00  0.00     0.017 C 
ATOM     11  C   UNL     1       8.958  16.312 -22.343  1.00  0.00     0.012 C 
ATOM     12  C   UNL     1       8.382  18.517 -21.247  1.00  0.00     0.012 C 
ENDBRANCH   5  10
TORSDOF 2
ENDMDL
MODEL 8
REMARK VINA RESULT:    -4.470     11.070     12.412
REMARK INTER + INTRA:          -5.234
REMARK INTER:                  -4.994
REMARK INTRA:                  -0.241
REMARK UNBOUND:                -0.241
REMARK SMILES COc1cc(C)ccc1C(C)C
REMARK SMILES IDX 6 1 5 2 4 3 3 4 9 5 8 6 7 7 2 8 1 9 10 10 11 11 12 12
REMARK H PARENT
REMARK Flexibility Score: inf
ROOT
ATOM      1  C   UNL     1      12.392  16.393 -24.349  1.00  0.00     0.044 C 
ATOM      2  C   UNL     1      12.002  16.935 -23.006  1.00  0.00    -0.047 A 
ATOM      3  C   UNL     1      12.977  17.464 -22.149  1.00  0.00     0.050 A 
ATOM      4  C   UNL     1      12.629  17.944 -20.869  1.00  0.00     0.122 A 
ATOM      5  C   UNL     1      11.282  17.877 -20.444  1.00  0.00    -0.003 A 
ATOM      6  C   UNL     1      10.317  17.324 -21.309  1.00  0.00     0.008 A 
ATOM      7  C   UNL     1      10.675  16.853 -22.572  1.00  0.00     0.004 A 
ENDROOT
BRANCH   4   8
ATOM      8  O   UNL     1      13.596  18.484 -20.004  1.00  0.00    -0.496 OA
ATOM      9  C   UNL     1      14.979  18.142 -20.014  1.00  0.00     0.278 C 
ENDBRANCH   4   8
BRANCH   5  10
ATOM     10  C   UNL     1      10.865  18.384 -19.070  1.00  0.00     0.017 C 
ATOM     11  C   UNL     1       9.758  17.509 -18.471  1.00  0.00     0.012 C 
ATOM     12  C   UNL     1      10.435  19.855 -19.128  1.00  0.00     0.012 C 
ENDBRANCH   5  10
TORSDOF 2
ENDMDL
