MODEL 1
REMARK VINA RESULT:    -7.052      0.000      0.000
REMARK INTER + INTRA:          -7.052
REMARK INTER:                  -7.052
REMARK INTRA:                   0.000
REMARK UNBOUND:                 0.000
REMARK SMILES Cc1cccc2ccccc12
REMARK SMILES IDX 1 1 2 2 3 3 4 4 5 5 6 6 7 7 8 8 9 9 10 10 11 11
REMARK H PARENT
REMARK Flexibility Score: inf
ROOT
ATOM      1  C   UNL     1      52.115  59.334  73.884  1.00  0.00     0.045 C 
ATOM      2  C   UNL     1      51.907  59.581  75.357  1.00  0.00    -0.043 A 
ATOM      3  C   UNL     1      52.997  60.014  76.132  1.00  0.00     0.004 A 
ATOM      4  C   UNL     1      52.850  60.254  77.499  1.00  0.00     0.001 A 
ATOM      5  C   UNL     1      51.615  60.067  78.118  1.00  0.00     0.009 A 
ATOM      6  C   UNL     1      50.510  59.634  77.372  1.00  0.00    -0.018 A 
ATOM      7  C   UNL     1      49.270  59.447  78.002  1.00  0.00     0.009 A 
ATOM      8  C   UNL     1      48.165  59.018  77.266  1.00  0.00     0.001 A 
ATOM      9  C   UNL     1      48.286  58.771  75.898  1.00  0.00     0.001 A 
ATOM     10  C   UNL     1      49.514  58.952  75.255  1.00  0.00     0.009 A 
ATOM     11  C   UNL     1      50.646  59.386  75.980  1.00  0.00    -0.015 A 
ENDROOT
TORSDOF 0
ENDMDL
MODEL 2
REMARK VINA RESULT:    -7.016      0.797      2.559
REMARK INTER + INTRA:          -7.016
REMARK INTER:                  -7.016
REMARK INTRA:                   0.000
REMARK UNBOUND:                 0.000
REMARK SMILES Cc1cccc2ccccc12
REMARK SMILES IDX 1 1 2 2 3 3 4 4 5 5 6 6 7 7 8 8 9 9 10 10 11 11
REMARK H PARENT
REMARK Flexibility Score: inf
ROOT
ATOM      1  C   UNL     1      52.670  60.199  77.987  1.00  0.00     0.045 C 
ATOM      2  C   UNL     1      51.957  59.818  76.715  1.00  0.00    -0.043 A 
ATOM      3  C   UNL     1      52.686  59.780  75.514  1.00  0.00     0.004 A 
ATOM      4  C   UNL     1      52.067  59.432  74.313  1.00  0.00     0.001 A 
ATOM      5  C   UNL     1      50.710  59.117  74.287  1.00  0.00     0.009 A 
ATOM      6  C   UNL     1      49.955  59.146  75.467  1.00  0.00    -0.018 A 
ATOM      7  C   UNL     1      48.589  58.827  75.434  1.00  0.00     0.009 A 
ATOM      8  C   UNL     1      47.831  58.854  76.605  1.00  0.00     0.001 A 
ATOM      9  C   UNL     1      48.428  59.198  77.818  1.00  0.00     0.001 A 
ATOM     10  C   UNL     1      49.787  59.518  77.870  1.00  0.00     0.009 A 
ATOM     11  C   UNL     1      50.573  59.498  76.697  1.00  0.00    -0.015 A 
ENDROOT
TORSDOF 0
ENDMDL
MODEL 3
REMARK VINA RESULT:    -6.853      0.697      3.422
REMARK INTER + INTRA:          -6.853
REMARK INTER:                  -6.853
REMARK INTRA:                   0.000
REMARK UNBOUND:                 0.000
REMARK SMILES Cc1cccc2ccccc12
REMARK SMILES IDX 1 1 2 2 3 3 4 4 5 5 6 6 7 7 8 8 9 9 10 10 11 11
REMARK H PARENT
REMARK Flexibility Score: inf
ROOT
ATOM      1  C   UNL     1      48.807  58.547  74.322  1.00  0.00     0.045 C 
ATOM      2  C   UNL     1      49.172  58.941  75.731  1.00  0.00    -0.043 A 
ATOM      3  C   UNL     1      48.175  58.914  76.722  1.00  0.00     0.004 A 
ATOM      4  C   UNL     1      48.467  59.271  78.039  1.00  0.00     0.001 A 
ATOM      5  C   UNL     1      49.758  59.661  78.392  1.00  0.00     0.009 A 
ATOM      6  C   UNL     1      50.773  59.699  77.427  1.00  0.00    -0.018 A 
ATOM      7  C   UNL     1      52.070  60.093  77.789  1.00  0.00     0.009 A 
ATOM      8  C   UNL     1      53.087  60.132  76.834  1.00  0.00     0.001 A 
ATOM      9  C   UNL     1      52.819  59.780  75.511  1.00  0.00     0.001 A 
ATOM     10  C   UNL     1      51.533  59.385  75.133  1.00  0.00     0.009 A 
ATOM     11  C   UNL     1      50.489  59.338  76.082  1.00  0.00    -0.015 A 
ENDROOT
TORSDOF 0
ENDMDL
MODEL 4
REMARK VINA RESULT:    -6.842      0.898      4.107
REMARK INTER + INTRA:          -6.842
REMARK INTER:                  -6.842
REMARK INTRA:                   0.000
REMARK UNBOUND:                 0.000
REMARK SMILES Cc1cccc2ccccc12
REMARK SMILES IDX 1 1 2 2 3 3 4 4 5 5 6 6 7 7 8 8 9 9 10 10 11 11
REMARK H PARENT
REMARK Flexibility Score: inf
ROOT
ATOM      1  C   UNL     1      48.038  59.019  77.742  1.00  0.00     0.045 C 
ATOM      2  C   UNL     1      48.976  59.017  76.561  1.00  0.00    -0.043 A 
ATOM      3  C   UNL     1      48.490  58.599  75.310  1.00  0.00     0.004 A 
ATOM      4  C   UNL     1      49.322  58.581  74.190  1.00  0.00     0.001 A 
ATOM      5  C   UNL     1      50.654  58.979  74.297  1.00  0.00     0.009 A 
ATOM      6  C   UNL     1      51.168  59.400  75.530  1.00  0.00    -0.018 A 
ATOM      7  C   UNL     1      52.510  59.800  75.631  1.00  0.00     0.009 A 
ATOM      8  C   UNL     1      53.029  60.222  76.855  1.00  0.00     0.001 A 
ATOM      9  C   UNL     1      52.216  60.248  77.989  1.00  0.00     0.001 A 
ATOM     10  C   UNL     1      50.878  59.854  77.907  1.00  0.00     0.009 A 
ATOM     11  C   UNL     1      50.331  59.424  76.679  1.00  0.00    -0.015 A 
ENDROOT
TORSDOF 0
ENDMDL
MODEL 5
REMARK VINA RESULT:    -6.559     12.014     13.356
REMARK INTER + INTRA:          -6.559
REMARK INTER:                  -6.559
REMARK INTRA:                   0.000
REMARK UNBOUND:                 0.000
REMARK SMILES Cc1cccc2ccccc12
REMARK SMILES IDX 1 1 2 2 3 3 4 4 5 5 6 6 7 7 8 8 9 9 10 10 11 11
REMARK H PARENT
REMARK Flexibility Score: inf
ROOT
ATOM      1  C   UNL     1      45.790  51.557  87.945  1.00  0.00     0.045 C 
ATOM      2  C   UNL     1      45.359  51.990  86.567  1.00  0.00    -0.043 A 
ATOM      3  C   UNL     1      45.779  51.235  85.457  1.00  0.00     0.004 A 
ATOM      4  C   UNL     1      45.404  51.599  84.164  1.00  0.00     0.001 A 
ATOM      5  C   UNL     1      44.604  52.721  83.952  1.00  0.00     0.009 A 
ATOM      6  C   UNL     1      44.170  53.493  85.037  1.00  0.00    -0.018 A 
ATOM      7  C   UNL     1      43.364  54.621  84.817  1.00  0.00     0.009 A 
ATOM      8  C   UNL     1      42.928  55.396  85.893  1.00  0.00     0.001 A 
ATOM      9  C   UNL     1      43.290  55.053  87.196  1.00  0.00     0.001 A 
ATOM     10  C   UNL     1      44.091  53.932  87.433  1.00  0.00     0.009 A 
ATOM     11  C   UNL     1      44.544  53.134  86.360  1.00  0.00    -0.015 A 
ENDROOT
TORSDOF 0
ENDMDL
MODEL 6
REMARK VINA RESULT:    -6.492      0.950      2.799
REMARK INTER + INTRA:          -6.492
REMARK INTER:                  -6.492
REMARK INTRA:                   0.000
REMARK UNBOUND:                 0.000
REMARK SMILES Cc1cccc2ccccc12
REMARK SMILES IDX 1 1 2 2 3 3 4 4 5 5 6 6 7 7 8 8 9 9 10 10 11 11
REMARK H PARENT
REMARK Flexibility Score: inf
ROOT
ATOM      1  C   UNL     1      49.972  59.742  79.206  1.00  0.00     0.045 C 
ATOM      2  C   UNL     1      50.814  59.740  77.955  1.00  0.00    -0.043 A 
ATOM      3  C   UNL     1      52.161  60.134  78.044  1.00  0.00     0.004 A 
ATOM      4  C   UNL     1      52.977  60.148  76.913  1.00  0.00     0.001 A 
ATOM      5  C   UNL     1      52.467  59.770  75.672  1.00  0.00     0.009 A 
ATOM      6  C   UNL     1      51.128  59.373  75.551  1.00  0.00    -0.018 A 
ATOM      7  C   UNL     1      50.621  58.993  74.299  1.00  0.00     0.009 A 
ATOM      8  C   UNL     1      49.289  58.596  74.169  1.00  0.00     0.001 A 
ATOM      9  C   UNL     1      48.453  58.575  75.286  1.00  0.00     0.001 A 
ATOM     10  C   UNL     1      48.942  58.949  76.541  1.00  0.00     0.009 A 
ATOM     11  C   UNL     1      50.286  59.354  76.695  1.00  0.00    -0.015 A 
ENDROOT
TORSDOF 0
ENDMDL
MODEL 7
REMARK VINA RESULT:    -6.446     11.939     13.127
REMARK INTER + INTRA:          -6.446
REMARK INTER:                  -6.446
REMARK INTRA:                   0.000
REMARK UNBOUND:                 0.000
REMARK SMILES Cc1cccc2ccccc12
REMARK SMILES IDX 1 1 2 2 3 3 4 4 5 5 6 6 7 7 8 8 9 9 10 10 11 11
REMARK H PARENT
REMARK Flexibility Score: inf
ROOT
ATOM      1  C   UNL     1      45.302  51.872  83.590  1.00  0.00     0.045 C 
ATOM      2  C   UNL     1      45.120  52.207  85.049  1.00  0.00    -0.043 A 
ATOM      3  C   UNL     1      45.715  51.375  86.014  1.00  0.00     0.004 A 
ATOM      4  C   UNL     1      45.572  51.647  87.375  1.00  0.00     0.001 A 
ATOM      5  C   UNL     1      44.835  52.751  87.799  1.00  0.00     0.009 A 
ATOM      6  C   UNL     1      44.230  53.598  86.861  1.00  0.00    -0.018 A 
ATOM      7  C   UNL     1      43.490  54.709  87.295  1.00  0.00     0.009 A 
ATOM      8  C   UNL     1      42.885  55.558  86.368  1.00  0.00     0.001 A 
ATOM      9  C   UNL     1      43.013  55.307  85.001  1.00  0.00     0.001 A 
ATOM     10  C   UNL     1      43.747  54.206  84.551  1.00  0.00     0.009 A 
ATOM     11  C   UNL     1      44.367  53.334  85.472  1.00  0.00    -0.015 A 
ENDROOT
TORSDOF 0
ENDMDL
MODEL 8
REMARK VINA RESULT:    -6.233      5.744      6.923
REMARK INTER + INTRA:          -6.233
REMARK INTER:                  -6.233
REMARK INTRA:                   0.000
REMARK UNBOUND:                 0.000
REMARK SMILES Cc1cccc2ccccc12
REMARK SMILES IDX 1 1 2 2 3 3 4 4 5 5 6 6 7 7 8 8 9 9 10 10 11 11
REMARK H PARENT
REMARK Flexibility Score: inf
ROOT
ATOM      1  C   UNL     1      52.439  53.322  77.275  1.00  0.00     0.045 C 
ATOM      2  C   UNL     1      51.047  53.103  76.739  1.00  0.00    -0.043 A 
ATOM      3  C   UNL     1      50.161  52.288  77.466  1.00  0.00     0.004 A 
ATOM      4  C   UNL     1      48.864  52.057  77.008  1.00  0.00     0.001 A 
ATOM      5  C   UNL     1      48.426  52.633  75.817  1.00  0.00     0.009 A 
ATOM      6  C   UNL     1      49.285  53.449  75.069  1.00  0.00    -0.018 A 
ATOM      7  C   UNL     1      48.837  54.026  73.871  1.00  0.00     0.009 A 
ATOM      8  C   UNL     1      49.686  54.840  73.120  1.00  0.00     0.001 A 
ATOM      9  C   UNL     1      50.988  55.086  73.558  1.00  0.00     0.001 A 
ATOM     10  C   UNL     1      51.450  54.520  74.749  1.00  0.00     0.009 A 
ATOM     11  C   UNL     1      50.609  53.693  75.524  1.00  0.00    -0.015 A 
ENDROOT
TORSDOF 0
ENDMDL
MODEL 9
REMARK VINA RESULT:    -6.152      5.752      7.180
REMARK INTER + INTRA:          -6.152
REMARK INTER:                  -6.152
REMARK INTRA:                   0.000
REMARK UNBOUND:                 0.000
REMARK SMILES Cc1cccc2ccccc12
REMARK SMILES IDX 1 1 2 2 3 3 4 4 5 5 6 6 7 7 8 8 9 9 10 10 11 11
REMARK H PARENT
REMARK Flexibility Score: inf
ROOT
ATOM      1  C   UNL     1      48.825  52.141  77.178  1.00  0.00     0.045 C 
ATOM      2  C   UNL     1      49.478  52.945  76.082  1.00  0.00    -0.043 A 
ATOM      3  C   UNL     1      48.722  53.282  74.946  1.00  0.00     0.004 A 
ATOM      4  C   UNL     1      49.286  54.025  73.908  1.00  0.00     0.001 A 
ATOM      5  C   UNL     1      50.612  54.445  73.983  1.00  0.00     0.009 A 
ATOM      6  C   UNL     1      51.392  54.124  75.102  1.00  0.00    -0.018 A 
ATOM      7  C   UNL     1      52.727  54.551  75.171  1.00  0.00     0.009 A 
ATOM      8  C   UNL     1      53.510  54.236  76.283  1.00  0.00     0.001 A 
ATOM      9  C   UNL     1      52.970  53.495  77.333  1.00  0.00     0.001 A 
ATOM     10  C   UNL     1      51.641  53.063  77.281  1.00  0.00     0.009 A 
ATOM     11  C   UNL     1      50.831  53.369  76.166  1.00  0.00    -0.015 A 
ENDROOT
TORSDOF 0
ENDMDL
