MODEL 1
REMARK VINA RESULT:    -5.657      0.000      0.000
REMARK INTER + INTRA:          -5.657
REMARK INTER:                  -5.657
REMARK INTRA:                   0.000
REMARK UNBOUND:                 0.000
REMARK SMILES CC1=CC(=O)[C@@H]2C[C@H]1C2(C)C
REMARK SMILES IDX 1 1 2 2 3 3 4 4 5 5 6 6 7 7 8 8 9 9 10 10 11 11
REMARK H PARENT
REMARK Flexibility Score: inf
ROOT
ATOM      1  C   UNL     1      18.403 -13.732  67.446  1.00  0.00     0.040 C 
ATOM      2  C   UNL     1      18.591 -12.260  67.640  1.00  0.00    -0.066 C 
ATOM      3  C   UNL     1      18.959 -11.726  68.840  1.00  0.00     0.047 C 
ATOM      4  C   UNL     1      19.111 -10.236  68.883  1.00  0.00     0.159 C 
ATOM      5  O   UNL     1      19.486  -9.628  69.919  1.00  0.00    -0.295 OA
ATOM      6  C   UNL     1      18.778  -9.507  67.581  1.00  0.00     0.067 C 
ATOM      7  C   UNL     1      17.454 -10.152  67.114  1.00  0.00     0.021 C 
ATOM      8  C   UNL     1      18.320 -11.269  66.491  1.00  0.00     0.022 C 
ATOM      9  C   UNL     1      19.486 -10.241  66.407  1.00  0.00    -0.019 C 
ATOM     10  C   UNL     1      19.455  -9.421  65.092  1.00  0.00     0.012 C 
ATOM     11  C   UNL     1      20.936 -10.756  66.626  1.00  0.00     0.012 C 
ENDROOT
TORSDOF 0
ENDMDL
MODEL 2
REMARK VINA RESULT:    -5.231      1.110      2.781
REMARK INTER + INTRA:          -5.231
REMARK INTER:                  -5.231
REMARK INTRA:                   0.000
REMARK UNBOUND:                 0.000
REMARK SMILES CC1=CC(=O)[C@@H]2C[C@H]1C2(C)C
REMARK SMILES IDX 1 1 2 2 3 3 4 4 5 5 6 6 7 7 8 8 9 9 10 10 11 11
REMARK H PARENT
REMARK Flexibility Score: inf
ROOT
ATOM      1  C   UNL     1      16.918  -9.993  65.517  1.00  0.00     0.040 C 
ATOM      2  C   UNL     1      18.000 -10.289  66.507  1.00  0.00    -0.066 C 
ATOM      3  C   UNL     1      18.034  -9.709  67.741  1.00  0.00     0.047 C 
ATOM      4  C   UNL     1      19.177 -10.104  68.626  1.00  0.00     0.159 C 
ATOM      5  O   UNL     1      19.297  -9.671  69.802  1.00  0.00    -0.295 OA
ATOM      6  C   UNL     1      20.186 -11.067  68.001  1.00  0.00     0.067 C 
ATOM      7  C   UNL     1      20.443 -10.485  66.594  1.00  0.00     0.021 C 
ATOM      8  C   UNL     1      19.165 -11.232  66.148  1.00  0.00     0.022 C 
ATOM      9  C   UNL     1      19.407 -12.228  67.319  1.00  0.00    -0.019 C 
ATOM     10  C   UNL     1      20.332 -13.403  66.913  1.00  0.00     0.012 C 
ATOM     11  C   UNL     1      18.167 -12.814  68.052  1.00  0.00     0.012 C 
ENDROOT
TORSDOF 0
ENDMDL
MODEL 3
REMARK VINA RESULT:    -5.149      4.204      5.363
REMARK INTER + INTRA:          -5.149
REMARK INTER:                  -5.149
REMARK INTRA:                   0.000
REMARK UNBOUND:                 0.000
REMARK SMILES CC1=CC(=O)[C@@H]2C[C@H]1C2(C)C
REMARK SMILES IDX 1 1 2 2 3 3 4 4 5 5 6 6 7 7 8 8 9 9 10 10 11 11
REMARK H PARENT
REMARK Flexibility Score: inf
ROOT
ATOM      1  C   UNL     1      16.779 -11.249  66.686  1.00  0.00     0.040 C 
ATOM      2  C   UNL     1      16.793 -11.028  65.207  1.00  0.00    -0.066 C 
ATOM      3  C   UNL     1      16.932 -12.054  64.319  1.00  0.00     0.047 C 
ATOM      4  C   UNL     1      16.926 -11.680  62.868  1.00  0.00     0.159 C 
ATOM      5  O   UNL     1      17.004 -12.540  61.952  1.00  0.00    -0.295 OA
ATOM      6  C   UNL     1      16.820 -10.182  62.579  1.00  0.00     0.067 C 
ATOM      7  C   UNL     1      17.826  -9.537  63.556  1.00  0.00     0.021 C 
ATOM      8  C   UNL     1      16.706  -9.605  64.618  1.00  0.00     0.022 C 
ATOM      9  C   UNL     1      15.676  -9.590  63.451  1.00  0.00    -0.019 C 
ATOM     10  C   UNL     1      15.292  -8.150  63.023  1.00  0.00     0.012 C 
ATOM     11  C   UNL     1      14.369 -10.415  63.614  1.00  0.00     0.012 C 
ENDROOT
TORSDOF 0
ENDMDL
MODEL 4
REMARK VINA RESULT:    -5.115      1.192      2.929
REMARK INTER + INTRA:          -5.115
REMARK INTER:                  -5.115
REMARK INTRA:                   0.000
REMARK UNBOUND:                 0.000
REMARK SMILES CC1=CC(=O)[C@@H]2C[C@H]1C2(C)C
REMARK SMILES IDX 1 1 2 2 3 3 4 4 5 5 6 6 7 7 8 8 9 9 10 10 11 11
REMARK H PARENT
REMARK Flexibility Score: inf
ROOT
ATOM      1  C   UNL     1      20.625 -10.396  64.885  1.00  0.00     0.040 C 
ATOM      2  C   UNL     1      19.914 -10.967  66.071  1.00  0.00    -0.066 C 
ATOM      3  C   UNL     1      20.434 -10.906  67.330  1.00  0.00     0.047 C 
ATOM      4  C   UNL     1      19.606 -11.519  68.419  1.00  0.00     0.159 C 
ATOM      5  O   UNL     1      19.957 -11.490  69.627  1.00  0.00    -0.295 OA
ATOM      6  C   UNL     1      18.308 -12.183  67.959  1.00  0.00     0.067 C 
ATOM      7  C   UNL     1      18.724 -13.010  66.723  1.00  0.00     0.021 C 
ATOM      8  C   UNL     1      18.571 -11.707  65.908  1.00  0.00     0.022 C 
ATOM      9  C   UNL     1      17.571 -11.212  66.993  1.00  0.00    -0.019 C 
ATOM     10  C   UNL     1      16.116 -11.660  66.702  1.00  0.00     0.012 C 
ATOM     11  C   UNL     1      17.555  -9.696  67.340  1.00  0.00     0.012 C 
ENDROOT
TORSDOF 0
ENDMDL
MODEL 5
REMARK VINA RESULT:    -4.984      1.945      2.839
REMARK INTER + INTRA:          -4.984
REMARK INTER:                  -4.984
REMARK INTRA:                   0.000
REMARK UNBOUND:                 0.000
REMARK SMILES CC1=CC(=O)[C@@H]2C[C@H]1C2(C)C
REMARK SMILES IDX 1 1 2 2 3 3 4 4 5 5 6 6 7 7 8 8 9 9 10 10 11 11
REMARK H PARENT
REMARK Flexibility Score: inf
ROOT
ATOM      1  C   UNL     1      16.118 -10.276  64.582  1.00  0.00     0.040 C 
ATOM      2  C   UNL     1      16.918 -10.722  65.765  1.00  0.00    -0.066 C 
ATOM      3  C   UNL     1      16.503 -11.729  66.586  1.00  0.00     0.047 C 
ATOM      4  C   UNL     1      17.410 -12.068  67.730  1.00  0.00     0.159 C 
ATOM      5  O   UNL     1      17.159 -13.004  68.532  1.00  0.00    -0.295 OA
ATOM      6  C   UNL     1      18.659 -11.195  67.854  1.00  0.00     0.067 C 
ATOM      7  C   UNL     1      18.135  -9.755  67.662  1.00  0.00     0.021 C 
ATOM      8  C   UNL     1      18.235 -10.015  66.143  1.00  0.00     0.022 C 
ATOM      9  C   UNL     1      19.325 -11.081  66.454  1.00  0.00    -0.019 C 
ATOM     10  C   UNL     1      20.747 -10.467  66.524  1.00  0.00     0.012 C 
ATOM     11  C   UNL     1      19.386 -12.351  65.559  1.00  0.00     0.012 C 
ENDROOT
TORSDOF 0
ENDMDL
MODEL 6
REMARK VINA RESULT:    -4.967      4.066      5.461
REMARK INTER + INTRA:          -4.967
REMARK INTER:                  -4.967
REMARK INTRA:                   0.000
REMARK UNBOUND:                 0.000
REMARK SMILES CC1=CC(=O)[C@@H]2C[C@H]1C2(C)C
REMARK SMILES IDX 1 1 2 2 3 3 4 4 5 5 6 6 7 7 8 8 9 9 10 10 11 11
REMARK H PARENT
REMARK Flexibility Score: inf
ROOT
ATOM      1  C   UNL     1      15.302  -8.200  62.939  1.00  0.00     0.040 C 
ATOM      2  C   UNL     1      15.960  -9.507  63.252  1.00  0.00    -0.066 C 
ATOM      3  C   UNL     1      16.178 -10.458  62.300  1.00  0.00     0.047 C 
ATOM      4  C   UNL     1      16.850 -11.715  62.761  1.00  0.00     0.159 C 
ATOM      5  O   UNL     1      17.143 -12.649  61.970  1.00  0.00    -0.295 OA
ATOM      6  C   UNL     1      17.153 -11.783  64.258  1.00  0.00     0.067 C 
ATOM      7  C   UNL     1      15.853 -11.292  64.929  1.00  0.00     0.021 C 
ATOM      8  C   UNL     1      16.376  -9.858  64.695  1.00  0.00     0.022 C 
ATOM      9  C   UNL     1      17.818 -10.445  64.690  1.00  0.00    -0.019 C 
ATOM     10  C   UNL     1      18.428 -10.521  66.113  1.00  0.00     0.012 C 
ATOM     11  C   UNL     1      18.869  -9.803  63.742  1.00  0.00     0.012 C 
ENDROOT
TORSDOF 0
ENDMDL
MODEL 7
REMARK VINA RESULT:    -4.909      2.508      4.021
REMARK INTER + INTRA:          -4.909
REMARK INTER:                  -4.909
REMARK INTRA:                   0.000
REMARK UNBOUND:                 0.000
REMARK SMILES CC1=CC(=O)[C@@H]2C[C@H]1C2(C)C
REMARK SMILES IDX 1 1 2 2 3 3 4 4 5 5 6 6 7 7 8 8 9 9 10 10 11 11
REMARK H PARENT
REMARK Flexibility Score: inf
ROOT
ATOM      1  C   UNL     1      19.182  -9.618  63.999  1.00  0.00     0.040 C 
ATOM      2  C   UNL     1      18.186 -10.248  64.921  1.00  0.00    -0.066 C 
ATOM      3  C   UNL     1      16.960 -10.664  64.493  1.00  0.00     0.047 C 
ATOM      4  C   UNL     1      16.070 -11.278  65.530  1.00  0.00     0.159 C 
ATOM      5  O   UNL     1      14.932 -11.739  65.252  1.00  0.00    -0.295 OA
ATOM      6  C   UNL     1      16.641 -11.306  66.948  1.00  0.00     0.067 C 
ATOM      7  C   UNL     1      17.224  -9.890  67.148  1.00  0.00     0.021 C 
ATOM      8  C   UNL     1      18.489 -10.404  66.425  1.00  0.00     0.022 C 
ATOM      9  C   UNL     1      18.100 -11.839  66.885  1.00  0.00    -0.019 C 
ATOM     10  C   UNL     1      18.665 -12.182  68.287  1.00  0.00     0.012 C 
ATOM     11  C   UNL     1      18.411 -13.026  65.930  1.00  0.00     0.012 C 
ENDROOT
TORSDOF 0
ENDMDL
MODEL 8
REMARK VINA RESULT:    -4.880      3.672      4.640
REMARK INTER + INTRA:          -4.880
REMARK INTER:                  -4.880
REMARK INTRA:                   0.000
REMARK UNBOUND:                 0.000
REMARK SMILES CC1=CC(=O)[C@@H]2C[C@H]1C2(C)C
REMARK SMILES IDX 1 1 2 2 3 3 4 4 5 5 6 6 7 7 8 8 9 9 10 10 11 11
REMARK H PARENT
REMARK Flexibility Score: inf
ROOT
ATOM      1  C   UNL     1      16.506 -11.505  66.769  1.00  0.00     0.040 C 
ATOM      2  C   UNL     1      16.942 -10.964  65.444  1.00  0.00    -0.066 C 
ATOM      3  C   UNL     1      18.257 -10.782  65.130  1.00  0.00     0.047 C 
ATOM      4  C   UNL     1      18.542 -10.235  63.764  1.00  0.00     0.159 C 
ATOM      5  O   UNL     1      19.714 -10.062  63.341  1.00  0.00    -0.295 OA
ATOM      6  C   UNL     1      17.309  -9.902  62.923  1.00  0.00     0.067 C 
ATOM      7  C   UNL     1      16.379  -9.147  63.897  1.00  0.00     0.021 C 
ATOM      8  C   UNL     1      15.907 -10.535  64.385  1.00  0.00     0.022 C 
ATOM      9  C   UNL     1      16.321 -11.101  62.996  1.00  0.00    -0.019 C 
ATOM     10  C   UNL     1      15.181 -10.992  61.951  1.00  0.00     0.012 C 
ATOM     11  C   UNL     1      16.902 -12.542  62.934  1.00  0.00     0.012 C 
ENDROOT
TORSDOF 0
ENDMDL
MODEL 9
REMARK VINA RESULT:    -4.876      3.118      4.604
REMARK INTER + INTRA:          -4.876
REMARK INTER:                  -4.876
REMARK INTRA:                   0.000
REMARK UNBOUND:                 0.000
REMARK SMILES CC1=CC(=O)[C@@H]2C[C@H]1C2(C)C
REMARK SMILES IDX 1 1 2 2 3 3 4 4 5 5 6 6 7 7 8 8 9 9 10 10 11 11
REMARK H PARENT
REMARK Flexibility Score: inf
ROOT
ATOM      1  C   UNL     1      14.422 -10.463  63.867  1.00  0.00     0.040 C 
ATOM      2  C   UNL     1      15.822 -10.865  64.210  1.00  0.00    -0.066 C 
ATOM      3  C   UNL     1      16.906 -10.344  63.568  1.00  0.00     0.047 C 
ATOM      4  C   UNL     1      18.246 -10.839  64.021  1.00  0.00     0.159 C 
ATOM      5  O   UNL     1      19.323 -10.404  63.537  1.00  0.00    -0.295 OA
ATOM      6  C   UNL     1      18.212 -11.911  65.112  1.00  0.00     0.067 C 
ATOM      7  C   UNL     1      17.124 -12.898  64.637  1.00  0.00     0.021 C 
ATOM      8  C   UNL     1      16.097 -11.940  65.280  1.00  0.00     0.022 C 
ATOM      9  C   UNL     1      17.231 -11.450  66.227  1.00  0.00    -0.019 C 
ATOM     10  C   UNL     1      17.344 -12.317  67.508  1.00  0.00     0.012 C 
ATOM     11  C   UNL     1      17.241  -9.954  66.649  1.00  0.00     0.012 C 
ENDROOT
TORSDOF 0
ENDMDL
