MODEL 1
REMARK VINA RESULT:    -6.502      0.000      0.000
REMARK INTER + INTRA:          -6.692
REMARK INTER:                  -6.692
REMARK INTRA:                   0.000
REMARK UNBOUND:                 0.000
REMARK SMILES O=c1ccc2ccc(O)cc2o1
REMARK SMILES IDX 6 1 7 2 8 3 10 4 11 5 5 6 4 7 3 8 2 9 1 10 12 11 9 12
REMARK H PARENT 9 13
REMARK Flexibility Score: inf
ROOT
ATOM      1  C   UNL     1       9.114  -0.379  34.156  1.00  0.00     0.016 A 
ATOM      2  C   UNL     1       7.877  -0.116  34.753  1.00  0.00     0.047 A 
ATOM      3  C   UNL     1       7.787   0.764  35.838  1.00  0.00     0.119 A 
ATOM      4  C   UNL     1       8.942   1.387  36.331  1.00  0.00     0.094 A 
ATOM      5  C   UNL     1      10.185   1.130  35.741  1.00  0.00     0.142 A 
ATOM      6  C   UNL     1      10.272   0.241  34.646  1.00  0.00     0.018 A 
ATOM      7  C   UNL     1      11.526   0.006  34.078  1.00  0.00     0.019 A 
ATOM      8  C   UNL     1      12.648   0.648  34.601  1.00  0.00     0.094 A 
ATOM      9  C   UNL     1      12.486   1.515  35.687  1.00  0.00     0.336 A 
ATOM     10  O   UNL     1      13.486   2.104  36.175  1.00  0.00    -0.246 OA
ATOM     11  O   UNL     1      11.281   1.723  36.210  1.00  0.00    -0.423 OA
ENDROOT
BRANCH   3  12
ATOM     12  O   UNL     1       6.544   1.012  36.419  1.00  0.00    -0.508 OA
ATOM     13  H   UNL     1       5.694   1.017  35.868  1.00  0.00     0.293 HD
ENDBRANCH   3  12
TORSDOF 1
ENDMDL
MODEL 2
REMARK VINA RESULT:    -6.003      1.117      1.332
REMARK INTER + INTRA:          -6.179
REMARK INTER:                  -6.179
REMARK INTRA:                   0.000
REMARK UNBOUND:                 0.000
REMARK SMILES O=c1ccc2ccc(O)cc2o1
REMARK SMILES IDX 6 1 7 2 8 3 10 4 11 5 5 6 4 7 3 8 2 9 1 10 12 11 9 12
REMARK H PARENT 9 13
REMARK Flexibility Score: inf
ROOT
ATOM      1  C   UNL     1      10.464  -0.227  33.833  1.00  0.00     0.016 A 
ATOM      2  C   UNL     1       9.087  -0.320  34.058  1.00  0.00     0.047 A 
ATOM      3  C   UNL     1       8.435   0.622  34.862  1.00  0.00     0.119 A 
ATOM      4  C   UNL     1       9.165   1.667  35.447  1.00  0.00     0.094 A 
ATOM      5  C   UNL     1      10.543   1.769  35.227  1.00  0.00     0.142 A 
ATOM      6  C   UNL     1      11.198   0.816  34.416  1.00  0.00     0.018 A 
ATOM      7  C   UNL     1      12.575   0.944  34.215  1.00  0.00     0.019 A 
ATOM      8  C   UNL     1      13.259   2.000  34.816  1.00  0.00     0.094 A 
ATOM      9  C   UNL     1      12.545   2.907  35.608  1.00  0.00     0.336 A 
ATOM     10  O   UNL     1      13.145   3.866  36.160  1.00  0.00    -0.246 OA
ATOM     11  O   UNL     1      11.235   2.763  35.783  1.00  0.00    -0.423 OA
ENDROOT
BRANCH   3  12
ATOM     12  O   UNL     1       7.062   0.511  35.075  1.00  0.00    -0.508 OA
ATOM     13  H   UNL     1       6.394   0.983  34.477  1.00  0.00     0.293 HD
ENDBRANCH   3  12
TORSDOF 1
ENDMDL
MODEL 3
REMARK VINA RESULT:    -5.790      0.816      4.223
REMARK INTER + INTRA:          -5.959
REMARK INTER:                  -5.959
REMARK INTRA:                   0.000
REMARK UNBOUND:                 0.000
REMARK SMILES O=c1ccc2ccc(O)cc2o1
REMARK SMILES IDX 6 1 7 2 8 3 10 4 11 5 5 6 4 7 3 8 2 9 1 10 12 11 9 12
REMARK H PARENT 9 13
REMARK Flexibility Score: inf
ROOT
ATOM      1  C   UNL     1      11.548   0.243  34.055  1.00  0.00     0.016 A 
ATOM      2  C   UNL     1      12.620   0.971  34.580  1.00  0.00     0.047 A 
ATOM      3  C   UNL     1      12.425   1.837  35.663  1.00  0.00     0.119 A 
ATOM      4  C   UNL     1      11.149   1.975  36.228  1.00  0.00     0.094 A 
ATOM      5  C   UNL     1      10.070   1.250  35.710  1.00  0.00     0.142 A 
ATOM      6  C   UNL     1      10.270   0.378  34.616  1.00  0.00     0.018 A 
ATOM      7  C   UNL     1       9.173  -0.333  34.122  1.00  0.00     0.019 A 
ATOM      8  C   UNL     1       7.923  -0.163  34.715  1.00  0.00     0.094 A 
ATOM      9  C   UNL     1       7.799   0.718  35.795  1.00  0.00     0.336 A 
ATOM     10  O   UNL     1       6.679   0.885  36.344  1.00  0.00    -0.246 OA
ATOM     11  O   UNL     1       8.859   1.383  36.248  1.00  0.00    -0.423 OA
ENDROOT
BRANCH   3  12
ATOM     12  O   UNL     1      13.507   2.554  36.171  1.00  0.00    -0.508 OA
ATOM     13  H   UNL     1      14.450   2.186  36.136  1.00  0.00     0.293 HD
ENDBRANCH   3  12
TORSDOF 1
ENDMDL
MODEL 4
REMARK VINA RESULT:    -5.657      1.766      2.463
REMARK INTER + INTRA:          -5.823
REMARK INTER:                  -5.823
REMARK INTRA:                   0.000
REMARK UNBOUND:                 0.000
REMARK SMILES O=c1ccc2ccc(O)cc2o1
REMARK SMILES IDX 6 1 7 2 8 3 10 4 11 5 5 6 4 7 3 8 2 9 1 10 12 11 9 12
REMARK H PARENT 9 13
REMARK Flexibility Score: inf
ROOT
ATOM      1  C   UNL     1       9.182   1.440  36.096  1.00  0.00     0.016 A 
ATOM      2  C   UNL     1       8.363   0.403  35.638  1.00  0.00     0.047 A 
ATOM      3  C   UNL     1       8.761  -0.388  34.553  1.00  0.00     0.119 A 
ATOM      4  C   UNL     1       9.987  -0.141  33.920  1.00  0.00     0.094 A 
ATOM      5  C   UNL     1      10.814   0.895  34.371  1.00  0.00     0.142 A 
ATOM      6  C   UNL     1      10.409   1.691  35.466  1.00  0.00     0.018 A 
ATOM      7  C   UNL     1      11.256   2.717  35.893  1.00  0.00     0.019 A 
ATOM      8  C   UNL     1      12.467   2.925  35.233  1.00  0.00     0.094 A 
ATOM      9  C   UNL     1      12.802   2.097  34.155  1.00  0.00     0.336 A 
ATOM     10  O   UNL     1      13.891   2.270  33.546  1.00  0.00    -0.246 OA
ATOM     11  O   UNL     1      11.979   1.127  33.769  1.00  0.00    -0.423 OA
ENDROOT
BRANCH   3  12
ATOM     12  O   UNL     1       7.929  -1.416  34.112  1.00  0.00    -0.508 OA
ATOM     13  H   UNL     1       7.065  -1.223  33.620  1.00  0.00     0.293 HD
ENDBRANCH   3  12
TORSDOF 1
ENDMDL
MODEL 5
REMARK VINA RESULT:    -5.560      6.259      9.074
REMARK INTER + INTRA:          -5.723
REMARK INTER:                  -5.723
REMARK INTRA:                   0.000
REMARK UNBOUND:                 0.000
REMARK SMILES O=c1ccc2ccc(O)cc2o1
REMARK SMILES IDX 6 1 7 2 8 3 10 4 11 5 5 6 4 7 3 8 2 9 1 10 12 11 9 12
REMARK H PARENT 9 13
REMARK Flexibility Score: inf
ROOT
ATOM      1  C   UNL     1       4.347  -2.779  37.384  1.00  0.00     0.016 A 
ATOM      2  C   UNL     1       4.840  -1.662  36.702  1.00  0.00     0.047 A 
ATOM      3  C   UNL     1       4.390  -0.377  37.030  1.00  0.00     0.119 A 
ATOM      4  C   UNL     1       3.441  -0.206  38.047  1.00  0.00     0.094 A 
ATOM      5  C   UNL     1       2.942  -1.317  38.736  1.00  0.00     0.142 A 
ATOM      6  C   UNL     1       3.397  -2.613  38.402  1.00  0.00     0.018 A 
ATOM      7  C   UNL     1       2.881  -3.703  39.108  1.00  0.00     0.019 A 
ATOM      8  C   UNL     1       1.939  -3.484  40.112  1.00  0.00     0.094 A 
ATOM      9  C   UNL     1       1.534  -2.173  40.388  1.00  0.00     0.336 A 
ATOM     10  O   UNL     1       0.683  -1.956  41.291  1.00  0.00    -0.246 OA
ATOM     11  O   UNL     1       2.041  -1.153  39.702  1.00  0.00    -0.423 OA
ENDROOT
BRANCH   3  12
ATOM     12  O   UNL     1       4.894   0.723  36.337  1.00  0.00    -0.508 OA
ATOM     13  H   UNL     1       4.500   1.649  36.457  1.00  0.00     0.293 HD
ENDBRANCH   3  12
TORSDOF 1
ENDMDL
MODEL 6
REMARK VINA RESULT:    -5.430      3.925      7.083
REMARK INTER + INTRA:          -5.589
REMARK INTER:                  -5.589
REMARK INTRA:                   0.000
REMARK UNBOUND:                 0.000
REMARK SMILES O=c1ccc2ccc(O)cc2o1
REMARK SMILES IDX 6 1 7 2 8 3 10 4 11 5 5 6 4 7 3 8 2 9 1 10 12 11 9 12
REMARK H PARENT 9 13
REMARK Flexibility Score: inf
ROOT
ATOM      1  C   UNL     1       6.380  -2.352  36.016  1.00  0.00     0.016 A 
ATOM      2  C   UNL     1       7.217  -1.336  35.544  1.00  0.00     0.047 A 
ATOM      3  C   UNL     1       6.877   0.009  35.736  1.00  0.00     0.119 A 
ATOM      4  C   UNL     1       5.691   0.342  36.407  1.00  0.00     0.094 A 
ATOM      5  C   UNL     1       4.848  -0.668  36.884  1.00  0.00     0.142 A 
ATOM      6  C   UNL     1       5.194  -2.024  36.688  1.00  0.00     0.018 A 
ATOM      7  C   UNL     1       4.331  -3.009  37.175  1.00  0.00     0.019 A 
ATOM      8  C   UNL     1       3.164  -2.631  37.837  1.00  0.00     0.094 A 
ATOM      9  C   UNL     1       2.885  -1.269  37.995  1.00  0.00     0.336 A 
ATOM     10  O   UNL     1       1.835  -0.908  38.588  1.00  0.00    -0.246 OA
ATOM     11  O   UNL     1       3.722  -0.350  37.521  1.00  0.00    -0.423 OA
ENDROOT
BRANCH   3  12
ATOM     12  O   UNL     1       7.724   1.007  35.257  1.00  0.00    -0.508 OA
ATOM     13  H   UNL     1       7.735   1.933  35.667  1.00  0.00     0.293 HD
ENDBRANCH   3  12
TORSDOF 1
ENDMDL
MODEL 7
REMARK VINA RESULT:    -5.348      1.813      4.695
REMARK INTER + INTRA:          -5.505
REMARK INTER:                  -5.505
REMARK INTRA:                   0.000
REMARK UNBOUND:                 0.000
REMARK SMILES O=c1ccc2ccc(O)cc2o1
REMARK SMILES IDX 6 1 7 2 8 3 10 4 11 5 5 6 4 7 3 8 2 9 1 10 12 11 9 12
REMARK H PARENT 9 13
REMARK Flexibility Score: inf
ROOT
ATOM      1  C   UNL     1      10.483   2.218  36.126  1.00  0.00     0.016 A 
ATOM      2  C   UNL     1      11.783   2.443  35.663  1.00  0.00     0.047 A 
ATOM      3  C   UNL     1      12.303   1.675  34.613  1.00  0.00     0.119 A 
ATOM      4  C   UNL     1      11.518   0.676  34.021  1.00  0.00     0.094 A 
ATOM      5  C   UNL     1      10.216   0.444  34.477  1.00  0.00     0.142 A 
ATOM      6  C   UNL     1       9.694   1.219  35.537  1.00  0.00     0.018 A 
ATOM      7  C   UNL     1       8.390   0.964  35.970  1.00  0.00     0.019 A 
ATOM      8  C   UNL     1       7.647  -0.040  35.351  1.00  0.00     0.094 A 
ATOM      9  C   UNL     1       8.229  -0.768  34.307  1.00  0.00     0.336 A 
ATOM     10  O   UNL     1       7.574  -1.680  33.736  1.00  0.00    -0.246 OA
ATOM     11  O   UNL     1       9.472  -0.506  33.913  1.00  0.00    -0.423 OA
ENDROOT
BRANCH   3  12
ATOM     12  O   UNL     1      13.602   1.915  34.167  1.00  0.00    -0.508 OA
ATOM     13  H   UNL     1      14.259   2.455  34.718  1.00  0.00     0.293 HD
ENDBRANCH   3  12
TORSDOF 1
ENDMDL
MODEL 8
REMARK VINA RESULT:    -5.328      6.158      8.431
REMARK INTER + INTRA:          -5.484
REMARK INTER:                  -5.484
REMARK INTRA:                   0.000
REMARK UNBOUND:                 0.000
REMARK SMILES O=c1ccc2ccc(O)cc2o1
REMARK SMILES IDX 6 1 7 2 8 3 10 4 11 5 5 6 4 7 3 8 2 9 1 10 12 11 9 12
REMARK H PARENT 9 13
REMARK Flexibility Score: inf
ROOT
ATOM      1  C   UNL     1       2.782  -1.071  38.521  1.00  0.00     0.016 A 
ATOM      2  C   UNL     1       3.433  -0.021  37.865  1.00  0.00     0.047 A 
ATOM      3  C   UNL     1       4.486  -0.284  36.980  1.00  0.00     0.119 A 
ATOM      4  C   UNL     1       4.893  -1.606  36.749  1.00  0.00     0.094 A 
ATOM      5  C   UNL     1       4.247  -2.663  37.401  1.00  0.00     0.142 A 
ATOM      6  C   UNL     1       3.185  -2.394  38.293  1.00  0.00     0.018 A 
ATOM      7  C   UNL     1       2.560  -3.471  38.929  1.00  0.00     0.019 A 
ATOM      8  C   UNL     1       2.998  -4.768  38.668  1.00  0.00     0.094 A 
ATOM      9  C   UNL     1       4.057  -4.959  37.773  1.00  0.00     0.336 A 
ATOM     10  O   UNL     1       4.467  -6.123  37.525  1.00  0.00    -0.246 OA
ATOM     11  O   UNL     1       4.635  -3.918  37.180  1.00  0.00    -0.423 OA
ENDROOT
BRANCH   3  12
ATOM     12  O   UNL     1       5.122   0.776  36.337  1.00  0.00    -0.508 OA
ATOM     13  H   UNL     1       4.754   1.173  35.480  1.00  0.00     0.293 HD
ENDBRANCH   3  12
TORSDOF 1
ENDMDL
MODEL 9
REMARK VINA RESULT:    -5.274      6.457      8.502
REMARK INTER + INTRA:          -5.428
REMARK INTER:                  -5.428
REMARK INTRA:                   0.000
REMARK UNBOUND:                 0.000
REMARK SMILES O=c1ccc2ccc(O)cc2o1
REMARK SMILES IDX 6 1 7 2 8 3 10 4 11 5 5 6 4 7 3 8 2 9 1 10 12 11 9 12
REMARK H PARENT 9 13
REMARK Flexibility Score: inf
ROOT
ATOM      1  C   UNL     1       2.910  -3.859  39.312  1.00  0.00     0.016 A 
ATOM      2  C   UNL     1       2.111  -3.600  40.430  1.00  0.00     0.047 A 
ATOM      3  C   UNL     1       1.801  -2.282  40.790  1.00  0.00     0.119 A 
ATOM      4  C   UNL     1       2.293  -1.214  40.025  1.00  0.00     0.094 A 
ATOM      5  C   UNL     1       3.093  -1.464  38.904  1.00  0.00     0.142 A 
ATOM      6  C   UNL     1       3.404  -2.794  38.545  1.00  0.00     0.018 A 
ATOM      7  C   UNL     1       4.205  -3.011  37.420  1.00  0.00     0.019 A 
ATOM      8  C   UNL     1       4.671  -1.918  36.690  1.00  0.00     0.094 A 
ATOM      9  C   UNL     1       4.323  -0.628  37.106  1.00  0.00     0.336 A 
ATOM     10  O   UNL     1       4.735   0.372  36.460  1.00  0.00    -0.246 OA
ATOM     11  O   UNL     1       3.559  -0.448  38.180  1.00  0.00    -0.423 OA
ENDROOT
BRANCH   3  12
ATOM     12  O   UNL     1       1.004  -2.046  41.908  1.00  0.00    -0.508 OA
ATOM     13  H   UNL     1       1.406  -1.758  42.793  1.00  0.00     0.293 HD
ENDBRANCH   3  12
TORSDOF 1
ENDMDL
