MODEL 1
REMARK VINA RESULT:    -5.748      0.000      0.000
REMARK INTER + INTRA:          -9.692
REMARK INTER:                  -8.772
REMARK INTRA:                  -0.920
REMARK UNBOUND:                -0.920
REMARK SMILES CC(=O)CCC=C(C)CCC=C(C)CCC=C(C)C
REMARK SMILES IDX 10 1 11 2 12 3 13 4 14 5 15 6 16 7 18 8 17 9 19 10 9 11 7 12
REMARK SMILES IDX 6 13 8 14 5 15 4 16 2 17 3 18 1 19
REMARK H PARENT
REMARK Flexibility Score: inf
ROOT
ATOM      1  C   UNL     1     101.372  34.600  61.806  1.00  0.00     0.032 C 
ENDROOT
BRANCH   1   2
ATOM      2  C   UNL     1      99.974  34.083  61.553  1.00  0.00    -0.028 C 
ATOM      3  C   UNL     1      99.176  33.476  62.462  1.00  0.00    -0.077 C 
ATOM      4  C   UNL     1      97.792  33.069  62.025  1.00  0.00     0.039 C 
BRANCH   3   5
ATOM      5  C   UNL     1      99.608  33.173  63.889  1.00  0.00     0.034 C 
BRANCH   5   6
ATOM      6  C   UNL     1      99.564  34.409  64.803  1.00  0.00     0.032 C 
BRANCH   6   7
ATOM      7  C   UNL     1      98.187  34.652  65.375  1.00  0.00    -0.028 C 
ATOM      8  C   UNL     1      95.992  35.725  65.624  1.00  0.00     0.039 C 
ATOM      9  C   UNL     1      97.314  35.575  64.916  1.00  0.00    -0.080 C 
ATOM     10  C   UNL     1      97.618  36.439  63.714  1.00  0.00     0.039 C 
ENDBRANCH   6   7
ENDBRANCH   5   6
ENDBRANCH   3   5
ENDBRANCH   1   2
BRANCH   1  11
ATOM     11  C   UNL     1     102.399  33.458  61.772  1.00  0.00     0.034 C 
BRANCH  11  12
ATOM     12  C   UNL     1     102.980  33.253  60.388  1.00  0.00    -0.077 C 
ATOM     13  C   UNL     1     104.313  33.090  60.248  1.00  0.00    -0.028 C 
ATOM     14  C   UNL     1     102.057  33.244  59.193  1.00  0.00     0.039 C 
BRANCH  13  15
ATOM     15  C   UNL     1     104.982  32.875  58.912  1.00  0.00     0.035 C 
BRANCH  15  16
ATOM     16  C   UNL     1     106.070  33.923  58.661  1.00  0.00     0.079 C 
BRANCH  16  17
ATOM     17  C   UNL     1     107.105  33.399  57.701  1.00  0.00     0.130 C 
ATOM     18  O   UNL     1     108.273  33.328  58.054  1.00  0.00    -0.300 OA
ATOM     19  C   UNL     1     106.732  32.950  56.318  1.00  0.00     0.087 C 
ENDBRANCH  16  17
ENDBRANCH  15  16
ENDBRANCH  13  15
ENDBRANCH  11  12
ENDBRANCH   1  11
TORSDOF 9
ENDMDL
MODEL 2
REMARK VINA RESULT:    -5.147      3.802      9.635
REMARK INTER + INTRA:          -8.775
REMARK INTER:                  -7.976
REMARK INTRA:                  -0.799
REMARK UNBOUND:                -0.920
REMARK SMILES CC(=O)CCC=C(C)CCC=C(C)CCC=C(C)C
REMARK SMILES IDX 10 1 11 2 12 3 13 4 14 5 15 6 16 7 18 8 17 9 19 10 9 11 7 12
REMARK SMILES IDX 6 13 8 14 5 15 4 16 2 17 3 18 1 19
REMARK H PARENT
REMARK Flexibility Score: inf
ROOT
ATOM      1  C   UNL     1     100.697  34.659  62.856  1.00  0.00     0.032 C 
ENDROOT
BRANCH   1   2
ATOM      2  C   UNL     1     100.453  34.129  61.461  1.00  0.00    -0.028 C 
ATOM      3  C   UNL     1     101.405  33.861  60.538  1.00  0.00    -0.077 C 
ATOM      4  C   UNL     1     100.961  33.295  59.212  1.00  0.00     0.039 C 
BRANCH   3   5
ATOM      5  C   UNL     1     102.888  34.113  60.762  1.00  0.00     0.034 C 
BRANCH   5   6
ATOM      6  C   UNL     1     103.781  33.025  60.143  1.00  0.00     0.032 C 
BRANCH   6   7
ATOM      7  C   UNL     1     104.590  33.541  58.976  1.00  0.00    -0.028 C 
ATOM      8  C   UNL     1     106.600  34.151  57.703  1.00  0.00     0.039 C 
ATOM      9  C   UNL     1     105.940  33.562  58.923  1.00  0.00    -0.080 C 
ATOM     10  C   UNL     1     106.795  33.000  60.035  1.00  0.00     0.039 C 
ENDBRANCH   6   7
ENDBRANCH   5   6
ENDBRANCH   3   5
ENDBRANCH   1   2
BRANCH   1  11
ATOM     11  C   UNL     1      99.857  33.898  63.893  1.00  0.00     0.034 C 
BRANCH  11  12
ATOM     12  C   UNL     1      98.498  34.533  64.105  1.00  0.00    -0.077 C 
ATOM     13  C   UNL     1      97.494  33.790  64.619  1.00  0.00    -0.028 C 
ATOM     14  C   UNL     1      98.292  35.981  63.729  1.00  0.00     0.039 C 
BRANCH  13  15
ATOM     15  C   UNL     1      96.109  34.336  64.869  1.00  0.00     0.035 C 
BRANCH  15  16
ATOM     16  C   UNL     1      95.670  34.095  66.316  1.00  0.00     0.079 C 
BRANCH  16  17
ATOM     17  C   UNL     1      95.571  35.396  67.067  1.00  0.00     0.130 C 
ATOM     18  O   UNL     1      95.568  36.450  66.448  1.00  0.00    -0.300 OA
ATOM     19  C   UNL     1      95.464  35.429  68.564  1.00  0.00     0.087 C 
ENDBRANCH  16  17
ENDBRANCH  15  16
ENDBRANCH  13  15
ENDBRANCH  11  12
ENDBRANCH   1  11
TORSDOF 9
ENDMDL
MODEL 3
REMARK VINA RESULT:    -5.106     16.501     17.694
REMARK INTER + INTRA:          -8.712
REMARK INTER:                  -8.735
REMARK INTRA:                   0.023
REMARK UNBOUND:                -0.920
REMARK SMILES CC(=O)CCC=C(C)CCC=C(C)CCC=C(C)C
REMARK SMILES IDX 10 1 11 2 12 3 13 4 14 5 15 6 16 7 18 8 17 9 19 10 9 11 7 12
REMARK SMILES IDX 6 13 8 14 5 15 4 16 2 17 3 18 1 19
REMARK H PARENT
REMARK Flexibility Score: inf
ROOT
ATOM      1  C   UNL     1     109.170  48.458  65.815  1.00  0.00     0.032 C 
ENDROOT
BRANCH   1   2
ATOM      2  C   UNL     1     107.972  48.864  64.988  1.00  0.00    -0.028 C 
ATOM      3  C   UNL     1     107.946  49.850  64.060  1.00  0.00    -0.077 C 
ATOM      4  C   UNL     1     106.660  50.074  63.306  1.00  0.00     0.039 C 
BRANCH   3   5
ATOM      5  C   UNL     1     109.137  50.745  63.752  1.00  0.00     0.034 C 
BRANCH   5   6
ATOM      6  C   UNL     1     108.765  52.236  63.689  1.00  0.00     0.032 C 
BRANCH   6   7
ATOM      7  C   UNL     1     107.751  52.529  62.606  1.00  0.00    -0.028 C 
ATOM      8  C   UNL     1     106.931  53.124  60.370  1.00  0.00     0.039 C 
ATOM      9  C   UNL     1     108.057  52.810  61.321  1.00  0.00    -0.080 C 
ATOM     10  C   UNL     1     109.480  52.801  60.814  1.00  0.00     0.039 C 
ENDBRANCH   6   7
ENDBRANCH   5   6
ENDBRANCH   3   5
ENDBRANCH   1   2
BRANCH   1  11
ATOM     11  C   UNL     1     109.358  46.934  65.808  1.00  0.00     0.034 C 
BRANCH  11  12
ATOM     12  C   UNL     1     109.431  46.374  64.402  1.00  0.00    -0.077 C 
ATOM     13  C   UNL     1     109.854  47.169  63.395  1.00  0.00    -0.028 C 
ATOM     14  C   UNL     1     109.019  44.943  64.155  1.00  0.00     0.039 C 
BRANCH  13  15
ATOM     15  C   UNL     1     109.963  46.699  61.965  1.00  0.00     0.035 C 
BRANCH  15  16
ATOM     16  C   UNL     1     108.792  47.210  61.122  1.00  0.00     0.079 C 
BRANCH  16  17
ATOM     17  C   UNL     1     108.937  48.683  60.843  1.00  0.00     0.130 C 
ATOM     18  O   UNL     1     107.994  49.303  60.375  1.00  0.00    -0.300 OA
ATOM     19  C   UNL     1     110.216  49.412  61.137  1.00  0.00     0.087 C 
ENDBRANCH  16  17
ENDBRANCH  15  16
ENDBRANCH  13  15
ENDBRANCH  11  12
ENDBRANCH   1  11
TORSDOF 9
ENDMDL
MODEL 4
REMARK VINA RESULT:    -4.957     16.472     17.936
REMARK INTER + INTRA:          -8.485
REMARK INTER:                  -7.199
REMARK INTRA:                  -1.286
REMARK UNBOUND:                -0.920
REMARK SMILES CC(=O)CCC=C(C)CCC=C(C)CCC=C(C)C
REMARK SMILES IDX 10 1 11 2 12 3 13 4 14 5 15 6 16 7 18 8 17 9 19 10 9 11 7 12
REMARK SMILES IDX 6 13 8 14 5 15 4 16 2 17 3 18 1 19
REMARK H PARENT
REMARK Flexibility Score: inf
ROOT
ATOM      1  C   UNL     1     108.243  48.921  60.366  1.00  0.00     0.032 C 
ENDROOT
BRANCH   1   2
ATOM      2  C   UNL     1     107.403  49.371  61.541  1.00  0.00    -0.028 C 
ATOM      3  C   UNL     1     106.933  50.624  61.745  1.00  0.00    -0.077 C 
ATOM      4  C   UNL     1     106.074  50.863  62.961  1.00  0.00     0.039 C 
BRANCH   3   5
ATOM      5  C   UNL     1     107.237  51.796  60.825  1.00  0.00     0.034 C 
BRANCH   5   6
ATOM      6  C   UNL     1     108.581  52.472  61.139  1.00  0.00     0.032 C 
BRANCH   6   7
ATOM      7  C   UNL     1     109.435  51.646  62.073  1.00  0.00    -0.028 C 
ATOM      8  C   UNL     1     110.473  50.968  64.192  1.00  0.00     0.039 C 
ATOM      9  C   UNL     1     109.544  51.854  63.403  1.00  0.00    -0.080 C 
ATOM     10  C   UNL     1     108.755  52.927  64.115  1.00  0.00     0.039 C 
ENDBRANCH   6   7
ENDBRANCH   5   6
ENDBRANCH   3   5
ENDBRANCH   1   2
BRANCH   1  11
ATOM     11  C   UNL     1     108.759  47.489  60.570  1.00  0.00     0.034 C 
BRANCH  11  12
ATOM     12  C   UNL     1     109.518  47.335  61.872  1.00  0.00    -0.077 C 
ATOM     13  C   UNL     1     109.210  46.314  62.701  1.00  0.00    -0.028 C 
ATOM     14  C   UNL     1     110.597  48.332  62.221  1.00  0.00     0.039 C 
BRANCH  13  15
ATOM     15  C   UNL     1     109.913  46.078  64.016  1.00  0.00     0.035 C 
BRANCH  15  16
ATOM     16  C   UNL     1     108.957  46.265  65.198  1.00  0.00     0.079 C 
BRANCH  16  17
ATOM     17  C   UNL     1     108.874  47.716  65.592  1.00  0.00     0.130 C 
ATOM     18  O   UNL     1     109.682  48.171  66.388  1.00  0.00    -0.300 OA
ATOM     19  C   UNL     1     107.823  48.623  65.020  1.00  0.00     0.087 C 
ENDBRANCH  16  17
ENDBRANCH  15  16
ENDBRANCH  13  15
ENDBRANCH  11  12
ENDBRANCH   1  11
TORSDOF 9
ENDMDL
MODEL 5
REMARK VINA RESULT:    -4.862     16.353     17.907
REMARK INTER + INTRA:          -8.340
REMARK INTER:                  -7.840
REMARK INTRA:                  -0.500
REMARK UNBOUND:                -0.920
REMARK SMILES CC(=O)CCC=C(C)CCC=C(C)CCC=C(C)C
REMARK SMILES IDX 10 1 11 2 12 3 13 4 14 5 15 6 16 7 18 8 17 9 19 10 9 11 7 12
REMARK SMILES IDX 6 13 8 14 5 15 4 16 2 17 3 18 1 19
REMARK H PARENT
REMARK Flexibility Score: inf
ROOT
ATOM      1  C   UNL     1     109.495  46.036  62.591  1.00  0.00     0.032 C 
ENDROOT
BRANCH   1   2
ATOM      2  C   UNL     1     110.203  47.353  62.370  1.00  0.00    -0.028 C 
ATOM      3  C   UNL     1     109.786  48.350  61.554  1.00  0.00    -0.077 C 
ATOM      4  C   UNL     1     110.614  49.609  61.502  1.00  0.00     0.039 C 
BRANCH   3   5
ATOM      5  C   UNL     1     108.542  48.259  60.684  1.00  0.00     0.034 C 
BRANCH   5   6
ATOM      6  C   UNL     1     107.446  49.254  61.101  1.00  0.00     0.032 C 
BRANCH   6   7
ATOM      7  C   UNL     1     107.797  50.679  60.740  1.00  0.00    -0.028 C 
ATOM      8  C   UNL     1     107.580  53.124  60.691  1.00  0.00     0.039 C 
ATOM      9  C   UNL     1     107.131  51.770  61.177  1.00  0.00    -0.080 C 
ATOM     10  C   UNL     1     105.974  51.671  62.143  1.00  0.00     0.039 C 
ENDBRANCH   6   7
ENDBRANCH   5   6
ENDBRANCH   3   5
ENDBRANCH   1   2
BRANCH   1  11
ATOM     11  C   UNL     1     109.417  45.693  64.086  1.00  0.00     0.034 C 
BRANCH  11  12
ATOM     12  C   UNL     1     109.054  46.898  64.930  1.00  0.00    -0.077 C 
ATOM     13  C   UNL     1     108.076  47.729  64.510  1.00  0.00    -0.028 C 
ATOM     14  C   UNL     1     109.800  47.150  66.219  1.00  0.00     0.039 C 
BRANCH  13  15
ATOM     15  C   UNL     1     107.643  48.951  65.283  1.00  0.00     0.035 C 
BRANCH  15  16
ATOM     16  C   UNL     1     107.572  50.185  64.379  1.00  0.00     0.079 C 
BRANCH  16  17
ATOM     17  C   UNL     1     108.923  50.841  64.265  1.00  0.00     0.130 C 
ATOM     18  O   UNL     1     109.931  50.189  64.494  1.00  0.00    -0.300 OA
ATOM     19  C   UNL     1     109.061  52.282  63.865  1.00  0.00     0.087 C 
ENDBRANCH  16  17
ENDBRANCH  15  16
ENDBRANCH  13  15
ENDBRANCH  11  12
ENDBRANCH   1  11
TORSDOF 9
ENDMDL
MODEL 6
REMARK VINA RESULT:    -4.821     16.673     18.022
REMARK INTER + INTRA:          -8.278
REMARK INTER:                  -7.526
REMARK INTRA:                  -0.752
REMARK UNBOUND:                -0.920
REMARK SMILES CC(=O)CCC=C(C)CCC=C(C)CCC=C(C)C
REMARK SMILES IDX 10 1 11 2 12 3 13 4 14 5 15 6 16 7 18 8 17 9 19 10 9 11 7 12
REMARK SMILES IDX 6 13 8 14 5 15 4 16 2 17 3 18 1 19
REMARK H PARENT
REMARK Flexibility Score: inf
ROOT
ATOM      1  C   UNL     1     107.224  49.755  64.063  1.00  0.00     0.032 C 
ENDROOT
BRANCH   1   2
ATOM      2  C   UNL     1     107.724  51.166  64.274  1.00  0.00    -0.028 C 
ATOM      3  C   UNL     1     108.896  51.668  63.817  1.00  0.00    -0.077 C 
ATOM      4  C   UNL     1     109.196  53.119  64.097  1.00  0.00     0.039 C 
BRANCH   3   5
ATOM      5  C   UNL     1     109.923  50.846  63.055  1.00  0.00     0.034 C 
BRANCH   5   6
ATOM      6  C   UNL     1     110.049  51.262  61.580  1.00  0.00     0.032 C 
BRANCH   6   7
ATOM      7  C   UNL     1     109.010  52.285  61.182  1.00  0.00    -0.028 C 
ATOM      8  C   UNL     1     106.858  53.125  60.348  1.00  0.00     0.039 C 
ATOM      9  C   UNL     1     107.764  51.990  60.750  1.00  0.00    -0.080 C 
ATOM     10  C   UNL     1     107.256  50.569  60.677  1.00  0.00     0.039 C 
ENDBRANCH   6   7
ENDBRANCH   5   6
ENDBRANCH   3   5
ENDBRANCH   1   2
BRANCH   1  11
ATOM     11  C   UNL     1     107.417  48.904  65.327  1.00  0.00     0.034 C 
BRANCH  11  12
ATOM     12  C   UNL     1     108.511  47.870  65.158  1.00  0.00    -0.077 C 
ATOM     13  C   UNL     1     108.507  47.075  64.066  1.00  0.00    -0.028 C 
ATOM     14  C   UNL     1     109.579  47.743  66.219  1.00  0.00     0.039 C 
BRANCH  13  15
ATOM     15  C   UNL     1     109.556  46.020  63.810  1.00  0.00     0.035 C 
BRANCH  15  16
ATOM     16  C   UNL     1     109.849  45.881  62.313  1.00  0.00     0.079 C 
BRANCH  16  17
ATOM     17  C   UNL     1     109.826  47.226  61.637  1.00  0.00     0.130 C 
ATOM     18  O   UNL     1     110.642  48.076  61.960  1.00  0.00    -0.300 OA
ATOM     19  C   UNL     1     108.826  47.544  60.563  1.00  0.00     0.087 C 
ENDBRANCH  16  17
ENDBRANCH  15  16
ENDBRANCH  13  15
ENDBRANCH  11  12
ENDBRANCH   1  11
TORSDOF 9
ENDMDL
MODEL 7
REMARK VINA RESULT:    -4.735     16.165     17.403
REMARK INTER + INTRA:          -8.146
REMARK INTER:                  -8.374
REMARK INTRA:                   0.227
REMARK UNBOUND:                -0.920
REMARK SMILES CC(=O)CCC=C(C)CCC=C(C)CCC=C(C)C
REMARK SMILES IDX 10 1 11 2 12 3 13 4 14 5 15 6 16 7 18 8 17 9 19 10 9 11 7 12
REMARK SMILES IDX 6 13 8 14 5 15 4 16 2 17 3 18 1 19
REMARK H PARENT
REMARK Flexibility Score: inf
ROOT
ATOM      1  C   UNL     1     108.378  52.533  61.878  1.00  0.00     0.032 C 
ENDROOT
BRANCH   1   2
ATOM      2  C   UNL     1     107.236  51.542  61.860  1.00  0.00    -0.028 C 
ATOM      3  C   UNL     1     106.950  50.645  62.832  1.00  0.00    -0.077 C 
ATOM      4  C   UNL     1     105.737  49.768  62.645  1.00  0.00     0.039 C 
BRANCH   3   5
ATOM      5  C   UNL     1     107.791  50.468  64.087  1.00  0.00     0.034 C 
BRANCH   5   6
ATOM      6  C   UNL     1     107.273  49.346  65.002  1.00  0.00     0.032 C 
BRANCH   6   7
ATOM      7  C   UNL     1     107.785  47.986  64.590  1.00  0.00    -0.028 C 
ATOM      8  C   UNL     1     109.238  46.006  64.618  1.00  0.00     0.039 C 
ATOM      9  C   UNL     1     108.819  47.342  65.175  1.00  0.00    -0.080 C 
ATOM     10  C   UNL     1     109.545  47.912  66.371  1.00  0.00     0.039 C 
ENDBRANCH   6   7
ENDBRANCH   5   6
ENDBRANCH   3   5
ENDBRANCH   1   2
BRANCH   1  11
ATOM     11  C   UNL     1     109.656  51.918  61.290  1.00  0.00     0.034 C 
BRANCH  11  12
ATOM     12  C   UNL     1     110.150  50.740  62.104  1.00  0.00    -0.077 C 
ATOM     13  C   UNL     1     110.189  49.514  61.538  1.00  0.00    -0.028 C 
ATOM     14  C   UNL     1     110.579  50.959  63.536  1.00  0.00     0.039 C 
BRANCH  13  15
ATOM     15  C   UNL     1     110.669  48.283  62.269  1.00  0.00     0.035 C 
BRANCH  15  16
ATOM     16  C   UNL     1     109.799  47.067  61.939  1.00  0.00     0.079 C 
BRANCH  16  17
ATOM     17  C   UNL     1     109.145  47.228  60.592  1.00  0.00     0.130 C 
ATOM     18  O   UNL     1     109.656  46.713  59.609  1.00  0.00    -0.300 OA
ATOM     19  C   UNL     1     107.868  48.001  60.431  1.00  0.00     0.087 C 
ENDBRANCH  16  17
ENDBRANCH  15  16
ENDBRANCH  13  15
ENDBRANCH  11  12
ENDBRANCH   1  11
TORSDOF 9
ENDMDL
MODEL 8
REMARK VINA RESULT:    -4.533     16.710     18.209
REMARK INTER + INTRA:          -7.838
REMARK INTER:                  -7.318
REMARK INTRA:                  -0.520
REMARK UNBOUND:                -0.920
REMARK SMILES CC(=O)CCC=C(C)CCC=C(C)CCC=C(C)C
REMARK SMILES IDX 10 1 11 2 12 3 13 4 14 5 15 6 16 7 18 8 17 9 19 10 9 11 7 12
REMARK SMILES IDX 6 13 8 14 5 15 4 16 2 17 3 18 1 19
REMARK H PARENT
REMARK Flexibility Score: inf
ROOT
ATOM      1  C   UNL     1     110.756  49.536  62.477  1.00  0.00     0.032 C 
ENDROOT
BRANCH   1   2
ATOM      2  C   UNL     1     109.619  49.144  61.561  1.00  0.00    -0.028 C 
ATOM      3  C   UNL     1     109.206  47.880  61.307  1.00  0.00    -0.077 C 
ATOM      4  C   UNL     1     108.021  47.698  60.393  1.00  0.00     0.039 C 
BRANCH   3   5
ATOM      5  C   UNL     1     109.880  46.644  61.881  1.00  0.00     0.034 C 
BRANCH   5   6
ATOM      6  C   UNL     1     109.082  46.005  63.030  1.00  0.00     0.032 C 
BRANCH   6   7
ATOM      7  C   UNL     1     109.522  46.510  64.385  1.00  0.00    -0.028 C 
ATOM      8  C   UNL     1     109.516  47.932  66.387  1.00  0.00     0.039 C 
ATOM      9  C   UNL     1     108.929  47.516  65.062  1.00  0.00    -0.080 C 
ATOM     10  C   UNL     1     107.696  48.217  64.541  1.00  0.00     0.039 C 
ENDBRANCH   6   7
ENDBRANCH   5   6
ENDBRANCH   3   5
ENDBRANCH   1   2
BRANCH   1  11
ATOM     11  C   UNL     1     110.261  50.430  63.624  1.00  0.00     0.034 C 
BRANCH  11  12
ATOM     12  C   UNL     1     109.573  51.681  63.117  1.00  0.00    -0.077 C 
ATOM     13  C   UNL     1     109.513  51.910  61.787  1.00  0.00    -0.028 C 
ATOM     14  C   UNL     1     108.978  52.651  64.109  1.00  0.00     0.039 C 
BRANCH  13  15
ATOM     15  C   UNL     1     108.846  53.125  61.189  1.00  0.00     0.035 C 
BRANCH  15  16
ATOM     16  C   UNL     1     107.321  53.000  61.234  1.00  0.00     0.079 C 
BRANCH  16  17
ATOM     17  C   UNL     1     106.905  51.554  61.293  1.00  0.00     0.130 C 
ATOM     18  O   UNL     1     107.157  50.816  60.352  1.00  0.00    -0.300 OA
ATOM     19  C   UNL     1     106.196  50.993  62.491  1.00  0.00     0.087 C 
ENDBRANCH  16  17
ENDBRANCH  15  16
ENDBRANCH  13  15
ENDBRANCH  11  12
ENDBRANCH   1  11
TORSDOF 9
ENDMDL
MODEL 9
REMARK VINA RESULT:    -4.404      4.509     10.104
REMARK INTER + INTRA:          -7.642
REMARK INTER:                  -7.062
REMARK INTRA:                  -0.579
REMARK UNBOUND:                -0.920
REMARK SMILES CC(=O)CCC=C(C)CCC=C(C)CCC=C(C)C
REMARK SMILES IDX 10 1 11 2 12 3 13 4 14 5 15 6 16 7 18 8 17 9 19 10 9 11 7 12
REMARK SMILES IDX 6 13 8 14 5 15 4 16 2 17 3 18 1 19
REMARK H PARENT
REMARK Flexibility Score: inf
ROOT
ATOM      1  C   UNL     1      97.640  35.559  64.568  1.00  0.00     0.032 C 
ENDROOT
BRANCH   1   2
ATOM      2  C   UNL     1      96.986  34.659  63.544  1.00  0.00    -0.028 C 
ATOM      3  C   UNL     1      97.609  33.705  62.814  1.00  0.00    -0.077 C 
ATOM      4  C   UNL     1      96.770  32.879  61.872  1.00  0.00     0.039 C 
BRANCH   3   5
ATOM      5  C   UNL     1      99.104  33.435  62.885  1.00  0.00     0.034 C 
BRANCH   5   6
ATOM      6  C   UNL     1      99.948  34.576  62.292  1.00  0.00     0.032 C 
BRANCH   6   7
ATOM      7  C   UNL     1     100.537  34.215  60.948  1.00  0.00    -0.028 C 
ATOM      8  C   UNL     1     102.140  33.241  59.362  1.00  0.00     0.039 C 
ATOM      9  C   UNL     1     101.656  33.478  60.770  1.00  0.00    -0.080 C 
ATOM     10  C   UNL     1     102.414  32.878  61.930  1.00  0.00     0.039 C 
ENDBRANCH   6   7
ENDBRANCH   5   6
ENDBRANCH   3   5
ENDBRANCH   1   2
BRANCH   1  11
ATOM     11  C   UNL     1      97.588  34.934  65.969  1.00  0.00     0.034 C 
BRANCH  11  12
ATOM     12  C   UNL     1      96.422  35.455  66.784  1.00  0.00    -0.077 C 
ATOM     13  C   UNL     1      96.661  36.266  67.837  1.00  0.00    -0.028 C 
ATOM     14  C   UNL     1      95.017  35.048  66.408  1.00  0.00     0.039 C 
BRANCH  13  15
ATOM     15  C   UNL     1      95.565  36.837  68.704  1.00  0.00     0.035 C 
BRANCH  15  16
ATOM     16  C   UNL     1      96.097  37.232  70.084  1.00  0.00     0.079 C 
BRANCH  16  17
ATOM     17  C   UNL     1      96.877  38.518  70.008  1.00  0.00     0.130 C 
ATOM     18  O   UNL     1      98.087  38.480  69.843  1.00  0.00    -0.300 OA
ATOM     19  C   UNL     1      96.197  39.852  70.118  1.00  0.00     0.087 C 
ENDBRANCH  16  17
ENDBRANCH  15  16
ENDBRANCH  13  15
ENDBRANCH  11  12
ENDBRANCH   1  11
TORSDOF 9
ENDMDL
