MODEL 1
REMARK VINA RESULT:    33.570      0.000      0.000
REMARK INTER + INTRA:          41.607
REMARK INTER:                  42.401
REMARK INTRA:                  -0.794
REMARK UNBOUND:                -0.794
REMARK SMILES CC(C)[C@@H](C)C=C[C@H](C)[C@@H]1CC[C@@H]2C3=CC=C4C[C@H](O)CC[C@]4(C)[C@@H]3CC[C@]21C
REMARK SMILES IDX 8 1 9 2 7 3 6 4 4 5 5 6 2 7 1 8 3 9 10 10 11 11 28 12 12 13
REMARK SMILES IDX 13 14 27 15 29 16 14 17 26 18 25 19 15 20 23 21 16 22 17 23
REMARK SMILES IDX 22 24 24 25 18 26 21 27 19 28 20 29
REMARK H PARENT 20 30
REMARK Flexibility Score: inf
ROOT
ATOM      1  C   UNL     1       4.862  41.286  49.656  1.00  0.00     0.012 C 
ATOM      2  C   UNL     1       6.233  41.930  49.903  1.00  0.00     0.012 C 
ENDROOT
BRANCH   1   3
ATOM      3  C   UNL     1       4.996  39.798  49.901  1.00  0.00    -0.028 C 
ATOM      4  C   UNL     1       6.078  39.269  50.494  1.00  0.00    -0.028 C 
BRANCH   4   5
ATOM      5  C   UNL     1       6.206  37.778  50.734  1.00  0.00     0.011 C 
ATOM      6  C   UNL     1       5.592  37.420  52.096  1.00  0.00     0.012 C 
BRANCH   5   7
ATOM      7  C   UNL     1       7.673  37.266  50.612  1.00  0.00    -0.011 C 
ATOM      8  C   UNL     1       8.390  37.266  51.971  1.00  0.00     0.008 C 
ATOM      9  C   UNL     1       7.783  35.878  49.955  1.00  0.00     0.008 C 
ENDBRANCH   5   7
ENDBRANCH   4   5
ENDBRANCH   1   3
BRANCH   1  10
ATOM     10  C   UNL     1       3.747  41.878  50.575  1.00  0.00     0.002 C 
ATOM     11  C   UNL     1       2.595  40.864  50.834  1.00  0.00     0.005 C 
ATOM     12  C   UNL     1       3.011  43.159  50.077  1.00  0.00    -0.023 C 
ATOM     13  C   UNL     1       1.284  41.664  50.894  1.00  0.00     0.009 C 
ATOM     14  C   UNL     1       1.759  43.107  50.960  1.00  0.00     0.021 C 
ATOM     15  C   UNL     1       3.767  44.516  50.321  1.00  0.00     0.008 C 
ATOM     16  C   UNL     1       2.639  43.020  48.564  1.00  0.00     0.012 C 
ATOM     17  C   UNL     1       0.860  44.269  50.633  1.00  0.00    -0.063 C 
ATOM     18  C   UNL     1       2.987  45.585  51.145  1.00  0.00     0.009 C 
ATOM     19  C   UNL     1       1.438  45.643  50.906  1.00  0.00     0.025 C 
ATOM     20  C   UNL     1      -0.373  44.141  50.142  1.00  0.00    -0.000 C 
ATOM     21  C   UNL     1       0.934  46.773  49.924  1.00  0.00    -0.005 C 
ATOM     22  C   UNL     1      -1.094  45.305  49.612  1.00  0.00    -0.000 C 
ATOM     23  C   UNL     1      -0.506  46.507  49.466  1.00  0.00    -0.061 C 
ATOM     24  C   UNL     1       1.809  46.890  48.640  1.00  0.00     0.014 C 
ATOM     25  C   UNL     1       0.973  48.117  50.706  1.00  0.00     0.017 C 
ATOM     26  C   UNL     1      -1.116  47.492  48.498  1.00  0.00     0.063 C 
ATOM     27  C   UNL     1       1.229  47.859  47.582  1.00  0.00     0.033 C 
ATOM     28  C   UNL     1      -0.242  47.557  47.232  1.00  0.00     0.118 C 
BRANCH  28  29
ATOM     29  O   UNL     1      -0.314  46.342  46.529  1.00  0.00    -0.393 OA
ATOM     30  H   UNL     1       0.594  46.167  46.166  1.00  0.00     0.210 HD
ENDBRANCH  28  29
ENDBRANCH   1  10
TORSDOF 5
ENDMDL
