MODEL 1
REMARK VINA RESULT:    14.561      0.000      0.000
REMARK INTER + INTRA:          17.923
REMARK INTER:                  17.966
REMARK INTRA:                  -0.043
REMARK UNBOUND:                -0.043
REMARK SMILES O=c1c(O)c(-c2cc(O)c(O)c(O)c2)oc2cc(O)cc(O)c12
REMARK SMILES IDX 5 1 3 2 2 3 1 4 23 5 21 6 20 7 18 8 17 9 16 10 15 11 6 12
REMARK SMILES IDX 7 13 8 14 14 15 10 16 12 17 9 18 11 20 13 22 4 24 22 26
REMARK SMILES IDX 19 28
REMARK H PARENT 9 19 11 21 13 23 4 25 22 27 19 29
REMARK Flexibility Score: inf
ROOT
ATOM      1  C   UNL     1      27.652  65.675   5.041  1.00  0.00     0.180 A 
ATOM      2  C   UNL     1      29.013  65.359   4.891  1.00  0.00     0.208 A 
ATOM      3  C   UNL     1      29.387  64.016   4.732  1.00  0.00     0.238 A 
ATOM      4  O   UNL     1      30.612  63.734   4.674  1.00  0.00    -0.285 OA
ATOM      5  C   UNL     1      28.393  63.009   4.670  1.00  0.00     0.111 A 
ATOM      6  C   UNL     1      28.655  61.620   4.467  1.00  0.00     0.134 A 
ATOM      7  C   UNL     1      27.599  60.702   4.529  1.00  0.00     0.093 A 
ATOM      8  C   UNL     1      26.283  61.129   4.722  1.00  0.00     0.123 A 
ATOM      9  C   UNL     1      26.011  62.487   4.866  1.00  0.00     0.094 A 
ATOM     10  C   UNL     1      27.047  63.424   4.848  1.00  0.00     0.146 A 
ATOM     11  O   UNL     1      26.744  64.706   5.010  1.00  0.00    -0.452 OA
ENDROOT
BRANCH   1  12
ATOM     12  C   UNL     1      27.181  67.067   5.227  1.00  0.00     0.029 A 
ATOM     13  C   UNL     1      27.566  68.093   4.349  1.00  0.00     0.062 A 
ATOM     14  C   UNL     1      27.130  69.409   4.556  1.00  0.00     0.162 A 
ATOM     15  C   UNL     1      26.382  67.381   6.337  1.00  0.00     0.062 A 
ATOM     16  C   UNL     1      26.310  69.711   5.656  1.00  0.00     0.200 A 
ATOM     17  C   UNL     1      25.940  68.691   6.550  1.00  0.00     0.162 A 
BRANCH  14  18
ATOM     18  O   UNL     1      27.512  70.418   3.673  1.00  0.00    -0.504 OA
ATOM     19  H   UNL     1      27.257  70.392   2.692  1.00  0.00     0.293 HD
ENDBRANCH  14  18
BRANCH  16  20
ATOM     20  O   UNL     1      25.863  71.014   5.874  1.00  0.00    -0.502 OA
ATOM     21  H   UNL     1      26.411  71.825   5.609  1.00  0.00     0.293 HD
ENDBRANCH  16  20
BRANCH  17  22
ATOM     22  O   UNL     1      25.135  68.961   7.656  1.00  0.00    -0.504 OA
ATOM     23  H   UNL     1      25.222  69.816   8.191  1.00  0.00     0.293 HD
ENDBRANCH  17  22
ENDBRANCH   1  12
BRANCH   2  24
ATOM     24  O   UNL     1      29.973  66.375   4.880  1.00  0.00    -0.502 OA
ATOM     25  H   UNL     1      30.834  66.303   4.350  1.00  0.00     0.293 HD
ENDBRANCH   2  24
BRANCH   6  26
ATOM     26  O   UNL     1      29.918  61.095   4.178  1.00  0.00    -0.507 OA
ATOM     27  H   UNL     1      30.570  61.489   3.518  1.00  0.00     0.293 HD
ENDBRANCH   6  26
BRANCH   8  28
ATOM     28  O   UNL     1      25.236  60.211   4.766  1.00  0.00    -0.508 OA
ATOM     29  H   UNL     1      25.198  59.420   4.132  1.00  0.00     0.293 HD
ENDBRANCH   8  28
TORSDOF 7
ENDMDL
MODEL 2
REMARK VINA RESULT:    14.576      1.288      7.401
REMARK INTER + INTRA:          17.942
REMARK INTER:                  18.161
REMARK INTRA:                  -0.219
REMARK UNBOUND:                -0.043
REMARK SMILES O=c1c(O)c(-c2cc(O)c(O)c(O)c2)oc2cc(O)cc(O)c12
REMARK SMILES IDX 5 1 3 2 2 3 1 4 23 5 21 6 20 7 18 8 17 9 16 10 15 11 6 12
REMARK SMILES IDX 7 13 8 14 14 15 10 16 12 17 9 18 11 20 13 22 4 24 22 26
REMARK SMILES IDX 19 28
REMARK H PARENT 9 19 11 21 13 23 4 25 22 27 19 29
REMARK Flexibility Score: inf
ROOT
ATOM      1  C   UNL     1      27.088  66.149   5.309  1.00  0.00     0.180 A 
ATOM      2  C   UNL     1      26.332  66.504   6.439  1.00  0.00     0.208 A 
ATOM      3  C   UNL     1      26.092  67.863   6.699  1.00  0.00     0.238 A 
ATOM      4  O   UNL     1      25.479  68.176   7.752  1.00  0.00    -0.285 OA
ATOM      5  C   UNL     1      26.564  68.847   5.797  1.00  0.00     0.111 A 
ATOM      6  C   UNL     1      26.341  70.251   5.936  1.00  0.00     0.134 A 
ATOM      7  C   UNL     1      26.946  71.138   5.037  1.00  0.00     0.093 A 
ATOM      8  C   UNL     1      27.712  70.671   3.967  1.00  0.00     0.123 A 
ATOM      9  C   UNL     1      27.889  69.301   3.791  1.00  0.00     0.094 A 
ATOM     10  C   UNL     1      27.331  68.391   4.693  1.00  0.00     0.146 A 
ATOM     11  O   UNL     1      27.544  67.095   4.498  1.00  0.00    -0.452 OA
ENDROOT
BRANCH   1  12
ATOM     12  C   UNL     1      27.395  64.738   4.978  1.00  0.00     0.029 A 
ATOM     13  C   UNL     1      26.383  63.837   4.607  1.00  0.00     0.062 A 
ATOM     14  C   UNL     1      26.690  62.500   4.321  1.00  0.00     0.162 A 
ATOM     15  C   UNL     1      28.714  64.274   5.093  1.00  0.00     0.062 A 
ATOM     16  C   UNL     1      28.017  62.050   4.415  1.00  0.00     0.200 A 
ATOM     17  C   UNL     1      29.030  62.942   4.807  1.00  0.00     0.162 A 
BRANCH  14  18
ATOM     18  O   UNL     1      25.678  61.616   3.947  1.00  0.00    -0.504 OA
ATOM     19  H   UNL     1      25.853  60.623   3.837  1.00  0.00     0.293 HD
ENDBRANCH  14  18
BRANCH  16  20
ATOM     20  O   UNL     1      28.341  60.723   4.129  1.00  0.00    -0.502 OA
ATOM     21  H   UNL     1      28.302  60.348   3.188  1.00  0.00     0.293 HD
ENDBRANCH  16  20
BRANCH  17  22
ATOM     22  O   UNL     1      30.355  62.523   4.918  1.00  0.00    -0.504 OA
ATOM     23  H   UNL     1      30.979  62.891   5.626  1.00  0.00     0.293 HD
ENDBRANCH  17  22
ENDBRANCH   1  12
BRANCH   2  24
ATOM     24  O   UNL     1      25.812  65.513   7.277  1.00  0.00    -0.502 OA
ATOM     25  H   UNL     1      25.586  65.688   8.250  1.00  0.00     0.293 HD
ENDBRANCH   2  24
BRANCH   6  26
ATOM     26  O   UNL     1      25.521  70.820   6.915  1.00  0.00    -0.507 OA
ATOM     27  H   UNL     1      24.858  71.563   6.753  1.00  0.00     0.293 HD
ENDBRANCH   6  26
BRANCH   8  28
ATOM     28  O   UNL     1      28.296  71.560   3.068  1.00  0.00    -0.508 OA
ATOM     29  H   UNL     1      29.150  71.329   2.573  1.00  0.00     0.293 HD
ENDBRANCH   8  28
TORSDOF 7
ENDMDL
MODEL 3
REMARK VINA RESULT:    14.780      3.515      9.494
REMARK INTER + INTRA:          18.193
REMARK INTER:                  18.226
REMARK INTRA:                  -0.033
REMARK UNBOUND:                -0.043
REMARK SMILES O=c1c(O)c(-c2cc(O)c(O)c(O)c2)oc2cc(O)cc(O)c12
REMARK SMILES IDX 5 1 3 2 2 3 1 4 23 5 21 6 20 7 18 8 17 9 16 10 15 11 6 12
REMARK SMILES IDX 7 13 8 14 14 15 10 16 12 17 9 18 11 20 13 22 4 24 22 26
REMARK SMILES IDX 19 28
REMARK H PARENT 9 19 11 21 13 23 4 25 22 27 19 29
REMARK Flexibility Score: inf
ROOT
ATOM      1  C   UNL     1      28.540  59.308   4.252  1.00  0.00     0.180 A 
ATOM      2  C   UNL     1      27.165  59.553   4.403  1.00  0.00     0.208 A 
ATOM      3  C   UNL     1      26.727  60.871   4.614  1.00  0.00     0.238 A 
ATOM      4  O   UNL     1      25.503  61.073   4.824  1.00  0.00    -0.285 OA
ATOM      5  C   UNL     1      27.663  61.933   4.615  1.00  0.00     0.111 A 
ATOM      6  C   UNL     1      27.328  63.312   4.774  1.00  0.00     0.134 A 
ATOM      7  C   UNL     1      28.350  64.265   4.864  1.00  0.00     0.093 A 
ATOM      8  C   UNL     1      29.691  63.899   4.736  1.00  0.00     0.123 A 
ATOM      9  C   UNL     1      30.026  62.564   4.525  1.00  0.00     0.094 A 
ATOM     10  C   UNL     1      29.032  61.583   4.470  1.00  0.00     0.146 A 
ATOM     11  O   UNL     1      29.398  60.320   4.288  1.00  0.00    -0.452 OA
ENDROOT
BRANCH   1  12
ATOM     12  C   UNL     1      29.078  57.944   4.040  1.00  0.00     0.029 A 
ATOM     13  C   UNL     1      28.563  57.101   3.042  1.00  0.00     0.062 A 
ATOM     14  C   UNL     1      29.070  55.804   2.874  1.00  0.00     0.162 A 
ATOM     15  C   UNL     1      30.084  57.461   4.892  1.00  0.00     0.062 A 
ATOM     16  C   UNL     1      30.093  55.337   3.716  1.00  0.00     0.200 A 
ATOM     17  C   UNL     1      30.596  56.170   4.731  1.00  0.00     0.162 A 
BRANCH  14  18
ATOM     18  O   UNL     1      28.556  54.978   1.876  1.00  0.00    -0.504 OA
ATOM     19  H   UNL     1      28.604  53.968   1.944  1.00  0.00     0.293 HD
ENDBRANCH  14  18
BRANCH  16  20
ATOM     20  O   UNL     1      30.612  54.051   3.560  1.00  0.00    -0.502 OA
ATOM     21  H   UNL     1      31.165  53.601   4.279  1.00  0.00     0.293 HD
ENDBRANCH  16  20
BRANCH  17  22
ATOM     22  O   UNL     1      31.605  55.732   5.587  1.00  0.00    -0.504 OA
ATOM     23  H   UNL     1      32.453  56.264   5.738  1.00  0.00     0.293 HD
ENDBRANCH  17  22
ENDBRANCH   1  12
BRANCH   2  24
ATOM     24  O   UNL     1      26.249  58.500   4.324  1.00  0.00    -0.502 OA
ATOM     25  H   UNL     1      26.209  57.762   5.017  1.00  0.00     0.293 HD
ENDBRANCH   2  24
BRANCH   6  26
ATOM     26  O   UNL     1      26.018  63.799   4.824  1.00  0.00    -0.507 OA
ATOM     27  H   UNL     1      25.259  63.365   5.326  1.00  0.00     0.293 HD
ENDBRANCH   6  26
BRANCH   8  28
ATOM     28  O   UNL     1      30.701  64.856   4.810  1.00  0.00    -0.508 OA
ATOM     29  H   UNL     1      31.559  64.682   5.320  1.00  0.00     0.293 HD
ENDBRANCH   8  28
TORSDOF 7
ENDMDL
MODEL 4
REMARK VINA RESULT:    15.138      3.519      9.543
REMARK INTER + INTRA:          18.635
REMARK INTER:                  18.671
REMARK INTRA:                  -0.036
REMARK UNBOUND:                -0.043
REMARK SMILES O=c1c(O)c(-c2cc(O)c(O)c(O)c2)oc2cc(O)cc(O)c12
REMARK SMILES IDX 5 1 3 2 2 3 1 4 23 5 21 6 20 7 18 8 17 9 16 10 15 11 6 12
REMARK SMILES IDX 7 13 8 14 14 15 10 16 12 17 9 18 11 20 13 22 4 24 22 26
REMARK SMILES IDX 19 28
REMARK H PARENT 9 19 11 21 13 23 4 25 22 27 19 29
REMARK Flexibility Score: inf
ROOT
ATOM      1  C   UNL     1      28.553  59.294   4.325  1.00  0.00     0.180 A 
ATOM      2  C   UNL     1      27.182  59.558   4.488  1.00  0.00     0.208 A 
ATOM      3  C   UNL     1      26.761  60.884   4.675  1.00  0.00     0.238 A 
ATOM      4  O   UNL     1      25.542  61.105   4.895  1.00  0.00    -0.285 OA
ATOM      5  C   UNL     1      27.708  61.936   4.641  1.00  0.00     0.111 A 
ATOM      6  C   UNL     1      27.389  63.322   4.774  1.00  0.00     0.134 A 
ATOM      7  C   UNL     1      28.422  64.266   4.831  1.00  0.00     0.093 A 
ATOM      8  C   UNL     1      29.758  63.882   4.695  1.00  0.00     0.123 A 
ATOM      9  C   UNL     1      30.076  62.539   4.509  1.00  0.00     0.094 A 
ATOM     10  C   UNL     1      29.071  61.568   4.487  1.00  0.00     0.146 A 
ATOM     11  O   UNL     1      29.421  60.298   4.329  1.00  0.00    -0.452 OA
ENDROOT
BRANCH   1  12
ATOM     12  C   UNL     1      29.074  57.921   4.138  1.00  0.00     0.029 A 
ATOM     13  C   UNL     1      30.122  57.421   4.928  1.00  0.00     0.062 A 
ATOM     14  C   UNL     1      30.618  56.127   4.719  1.00  0.00     0.162 A 
ATOM     15  C   UNL     1      28.551  57.120   3.111  1.00  0.00     0.062 A 
ATOM     16  C   UNL     1      30.073  55.323   3.704  1.00  0.00     0.200 A 
ATOM     17  C   UNL     1      29.038  55.826   2.896  1.00  0.00     0.162 A 
BRANCH  14  18
ATOM     18  O   UNL     1      31.654  55.640   5.514  1.00  0.00    -0.504 OA
ATOM     19  H   UNL     1      32.338  54.984   5.154  1.00  0.00     0.293 HD
ENDBRANCH  14  18
BRANCH  16  20
ATOM     20  O   UNL     1      30.551  54.031   3.485  1.00  0.00    -0.502 OA
ATOM     21  H   UNL     1      30.032  53.346   2.948  1.00  0.00     0.293 HD
ENDBRANCH  16  20
BRANCH  17  22
ATOM     22  O   UNL     1      28.483  55.056   1.875  1.00  0.00    -0.504 OA
ATOM     23  H   UNL     1      28.955  54.912   0.991  1.00  0.00     0.293 HD
ENDBRANCH  17  22
ENDBRANCH   1  12
BRANCH   2  24
ATOM     24  O   UNL     1      26.254  58.513   4.443  1.00  0.00    -0.502 OA
ATOM     25  H   UNL     1      26.230  57.840   3.685  1.00  0.00     0.293 HD
ENDBRANCH   2  24
BRANCH   6  26
ATOM     26  O   UNL     1      26.085  63.824   4.828  1.00  0.00    -0.507 OA
ATOM     27  H   UNL     1      25.253  63.261   4.910  1.00  0.00     0.293 HD
ENDBRANCH   6  26
BRANCH   8  28
ATOM     28  O   UNL     1      30.778  64.830   4.735  1.00  0.00    -0.508 OA
ATOM     29  H   UNL     1      31.636  64.707   4.209  1.00  0.00     0.293 HD
ENDBRANCH   8  28
TORSDOF 7
ENDMDL
