MODEL 1
REMARK VINA RESULT:    -4.668      0.000      0.000
REMARK INTER + INTRA:          -5.492
REMARK INTER:                  -5.350
REMARK INTRA:                  -0.142
REMARK UNBOUND:                -0.142
REMARK SMILES O=C([O-])C=Cc1ccc(O)cc1
REMARK SMILES IDX 6 1 7 2 12 3 8 4 11 5 9 6 5 7 4 8 2 9 1 10 3 11 10 12
REMARK H PARENT 10 13
REMARK Flexibility Score: inf
ROOT
ATOM      1  C   UNL     1       4.886   5.428  -8.916  1.00  0.00    -0.025 A 
ATOM      2  C   UNL     1       6.074   4.746  -9.232  1.00  0.00     0.012 A 
ATOM      3  C   UNL     1       4.124   4.989  -7.814  1.00  0.00     0.012 A 
ATOM      4  C   UNL     1       6.506   3.669  -8.453  1.00  0.00     0.047 A 
ATOM      5  C   UNL     1       4.559   3.910  -7.038  1.00  0.00     0.047 A 
ATOM      6  C   UNL     1       5.749   3.250  -7.352  1.00  0.00     0.115 A 
ENDROOT
BRANCH   1   7
ATOM      7  C   UNL     1       4.465   6.558  -9.780  1.00  0.00     0.010 C 
ATOM      8  C   UNL     1       5.208   7.655  -9.985  1.00  0.00     0.025 C 
BRANCH   8   9
ATOM      9  C   UNL     1       4.756   8.749 -10.860  1.00  0.00     0.064 C 
ATOM     10  O   UNL     1       3.989   8.497 -11.825  1.00  0.00    -0.545 OA
ATOM     11  O   UNL     1       5.165  10.060 -10.639  1.00  0.00    -0.545 OA
ENDBRANCH   8   9
ENDBRANCH   1   7
BRANCH   6  12
ATOM     12  O   UNL     1       6.169   2.178  -6.567  1.00  0.00    -0.508 OA
ATOM     13  H   UNL     1       7.148   2.040  -6.339  1.00  0.00     0.293 HD
ENDBRANCH   6  12
TORSDOF 3
ENDMDL
MODEL 2
REMARK VINA RESULT:    -4.665     18.573     20.130
REMARK INTER + INTRA:          -5.489
REMARK INTER:                  -5.338
REMARK INTRA:                  -0.151
REMARK UNBOUND:                -0.142
REMARK SMILES O=C([O-])C=Cc1ccc(O)cc1
REMARK SMILES IDX 6 1 7 2 12 3 8 4 11 5 9 6 5 7 4 8 2 9 1 10 3 11 10 12
REMARK H PARENT 10 13
REMARK Flexibility Score: inf
ROOT
ATOM      1  C   UNL     1      20.314  -0.592 -20.077  1.00  0.00    -0.025 A 
ATOM      2  C   UNL     1      20.855   0.678 -19.814  1.00  0.00     0.012 A 
ATOM      3  C   UNL     1      20.412  -1.115 -21.383  1.00  0.00     0.012 A 
ATOM      4  C   UNL     1      21.502   1.400 -20.821  1.00  0.00     0.047 A 
ATOM      5  C   UNL     1      21.059  -0.389 -22.389  1.00  0.00     0.047 A 
ATOM      6  C   UNL     1      21.607   0.866 -22.112  1.00  0.00     0.115 A 
ENDROOT
BRANCH   1   7
ATOM      7  C   UNL     1      19.629  -1.313 -18.976  1.00  0.00     0.010 C 
ATOM      8  C   UNL     1      19.182  -0.719 -17.861  1.00  0.00     0.025 C 
BRANCH   8   9
ATOM      9  C   UNL     1      18.497  -1.473 -16.799  1.00  0.00     0.064 C 
ATOM     10  O   UNL     1      17.934  -0.852 -15.860  1.00  0.00    -0.545 OA
ATOM     11  O   UNL     1      18.463  -2.863 -16.813  1.00  0.00    -0.545 OA
ENDBRANCH   8   9
ENDBRANCH   1   7
BRANCH   6  12
ATOM     12  O   UNL     1      22.249   1.575 -23.125  1.00  0.00    -0.508 OA
ATOM     13  H   UNL     1      23.213   1.386 -23.373  1.00  0.00     0.293 HD
ENDBRANCH   6  12
TORSDOF 3
ENDMDL
MODEL 3
REMARK VINA RESULT:    -4.640     18.674     19.645
REMARK INTER + INTRA:          -5.461
REMARK INTER:                  -5.306
REMARK INTRA:                  -0.154
REMARK UNBOUND:                -0.142
REMARK SMILES O=C([O-])C=Cc1ccc(O)cc1
REMARK SMILES IDX 6 1 7 2 12 3 8 4 11 5 9 6 5 7 4 8 2 9 1 10 3 11 10 12
REMARK H PARENT 10 13
REMARK Flexibility Score: inf
ROOT
ATOM      1  C   UNL     1      19.900  -0.890 -19.585  1.00  0.00    -0.025 A 
ATOM      2  C   UNL     1      19.913   0.139 -18.627  1.00  0.00     0.012 A 
ATOM      3  C   UNL     1      19.279  -2.113 -19.259  1.00  0.00     0.012 A 
ATOM      4  C   UNL     1      19.300  -0.038 -17.384  1.00  0.00     0.047 A 
ATOM      5  C   UNL     1      18.668  -2.287 -18.013  1.00  0.00     0.047 A 
ATOM      6  C   UNL     1      18.674  -1.252 -17.075  1.00  0.00     0.115 A 
ENDROOT
BRANCH   1   7
ATOM      7  C   UNL     1      20.573  -0.656 -20.887  1.00  0.00     0.010 C 
ATOM      8  C   UNL     1      21.156   0.502 -21.226  1.00  0.00     0.025 C 
BRANCH   8   9
ATOM      9  C   UNL     1      21.824   0.686 -22.525  1.00  0.00     0.064 C 
ATOM     10  O   UNL     1      22.343  -0.303 -23.103  1.00  0.00    -0.545 OA
ATOM     11  O   UNL     1      21.892   1.939 -23.125  1.00  0.00    -0.545 OA
ENDBRANCH   8   9
ENDBRANCH   1   7
BRANCH   6  12
ATOM     12  O   UNL     1      18.060  -1.441 -15.839  1.00  0.00    -0.508 OA
ATOM     13  H   UNL     1      17.138  -1.066 -15.643  1.00  0.00     0.293 HD
ENDBRANCH   6  12
TORSDOF 3
ENDMDL
MODEL 4
REMARK VINA RESULT:    -4.638     18.327     19.860
REMARK INTER + INTRA:          -5.457
REMARK INTER:                  -5.318
REMARK INTRA:                  -0.139
REMARK UNBOUND:                -0.142
REMARK SMILES O=C([O-])C=Cc1ccc(O)cc1
REMARK SMILES IDX 6 1 7 2 12 3 8 4 11 5 9 6 5 7 4 8 2 9 1 10 3 11 10 12
REMARK H PARENT 10 13
REMARK Flexibility Score: inf
ROOT
ATOM      1  C   UNL     1      20.258  -0.507 -19.704  1.00  0.00    -0.025 A 
ATOM      2  C   UNL     1      20.278  -1.226 -20.912  1.00  0.00     0.012 A 
ATOM      3  C   UNL     1      20.884   0.756 -19.656  1.00  0.00     0.012 A 
ATOM      4  C   UNL     1      20.884  -0.689 -22.051  1.00  0.00     0.047 A 
ATOM      5  C   UNL     1      21.490   1.289 -20.798  1.00  0.00     0.047 A 
ATOM      6  C   UNL     1      21.490   0.572 -21.997  1.00  0.00     0.115 A 
ENDROOT
BRANCH   1   7
ATOM      7  C   UNL     1      19.611  -1.125 -18.521  1.00  0.00     0.010 C 
ATOM      8  C   UNL     1      19.055  -0.422 -17.524  1.00  0.00     0.025 C 
BRANCH   8   9
ATOM      9  C   UNL     1      18.413  -1.077 -16.373  1.00  0.00     0.064 C 
ATOM     10  O   UNL     1      18.100  -0.394 -15.364  1.00  0.00    -0.545 OA
ATOM     11  O   UNL     1      18.146  -2.442 -16.382  1.00  0.00    -0.545 OA
ENDBRANCH   8   9
ENDBRANCH   1   7
BRANCH   6  12
ATOM     12  O   UNL     1      22.097   1.118 -23.125  1.00  0.00    -0.508 OA
ATOM     13  H   UNL     1      21.708   0.986 -24.052  1.00  0.00     0.293 HD
ENDBRANCH   6  12
TORSDOF 3
ENDMDL
MODEL 5
REMARK VINA RESULT:    -4.615     10.311     11.407
REMARK INTER + INTRA:          -5.431
REMARK INTER:                  -5.295
REMARK INTRA:                  -0.136
REMARK UNBOUND:                -0.142
REMARK SMILES O=C([O-])C=Cc1ccc(O)cc1
REMARK SMILES IDX 6 1 7 2 12 3 8 4 11 5 9 6 5 7 4 8 2 9 1 10 3 11 10 12
REMARK H PARENT 10 13
REMARK Flexibility Score: inf
ROOT
ATOM      1  C   UNL     1       8.673  -5.179 -10.624  1.00  0.00    -0.025 A 
ATOM      2  C   UNL     1      10.018  -5.582 -10.695  1.00  0.00     0.012 A 
ATOM      3  C   UNL     1       8.033  -5.168  -9.368  1.00  0.00     0.012 A 
ATOM      4  C   UNL     1      10.716  -5.940  -9.539  1.00  0.00     0.047 A 
ATOM      5  C   UNL     1       8.735  -5.529  -8.213  1.00  0.00     0.047 A 
ATOM      6  C   UNL     1      10.075  -5.913  -8.293  1.00  0.00     0.115 A 
ENDROOT
BRANCH   1   7
ATOM      7  C   UNL     1       7.974  -4.817 -11.882  1.00  0.00     0.010 C 
ATOM      8  C   UNL     1       7.725  -3.556 -12.259  1.00  0.00     0.025 C 
BRANCH   8   9
ATOM      9  C   UNL     1       7.037  -3.242 -13.522  1.00  0.00     0.064 C 
ATOM     10  O   UNL     1       7.114  -4.044 -14.488  1.00  0.00    -0.545 OA
ATOM     11  O   UNL     1       6.303  -2.070 -13.667  1.00  0.00    -0.545 OA
ENDBRANCH   8   9
ENDBRANCH   1   7
BRANCH   6  12
ATOM     12  O   UNL     1      10.760  -6.268  -7.134  1.00  0.00    -0.508 OA
ATOM     13  H   UNL     1      11.008  -5.578  -6.433  1.00  0.00     0.293 HD
ENDBRANCH   6  12
TORSDOF 3
ENDMDL
MODEL 6
REMARK VINA RESULT:    -4.444     10.094     11.214
REMARK INTER + INTRA:          -5.236
REMARK INTER:                  -5.096
REMARK INTRA:                  -0.140
REMARK UNBOUND:                -0.142
REMARK SMILES O=C([O-])C=Cc1ccc(O)cc1
REMARK SMILES IDX 6 1 7 2 12 3 8 4 11 5 9 6 5 7 4 8 2 9 1 10 3 11 10 12
REMARK H PARENT 10 13
REMARK Flexibility Score: inf
ROOT
ATOM      1  C   UNL     1       7.909  -5.185 -10.456  1.00  0.00    -0.025 A 
ATOM      2  C   UNL     1       8.232  -6.552 -10.492  1.00  0.00     0.012 A 
ATOM      3  C   UNL     1       7.305  -4.660  -9.295  1.00  0.00     0.012 A 
ATOM      4  C   UNL     1       7.983  -7.372  -9.388  1.00  0.00     0.047 A 
ATOM      5  C   UNL     1       7.056  -5.484  -8.193  1.00  0.00     0.047 A 
ATOM      6  C   UNL     1       7.396  -6.838  -8.234  1.00  0.00     0.115 A 
ENDROOT
BRANCH   1   7
ATOM      7  C   UNL     1       8.184  -4.359 -11.658  1.00  0.00     0.010 C 
ATOM      8  C   UNL     1       7.355  -3.411 -12.115  1.00  0.00     0.025 C 
BRANCH   8   9
ATOM      9  C   UNL     1       7.674  -2.606 -13.306  1.00  0.00     0.064 C 
ATOM     10  O   UNL     1       8.736  -1.933 -13.336  1.00  0.00    -0.545 OA
ATOM     11  O   UNL     1       6.817  -2.575 -14.401  1.00  0.00    -0.545 OA
ENDBRANCH   8   9
ENDBRANCH   1   7
BRANCH   6  12
ATOM     12  O   UNL     1       7.143  -7.645  -7.127  1.00  0.00    -0.508 OA
ATOM     13  H   UNL     1       6.923  -7.246  -6.221  1.00  0.00     0.293 HD
ENDBRANCH   6  12
TORSDOF 3
ENDMDL
MODEL 7
REMARK VINA RESULT:    -4.440     17.176     18.860
REMARK INTER + INTRA:          -5.231
REMARK INTER:                  -5.095
REMARK INTRA:                  -0.137
REMARK UNBOUND:                -0.142
REMARK SMILES O=C([O-])C=Cc1ccc(O)cc1
REMARK SMILES IDX 6 1 7 2 12 3 8 4 11 5 9 6 5 7 4 8 2 9 1 10 3 11 10 12
REMARK H PARENT 10 13
REMARK Flexibility Score: inf
ROOT
ATOM      1  C   UNL     1      19.565  -0.715 -18.588  1.00  0.00    -0.025 A 
ATOM      2  C   UNL     1      19.051  -0.658 -19.895  1.00  0.00     0.012 A 
ATOM      3  C   UNL     1      20.769  -0.038 -18.301  1.00  0.00     0.012 A 
ATOM      4  C   UNL     1      19.706   0.076 -20.887  1.00  0.00     0.047 A 
ATOM      5  C   UNL     1      21.422   0.694 -19.297  1.00  0.00     0.047 A 
ATOM      6  C   UNL     1      20.894   0.757 -20.589  1.00  0.00     0.115 A 
ENDROOT
BRANCH   1   7
ATOM      7  C   UNL     1      18.837  -1.516 -17.573  1.00  0.00     0.010 C 
ATOM      8  C   UNL     1      18.358  -1.010 -16.428  1.00  0.00     0.025 C 
BRANCH   8   9
ATOM      9  C   UNL     1      17.631  -1.840 -15.454  1.00  0.00     0.064 C 
ATOM     10  O   UNL     1      18.033  -3.006 -15.208  1.00  0.00    -0.545 OA
ATOM     11  O   UNL     1      16.502  -1.356 -14.801  1.00  0.00    -0.545 OA
ENDBRANCH   8   9
ENDBRANCH   1   7
BRANCH   6  12
ATOM     12  O   UNL     1      21.557   1.492 -21.569  1.00  0.00    -0.508 OA
ATOM     13  H   UNL     1      22.569   1.512 -21.621  1.00  0.00     0.293 HD
ENDBRANCH   6  12
TORSDOF 3
ENDMDL
MODEL 8
REMARK VINA RESULT:    -4.439     11.431     12.998
REMARK INTER + INTRA:          -5.229
REMARK INTER:                  -5.084
REMARK INTRA:                  -0.145
REMARK UNBOUND:                -0.142
REMARK SMILES O=C([O-])C=Cc1ccc(O)cc1
REMARK SMILES IDX 6 1 7 2 12 3 8 4 11 5 9 6 5 7 4 8 2 9 1 10 3 11 10 12
REMARK H PARENT 10 13
REMARK Flexibility Score: inf
ROOT
ATOM      1  C   UNL     1       8.508  -5.808 -10.291  1.00  0.00    -0.025 A 
ATOM      2  C   UNL     1       8.065  -4.548 -10.729  1.00  0.00     0.012 A 
ATOM      3  C   UNL     1       8.494  -6.886 -11.199  1.00  0.00     0.012 A 
ATOM      4  C   UNL     1       7.643  -4.361 -12.048  1.00  0.00     0.047 A 
ATOM      5  C   UNL     1       8.070  -6.695 -12.518  1.00  0.00     0.047 A 
ATOM      6  C   UNL     1       7.646  -5.435 -12.947  1.00  0.00     0.115 A 
ENDROOT
BRANCH   1   7
ATOM      7  C   UNL     1       8.937  -5.957  -8.878  1.00  0.00     0.010 C 
ATOM      8  C   UNL     1       8.250  -5.470  -7.836  1.00  0.00     0.025 C 
BRANCH   8   9
ATOM      9  C   UNL     1       8.707  -5.651  -6.448  1.00  0.00     0.064 C 
ATOM     10  O   UNL     1       9.850  -5.246  -6.112  1.00  0.00    -0.545 OA
ATOM     11  O   UNL     1       7.896  -6.266  -5.501  1.00  0.00    -0.545 OA
ENDBRANCH   8   9
ENDBRANCH   1   7
BRANCH   6  12
ATOM     12  O   UNL     1       7.228  -5.262 -14.264  1.00  0.00    -0.508 OA
ATOM     13  H   UNL     1       7.452  -4.421 -14.784  1.00  0.00     0.293 HD
ENDBRANCH   6  12
TORSDOF 3
ENDMDL
MODEL 9
REMARK VINA RESULT:    -4.420     12.527     14.337
REMARK INTER + INTRA:          -5.207
REMARK INTER:                  -5.072
REMARK INTRA:                  -0.135
REMARK UNBOUND:                -0.142
REMARK SMILES O=C([O-])C=Cc1ccc(O)cc1
REMARK SMILES IDX 6 1 7 2 12 3 8 4 11 5 9 6 5 7 4 8 2 9 1 10 3 11 10 12
REMARK H PARENT 10 13
REMARK Flexibility Score: inf
ROOT
ATOM      1  C   UNL     1       8.399  -7.530  -8.726  1.00  0.00    -0.025 A 
ATOM      2  C   UNL     1       7.666  -6.615  -7.950  1.00  0.00     0.012 A 
ATOM      3  C   UNL     1       9.805  -7.535  -8.621  1.00  0.00     0.012 A 
ATOM      4  C   UNL     1       8.316  -5.744  -7.071  1.00  0.00     0.047 A 
ATOM      5  C   UNL     1      10.452  -6.661  -7.742  1.00  0.00     0.047 A 
ATOM      6  C   UNL     1       9.713  -5.767  -6.964  1.00  0.00     0.115 A 
ENDROOT
BRANCH   1   7
ATOM      7  C   UNL     1       7.662  -8.426  -9.650  1.00  0.00     0.010 C 
ATOM      8  C   UNL     1       7.685  -8.302 -10.984  1.00  0.00     0.025 C 
BRANCH   8   9
ATOM      9  C   UNL     1       6.948  -9.223 -11.865  1.00  0.00     0.064 C 
ATOM     10  O   UNL     1       7.432  -9.536 -12.983  1.00  0.00    -0.545 OA
ATOM     11  O   UNL     1       5.720  -9.751 -11.482  1.00  0.00    -0.545 OA
ENDBRANCH   8   9
ENDBRANCH   1   7
BRANCH   6  12
ATOM     12  O   UNL     1      10.373  -4.904  -6.093  1.00  0.00    -0.508 OA
ATOM     13  H   UNL     1      10.403  -5.081  -5.095  1.00  0.00     0.293 HD
ENDBRANCH   6  12
TORSDOF 3
ENDMDL
