MODEL 1
REMARK VINA RESULT:    -4.299      0.000      0.000
REMARK INTER + INTRA:          -5.979
REMARK INTER:                  -5.430
REMARK INTRA:                  -0.549
REMARK UNBOUND:                -0.549
REMARK SMILES Oc1cc(O)cc(CCc2ccccc2O)c1
REMARK SMILES IDX 9 1 10 2 12 3 13 4 11 5 14 6 15 7 16 8 8 10 7 11 6 12 17 13
REMARK SMILES IDX 4 14 2 15 3 16 5 17 1 19
REMARK H PARENT 16 9 5 18 1 20
REMARK Flexibility Score: inf
ROOT
ATOM      1  C   UNL     1     -25.363  50.141  42.889  1.00  0.00     0.044 C 
ENDROOT
BRANCH   1   2
ATOM      2  C   UNL     1     -26.360  49.407  42.027  1.00  0.00    -0.006 A 
ATOM      3  C   UNL     1     -27.733  47.439  41.628  1.00  0.00     0.001 A 
ATOM      4  C   UNL     1     -28.161  47.979  40.414  1.00  0.00     0.004 A 
ATOM      5  C   UNL     1     -26.833  48.147  42.430  1.00  0.00     0.007 A 
ATOM      6  C   UNL     1     -27.687  49.224  39.995  1.00  0.00     0.046 A 
ATOM      7  C   UNL     1     -26.781  49.941  40.792  1.00  0.00     0.118 A 
BRANCH   7   8
ATOM      8  O   UNL     1     -26.301  51.178  40.361  1.00  0.00    -0.508 OA
ATOM      9  H   UNL     1     -26.790  52.040  40.572  1.00  0.00     0.293 HD
ENDBRANCH   7   8
ENDBRANCH   1   2
BRANCH   1  10
ATOM     10  C   UNL     1     -26.061  50.792  44.086  1.00  0.00     0.040 C 
BRANCH  10  11
ATOM     11  C   UNL     1     -25.882  52.286  44.053  1.00  0.00    -0.040 A 
ATOM     12  C   UNL     1     -26.653  53.109  44.889  1.00  0.00     0.050 A 
ATOM     13  C   UNL     1     -24.903  52.865  43.228  1.00  0.00     0.050 A 
ATOM     14  C   UNL     1     -26.466  54.495  44.886  1.00  0.00     0.119 A 
ATOM     15  C   UNL     1     -24.713  54.250  43.222  1.00  0.00     0.119 A 
ATOM     16  C   UNL     1     -25.497  55.066  44.049  1.00  0.00     0.092 A 
BRANCH  14  17
ATOM     17  O   UNL     1     -27.246  55.297  45.718  1.00  0.00    -0.508 OA
ATOM     18  H   UNL     1     -27.725  56.117  45.366  1.00  0.00     0.293 HD
ENDBRANCH  14  17
BRANCH  15  19
ATOM     19  O   UNL     1     -23.741  54.806  42.392  1.00  0.00    -0.508 OA
ATOM     20  H   UNL     1     -23.785  54.706  41.385  1.00  0.00     0.293 HD
ENDBRANCH  15  19
ENDBRANCH  10  11
ENDBRANCH   1  10
TORSDOF 6
ENDMDL
MODEL 2
REMARK VINA RESULT:    -4.282      0.080      2.040
REMARK INTER + INTRA:          -5.957
REMARK INTER:                  -5.407
REMARK INTRA:                  -0.550
REMARK UNBOUND:                -0.549
REMARK SMILES Oc1cc(O)cc(CCc2ccccc2O)c1
REMARK SMILES IDX 9 1 10 2 12 3 13 4 11 5 14 6 15 7 16 8 8 10 7 11 6 12 17 13
REMARK SMILES IDX 4 14 2 15 3 16 5 17 1 19
REMARK H PARENT 16 9 5 18 1 20
REMARK Flexibility Score: inf
ROOT
ATOM      1  C   UNL     1     -25.371  50.128  42.872  1.00  0.00     0.044 C 
ENDROOT
BRANCH   1   2
ATOM      2  C   UNL     1     -26.366  49.386  42.015  1.00  0.00    -0.006 A 
ATOM      3  C   UNL     1     -27.730  47.411  41.626  1.00  0.00     0.001 A 
ATOM      4  C   UNL     1     -28.164  47.945  40.411  1.00  0.00     0.004 A 
ATOM      5  C   UNL     1     -26.832  48.125  42.423  1.00  0.00     0.007 A 
ATOM      6  C   UNL     1     -27.697  49.191  39.987  1.00  0.00     0.046 A 
ATOM      7  C   UNL     1     -26.793  49.914  40.779  1.00  0.00     0.118 A 
BRANCH   7   8
ATOM      8  O   UNL     1     -26.321  51.152  40.343  1.00  0.00    -0.508 OA
ATOM      9  H   UNL     1     -26.128  51.332  39.365  1.00  0.00     0.293 HD
ENDBRANCH   7   8
ENDBRANCH   1   2
BRANCH   1  10
ATOM     10  C   UNL     1     -26.068  50.774  44.071  1.00  0.00     0.040 C 
BRANCH  10  11
ATOM     11  C   UNL     1     -25.874  52.268  44.053  1.00  0.00    -0.040 A 
ATOM     12  C   UNL     1     -24.968  52.853  43.155  1.00  0.00     0.050 A 
ATOM     13  C   UNL     1     -26.639  53.091  44.897  1.00  0.00     0.050 A 
ATOM     14  C   UNL     1     -24.811  54.242  43.113  1.00  0.00     0.119 A 
ATOM     15  C   UNL     1     -26.484  54.480  44.857  1.00  0.00     0.119 A 
ATOM     16  C   UNL     1     -25.567  55.056  43.967  1.00  0.00     0.092 A 
BRANCH  14  17
ATOM     17  O   UNL     1     -23.901  54.804  42.219  1.00  0.00    -0.508 OA
ATOM     18  H   UNL     1     -22.904  54.658  42.317  1.00  0.00     0.293 HD
ENDBRANCH  14  17
BRANCH  15  19
ATOM     19  O   UNL     1     -27.247  55.281  45.706  1.00  0.00    -0.508 OA
ATOM     20  H   UNL     1     -26.900  55.574  46.610  1.00  0.00     0.293 HD
ENDBRANCH  15  19
ENDBRANCH  10  11
ENDBRANCH   1  10
TORSDOF 6
ENDMDL
MODEL 3
REMARK VINA RESULT:    -4.202      1.540      2.019
REMARK INTER + INTRA:          -5.856
REMARK INTER:                  -5.394
REMARK INTRA:                  -0.462
REMARK UNBOUND:                -0.549
REMARK SMILES Oc1cc(O)cc(CCc2ccccc2O)c1
REMARK SMILES IDX 9 1 10 2 12 3 13 4 11 5 14 6 15 7 16 8 8 10 7 11 6 12 17 13
REMARK SMILES IDX 4 14 2 15 3 16 5 17 1 19
REMARK H PARENT 16 9 5 18 1 20
REMARK Flexibility Score: inf
ROOT
ATOM      1  C   UNL     1     -26.407  49.337  41.001  1.00  0.00     0.044 C 
ENDROOT
BRANCH   1   2
ATOM      2  C   UNL     1     -27.560  48.371  40.880  1.00  0.00    -0.006 A 
ATOM      3  C   UNL     1     -28.832  46.507  41.787  1.00  0.00     0.001 A 
ATOM      4  C   UNL     1     -29.652  46.511  40.656  1.00  0.00     0.004 A 
ATOM      5  C   UNL     1     -27.788  47.429  41.897  1.00  0.00     0.007 A 
ATOM      6  C   UNL     1     -29.426  47.433  39.631  1.00  0.00     0.046 A 
ATOM      7  C   UNL     1     -28.379  48.361  39.732  1.00  0.00     0.118 A 
BRANCH   7   8
ATOM      8  O   UNL     1     -28.152  49.270  38.699  1.00  0.00    -0.508 OA
ATOM      9  H   UNL     1     -27.275  49.770  38.615  1.00  0.00     0.293 HD
ENDBRANCH   7   8
ENDBRANCH   1   2
BRANCH   1  10
ATOM     10  C   UNL     1     -26.166  49.707  42.466  1.00  0.00     0.040 C 
BRANCH  10  11
ATOM     11  C   UNL     1     -26.142  51.203  42.637  1.00  0.00    -0.040 A 
ATOM     12  C   UNL     1     -26.607  51.787  43.825  1.00  0.00     0.050 A 
ATOM     13  C   UNL     1     -25.603  52.022  41.630  1.00  0.00     0.050 A 
ATOM     14  C   UNL     1     -26.555  53.174  44.000  1.00  0.00     0.119 A 
ATOM     15  C   UNL     1     -25.550  53.409  41.802  1.00  0.00     0.119 A 
ATOM     16  C   UNL     1     -26.029  53.985  42.986  1.00  0.00     0.092 A 
BRANCH  14  17
ATOM     17  O   UNL     1     -27.028  53.735  45.185  1.00  0.00    -0.508 OA
ATOM     18  H   UNL     1     -26.718  53.402  46.090  1.00  0.00     0.293 HD
ENDBRANCH  14  17
BRANCH  15  19
ATOM     19  O   UNL     1     -25.017  54.206  40.790  1.00  0.00    -0.508 OA
ATOM     20  H   UNL     1     -24.550  55.080  40.996  1.00  0.00     0.293 HD
ENDBRANCH  15  19
ENDBRANCH  10  11
ENDBRANCH   1  10
TORSDOF 6
ENDMDL
MODEL 4
REMARK VINA RESULT:    -4.178      1.582      2.849
REMARK INTER + INTRA:          -5.826
REMARK INTER:                  -5.342
REMARK INTRA:                  -0.484
REMARK UNBOUND:                -0.549
REMARK SMILES Oc1cc(O)cc(CCc2ccccc2O)c1
REMARK SMILES IDX 9 1 10 2 12 3 13 4 11 5 14 6 15 7 16 8 8 10 7 11 6 12 17 13
REMARK SMILES IDX 4 14 2 15 3 16 5 17 1 19
REMARK H PARENT 16 9 5 18 1 20
REMARK Flexibility Score: inf
ROOT
ATOM      1  C   UNL     1     -26.413  49.317  40.898  1.00  0.00     0.044 C 
ENDROOT
BRANCH   1   2
ATOM      2  C   UNL     1     -27.563  48.344  40.828  1.00  0.00    -0.006 A 
ATOM      3  C   UNL     1     -28.824  46.520  41.827  1.00  0.00     0.001 A 
ATOM      4  C   UNL     1     -29.651  46.471  40.702  1.00  0.00     0.004 A 
ATOM      5  C   UNL     1     -27.782  47.449  41.889  1.00  0.00     0.007 A 
ATOM      6  C   UNL     1     -29.434  47.345  39.635  1.00  0.00     0.046 A 
ATOM      7  C   UNL     1     -28.389  48.280  39.688  1.00  0.00     0.118 A 
BRANCH   7   8
ATOM      8  O   UNL     1     -28.171  49.142  38.612  1.00  0.00    -0.508 OA
ATOM      9  H   UNL     1     -27.408  49.809  38.613  1.00  0.00     0.293 HD
ENDBRANCH   7   8
ENDBRANCH   1   2
BRANCH   1  10
ATOM     10  C   UNL     1     -26.058  49.629  42.354  1.00  0.00     0.040 C 
BRANCH  10  11
ATOM     11  C   UNL     1     -26.042  51.117  42.588  1.00  0.00    -0.040 A 
ATOM     12  C   UNL     1     -25.589  51.985  41.582  1.00  0.00     0.050 A 
ATOM     13  C   UNL     1     -26.533  51.650  43.791  1.00  0.00     0.050 A 
ATOM     14  C   UNL     1     -25.605  53.370  41.784  1.00  0.00     0.119 A 
ATOM     15  C   UNL     1     -26.549  53.033  43.996  1.00  0.00     0.119 A 
ATOM     16  C   UNL     1     -26.082  53.893  42.993  1.00  0.00     0.092 A 
BRANCH  14  17
ATOM     17  O   UNL     1     -25.145  54.216  40.776  1.00  0.00    -0.508 OA
ATOM     18  H   UNL     1     -24.825  55.156  40.979  1.00  0.00     0.293 HD
ENDBRANCH  14  17
BRANCH  15  19
ATOM     19  O   UNL     1     -27.034  53.543  45.199  1.00  0.00    -0.508 OA
ATOM     20  H   UNL     1     -28.021  53.523  45.423  1.00  0.00     0.293 HD
ENDBRANCH  15  19
ENDBRANCH  10  11
ENDBRANCH   1  10
TORSDOF 6
ENDMDL
MODEL 5
REMARK VINA RESULT:    -4.135      2.466      6.594
REMARK INTER + INTRA:          -5.772
REMARK INTER:                  -5.220
REMARK INTRA:                  -0.551
REMARK UNBOUND:                -0.549
REMARK SMILES Oc1cc(O)cc(CCc2ccccc2O)c1
REMARK SMILES IDX 9 1 10 2 12 3 13 4 11 5 14 6 15 7 16 8 8 10 7 11 6 12 17 13
REMARK SMILES IDX 4 14 2 15 3 16 5 17 1 19
REMARK H PARENT 16 9 5 18 1 20
REMARK Flexibility Score: inf
ROOT
ATOM      1  C   UNL     1     -26.302  50.407  41.215  1.00  0.00     0.044 C 
ENDROOT
BRANCH   1   2
ATOM      2  C   UNL     1     -26.140  51.264  42.446  1.00  0.00    -0.006 A 
ATOM      3  C   UNL     1     -25.918  51.435  44.862  1.00  0.00     0.001 A 
ATOM      4  C   UNL     1     -25.908  52.828  44.766  1.00  0.00     0.004 A 
ATOM      5  C   UNL     1     -26.037  50.655  43.709  1.00  0.00     0.007 A 
ATOM      6  C   UNL     1     -26.024  53.445  43.519  1.00  0.00     0.046 A 
ATOM      7  C   UNL     1     -26.147  52.671  42.355  1.00  0.00     0.118 A 
BRANCH   7   8
ATOM      8  O   UNL     1     -26.276  53.294  41.114  1.00  0.00    -0.508 OA
ATOM      9  H   UNL     1     -26.955  52.981  40.431  1.00  0.00     0.293 HD
ENDBRANCH   7   8
ENDBRANCH   1   2
BRANCH   1  10
ATOM     10  C   UNL     1     -25.927  48.954  41.517  1.00  0.00     0.040 C 
BRANCH  10  11
ATOM     11  C   UNL     1     -27.156  48.084  41.537  1.00  0.00    -0.040 A 
ATOM     12  C   UNL     1     -28.066  48.121  40.469  1.00  0.00     0.050 A 
ATOM     13  C   UNL     1     -27.373  47.189  42.598  1.00  0.00     0.050 A 
ATOM     14  C   UNL     1     -29.191  47.289  40.469  1.00  0.00     0.119 A 
ATOM     15  C   UNL     1     -28.497  46.356  42.601  1.00  0.00     0.119 A 
ATOM     16  C   UNL     1     -29.408  46.409  41.537  1.00  0.00     0.092 A 
BRANCH  14  17
ATOM     17  O   UNL     1     -30.087  47.345  39.403  1.00  0.00    -0.508 OA
ATOM     18  H   UNL     1     -30.814  48.049  39.358  1.00  0.00     0.293 HD
ENDBRANCH  14  17
BRANCH  15  19
ATOM     19  O   UNL     1     -28.698  45.479  43.665  1.00  0.00    -0.508 OA
ATOM     20  H   UNL     1     -29.585  45.430  44.150  1.00  0.00     0.293 HD
ENDBRANCH  15  19
ENDBRANCH  10  11
ENDBRANCH   1  10
TORSDOF 6
ENDMDL
MODEL 6
REMARK VINA RESULT:    -4.014      1.711      6.216
REMARK INTER + INTRA:          -5.620
REMARK INTER:                  -5.065
REMARK INTRA:                  -0.555
REMARK UNBOUND:                -0.549
REMARK SMILES Oc1cc(O)cc(CCc2ccccc2O)c1
REMARK SMILES IDX 9 1 10 2 12 3 13 4 11 5 14 6 15 7 16 8 8 10 7 11 6 12 17 13
REMARK SMILES IDX 4 14 2 15 3 16 5 17 1 19
REMARK H PARENT 16 9 5 18 1 20
REMARK Flexibility Score: inf
ROOT
ATOM      1  C   UNL     1     -25.440  51.754  41.840  1.00  0.00     0.044 C 
ENDROOT
BRANCH   1   2
ATOM      2  C   UNL     1     -25.716  52.777  42.914  1.00  0.00    -0.006 A 
ATOM      3  C   UNL     1     -26.978  53.462  44.876  1.00  0.00     0.001 A 
ATOM      4  C   UNL     1     -26.308  54.686  44.885  1.00  0.00     0.004 A 
ATOM      5  C   UNL     1     -26.688  52.512  43.893  1.00  0.00     0.007 A 
ATOM      6  C   UNL     1     -25.350  54.967  43.908  1.00  0.00     0.046 A 
ATOM      7  C   UNL     1     -25.053  54.021  42.916  1.00  0.00     0.118 A 
BRANCH   7   8
ATOM      8  O   UNL     1     -24.105  54.314  41.935  1.00  0.00    -0.508 OA
ATOM      9  H   UNL     1     -23.254  53.772  41.841  1.00  0.00     0.293 HD
ENDBRANCH   7   8
ENDBRANCH   1   2
BRANCH   1  10
ATOM     10  C   UNL     1     -25.345  50.350  42.444  1.00  0.00     0.040 C 
BRANCH  10  11
ATOM     11  C   UNL     1     -26.340  49.426  41.794  1.00  0.00    -0.040 A 
ATOM     12  C   UNL     1     -26.755  48.258  42.451  1.00  0.00     0.050 A 
ATOM     13  C   UNL     1     -26.902  49.755  40.549  1.00  0.00     0.050 A 
ATOM     14  C   UNL     1     -27.705  47.415  41.864  1.00  0.00     0.119 A 
ATOM     15  C   UNL     1     -27.851  48.913  39.959  1.00  0.00     0.119 A 
ATOM     16  C   UNL     1     -28.251  47.741  40.616  1.00  0.00     0.092 A 
BRANCH  14  17
ATOM     17  O   UNL     1     -28.099  46.256  42.530  1.00  0.00    -0.508 OA
ATOM     18  H   UNL     1     -28.692  45.565  42.084  1.00  0.00     0.293 HD
ENDBRANCH  14  17
BRANCH  15  19
ATOM     19  O   UNL     1     -28.394  49.253  38.720  1.00  0.00    -0.508 OA
ATOM     20  H   UNL     1     -29.253  49.784  38.647  1.00  0.00     0.293 HD
ENDBRANCH  15  19
ENDBRANCH  10  11
ENDBRANCH   1  10
TORSDOF 6
ENDMDL
MODEL 7
REMARK VINA RESULT:    -3.945      8.816      9.946
REMARK INTER + INTRA:          -5.532
REMARK INTER:                  -5.100
REMARK INTRA:                  -0.432
REMARK UNBOUND:                -0.549
REMARK SMILES Oc1cc(O)cc(CCc2ccccc2O)c1
REMARK SMILES IDX 9 1 10 2 12 3 13 4 11 5 14 6 15 7 16 8 8 10 7 11 6 12 17 13
REMARK SMILES IDX 4 14 2 15 3 16 5 17 1 19
REMARK H PARENT 16 9 5 18 1 20
REMARK Flexibility Score: inf
ROOT
ATOM      1  C   UNL     1     -27.366  53.253  33.064  1.00  0.00     0.044 C 
ENDROOT
BRANCH   1   2
ATOM      2  C   UNL     1     -27.931  51.894  33.392  1.00  0.00    -0.006 A 
ATOM      3  C   UNL     1     -27.594  49.631  34.218  1.00  0.00     0.001 A 
ATOM      4  C   UNL     1     -28.931  49.330  33.950  1.00  0.00     0.004 A 
ATOM      5  C   UNL     1     -27.094  50.905  33.937  1.00  0.00     0.007 A 
ATOM      6  C   UNL     1     -29.770  50.299  33.395  1.00  0.00     0.046 A 
ATOM      7  C   UNL     1     -29.276  51.581  33.108  1.00  0.00     0.118 A 
BRANCH   7   8
ATOM      8  O   UNL     1     -30.116  52.540  32.541  1.00  0.00    -0.508 OA
ATOM      9  H   UNL     1     -30.146  53.491  32.888  1.00  0.00     0.293 HD
ENDBRANCH   7   8
ENDBRANCH   1   2
BRANCH   1  10
ATOM     10  C   UNL     1     -27.243  54.106  34.329  1.00  0.00     0.040 C 
BRANCH  10  11
ATOM     11  C   UNL     1     -27.464  55.561  34.009  1.00  0.00    -0.040 A 
ATOM     12  C   UNL     1     -27.372  56.529  35.021  1.00  0.00     0.050 A 
ATOM     13  C   UNL     1     -27.709  55.966  32.686  1.00  0.00     0.050 A 
ATOM     14  C   UNL     1     -27.544  57.885  34.721  1.00  0.00     0.119 A 
ATOM     15  C   UNL     1     -27.882  57.320  32.383  1.00  0.00     0.119 A 
ATOM     16  C   UNL     1     -27.802  58.280  33.401  1.00  0.00     0.092 A 
BRANCH  14  17
ATOM     17  O   UNL     1     -27.455  58.831  35.740  1.00  0.00    -0.508 OA
ATOM     18  H   UNL     1     -26.922  58.653  36.583  1.00  0.00     0.293 HD
ENDBRANCH  14  17
BRANCH  15  19
ATOM     19  O   UNL     1     -28.129  57.702  31.065  1.00  0.00    -0.508 OA
ATOM     20  H   UNL     1     -27.528  57.406  30.307  1.00  0.00     0.293 HD
ENDBRANCH  15  19
ENDBRANCH  10  11
ENDBRANCH   1  10
TORSDOF 6
ENDMDL
MODEL 8
REMARK VINA RESULT:    -3.925      8.965     11.451
REMARK INTER + INTRA:          -5.507
REMARK INTER:                  -4.863
REMARK INTRA:                  -0.644
REMARK UNBOUND:                -0.549
REMARK SMILES Oc1cc(O)cc(CCc2ccccc2O)c1
REMARK SMILES IDX 9 1 10 2 12 3 13 4 11 5 14 6 15 7 16 8 8 10 7 11 6 12 17 13
REMARK SMILES IDX 4 14 2 15 3 16 5 17 1 19
REMARK H PARENT 16 9 5 18 1 20
REMARK Flexibility Score: inf
ROOT
ATOM      1  C   UNL     1     -26.522  58.289  34.525  1.00  0.00     0.044 C 
ENDROOT
BRANCH   1   2
ATOM      2  C   UNL     1     -27.233  58.230  35.854  1.00  0.00    -0.006 A 
ATOM      3  C   UNL     1     -28.604  59.316  37.544  1.00  0.00     0.001 A 
ATOM      4  C   UNL     1     -28.510  58.182  38.354  1.00  0.00     0.004 A 
ATOM      5  C   UNL     1     -27.966  59.343  36.301  1.00  0.00     0.007 A 
ATOM      6  C   UNL     1     -27.773  57.076  37.927  1.00  0.00     0.046 A 
ATOM      7  C   UNL     1     -27.127  57.094  36.682  1.00  0.00     0.118 A 
BRANCH   7   8
ATOM      8  O   UNL     1     -26.381  55.990  36.268  1.00  0.00    -0.508 OA
ATOM      9  H   UNL     1     -26.120  55.254  36.914  1.00  0.00     0.293 HD
ENDBRANCH   7   8
ENDBRANCH   1   2
BRANCH   1  10
ATOM     10  C   UNL     1     -27.479  57.929  33.385  1.00  0.00     0.040 C 
BRANCH  10  11
ATOM     11  C   UNL     1     -27.227  56.523  32.908  1.00  0.00    -0.040 A 
ATOM     12  C   UNL     1     -25.944  56.138  32.488  1.00  0.00     0.050 A 
ATOM     13  C   UNL     1     -28.260  55.571  32.933  1.00  0.00     0.050 A 
ATOM     14  C   UNL     1     -25.699  54.824  32.076  1.00  0.00     0.119 A 
ATOM     15  C   UNL     1     -28.018  54.256  32.521  1.00  0.00     0.119 A 
ATOM     16  C   UNL     1     -26.738  53.883  32.090  1.00  0.00     0.092 A 
BRANCH  14  17
ATOM     17  O   UNL     1     -24.420  54.463  31.655  1.00  0.00    -0.508 OA
ATOM     18  H   UNL     1     -23.944  54.966  30.916  1.00  0.00     0.293 HD
ENDBRANCH  14  17
BRANCH  15  19
ATOM     19  O   UNL     1     -29.057  53.327  32.547  1.00  0.00    -0.508 OA
ATOM     20  H   UNL     1     -29.284  52.765  31.736  1.00  0.00     0.293 HD
ENDBRANCH  15  19
ENDBRANCH  10  11
ENDBRANCH   1  10
TORSDOF 6
ENDMDL
MODEL 9
REMARK VINA RESULT:    -3.882      8.921     10.206
REMARK INTER + INTRA:          -5.452
REMARK INTER:                  -4.990
REMARK INTRA:                  -0.462
REMARK UNBOUND:                -0.549
REMARK SMILES Oc1cc(O)cc(CCc2ccccc2O)c1
REMARK SMILES IDX 9 1 10 2 12 3 13 4 11 5 14 6 15 7 16 8 8 10 7 11 6 12 17 13
REMARK SMILES IDX 4 14 2 15 3 16 5 17 1 19
REMARK H PARENT 16 9 5 18 1 20
REMARK Flexibility Score: inf
ROOT
ATOM      1  C   UNL     1     -27.221  53.142  33.064  1.00  0.00     0.044 C 
ENDROOT
BRANCH   1   2
ATOM      2  C   UNL     1     -27.880  51.831  33.411  1.00  0.00    -0.006 A 
ATOM      3  C   UNL     1     -27.707  49.570  34.292  1.00  0.00     0.001 A 
ATOM      4  C   UNL     1     -29.056  49.351  34.006  1.00  0.00     0.004 A 
ATOM      5  C   UNL     1     -27.119  50.802  33.992  1.00  0.00     0.007 A 
ATOM      6  C   UNL     1     -29.820  50.360  33.415  1.00  0.00     0.046 A 
ATOM      7  C   UNL     1     -29.238  51.600  33.109  1.00  0.00     0.118 A 
BRANCH   7   8
ATOM      8  O   UNL     1     -30.003  52.599  32.506  1.00  0.00    -0.508 OA
ATOM      9  H   UNL     1     -30.948  52.423  32.186  1.00  0.00     0.293 HD
ENDBRANCH   7   8
ENDBRANCH   1   2
BRANCH   1  10
ATOM     10  C   UNL     1     -27.233  54.087  34.268  1.00  0.00     0.040 C 
BRANCH  10  11
ATOM     11  C   UNL     1     -27.433  55.511  33.820  1.00  0.00    -0.040 A 
ATOM     12  C   UNL     1     -27.684  55.799  32.469  1.00  0.00     0.050 A 
ATOM     13  C   UNL     1     -27.426  56.556  34.759  1.00  0.00     0.050 A 
ATOM     14  C   UNL     1     -27.903  57.117  32.056  1.00  0.00     0.119 A 
ATOM     15  C   UNL     1     -27.645  57.875  34.349  1.00  0.00     0.119 A 
ATOM     16  C   UNL     1     -27.881  58.156  32.996  1.00  0.00     0.092 A 
BRANCH  14  17
ATOM     17  O   UNL     1     -28.144  57.384  30.710  1.00  0.00    -0.508 OA
ATOM     18  H   UNL     1     -28.955  57.009  30.232  1.00  0.00     0.293 HD
ENDBRANCH  14  17
BRANCH  15  19
ATOM     19  O   UNL     1     -27.629  58.899  35.294  1.00  0.00    -0.508 OA
ATOM     20  H   UNL     1     -28.274  59.677  35.242  1.00  0.00     0.293 HD
ENDBRANCH  15  19
ENDBRANCH  10  11
ENDBRANCH   1  10
TORSDOF 6
ENDMDL
