MODEL 1
REMARK VINA RESULT:    -5.503      0.000      0.000
REMARK INTER + INTRA:          -6.024
REMARK INTER:                  -5.985
REMARK INTRA:                  -0.038
REMARK UNBOUND:                -0.038
REMARK SMILES CC1(C)[C@H]2CC=C(CO)[C@@H]1C2
REMARK SMILES IDX 8 1 7 2 1 3 2 4 4 5 3 6 10 7 5 8 11 9 6 10 9 11
REMARK H PARENT 9 12
REMARK Flexibility Score: inf
ROOT
ATOM      1  C   UNL     1      13.961  23.491  20.879  1.00  0.00     0.187 C 
ENDROOT
BRANCH   1   2
ATOM      2  C   UNL     1      13.380  23.001  22.177  1.00  0.00    -0.045 C 
ATOM      3  C   UNL     1      12.110  24.823  24.127  1.00  0.00     0.012 C 
ATOM      4  C   UNL     1      13.136  23.742  24.570  1.00  0.00    -0.026 C 
ATOM      5  C   UNL     1      12.651  22.274  24.727  1.00  0.00    -0.000 C 
ATOM      6  C   UNL     1      13.867  24.255  25.837  1.00  0.00     0.012 C 
ATOM      7  C   UNL     1      14.120  23.182  23.509  1.00  0.00     0.023 C 
ATOM      8  C   UNL     1      11.628  21.913  23.596  1.00  0.00     0.031 C 
ATOM      9  C   UNL     1      14.028  21.811  24.209  1.00  0.00     0.013 C 
ATOM     10  C   UNL     1      12.175  22.359  22.225  1.00  0.00    -0.025 C 
ENDBRANCH   1   2
BRANCH   1  11
ATOM     11  O   UNL     1      15.089  22.733  20.536  1.00  0.00    -0.392 OA
ATOM     12  H   UNL     1      14.754  21.849  20.232  1.00  0.00     0.211 HD
ENDBRANCH   1  11
TORSDOF 2
ENDMDL
MODEL 2
REMARK VINA RESULT:    -5.115      2.094      3.106
REMARK INTER + INTRA:          -5.602
REMARK INTER:                  -5.570
REMARK INTRA:                  -0.032
REMARK UNBOUND:                -0.038
REMARK SMILES CC1(C)[C@H]2CC=C(CO)[C@@H]1C2
REMARK SMILES IDX 8 1 7 2 1 3 2 4 4 5 3 6 10 7 5 8 11 9 6 10 9 11
REMARK H PARENT 9 12
REMARK Flexibility Score: inf
ROOT
ATOM      1  C   UNL     1      10.698  21.898  22.079  1.00  0.00     0.187 C 
ENDROOT
BRANCH   1   2
ATOM      2  C   UNL     1      11.678  22.554  23.013  1.00  0.00    -0.045 C 
ATOM      3  C   UNL     1      14.524  22.930  22.308  1.00  0.00     0.012 C 
ATOM      4  C   UNL     1      14.094  22.372  23.694  1.00  0.00    -0.026 C 
ATOM      5  C   UNL     1      13.616  23.371  24.784  1.00  0.00    -0.000 C 
ATOM      6  C   UNL     1      15.216  21.435  24.210  1.00  0.00     0.012 C 
ATOM      7  C   UNL     1      12.687  21.732  23.827  1.00  0.00     0.023 C 
ATOM      8  C   UNL     1      12.756  24.512  24.139  1.00  0.00     0.031 C 
ATOM      9  C   UNL     1      12.608  22.303  25.256  1.00  0.00     0.013 C 
ATOM     10  C   UNL     1      11.703  23.908  23.190  1.00  0.00    -0.025 C 
ENDBRANCH   1   2
BRANCH   1  11
ATOM     11  O   UNL     1       9.497  21.627  22.748  1.00  0.00    -0.392 OA
ATOM     12  H   UNL     1       8.822  22.258  22.385  1.00  0.00     0.211 HD
ENDBRANCH   1  11
TORSDOF 2
ENDMDL
MODEL 3
REMARK VINA RESULT:    -5.034      2.265      3.686
REMARK INTER + INTRA:          -5.514
REMARK INTER:                  -5.457
REMARK INTRA:                  -0.057
REMARK UNBOUND:                -0.038
REMARK SMILES CC1(C)[C@H]2CC=C(CO)[C@@H]1C2
REMARK SMILES IDX 8 1 7 2 1 3 2 4 4 5 3 6 10 7 5 8 11 9 6 10 9 11
REMARK H PARENT 9 12
REMARK Flexibility Score: inf
ROOT
ATOM      1  C   UNL     1      13.501  24.707  26.315  1.00  0.00     0.187 C 
ENDROOT
BRANCH   1   2
ATOM      2  C   UNL     1      13.102  23.688  25.282  1.00  0.00    -0.045 C 
ATOM      3  C   UNL     1      14.981  21.645  24.269  1.00  0.00     0.012 C 
ATOM      4  C   UNL     1      14.082  22.473  23.308  1.00  0.00    -0.026 C 
ATOM      5  C   UNL     1      12.597  22.053  23.130  1.00  0.00    -0.000 C 
ATOM      6  C   UNL     1      14.819  22.611  21.952  1.00  0.00     0.012 C 
ATOM      7  C   UNL     1      13.518  23.828  23.812  1.00  0.00     0.023 C 
ATOM      8  C   UNL     1      11.994  21.585  24.499  1.00  0.00     0.031 C 
ATOM      9  C   UNL     1      12.236  23.547  23.003  1.00  0.00     0.013 C 
ATOM     10  C   UNL     1      12.337  22.604  25.604  1.00  0.00    -0.025 C 
ENDBRANCH   1   2
BRANCH   1  11
ATOM     11  O   UNL     1      14.731  24.360  26.889  1.00  0.00    -0.392 OA
ATOM     12  H   UNL     1      14.621  24.451  27.871  1.00  0.00     0.211 HD
ENDBRANCH   1  11
TORSDOF 2
ENDMDL
MODEL 4
REMARK VINA RESULT:    -5.006     14.708     16.261
REMARK INTER + INTRA:          -5.484
REMARK INTER:                  -5.445
REMARK INTRA:                  -0.039
REMARK UNBOUND:                -0.038
REMARK SMILES CC1(C)[C@H]2CC=C(CO)[C@@H]1C2
REMARK SMILES IDX 8 1 7 2 1 3 2 4 4 5 3 6 10 7 5 8 11 9 6 10 9 11
REMARK H PARENT 9 12
REMARK Flexibility Score: inf
ROOT
ATOM      1  C   UNL     1       1.837  15.735  11.787  1.00  0.00     0.187 C 
ENDROOT
BRANCH   1   2
ATOM      2  C   UNL     1       3.131  15.664  12.550  1.00  0.00    -0.045 C 
ATOM      3  C   UNL     1       5.638  16.843  11.524  1.00  0.00     0.012 C 
ATOM      4  C   UNL     1       5.598  15.409  12.124  1.00  0.00    -0.026 C 
ATOM      5  C   UNL     1       5.608  15.248  13.669  1.00  0.00    -0.000 C 
ATOM      6  C   UNL     1       6.703  14.565  11.439  1.00  0.00     0.012 C 
ATOM      7  C   UNL     1       4.236  14.669  12.170  1.00  0.00     0.023 C 
ATOM      8  C   UNL     1       4.734  16.363  14.340  1.00  0.00     0.031 C 
ATOM      9  C   UNL     1       4.676  14.031  13.502  1.00  0.00     0.013 C 
ATOM     10  C   UNL     1       3.372  16.470  13.626  1.00  0.00    -0.025 C 
ENDBRANCH   1   2
BRANCH   1  11
ATOM     11  O   UNL     1       1.126  14.535  11.923  1.00  0.00    -0.392 OA
ATOM     12  H   UNL     1       1.189  14.275  12.879  1.00  0.00     0.211 HD
ENDBRANCH   1  11
TORSDOF 2
ENDMDL
MODEL 5
REMARK VINA RESULT:    -4.958     13.940     15.235
REMARK INTER + INTRA:          -5.432
REMARK INTER:                  -5.390
REMARK INTRA:                  -0.042
REMARK UNBOUND:                -0.038
REMARK SMILES CC1(C)[C@H]2CC=C(CO)[C@@H]1C2
REMARK SMILES IDX 8 1 7 2 1 3 2 4 4 5 3 6 10 7 5 8 11 9 6 10 9 11
REMARK H PARENT 9 12
REMARK Flexibility Score: inf
ROOT
ATOM      1  C   UNL     1       8.115  14.903  11.961  1.00  0.00     0.187 C 
ENDROOT
BRANCH   1   2
ATOM      2  C   UNL     1       6.628  14.882  12.181  1.00  0.00    -0.045 C 
ATOM      3  C   UNL     1       5.041  17.357  12.485  1.00  0.00     0.012 C 
ATOM      4  C   UNL     1       4.858  16.148  13.446  1.00  0.00    -0.026 C 
ATOM      5  C   UNL     1       3.996  14.945  12.975  1.00  0.00    -0.000 C 
ATOM      6  C   UNL     1       4.405  16.689  14.826  1.00  0.00     0.012 C 
ATOM      7  C   UNL     1       6.016  15.123  13.568  1.00  0.00     0.023 C 
ATOM      8  C   UNL     1       4.243  14.659  11.454  1.00  0.00     0.031 C 
ATOM      9  C   UNL     1       4.959  14.013  13.738  1.00  0.00     0.013 C 
ATOM     10  C   UNL     1       5.756  14.632  11.160  1.00  0.00    -0.025 C 
ENDBRANCH   1   2
BRANCH   1  11
ATOM     11  O   UNL     1       8.771  14.253  13.016  1.00  0.00    -0.392 OA
ATOM     12  H   UNL     1       9.431  13.637  12.602  1.00  0.00     0.211 HD
ENDBRANCH   1  11
TORSDOF 2
ENDMDL
MODEL 6
REMARK VINA RESULT:    -4.919      5.548      6.905
REMARK INTER + INTRA:          -5.388
REMARK INTER:                  -5.357
REMARK INTRA:                  -0.032
REMARK UNBOUND:                -0.038
REMARK SMILES CC1(C)[C@H]2CC=C(CO)[C@@H]1C2
REMARK SMILES IDX 8 1 7 2 1 3 2 4 4 5 3 6 10 7 5 8 11 9 6 10 9 11
REMARK H PARENT 9 12
REMARK Flexibility Score: inf
ROOT
ATOM      1  C   UNL     1       5.969  20.063  21.222  1.00  0.00     0.187 C 
ENDROOT
BRANCH   1   2
ATOM      2  C   UNL     1       7.429  20.370  21.029  1.00  0.00    -0.045 C 
ATOM      3  C   UNL     1       8.504  23.116  21.218  1.00  0.00     0.012 C 
ATOM      4  C   UNL     1       8.899  22.165  20.053  1.00  0.00    -0.026 C 
ATOM      5  C   UNL     1       9.985  21.084  20.310  1.00  0.00    -0.000 C 
ATOM      6  C   UNL     1       9.215  23.029  18.806  1.00  0.00     0.012 C 
ATOM      7  C   UNL     1       7.958  20.977  19.723  1.00  0.00     0.023 C 
ATOM      8  C   UNL     1       9.825  20.479  21.746  1.00  0.00     0.031 C 
ATOM      9  C   UNL     1       9.205  20.142  19.369  1.00  0.00     0.013 C 
ATOM     10  C   UNL     1       8.351  20.108  22.003  1.00  0.00    -0.025 C 
ENDBRANCH   1   2
BRANCH   1  11
ATOM     11  O   UNL     1       5.704  18.730  20.878  1.00  0.00    -0.392 OA
ATOM     12  H   UNL     1       6.499  18.203  21.154  1.00  0.00     0.211 HD
ENDBRANCH   1  11
TORSDOF 2
ENDMDL
MODEL 7
REMARK VINA RESULT:    -4.911     12.279     14.102
REMARK INTER + INTRA:          -5.380
REMARK INTER:                  -5.339
REMARK INTRA:                  -0.041
REMARK UNBOUND:                -0.038
REMARK SMILES CC1(C)[C@H]2CC=C(CO)[C@@H]1C2
REMARK SMILES IDX 8 1 7 2 1 3 2 4 4 5 3 6 10 7 5 8 11 9 6 10 9 11
REMARK H PARENT 9 12
REMARK Flexibility Score: inf
ROOT
ATOM      1  C   UNL     1       6.699  16.064  16.774  1.00  0.00     0.187 C 
ENDROOT
BRANCH   1   2
ATOM      2  C   UNL     1       6.682  15.662  15.325  1.00  0.00    -0.045 C 
ATOM      3  C   UNL     1       6.507  17.642  13.137  1.00  0.00     0.012 C 
ATOM      4  C   UNL     1       5.622  16.363  13.152  1.00  0.00    -0.026 C 
ATOM      5  C   UNL     1       6.247  15.019  12.687  1.00  0.00    -0.000 C 
ATOM      6  C   UNL     1       4.297  16.681  12.413  1.00  0.00     0.012 C 
ATOM      7  C   UNL     1       5.382  15.650  14.509  1.00  0.00     0.023 C 
ATOM      8  C   UNL     1       7.730  14.907  13.181  1.00  0.00     0.031 C 
ATOM      9  C   UNL     1       5.395  14.305  13.755  1.00  0.00     0.013 C 
ATOM     10  C   UNL     1       7.819  15.274  14.675  1.00  0.00    -0.025 C 
ENDBRANCH   1   2
BRANCH   1  11
ATOM     11  O   UNL     1       5.749  15.328  17.494  1.00  0.00    -0.392 OA
ATOM     12  H   UNL     1       4.891  15.415  17.001  1.00  0.00     0.211 HD
ENDBRANCH   1  11
TORSDOF 2
ENDMDL
MODEL 8
REMARK VINA RESULT:    -4.840      6.541      8.145
REMARK INTER + INTRA:          -5.303
REMARK INTER:                  -5.241
REMARK INTRA:                  -0.062
REMARK UNBOUND:                -0.038
REMARK SMILES CC1(C)[C@H]2CC=C(CO)[C@@H]1C2
REMARK SMILES IDX 8 1 7 2 1 3 2 4 4 5 3 6 10 7 5 8 11 9 6 10 9 11
REMARK H PARENT 9 12
REMARK Flexibility Score: inf
ROOT
ATOM      1  C   UNL     1       6.212  19.918  21.362  1.00  0.00     0.187 C 
ENDROOT
BRANCH   1   2
ATOM      2  C   UNL     1       6.778  20.066  19.976  1.00  0.00    -0.045 C 
ATOM      3  C   UNL     1       9.685  20.152  19.456  1.00  0.00     0.012 C 
ATOM      4  C   UNL     1       8.710  21.169  18.800  1.00  0.00    -0.026 C 
ATOM      5  C   UNL     1       7.898  20.724  17.552  1.00  0.00    -0.000 C 
ATOM      6  C   UNL     1       9.479  22.492  18.556  1.00  0.00     0.012 C 
ATOM      7  C   UNL     1       7.331  21.405  19.471  1.00  0.00     0.023 C 
ATOM      8  C   UNL     1       7.431  19.236  17.707  1.00  0.00     0.031 C 
ATOM      9  C   UNL     1       6.725  21.585  18.065  1.00  0.00     0.013 C 
ATOM     10  C   UNL     1       6.808  19.018  19.100  1.00  0.00    -0.025 C 
ENDBRANCH   1   2
BRANCH   1  11
ATOM     11  O   UNL     1       7.248  19.854  22.305  1.00  0.00    -0.392 OA
ATOM     12  H   UNL     1       6.897  19.335  23.075  1.00  0.00     0.211 HD
ENDBRANCH   1  11
TORSDOF 2
ENDMDL
MODEL 9
REMARK VINA RESULT:    -4.760     13.514     14.814
REMARK INTER + INTRA:          -5.216
REMARK INTER:                  -5.171
REMARK INTRA:                  -0.045
REMARK UNBOUND:                -0.038
REMARK SMILES CC1(C)[C@H]2CC=C(CO)[C@@H]1C2
REMARK SMILES IDX 8 1 7 2 1 3 2 4 4 5 3 6 10 7 5 8 11 9 6 10 9 11
REMARK H PARENT 9 12
REMARK Flexibility Score: inf
ROOT
ATOM      1  C   UNL     1       7.835  14.599  10.645  1.00  0.00     0.187 C 
ENDROOT
BRANCH   1   2
ATOM      2  C   UNL     1       7.445  15.126  11.999  1.00  0.00    -0.045 C 
ATOM      3  C   UNL     1       4.999  14.235  13.398  1.00  0.00     0.012 C 
ATOM      4  C   UNL     1       5.377  15.739  13.295  1.00  0.00    -0.026 C 
ATOM      5  C   UNL     1       6.444  16.307  14.271  1.00  0.00    -0.000 C 
ATOM      6  C   UNL     1       4.069  16.570  13.310  1.00  0.00     0.012 C 
ATOM      7  C   UNL     1       6.342  16.181  12.165  1.00  0.00     0.023 C 
ATOM      8  C   UNL     1       7.591  15.263  14.494  1.00  0.00     0.031 C 
ATOM      9  C   UNL     1       6.930  17.227  13.132  1.00  0.00     0.013 C 
ATOM     10  C   UNL     1       8.066  14.702  13.139  1.00  0.00    -0.025 C 
ENDBRANCH   1   2
BRANCH   1  11
ATOM     11  O   UNL     1       7.279  15.396   9.635  1.00  0.00    -0.392 OA
ATOM     12  H   UNL     1       6.293  15.326   9.729  1.00  0.00     0.211 HD
ENDBRANCH   1  11
TORSDOF 2
ENDMDL
