MODEL 1
REMARK VINA RESULT:    -4.085      0.000      0.000
REMARK INTER + INTRA:          -4.685
REMARK INTER:                  -4.443
REMARK INTRA:                  -0.241
REMARK UNBOUND:                -0.241
REMARK SMILES C=C1C[C@@]2(O)O[C@@]3(C[C@@H]2C(C)C)[C@@H](C)CC[C@@H]13
REMARK SMILES IDX 14 1 13 2 15 3 16 4 17 5 7 6 8 7 9 8 4 9 6 10 3 11 2 12 1 13
REMARK SMILES IDX 10 14 11 15 12 16 5 17
REMARK H PARENT 5 18
REMARK Flexibility Score: inf
ROOT
ATOM      1  C   UNL     1      -6.114  24.124  -8.586  1.00  0.00     0.011 C 
ATOM      2  C   UNL     1      -5.749  22.737  -9.136  1.00  0.00     0.019 C 
ATOM      3  C   UNL     1      -4.902  21.921  -8.149  1.00  0.00     0.007 C 
ATOM      4  C   UNL     1      -5.397  20.473  -8.224  1.00  0.00     0.011 C 
ATOM      5  C   UNL     1      -6.408  20.422  -9.370  1.00  0.00     0.047 C 
ATOM      6  C   UNL     1      -6.965  21.854  -9.455  1.00  0.00     0.081 C 
ATOM      7  C   UNL     1      -7.614  22.134 -10.815  1.00  0.00     0.046 C 
ATOM      8  C   UNL     1      -9.084  21.794 -10.568  1.00  0.00     0.054 C 
ATOM      9  C   UNL     1      -9.097  21.380  -9.069  1.00  0.00     0.173 C 
ATOM     10  O   UNL     1      -7.980  22.007  -8.485  1.00  0.00    -0.342 OA
ATOM     11  C   UNL     1      -8.938  19.845  -8.892  1.00  0.00     0.096 C 
ATOM     12  C   UNL     1      -7.510  19.398  -9.144  1.00  0.00    -0.066 C 
ATOM     13  C   UNL     1      -7.220  18.089  -9.160  1.00  0.00     0.008 C 
ENDROOT
BRANCH   8  14
ATOM     14  C   UNL     1     -10.072  22.946 -10.945  1.00  0.00    -0.009 C 
ATOM     15  C   UNL     1      -9.424  24.125 -11.702  1.00  0.00     0.008 C 
ATOM     16  C   UNL     1     -11.273  22.409 -11.736  1.00  0.00     0.008 C 
ENDBRANCH   8  14
BRANCH   9  17
ATOM     17  O   UNL     1     -10.281  21.796  -8.432  1.00  0.00    -0.365 OA
ATOM     18  H   UNL     1     -10.598  21.040  -7.871  1.00  0.00     0.214 HD
ENDBRANCH   9  17
TORSDOF 2
ENDMDL
MODEL 2
REMARK VINA RESULT:    -4.076      1.501      3.345
REMARK INTER + INTRA:          -4.675
REMARK INTER:                  -4.360
REMARK INTRA:                  -0.315
REMARK UNBOUND:                -0.241
REMARK SMILES C=C1C[C@@]2(O)O[C@@]3(C[C@@H]2C(C)C)[C@@H](C)CC[C@@H]13
REMARK SMILES IDX 14 1 13 2 15 3 16 4 17 5 7 6 8 7 9 8 4 9 6 10 3 11 2 12 1 13
REMARK SMILES IDX 10 14 11 15 12 16 5 17
REMARK H PARENT 5 18
REMARK Flexibility Score: inf
ROOT
ATOM      1  C   UNL     1      -7.504  18.341  -9.382  1.00  0.00     0.011 C 
ATOM      2  C   UNL     1      -7.139  19.452  -8.385  1.00  0.00     0.019 C 
ATOM      3  C   UNL     1      -5.631  19.513  -8.105  1.00  0.00     0.007 C 
ATOM      4  C   UNL     1      -5.252  20.995  -8.020  1.00  0.00     0.011 C 
ATOM      5  C   UNL     1      -6.562  21.780  -8.081  1.00  0.00     0.047 C 
ATOM      6  C   UNL     1      -7.523  20.862  -8.856  1.00  0.00     0.081 C 
ATOM      7  C   UNL     1      -8.990  21.236  -8.613  1.00  0.00     0.046 C 
ATOM      8  C   UNL     1      -9.295  22.191  -9.767  1.00  0.00     0.054 C 
ATOM      9  C   UNL     1      -7.953  22.226 -10.552  1.00  0.00     0.173 C 
ATOM     10  O   UNL     1      -7.291  21.023 -10.240  1.00  0.00    -0.342 OA
ATOM     11  C   UNL     1      -7.049  23.406 -10.101  1.00  0.00     0.096 C 
ATOM     12  C   UNL     1      -6.410  23.137  -8.751  1.00  0.00    -0.066 C 
ATOM     13  C   UNL     1      -5.701  24.104  -8.151  1.00  0.00     0.008 C 
ENDROOT
BRANCH   8  14
ATOM     14  C   UNL     1     -10.546  21.784 -10.612  1.00  0.00    -0.009 C 
ATOM     15  C   UNL     1     -10.763  20.262 -10.743  1.00  0.00     0.008 C 
ATOM     16  C   UNL     1     -11.819  22.453 -10.075  1.00  0.00     0.008 C 
ENDBRANCH   8  14
BRANCH   9  17
ATOM     17  O   UNL     1      -8.172  22.319 -11.939  1.00  0.00    -0.365 OA
ATOM     18  H   UNL     1      -9.120  22.586 -12.073  1.00  0.00     0.214 HD
ENDBRANCH   9  17
TORSDOF 2
ENDMDL
MODEL 3
REMARK VINA RESULT:    -4.042      1.534      2.113
REMARK INTER + INTRA:          -4.637
REMARK INTER:                  -4.422
REMARK INTRA:                  -0.215
REMARK UNBOUND:                -0.241
REMARK SMILES C=C1C[C@@]2(O)O[C@@]3(C[C@@H]2C(C)C)[C@@H](C)CC[C@@H]13
REMARK SMILES IDX 14 1 13 2 15 3 16 4 17 5 7 6 8 7 9 8 4 9 6 10 3 11 2 12 1 13
REMARK SMILES IDX 10 14 11 15 12 16 5 17
REMARK H PARENT 5 18
REMARK Flexibility Score: inf
ROOT
ATOM      1  C   UNL     1      -6.828  24.096  -6.481  1.00  0.00     0.011 C 
ATOM      2  C   UNL     1      -5.758  23.054  -6.840  1.00  0.00     0.019 C 
ATOM      3  C   UNL     1      -5.373  22.174  -5.642  1.00  0.00     0.007 C 
ATOM      4  C   UNL     1      -5.192  20.749  -6.173  1.00  0.00     0.011 C 
ATOM      5  C   UNL     1      -5.304  20.838  -7.695  1.00  0.00     0.047 C 
ATOM      6  C   UNL     1      -6.185  22.075  -7.943  1.00  0.00     0.081 C 
ATOM      7  C   UNL     1      -6.024  22.615  -9.369  1.00  0.00     0.046 C 
ATOM      8  C   UNL     1      -7.149  21.912 -10.129  1.00  0.00     0.054 C 
ATOM      9  C   UNL     1      -7.839  21.065  -9.023  1.00  0.00     0.173 C 
ATOM     10  O   UNL     1      -7.541  21.705  -7.804  1.00  0.00    -0.342 OA
ATOM     11  C   UNL     1      -7.272  19.620  -8.962  1.00  0.00     0.096 C 
ATOM     12  C   UNL     1      -5.897  19.585  -8.322  1.00  0.00    -0.066 C 
ATOM     13  C   UNL     1      -5.206  18.437  -8.304  1.00  0.00     0.008 C 
ENDROOT
BRANCH   8  14
ATOM     14  C   UNL     1      -8.095  22.888 -10.903  1.00  0.00    -0.009 C 
ATOM     15  C   UNL     1      -8.556  24.114 -10.089  1.00  0.00     0.008 C 
ATOM     16  C   UNL     1      -7.460  23.341 -12.226  1.00  0.00     0.008 C 
ENDBRANCH   8  14
BRANCH   9  17
ATOM     17  O   UNL     1      -9.232  21.005  -9.216  1.00  0.00    -0.365 OA
ATOM     18  H   UNL     1      -9.644  21.679  -8.613  1.00  0.00     0.214 HD
ENDBRANCH   9  17
TORSDOF 2
ENDMDL
MODEL 4
REMARK VINA RESULT:    -4.011      2.065      4.760
REMARK INTER + INTRA:          -4.604
REMARK INTER:                  -4.354
REMARK INTRA:                  -0.250
REMARK UNBOUND:                -0.241
REMARK SMILES C=C1C[C@@]2(O)O[C@@]3(C[C@@H]2C(C)C)[C@@H](C)CC[C@@H]13
REMARK SMILES IDX 14 1 13 2 15 3 16 4 17 5 7 6 8 7 9 8 4 9 6 10 3 11 2 12 1 13
REMARK SMILES IDX 10 14 11 15 12 16 5 17
REMARK H PARENT 5 18
REMARK Flexibility Score: inf
ROOT
ATOM      1  C   UNL     1      -3.954  21.495  -9.256  1.00  0.00     0.011 C 
ATOM      2  C   UNL     1      -5.315  21.971  -8.726  1.00  0.00     0.019 C 
ATOM      3  C   UNL     1      -5.969  23.011  -9.646  1.00  0.00     0.007 C 
ATOM      4  C   UNL     1      -7.468  22.695  -9.685  1.00  0.00     0.011 C 
ATOM      5  C   UNL     1      -7.701  21.585  -8.659  1.00  0.00     0.047 C 
ATOM      6  C   UNL     1      -6.353  20.848  -8.578  1.00  0.00     0.081 C 
ATOM      7  C   UNL     1      -6.226  20.032  -7.287  1.00  0.00     0.046 C 
ATOM      8  C   UNL     1      -6.726  18.650  -7.707  1.00  0.00     0.054 C 
ATOM      9  C   UNL     1      -7.058  18.843  -9.213  1.00  0.00     0.173 C 
ATOM     10  O   UNL     1      -6.271  19.928  -9.646  1.00  0.00    -0.342 OA
ATOM     11  C   UNL     1      -8.550  19.211  -9.434  1.00  0.00     0.096 C 
ATOM     12  C   UNL     1      -8.837  20.649  -9.045  1.00  0.00    -0.066 C 
ATOM     13  C   UNL     1     -10.100  21.097  -9.051  1.00  0.00     0.008 C 
ENDROOT
BRANCH   8  14
ATOM     14  C   UNL     1      -5.722  17.492  -7.393  1.00  0.00    -0.009 C 
ATOM     15  C   UNL     1      -4.250  17.811  -7.730  1.00  0.00     0.008 C 
ATOM     16  C   UNL     1      -5.841  17.035  -5.932  1.00  0.00     0.008 C 
ENDBRANCH   8  14
BRANCH   9  17
ATOM     17  O   UNL     1      -6.752  17.689  -9.959  1.00  0.00    -0.365 OA
ATOM     18  H   UNL     1      -7.601  17.194 -10.100  1.00  0.00     0.214 HD
ENDBRANCH   9  17
TORSDOF 2
ENDMDL
MODEL 5
REMARK VINA RESULT:    -3.960      1.556      4.333
REMARK INTER + INTRA:          -4.548
REMARK INTER:                  -4.245
REMARK INTRA:                  -0.304
REMARK UNBOUND:                -0.241
REMARK SMILES C=C1C[C@@]2(O)O[C@@]3(C[C@@H]2C(C)C)[C@@H](C)CC[C@@H]13
REMARK SMILES IDX 14 1 13 2 15 3 16 4 17 5 7 6 8 7 9 8 4 9 6 10 3 11 2 12 1 13
REMARK SMILES IDX 10 14 11 15 12 16 5 17
REMARK H PARENT 5 18
REMARK Flexibility Score: inf
ROOT
ATOM      1  C   UNL     1      -6.749  24.010 -11.437  1.00  0.00     0.011 C 
ATOM      2  C   UNL     1      -8.068  23.862 -10.665  1.00  0.00     0.019 C 
ATOM      3  C   UNL     1      -9.283  23.753 -11.598  1.00  0.00     0.007 C 
ATOM      4  C   UNL     1     -10.225  22.711 -10.986  1.00  0.00     0.011 C 
ATOM      5  C   UNL     1      -9.638  22.347  -9.623  1.00  0.00     0.047 C 
ATOM      6  C   UNL     1      -8.130  22.616  -9.769  1.00  0.00     0.081 C 
ATOM      7  C   UNL     1      -7.444  22.778  -8.408  1.00  0.00     0.046 C 
ATOM      8  C   UNL     1      -6.955  21.362  -8.102  1.00  0.00     0.054 C 
ATOM      9  C   UNL     1      -7.407  20.560  -9.355  1.00  0.00     0.173 C 
ATOM     10  O   UNL     1      -7.527  21.503 -10.395  1.00  0.00    -0.342 OA
ATOM     11  C   UNL     1      -8.794  19.893  -9.147  1.00  0.00     0.096 C 
ATOM     12  C   UNL     1      -9.920  20.907  -9.220  1.00  0.00    -0.066 C 
ATOM     13  C   UNL     1     -11.173  20.525  -8.936  1.00  0.00     0.008 C 
ENDROOT
BRANCH   8  14
ATOM     14  C   UNL     1      -5.428  21.277  -7.776  1.00  0.00    -0.009 C 
ATOM     15  C   UNL     1      -4.543  22.239  -8.596  1.00  0.00     0.008 C 
ATOM     16  C   UNL     1      -5.170  21.472  -6.275  1.00  0.00     0.008 C 
ENDBRANCH   8  14
BRANCH   9  17
ATOM     17  O   UNL     1      -6.466  19.571  -9.698  1.00  0.00    -0.365 OA
ATOM     18  H   UNL     1      -6.938  18.890 -10.247  1.00  0.00     0.214 HD
ENDBRANCH   9  17
TORSDOF 2
ENDMDL
MODEL 6
REMARK VINA RESULT:    -3.846      2.150      5.388
REMARK INTER + INTRA:          -4.425
REMARK INTER:                  -4.128
REMARK INTRA:                  -0.296
REMARK UNBOUND:                -0.241
REMARK SMILES C=C1C[C@@]2(O)O[C@@]3(C[C@@H]2C(C)C)[C@@H](C)CC[C@@H]13
REMARK SMILES IDX 14 1 13 2 15 3 16 4 17 5 7 6 8 7 9 8 4 9 6 10 3 11 2 12 1 13
REMARK SMILES IDX 10 14 11 15 12 16 5 17
REMARK H PARENT 5 18
REMARK Flexibility Score: inf
ROOT
ATOM      1  C   UNL     1      -5.622  19.122  -7.118  1.00  0.00     0.011 C 
ATOM      2  C   UNL     1      -5.711  20.006  -8.372  1.00  0.00     0.019 C 
ATOM      3  C   UNL     1      -6.935  19.672  -9.236  1.00  0.00     0.007 C 
ATOM      4  C   UNL     1      -7.497  21.001  -9.750  1.00  0.00     0.011 C 
ATOM      5  C   UNL     1      -6.503  22.082  -9.324  1.00  0.00     0.047 C 
ATOM      6  C   UNL     1      -5.825  21.507  -8.069  1.00  0.00     0.081 C 
ATOM      7  C   UNL     1      -4.489  22.198  -7.774  1.00  0.00     0.046 C 
ATOM      8  C   UNL     1      -4.887  23.310  -6.803  1.00  0.00     0.054 C 
ATOM      9  C   UNL     1      -6.418  23.097  -6.640  1.00  0.00     0.173 C 
ATOM     10  O   UNL     1      -6.656  21.744  -6.952  1.00  0.00    -0.342 OA
ATOM     11  C   UNL     1      -7.232  23.972  -7.633  1.00  0.00     0.096 C 
ATOM     12  C   UNL     1      -7.167  23.423  -9.046  1.00  0.00    -0.066 C 
ATOM     13  C   UNL     1      -7.707  24.123 -10.053  1.00  0.00     0.008 C 
ENDROOT
BRANCH   8  14
ATOM     14  C   UNL     1      -4.072  23.304  -5.467  1.00  0.00    -0.009 C 
ATOM     15  C   UNL     1      -3.751  21.899  -4.918  1.00  0.00     0.008 C 
ATOM     16  C   UNL     1      -2.782  24.125  -5.602  1.00  0.00     0.008 C 
ENDBRANCH   8  14
BRANCH   9  17
ATOM     17  O   UNL     1      -6.839  23.378  -5.327  1.00  0.00    -0.365 OA
ATOM     18  H   UNL     1      -6.040  23.670  -4.816  1.00  0.00     0.214 HD
ENDBRANCH   9  17
TORSDOF 2
ENDMDL
MODEL 7
REMARK VINA RESULT:    -3.830      1.819      4.628
REMARK INTER + INTRA:          -4.407
REMARK INTER:                  -4.100
REMARK INTRA:                  -0.307
REMARK UNBOUND:                -0.241
REMARK SMILES C=C1C[C@@]2(O)O[C@@]3(C[C@@H]2C(C)C)[C@@H](C)CC[C@@H]13
REMARK SMILES IDX 14 1 13 2 15 3 16 4 17 5 7 6 8 7 9 8 4 9 6 10 3 11 2 12 1 13
REMARK SMILES IDX 10 14 11 15 12 16 5 17
REMARK H PARENT 5 18
REMARK Flexibility Score: inf
ROOT
ATOM      1  C   UNL     1      -8.735  23.766  -6.527  1.00  0.00     0.011 C 
ATOM      2  C   UNL     1      -9.826  23.081  -7.364  1.00  0.00     0.019 C 
ATOM      3  C   UNL     1     -10.953  24.046  -7.759  1.00  0.00     0.007 C 
ATOM      4  C   UNL     1     -11.349  23.707  -9.200  1.00  0.00     0.011 C 
ATOM      5  C   UNL     1     -10.573  22.444  -9.574  1.00  0.00     0.047 C 
ATOM      6  C   UNL     1      -9.317  22.487  -8.686  1.00  0.00     0.081 C 
ATOM      7  C   UNL     1      -8.665  21.107  -8.553  1.00  0.00     0.046 C 
ATOM      8  C   UNL     1      -7.625  21.112  -9.674  1.00  0.00     0.054 C 
ATOM      9  C   UNL     1      -7.797  22.524 -10.302  1.00  0.00     0.173 C 
ATOM     10  O   UNL     1      -8.359  23.329  -9.292  1.00  0.00    -0.342 OA
ATOM     11  C   UNL     1      -8.778  22.506 -11.506  1.00  0.00     0.096 C 
ATOM     12  C   UNL     1     -10.220  22.381 -11.053  1.00  0.00    -0.066 C 
ATOM     13  C   UNL     1     -11.189  22.222 -11.965  1.00  0.00     0.008 C 
ENDROOT
BRANCH   8  14
ATOM     14  C   UNL     1      -6.175  20.774  -9.194  1.00  0.00    -0.009 C 
ATOM     15  C   UNL     1      -5.818  21.322  -7.797  1.00  0.00     0.008 C 
ATOM     16  C   UNL     1      -5.912  19.262  -9.250  1.00  0.00     0.008 C 
ENDBRANCH   8  14
BRANCH   9  17
ATOM     17  O   UNL     1      -6.562  23.054 -10.721  1.00  0.00    -0.365 OA
ATOM     18  H   UNL     1      -6.238  22.492 -11.472  1.00  0.00     0.214 HD
ENDBRANCH   9  17
TORSDOF 2
ENDMDL
MODEL 8
REMARK VINA RESULT:    -3.616      1.410      4.999
REMARK INTER + INTRA:          -4.174
REMARK INTER:                  -4.213
REMARK INTRA:                   0.039
REMARK UNBOUND:                -0.241
REMARK SMILES C=C1C[C@@]2(O)O[C@@]3(C[C@@H]2C(C)C)[C@@H](C)CC[C@@H]13
REMARK SMILES IDX 14 1 13 2 15 3 16 4 17 5 7 6 8 7 9 8 4 9 6 10 3 11 2 12 1 13
REMARK SMILES IDX 10 14 11 15 12 16 5 17
REMARK H PARENT 5 18
REMARK Flexibility Score: inf
ROOT
ATOM      1  C   UNL     1     -10.354  20.699  -8.540  1.00  0.00     0.011 C 
ATOM      2  C   UNL     1      -9.701  20.927  -9.912  1.00  0.00     0.019 C 
ATOM      3  C   UNL     1     -10.600  21.730 -10.861  1.00  0.00     0.007 C 
ATOM      4  C   UNL     1      -9.692  22.694 -11.631  1.00  0.00     0.011 C 
ATOM      5  C   UNL     1      -8.256  22.330 -11.251  1.00  0.00     0.047 C 
ATOM      6  C   UNL     1      -8.377  21.704  -9.851  1.00  0.00     0.081 C 
ATOM      7  C   UNL     1      -7.155  20.849  -9.500  1.00  0.00     0.046 C 
ATOM      8  C   UNL     1      -6.250  21.835  -8.759  1.00  0.00     0.054 C 
ATOM      9  C   UNL     1      -7.091  23.143  -8.757  1.00  0.00     0.173 C 
ATOM     10  O   UNL     1      -8.433  22.739  -8.892  1.00  0.00    -0.342 OA
ATOM     11  C   UNL     1      -6.739  24.059  -9.960  1.00  0.00     0.096 C 
ATOM     12  C   UNL     1      -7.318  23.527 -11.258  1.00  0.00    -0.066 C 
ATOM     13  C   UNL     1      -7.004  24.125 -12.416  1.00  0.00     0.008 C 
ENDROOT
BRANCH   8  14
ATOM     14  C   UNL     1      -5.794  21.338  -7.348  1.00  0.00    -0.009 C 
ATOM     15  C   UNL     1      -5.620  19.809  -7.232  1.00  0.00     0.008 C 
ATOM     16  C   UNL     1      -4.512  22.051  -6.897  1.00  0.00     0.008 C 
ENDBRANCH   8  14
BRANCH   9  17
ATOM     17  O   UNL     1      -6.914  23.864  -7.561  1.00  0.00    -0.365 OA
ATOM     18  H   UNL     1      -6.199  24.534  -7.722  1.00  0.00     0.214 HD
ENDBRANCH   9  17
TORSDOF 2
ENDMDL
MODEL 9
REMARK VINA RESULT:    -3.464      2.272      3.736
REMARK INTER + INTRA:          -4.009
REMARK INTER:                  -3.732
REMARK INTRA:                  -0.277
REMARK UNBOUND:                -0.241
REMARK SMILES C=C1C[C@@]2(O)O[C@@]3(C[C@@H]2C(C)C)[C@@H](C)CC[C@@H]13
REMARK SMILES IDX 14 1 13 2 15 3 16 4 17 5 7 6 8 7 9 8 4 9 6 10 3 11 2 12 1 13
REMARK SMILES IDX 10 14 11 15 12 16 5 17
REMARK H PARENT 5 18
REMARK Flexibility Score: inf
ROOT
ATOM      1  C   UNL     1      -8.258  22.258 -11.658  1.00  0.00     0.011 C 
ATOM      2  C   UNL     1      -7.547  22.190 -10.298  1.00  0.00     0.019 C 
ATOM      3  C   UNL     1      -6.477  23.280 -10.143  1.00  0.00     0.007 C 
ATOM      4  C   UNL     1      -6.561  23.788  -8.700  1.00  0.00     0.011 C 
ATOM      5  C   UNL     1      -7.557  22.878  -7.980  1.00  0.00     0.047 C 
ATOM      6  C   UNL     1      -8.486  22.367  -9.095  1.00  0.00     0.081 C 
ATOM      7  C   UNL     1      -9.231  21.095  -8.679  1.00  0.00     0.046 C 
ATOM      8  C   UNL     1     -10.544  21.638  -8.114  1.00  0.00     0.054 C 
ATOM      9  C   UNL     1     -10.394  23.174  -8.303  1.00  0.00     0.173 C 
ATOM     10  O   UNL     1      -9.471  23.346  -9.352  1.00  0.00    -0.342 OA
ATOM     11  C   UNL     1      -9.816  23.859  -7.034  1.00  0.00     0.096 C 
ATOM     12  C   UNL     1      -8.330  23.595  -6.883  1.00  0.00    -0.066 C 
ATOM     13  C   UNL     1      -7.695  24.005  -5.776  1.00  0.00     0.008 C 
ENDROOT
BRANCH   8  14
ATOM     14  C   UNL     1     -11.820  21.012  -8.765  1.00  0.00    -0.009 C 
ATOM     15  C   UNL     1     -11.533  19.960  -9.857  1.00  0.00     0.008 C 
ATOM     16  C   UNL     1     -12.755  20.423  -7.699  1.00  0.00     0.008 C 
ENDBRANCH   8  14
BRANCH   9  17
ATOM     17  O   UNL     1     -11.625  23.773  -8.630  1.00  0.00    -0.365 OA
ATOM     18  H   UNL     1     -12.129  23.898  -7.783  1.00  0.00     0.214 HD
ENDBRANCH   9  17
TORSDOF 2
ENDMDL
