MODEL 1
REMARK VINA RESULT:    -3.101      0.000      0.000
REMARK INTER + INTRA:          -3.482
REMARK INTER:                  -3.464
REMARK INTRA:                  -0.018
REMARK UNBOUND:                -0.018
REMARK SMILES CCCC(=O)[O-]
REMARK SMILES IDX 3 1 4 2 5 3 6 4 2 5 1 6
REMARK H PARENT
REMARK Flexibility Score: inf
ROOT
ATOM      1  C   UNL     1       8.688   6.606   4.845  1.00  0.00     0.052 C 
ENDROOT
BRANCH   1   2
ATOM      2  C   UNL     1       7.297   7.094   4.572  1.00  0.00     0.041 C 
ATOM      3  O   UNL     1       6.918   8.210   5.015  1.00  0.00    -0.550 OA
ATOM      4  O   UNL     1       6.411   6.300   3.856  1.00  0.00    -0.550 OA
ENDBRANCH   1   2
BRANCH   1   5
ATOM      5  C   UNL     1       9.168   5.627   3.765  1.00  0.00     0.003 C 
ATOM      6  C   UNL     1      10.040   4.511   4.339  1.00  0.00     0.004 C 
ENDBRANCH   1   5
TORSDOF 2
ENDMDL
MODEL 2
REMARK VINA RESULT:    -3.053      1.412      1.688
REMARK INTER + INTRA:          -3.428
REMARK INTER:                  -3.404
REMARK INTRA:                  -0.024
REMARK UNBOUND:                -0.018
REMARK SMILES CCCC(=O)[O-]
REMARK SMILES IDX 3 1 4 2 5 3 6 4 2 5 1 6
REMARK H PARENT
REMARK Flexibility Score: inf
ROOT
ATOM      1  C   UNL     1       7.907   6.959   5.218  1.00  0.00     0.052 C 
ENDROOT
BRANCH   1   2
ATOM      2  C   UNL     1       7.639   8.394   4.875  1.00  0.00     0.041 C 
ATOM      3  O   UNL     1       8.577   9.140   4.489  1.00  0.00    -0.550 OA
ATOM      4  O   UNL     1       6.359   8.913   5.013  1.00  0.00    -0.550 OA
ENDBRANCH   1   2
BRANCH   1   5
ATOM      5  C   UNL     1       8.182   6.119   3.964  1.00  0.00     0.003 C 
ATOM      6  C   UNL     1       9.462   5.292   4.087  1.00  0.00     0.004 C 
ENDBRANCH   1   5
TORSDOF 2
ENDMDL
MODEL 3
REMARK VINA RESULT:    -3.029      1.372      1.809
REMARK INTER + INTRA:          -3.401
REMARK INTER:                  -3.375
REMARK INTRA:                  -0.026
REMARK UNBOUND:                -0.018
REMARK SMILES CCCC(=O)[O-]
REMARK SMILES IDX 3 1 4 2 5 3 6 4 2 5 1 6
REMARK H PARENT
REMARK Flexibility Score: inf
ROOT
ATOM      1  C   UNL     1       7.807   6.885   5.159  1.00  0.00     0.052 C 
ENDROOT
BRANCH   1   2
ATOM      2  C   UNL     1       7.560   8.340   4.901  1.00  0.00     0.041 C 
ATOM      3  O   UNL     1       6.394   8.809   4.982  1.00  0.00    -0.550 OA
ATOM      4  O   UNL     1       8.612   9.170   4.538  1.00  0.00    -0.550 OA
ENDBRANCH   1   2
BRANCH   1   5
ATOM      5  C   UNL     1       8.082   6.117   3.859  1.00  0.00     0.003 C 
ATOM      6  C   UNL     1       9.424   5.385   3.889  1.00  0.00     0.004 C 
ENDBRANCH   1   5
TORSDOF 2
ENDMDL
MODEL 4
REMARK VINA RESULT:    -2.974      1.830      2.400
REMARK INTER + INTRA:          -3.339
REMARK INTER:                  -3.305
REMARK INTRA:                  -0.035
REMARK UNBOUND:                -0.018
REMARK SMILES CCCC(=O)[O-]
REMARK SMILES IDX 3 1 4 2 5 3 6 4 2 5 1 6
REMARK H PARENT
REMARK Flexibility Score: inf
ROOT
ATOM      1  C   UNL     1       7.881   7.006   5.245  1.00  0.00     0.052 C 
ENDROOT
BRANCH   1   2
ATOM      2  C   UNL     1       7.459   6.314   3.984  1.00  0.00     0.041 C 
ATOM      3  O   UNL     1       6.236   6.180   3.714  1.00  0.00    -0.550 OA
ATOM      4  O   UNL     1       8.415   5.789   3.126  1.00  0.00    -0.550 OA
ENDBRANCH   1   2
BRANCH   1   5
ATOM      5  C   UNL     1       9.403   7.194   5.306  1.00  0.00     0.003 C 
ATOM      6  C   UNL     1       9.842   8.560   4.778  1.00  0.00     0.004 C 
ENDBRANCH   1   5
TORSDOF 2
ENDMDL
MODEL 5
REMARK VINA RESULT:    -2.941     13.005     13.441
REMARK INTER + INTRA:          -3.303
REMARK INTER:                  -3.281
REMARK INTRA:                  -0.021
REMARK UNBOUND:                -0.018
REMARK SMILES CCCC(=O)[O-]
REMARK SMILES IDX 3 1 4 2 5 3 6 4 2 5 1 6
REMARK H PARENT
REMARK Flexibility Score: inf
ROOT
ATOM      1  C   UNL     1      -1.790  -2.107   3.681  1.00  0.00     0.052 C 
ENDROOT
BRANCH   1   2
ATOM      2  C   UNL     1      -2.138  -2.507   5.083  1.00  0.00     0.041 C 
ATOM      3  O   UNL     1      -3.260  -2.207   5.568  1.00  0.00    -0.550 OA
ATOM      4  O   UNL     1      -1.210  -3.182   5.864  1.00  0.00    -0.550 OA
ENDBRANCH   1   2
BRANCH   1   5
ATOM      5  C   UNL     1      -1.255  -3.295   2.870  1.00  0.00     0.003 C 
ATOM      6  C   UNL     1      -0.027  -2.925   2.037  1.00  0.00     0.004 C 
ENDBRANCH   1   5
TORSDOF 2
ENDMDL
MODEL 6
REMARK VINA RESULT:    -2.907     12.957     13.395
REMARK INTER + INTRA:          -3.265
REMARK INTER:                  -3.246
REMARK INTRA:                  -0.019
REMARK UNBOUND:                -0.018
REMARK SMILES CCCC(=O)[O-]
REMARK SMILES IDX 3 1 4 2 5 3 6 4 2 5 1 6
REMARK H PARENT
REMARK Flexibility Score: inf
ROOT
ATOM      1  C   UNL     1      -1.594  -2.083   3.707  1.00  0.00     0.052 C 
ENDROOT
BRANCH   1   2
ATOM      2  C   UNL     1      -2.019  -2.518   5.077  1.00  0.00     0.041 C 
ATOM      3  O   UNL     1      -1.241  -3.197   5.797  1.00  0.00    -0.550 OA
ATOM      4  O   UNL     1      -3.287  -2.201   5.544  1.00  0.00    -0.550 OA
ENDBRANCH   1   2
BRANCH   1   5
ATOM      5  C   UNL     1      -1.157  -3.274   2.844  1.00  0.00     0.003 C 
ATOM      6  C   UNL     1       0.029  -2.935   1.943  1.00  0.00     0.004 C 
ENDBRANCH   1   5
TORSDOF 2
ENDMDL
MODEL 7
REMARK VINA RESULT:    -2.769      2.492      3.182
REMARK INTER + INTRA:          -3.111
REMARK INTER:                  -3.080
REMARK INTRA:                  -0.031
REMARK UNBOUND:                -0.018
REMARK SMILES CCCC(=O)[O-]
REMARK SMILES IDX 3 1 4 2 5 3 6 4 2 5 1 6
REMARK H PARENT
REMARK Flexibility Score: inf
ROOT
ATOM      1  C   UNL     1       8.065   7.735   4.919  1.00  0.00     0.052 C 
ENDROOT
BRANCH   1   2
ATOM      2  C   UNL     1       9.173   8.453   4.210  1.00  0.00     0.041 C 
ATOM      3  O   UNL     1       9.837   7.868   3.314  1.00  0.00    -0.550 OA
ATOM      4  O   UNL     1       9.494   9.757   4.563  1.00  0.00    -0.550 OA
ENDBRANCH   1   2
BRANCH   1   5
ATOM      5  C   UNL     1       7.761   6.379   4.268  1.00  0.00     0.003 C 
ATOM      6  C   UNL     1       6.342   6.310   3.705  1.00  0.00     0.004 C 
ENDBRANCH   1   5
TORSDOF 2
ENDMDL
MODEL 8
REMARK VINA RESULT:    -2.757      2.494      3.503
REMARK INTER + INTRA:          -3.097
REMARK INTER:                  -3.046
REMARK INTRA:                  -0.051
REMARK UNBOUND:                -0.018
REMARK SMILES CCCC(=O)[O-]
REMARK SMILES IDX 3 1 4 2 5 3 6 4 2 5 1 6
REMARK H PARENT
REMARK Flexibility Score: inf
ROOT
ATOM      1  C   UNL     1       8.981   5.587   3.566  1.00  0.00     0.052 C 
ENDROOT
BRANCH   1   2
ATOM      2  C   UNL     1       9.163   6.051   2.153  1.00  0.00     0.041 C 
ATOM      3  O   UNL     1       8.679   5.387   1.199  1.00  0.00    -0.550 OA
ATOM      4  O   UNL     1       9.896   7.201   1.889  1.00  0.00    -0.550 OA
ENDBRANCH   1   2
BRANCH   1   5
ATOM      5  C   UNL     1       7.997   6.480   4.334  1.00  0.00     0.003 C 
ATOM      6  C   UNL     1       6.556   6.301   3.857  1.00  0.00     0.004 C 
ENDBRANCH   1   5
TORSDOF 2
ENDMDL
MODEL 9
REMARK VINA RESULT:    -2.394     22.448     23.053
REMARK INTER + INTRA:          -2.692
REMARK INTER:                  -2.685
REMARK INTRA:                  -0.007
REMARK UNBOUND:                -0.018
REMARK SMILES CCCC(=O)[O-]
REMARK SMILES IDX 3 1 4 2 5 3 6 4 2 5 1 6
REMARK H PARENT
REMARK Flexibility Score: inf
ROOT
ATOM      1  C   UNL     1      -5.889  -6.003  -9.574  1.00  0.00     0.052 C 
ENDROOT
BRANCH   1   2
ATOM      2  C   UNL     1      -4.415  -6.255  -9.680  1.00  0.00     0.041 C 
ATOM      3  O   UNL     1      -3.607  -5.290  -9.717  1.00  0.00    -0.550 OA
ATOM      4  O   UNL     1      -3.938  -7.556  -9.770  1.00  0.00    -0.550 OA
ENDBRANCH   1   2
BRANCH   1   5
ATOM      5  C   UNL     1      -6.497  -6.702  -8.351  1.00  0.00     0.003 C 
ATOM      6  C   UNL     1      -7.416  -5.779  -7.550  1.00  0.00     0.004 C 
ENDBRANCH   1   5
TORSDOF 2
ENDMDL
