MODEL 1
REMARK VINA RESULT:    -5.012      0.000      0.000
REMARK INTER + INTRA:         -11.937
REMARK INTER:                  -9.700
REMARK INTRA:                  -2.237
REMARK UNBOUND:                -2.237
REMARK SMILES CCCCCCCCCCCCCCCCCC(=O)[O-]
REMARK SMILES IDX 10 1 11 2 12 3 13 4 14 5 15 6 16 7 17 8 18 9 19 10 20 11
REMARK SMILES IDX 9 12 8 13 7 14 6 15 5 16 4 17 3 18 2 19 1 20
REMARK H PARENT
REMARK Flexibility Score: inf
ROOT
ATOM      1  C   UNL     1      -3.152  11.438  -9.829  1.00  0.00     0.000 C 
ENDROOT
BRANCH   1   2
ATOM      2  C   UNL     1      -2.928  10.169  -8.993  1.00  0.00     0.000 C 
BRANCH   2   3
ATOM      3  C   UNL     1      -3.155  10.399  -7.491  1.00  0.00     0.000 C 
BRANCH   3   4
ATOM      4  C   UNL     1      -1.844  10.391  -6.686  1.00  0.00     0.000 C 
BRANCH   4   5
ATOM      5  C   UNL     1      -1.242  11.797  -6.531  1.00  0.00     0.000 C 
BRANCH   5   6
ATOM      6  C   UNL     1       0.267  11.833  -6.831  1.00  0.00     0.000 C 
BRANCH   6   7
ATOM      7  C   UNL     1       0.596  11.519  -8.302  1.00  0.00     0.006 C 
BRANCH   7   8
ATOM      8  C   UNL     1       1.080  10.077  -8.539  1.00  0.00     0.053 C 
BRANCH   8   9
ATOM      9  C   UNL     1       2.559   9.994  -8.777  1.00  0.00     0.041 C 
ATOM     10  O   UNL     1       3.365  10.508  -7.957  1.00  0.00    -0.550 OA
ATOM     11  O   UNL     1       3.044   9.373  -9.922  1.00  0.00    -0.550 OA
ENDBRANCH   8   9
ENDBRANCH   7   8
ENDBRANCH   6   7
ENDBRANCH   5   6
ENDBRANCH   4   5
ENDBRANCH   3   4
ENDBRANCH   2   3
ENDBRANCH   1   2
BRANCH   1  12
ATOM     12  C   UNL     1      -4.033  12.447  -9.076  1.00  0.00     0.000 C 
BRANCH  12  13
ATOM     13  C   UNL     1      -5.500  12.392  -9.527  1.00  0.00    -0.000 C 
BRANCH  13  14
ATOM     14  C   UNL     1      -5.720  11.435 -10.714  1.00  0.00    -0.000 C 
BRANCH  14  15
ATOM     15  C   UNL     1      -6.754  10.337 -10.388  1.00  0.00    -0.000 C 
BRANCH  15  16
ATOM     16  C   UNL     1      -6.680   9.840  -8.932  1.00  0.00    -0.000 C 
BRANCH  16  17
ATOM     17  C   UNL     1      -6.455   8.325  -8.825  1.00  0.00    -0.000 C 
BRANCH  17  18
ATOM     18  C   UNL     1      -6.783   7.624 -10.151  1.00  0.00    -0.000 C 
BRANCH  18  19
ATOM     19  C   UNL     1      -5.659   6.683 -10.612  1.00  0.00    -0.003 C 
ATOM     20  C   UNL     1      -4.333   7.412 -10.835  1.00  0.00     0.004 C 
ENDBRANCH  18  19
ENDBRANCH  17  18
ENDBRANCH  16  17
ENDBRANCH  15  16
ENDBRANCH  14  15
ENDBRANCH  13  14
ENDBRANCH  12  13
ENDBRANCH   1  12
TORSDOF 16
ENDMDL
MODEL 2
REMARK VINA RESULT:    -4.913      3.281      7.079
REMARK INTER + INTRA:         -11.746
REMARK INTER:                  -9.068
REMARK INTRA:                  -2.678
REMARK UNBOUND:                -2.237
REMARK SMILES CCCCCCCCCCCCCCCCCC(=O)[O-]
REMARK SMILES IDX 10 1 11 2 12 3 13 4 14 5 15 6 16 7 17 8 18 9 19 10 20 11
REMARK SMILES IDX 9 12 8 13 7 14 6 15 5 16 4 17 3 18 2 19 1 20
REMARK H PARENT
REMARK Flexibility Score: inf
ROOT
ATOM      1  C   UNL     1      -3.490  11.751  -7.328  1.00  0.00     0.000 C 
ENDROOT
BRANCH   1   2
ATOM      2  C   UNL     1      -4.975  12.035  -7.593  1.00  0.00     0.000 C 
BRANCH   2   3
ATOM      3  C   UNL     1      -5.209  12.814  -8.897  1.00  0.00     0.000 C 
BRANCH   3   4
ATOM      4  C   UNL     1      -6.506  12.397  -9.613  1.00  0.00     0.000 C 
BRANCH   4   5
ATOM      5  C   UNL     1      -6.311  11.161 -10.506  1.00  0.00     0.000 C 
BRANCH   5   6
ATOM      6  C   UNL     1      -4.891  11.068 -11.090  1.00  0.00     0.000 C 
BRANCH   6   7
ATOM      7  C   UNL     1      -4.246   9.685 -10.888  1.00  0.00     0.006 C 
BRANCH   7   8
ATOM      8  C   UNL     1      -5.012   8.776  -9.909  1.00  0.00     0.053 C 
BRANCH   8   9
ATOM      9  C   UNL     1      -5.687   7.626 -10.596  1.00  0.00     0.041 C 
ATOM     10  O   UNL     1      -6.809   7.216 -10.195  1.00  0.00    -0.550 OA
ATOM     11  O   UNL     1      -5.062   6.988 -11.660  1.00  0.00    -0.550 OA
ENDBRANCH   8   9
ENDBRANCH   7   8
ENDBRANCH   6   7
ENDBRANCH   5   6
ENDBRANCH   4   5
ENDBRANCH   3   4
ENDBRANCH   2   3
ENDBRANCH   1   2
BRANCH   1  12
ATOM     12  C   UNL     1      -2.594  12.598  -8.245  1.00  0.00     0.000 C 
BRANCH  12  13
ATOM     13  C   UNL     1      -1.593  11.743  -9.036  1.00  0.00    -0.000 C 
BRANCH  13  14
ATOM     14  C   UNL     1      -1.435  10.326  -8.455  1.00  0.00    -0.000 C 
BRANCH  14  15
ATOM     15  C   UNL     1       0.039   9.983  -8.158  1.00  0.00    -0.000 C 
BRANCH  15  16
ATOM     16  C   UNL     1       0.956  11.219  -8.098  1.00  0.00    -0.000 C 
BRANCH  16  17
ATOM     17  C   UNL     1       1.476  11.513  -6.683  1.00  0.00    -0.000 C 
BRANCH  17  18
ATOM     18  C   UNL     1       0.957  12.865  -6.175  1.00  0.00    -0.000 C 
BRANCH  18  19
ATOM     19  C   UNL     1       0.233  12.747  -4.825  1.00  0.00    -0.003 C 
ATOM     20  C   UNL     1      -0.863  11.681  -4.834  1.00  0.00     0.004 C 
ENDBRANCH  18  19
ENDBRANCH  17  18
ENDBRANCH  16  17
ENDBRANCH  15  16
ENDBRANCH  14  15
ENDBRANCH  13  14
ENDBRANCH  12  13
ENDBRANCH   1  12
TORSDOF 16
ENDMDL
MODEL 3
REMARK VINA RESULT:    -4.911      3.146      7.113
REMARK INTER + INTRA:         -11.741
REMARK INTER:                  -9.614
REMARK INTRA:                  -2.127
REMARK UNBOUND:                -2.237
REMARK SMILES CCCCCCCCCCCCCCCCCC(=O)[O-]
REMARK SMILES IDX 10 1 11 2 12 3 13 4 14 5 15 6 16 7 17 8 18 9 19 10 20 11
REMARK SMILES IDX 9 12 8 13 7 14 6 15 5 16 4 17 3 18 2 19 1 20
REMARK H PARENT
REMARK Flexibility Score: inf
ROOT
ATOM      1  C   UNL     1      -3.877  11.746  -7.739  1.00  0.00     0.000 C 
ENDROOT
BRANCH   1   2
ATOM      2  C   UNL     1      -3.669  12.140  -9.209  1.00  0.00     0.000 C 
BRANCH   2   3
ATOM      3  C   UNL     1      -2.998  11.029 -10.033  1.00  0.00     0.000 C 
BRANCH   3   4
ATOM      4  C   UNL     1      -3.977  10.327 -10.990  1.00  0.00     0.000 C 
BRANCH   4   5
ATOM      5  C   UNL     1      -5.361  10.995 -11.008  1.00  0.00     0.000 C 
BRANCH   5   6
ATOM      6  C   UNL     1      -6.473  10.070 -10.485  1.00  0.00     0.000 C 
BRANCH   6   7
ATOM      7  C   UNL     1      -5.934   8.758  -9.887  1.00  0.00     0.006 C 
BRANCH   7   8
ATOM      8  C   UNL     1      -6.767   7.516 -10.253  1.00  0.00     0.053 C 
BRANCH   8   9
ATOM      9  C   UNL     1      -5.981   6.499 -11.027  1.00  0.00     0.041 C 
ATOM     10  O   UNL     1      -4.873   6.808 -11.542  1.00  0.00    -0.550 OA
ATOM     11  O   UNL     1      -6.489   5.218 -11.204  1.00  0.00    -0.550 OA
ENDBRANCH   8   9
ENDBRANCH   7   8
ENDBRANCH   6   7
ENDBRANCH   5   6
ENDBRANCH   4   5
ENDBRANCH   3   4
ENDBRANCH   2   3
ENDBRANCH   1   2
BRANCH   1  12
ATOM     12  C   UNL     1      -3.183  10.412  -7.422  1.00  0.00     0.000 C 
BRANCH  12  13
ATOM     13  C   UNL     1      -2.476  10.432  -6.059  1.00  0.00    -0.000 C 
BRANCH  13  14
ATOM     14  C   UNL     1      -2.192  11.860  -5.558  1.00  0.00    -0.000 C 
BRANCH  14  15
ATOM     15  C   UNL     1      -0.687  12.199  -5.598  1.00  0.00    -0.000 C 
BRANCH  15  16
ATOM     16  C   UNL     1      -0.282  13.045  -6.819  1.00  0.00    -0.000 C 
BRANCH  16  17
ATOM     17  C   UNL     1       0.078  12.195  -8.046  1.00  0.00    -0.000 C 
BRANCH  17  18
ATOM     18  C   UNL     1       1.273  11.277  -7.750  1.00  0.00    -0.000 C 
BRANCH  18  19
ATOM     19  C   UNL     1       1.314  10.049  -8.674  1.00  0.00    -0.003 C 
ATOM     20  C   UNL     1       2.725   9.730  -9.170  1.00  0.00     0.004 C 
ENDBRANCH  18  19
ENDBRANCH  17  18
ENDBRANCH  16  17
ENDBRANCH  15  16
ENDBRANCH  14  15
ENDBRANCH  13  14
ENDBRANCH  12  13
ENDBRANCH   1  12
TORSDOF 16
ENDMDL
MODEL 4
REMARK VINA RESULT:    -4.702      1.413      2.163
REMARK INTER + INTRA:         -11.336
REMARK INTER:                  -9.004
REMARK INTRA:                  -2.332
REMARK UNBOUND:                -2.237
REMARK SMILES CCCCCCCCCCCCCCCCCC(=O)[O-]
REMARK SMILES IDX 10 1 11 2 12 3 13 4 14 5 15 6 16 7 17 8 18 9 19 10 20 11
REMARK SMILES IDX 9 12 8 13 7 14 6 15 5 16 4 17 3 18 2 19 1 20
REMARK H PARENT
REMARK Flexibility Score: inf
ROOT
ATOM      1  C   UNL     1      -6.125  11.669  -7.352  1.00  0.00     0.000 C 
ENDROOT
BRANCH   1   2
ATOM      2  C   UNL     1      -5.072  10.669  -6.855  1.00  0.00     0.000 C 
BRANCH   2   3
ATOM      3  C   UNL     1      -3.645  11.239  -6.891  1.00  0.00     0.000 C 
BRANCH   3   4
ATOM      4  C   UNL     1      -2.715  10.448  -7.827  1.00  0.00     0.000 C 
BRANCH   4   5
ATOM      5  C   UNL     1      -2.193  11.302  -8.994  1.00  0.00     0.000 C 
BRANCH   5   6
ATOM      6  C   UNL     1      -1.368  12.512  -8.522  1.00  0.00     0.000 C 
BRANCH   6   7
ATOM      7  C   UNL     1      -0.198  12.122  -7.601  1.00  0.00     0.006 C 
BRANCH   7   8
ATOM      8  C   UNL     1       1.083  11.722  -8.356  1.00  0.00     0.053 C 
BRANCH   8   9
ATOM      9  C   UNL     1       1.435  10.276  -8.175  1.00  0.00     0.041 C 
ATOM     10  O   UNL     1       0.576   9.461  -7.744  1.00  0.00    -0.550 OA
ATOM     11  O   UNL     1       2.723   9.834  -8.455  1.00  0.00    -0.550 OA
ENDBRANCH   8   9
ENDBRANCH   7   8
ENDBRANCH   6   7
ENDBRANCH   5   6
ENDBRANCH   4   5
ENDBRANCH   3   4
ENDBRANCH   2   3
ENDBRANCH   1   2
BRANCH   1  12
ATOM     12  C   UNL     1      -5.459  12.904  -7.979  1.00  0.00     0.000 C 
BRANCH  12  13
ATOM     13  C   UNL     1      -5.478  12.861  -9.515  1.00  0.00    -0.000 C 
BRANCH  13  14
ATOM     14  C   UNL     1      -6.406  11.763 -10.066  1.00  0.00    -0.000 C 
BRANCH  14  15
ATOM     15  C   UNL     1      -5.661  10.795 -11.008  1.00  0.00    -0.000 C 
BRANCH  15  16
ATOM     16  C   UNL     1      -5.268   9.467 -10.334  1.00  0.00    -0.000 C 
BRANCH  16  17
ATOM     17  C   UNL     1      -4.074   8.779 -11.012  1.00  0.00    -0.000 C 
BRANCH  17  18
ATOM     18  C   UNL     1      -4.151   7.254 -10.850  1.00  0.00    -0.000 C 
BRANCH  18  19
ATOM     19  C   UNL     1      -5.469   6.798 -10.205  1.00  0.00    -0.003 C 
ATOM     20  C   UNL     1      -6.314   5.930 -11.138  1.00  0.00     0.004 C 
ENDBRANCH  18  19
ENDBRANCH  17  18
ENDBRANCH  16  17
ENDBRANCH  15  16
ENDBRANCH  14  15
ENDBRANCH  13  14
ENDBRANCH  12  13
ENDBRANCH   1  12
TORSDOF 16
ENDMDL
MODEL 5
REMARK VINA RESULT:    -4.673      1.497      2.762
REMARK INTER + INTRA:         -11.280
REMARK INTER:                  -8.953
REMARK INTRA:                  -2.327
REMARK UNBOUND:                -2.237
REMARK SMILES CCCCCCCCCCCCCCCCCC(=O)[O-]
REMARK SMILES IDX 10 1 11 2 12 3 13 4 14 5 15 6 16 7 17 8 18 9 19 10 20 11
REMARK SMILES IDX 9 12 8 13 7 14 6 15 5 16 4 17 3 18 2 19 1 20
REMARK H PARENT
REMARK Flexibility Score: inf
ROOT
ATOM      1  C   UNL     1      -6.083  12.178  -9.543  1.00  0.00     0.000 C 
ENDROOT
BRANCH   1   2
ATOM      2  C   UNL     1      -4.707  12.808  -9.279  1.00  0.00     0.000 C 
BRANCH   2   3
ATOM      3  C   UNL     1      -4.064  12.309  -7.975  1.00  0.00     0.000 C 
BRANCH   3   4
ATOM      4  C   UNL     1      -2.634  12.841  -7.778  1.00  0.00     0.000 C 
BRANCH   4   5
ATOM      5  C   UNL     1      -1.600  12.069  -8.614  1.00  0.00     0.000 C 
BRANCH   5   6
ATOM      6  C   UNL     1      -1.592  10.562  -8.305  1.00  0.00     0.000 C 
BRANCH   6   7
ATOM      7  C   UNL     1      -0.183   9.945  -8.352  1.00  0.00     0.006 C 
BRANCH   7   8
ATOM      8  C   UNL     1       0.952  10.964  -8.145  1.00  0.00     0.053 C 
BRANCH   8   9
ATOM      9  C   UNL     1       2.308  10.385  -8.420  1.00  0.00     0.041 C 
ATOM     10  O   UNL     1       3.299  10.722  -7.718  1.00  0.00    -0.550 OA
ATOM     11  O   UNL     1       2.482   9.494  -9.473  1.00  0.00    -0.550 OA
ENDBRANCH   8   9
ENDBRANCH   7   8
ENDBRANCH   6   7
ENDBRANCH   5   6
ENDBRANCH   4   5
ENDBRANCH   3   4
ENDBRANCH   2   3
ENDBRANCH   1   2
BRANCH   1  12
ATOM     12  C   UNL     1      -6.032  11.230 -10.751  1.00  0.00     0.000 C 
BRANCH  12  13
ATOM     13  C   UNL     1      -4.602  10.776 -11.078  1.00  0.00    -0.000 C 
BRANCH  13  14
ATOM     14  C   UNL     1      -4.323   9.328 -10.633  1.00  0.00    -0.000 C 
BRANCH  14  15
ATOM     15  C   UNL     1      -5.579   8.439 -10.739  1.00  0.00    -0.000 C 
BRANCH  15  16
ATOM     16  C   UNL     1      -6.033   7.857  -9.387  1.00  0.00    -0.000 C 
BRANCH  16  17
ATOM     17  C   UNL     1      -5.344   8.521  -8.186  1.00  0.00    -0.000 C 
BRANCH  17  18
ATOM     18  C   UNL     1      -6.343   9.346  -7.363  1.00  0.00    -0.000 C 
BRANCH  18  19
ATOM     19  C   UNL     1      -5.943   9.449  -5.883  1.00  0.00    -0.003 C 
ATOM     20  C   UNL     1      -4.429   9.519  -5.685  1.00  0.00     0.004 C 
ENDBRANCH  18  19
ENDBRANCH  17  18
ENDBRANCH  16  17
ENDBRANCH  15  16
ENDBRANCH  14  15
ENDBRANCH  13  14
ENDBRANCH  12  13
ENDBRANCH   1  12
TORSDOF 16
ENDMDL
MODEL 6
REMARK VINA RESULT:    -4.654      2.897      7.139
REMARK INTER + INTRA:         -11.244
REMARK INTER:                  -9.101
REMARK INTRA:                  -2.143
REMARK UNBOUND:                -2.237
REMARK SMILES CCCCCCCCCCCCCCCCCC(=O)[O-]
REMARK SMILES IDX 10 1 11 2 12 3 13 4 14 5 15 6 16 7 17 8 18 9 19 10 20 11
REMARK SMILES IDX 9 12 8 13 7 14 6 15 5 16 4 17 3 18 2 19 1 20
REMARK H PARENT
REMARK Flexibility Score: inf
ROOT
ATOM      1  C   UNL     1      -0.973  10.158  -8.481  1.00  0.00     0.000 C 
ENDROOT
BRANCH   1   2
ATOM      2  C   UNL     1      -1.301  11.643  -8.695  1.00  0.00     0.000 C 
BRANCH   2   3
ATOM      3  C   UNL     1      -2.612  11.857  -9.467  1.00  0.00     0.000 C 
BRANCH   3   4
ATOM      4  C   UNL     1      -3.808  12.135  -8.540  1.00  0.00     0.000 C 
BRANCH   4   5
ATOM      5  C   UNL     1      -4.907  12.959  -9.230  1.00  0.00     0.000 C 
BRANCH   5   6
ATOM      6  C   UNL     1      -6.142  12.116  -9.591  1.00  0.00     0.000 C 
BRANCH   6   7
ATOM      7  C   UNL     1      -5.899  11.171 -10.783  1.00  0.00     0.006 C 
BRANCH   7   8
ATOM      8  C   UNL     1      -6.280   9.706 -10.505  1.00  0.00     0.053 C 
BRANCH   8   9
ATOM      9  C   UNL     1      -5.215   8.740 -10.931  1.00  0.00     0.041 C 
ATOM     10  O   UNL     1      -5.442   7.500 -10.930  1.00  0.00    -0.550 OA
ATOM     11  O   UNL     1      -3.960   9.209 -11.301  1.00  0.00    -0.550 OA
ENDBRANCH   8   9
ENDBRANCH   7   8
ENDBRANCH   6   7
ENDBRANCH   5   6
ENDBRANCH   4   5
ENDBRANCH   3   4
ENDBRANCH   2   3
ENDBRANCH   1   2
BRANCH   1  12
ATOM     12  C   UNL     1       0.502   9.970  -8.090  1.00  0.00     0.000 C 
BRANCH  12  13
ATOM     13  C   UNL     1       1.304  11.276  -8.193  1.00  0.00    -0.000 C 
BRANCH  13  14
ATOM     14  C   UNL     1       2.449  11.351  -7.167  1.00  0.00    -0.000 C 
BRANCH  14  15
ATOM     15  C   UNL     1       1.962  11.856  -5.793  1.00  0.00    -0.000 C 
BRANCH  15  16
ATOM     16  C   UNL     1       0.845  12.912  -5.889  1.00  0.00    -0.000 C 
BRANCH  16  17
ATOM     17  C   UNL     1      -0.286  12.684  -4.876  1.00  0.00    -0.000 C 
BRANCH  17  18
ATOM     18  C   UNL     1      -1.641  13.116  -5.455  1.00  0.00    -0.000 C 
BRANCH  18  19
ATOM     19  C   UNL     1      -2.786  12.183  -5.031  1.00  0.00    -0.003 C 
ATOM     20  C   UNL     1      -2.410  10.705  -5.129  1.00  0.00     0.004 C 
ENDBRANCH  18  19
ENDBRANCH  17  18
ENDBRANCH  16  17
ENDBRANCH  15  16
ENDBRANCH  14  15
ENDBRANCH  13  14
ENDBRANCH  12  13
ENDBRANCH   1  12
TORSDOF 16
ENDMDL
MODEL 7
REMARK VINA RESULT:    -4.629      1.012      2.030
REMARK INTER + INTRA:         -11.196
REMARK INTER:                  -9.166
REMARK INTRA:                  -2.030
REMARK UNBOUND:                -2.237
REMARK SMILES CCCCCCCCCCCCCCCCCC(=O)[O-]
REMARK SMILES IDX 10 1 11 2 12 3 13 4 14 5 15 6 16 7 17 8 18 9 19 10 20 11
REMARK SMILES IDX 9 12 8 13 7 14 6 15 5 16 4 17 3 18 2 19 1 20
REMARK H PARENT
REMARK Flexibility Score: inf
ROOT
ATOM      1  C   UNL     1      -3.582  10.236  -6.719  1.00  0.00     0.000 C 
ENDROOT
BRANCH   1   2
ATOM      2  C   UNL     1      -3.445  11.497  -5.854  1.00  0.00     0.000 C 
BRANCH   2   3
ATOM      3  C   UNL     1      -2.017  11.703  -5.324  1.00  0.00     0.000 C 
BRANCH   3   4
ATOM      4  C   UNL     1      -1.500  13.134  -5.555  1.00  0.00     0.000 C 
BRANCH   4   5
ATOM      5  C   UNL     1      -0.692  13.263  -6.857  1.00  0.00     0.000 C 
BRANCH   5   6
ATOM      6  C   UNL     1       0.485  12.274  -6.926  1.00  0.00     0.000 C 
BRANCH   6   7
ATOM      7  C   UNL     1       0.783  11.792  -8.356  1.00  0.00     0.006 C 
BRANCH   7   8
ATOM      8  C   UNL     1       1.113  10.290  -8.452  1.00  0.00     0.053 C 
BRANCH   8   9
ATOM      9  C   UNL     1       2.571  10.031  -8.686  1.00  0.00     0.041 C 
ATOM     10  O   UNL     1       3.431  10.439  -7.859  1.00  0.00    -0.550 OA
ATOM     11  O   UNL     1       2.983   9.363  -9.833  1.00  0.00    -0.550 OA
ENDBRANCH   8   9
ENDBRANCH   7   8
ENDBRANCH   6   7
ENDBRANCH   5   6
ENDBRANCH   4   5
ENDBRANCH   3   4
ENDBRANCH   2   3
ENDBRANCH   1   2
BRANCH   1  12
ATOM     12  C   UNL     1      -2.525  10.214  -7.834  1.00  0.00     0.000 C 
BRANCH  12  13
ATOM     13  C   UNL     1      -2.914  11.103  -9.025  1.00  0.00    -0.000 C 
BRANCH  13  14
ATOM     14  C   UNL     1      -3.511  10.299 -10.194  1.00  0.00    -0.000 C 
BRANCH  14  15
ATOM     15  C   UNL     1      -4.765  10.979 -10.782  1.00  0.00    -0.000 C 
BRANCH  15  16
ATOM     16  C   UNL     1      -6.034  10.111 -10.686  1.00  0.00    -0.000 C 
BRANCH  16  17
ATOM     17  C   UNL     1      -6.096   9.279  -9.397  1.00  0.00    -0.000 C 
BRANCH  17  18
ATOM     18  C   UNL     1      -6.367   7.800  -9.707  1.00  0.00    -0.000 C 
BRANCH  18  19
ATOM     19  C   UNL     1      -5.587   7.305 -10.935  1.00  0.00    -0.003 C 
ATOM     20  C   UNL     1      -6.026   5.913 -11.392  1.00  0.00     0.004 C 
ENDBRANCH  18  19
ENDBRANCH  17  18
ENDBRANCH  16  17
ENDBRANCH  15  16
ENDBRANCH  14  15
ENDBRANCH  13  14
ENDBRANCH  12  13
ENDBRANCH   1  12
TORSDOF 16
ENDMDL
MODEL 8
REMARK VINA RESULT:    -4.607      2.097      2.641
REMARK INTER + INTRA:         -11.152
REMARK INTER:                  -9.360
REMARK INTRA:                  -1.793
REMARK UNBOUND:                -2.237
REMARK SMILES CCCCCCCCCCCCCCCCCC(=O)[O-]
REMARK SMILES IDX 10 1 11 2 12 3 13 4 14 5 15 6 16 7 17 8 18 9 19 10 20 11
REMARK SMILES IDX 9 12 8 13 7 14 6 15 5 16 4 17 3 18 2 19 1 20
REMARK H PARENT
REMARK Flexibility Score: inf
ROOT
ATOM      1  C   UNL     1      -3.145  13.014  -7.981  1.00  0.00     0.000 C 
ENDROOT
BRANCH   1   2
ATOM      2  C   UNL     1      -2.443  12.419  -6.752  1.00  0.00     0.000 C 
BRANCH   2   3
ATOM      3  C   UNL     1      -2.815  10.948  -6.507  1.00  0.00     0.000 C 
BRANCH   3   4
ATOM      4  C   UNL     1      -1.672   9.981  -6.859  1.00  0.00     0.000 C 
BRANCH   4   5
ATOM      5  C   UNL     1      -1.087  10.247  -8.256  1.00  0.00     0.000 C 
BRANCH   5   6
ATOM      6  C   UNL     1       0.448  10.156  -8.283  1.00  0.00     0.000 C 
BRANCH   6   7
ATOM      7  C   UNL     1       1.137  11.503  -7.997  1.00  0.00     0.006 C 
BRANCH   7   8
ATOM      8  C   UNL     1       2.124  11.461  -6.817  1.00  0.00     0.053 C 
BRANCH   8   9
ATOM      9  C   UNL     1       1.679  12.304  -5.659  1.00  0.00     0.041 C 
ATOM     10  O   UNL     1       2.292  13.368  -5.373  1.00  0.00    -0.550 OA
ATOM     11  O   UNL     1       0.604  11.898  -4.877  1.00  0.00    -0.550 OA
ENDBRANCH   8   9
ENDBRANCH   7   8
ENDBRANCH   6   7
ENDBRANCH   5   6
ENDBRANCH   4   5
ENDBRANCH   3   4
ENDBRANCH   2   3
ENDBRANCH   1   2
BRANCH   1  12
ATOM     12  C   UNL     1      -4.623  12.595  -8.028  1.00  0.00     0.000 C 
BRANCH  12  13
ATOM     13  C   UNL     1      -5.246  12.810  -9.416  1.00  0.00    -0.000 C 
BRANCH  13  14
ATOM     14  C   UNL     1      -6.484  11.925  -9.653  1.00  0.00    -0.000 C 
BRANCH  14  15
ATOM     15  C   UNL     1      -6.195  10.782 -10.648  1.00  0.00    -0.000 C 
BRANCH  15  16
ATOM     16  C   UNL     1      -4.747  10.777 -11.172  1.00  0.00    -0.000 C 
BRANCH  16  17
ATOM     17  C   UNL     1      -3.904   9.629 -10.600  1.00  0.00    -0.000 C 
BRANCH  17  18
ATOM     18  C   UNL     1      -4.794   8.458 -10.158  1.00  0.00    -0.000 C 
BRANCH  18  19
ATOM     19  C   UNL     1      -4.925   7.378 -11.244  1.00  0.00    -0.003 C 
ATOM     20  C   UNL     1      -6.036   6.371 -10.944  1.00  0.00     0.004 C 
ENDBRANCH  18  19
ENDBRANCH  17  18
ENDBRANCH  16  17
ENDBRANCH  15  16
ENDBRANCH  14  15
ENDBRANCH  13  14
ENDBRANCH  12  13
ENDBRANCH   1  12
TORSDOF 16
ENDMDL
MODEL 9
REMARK VINA RESULT:    -4.586      1.443      3.060
REMARK INTER + INTRA:         -11.112
REMARK INTER:                  -8.669
REMARK INTRA:                  -2.443
REMARK UNBOUND:                -2.237
REMARK SMILES CCCCCCCCCCCCCCCCCC(=O)[O-]
REMARK SMILES IDX 10 1 11 2 12 3 13 4 14 5 15 6 16 7 17 8 18 9 19 10 20 11
REMARK SMILES IDX 9 12 8 13 7 14 6 15 5 16 4 17 3 18 2 19 1 20
REMARK H PARENT
REMARK Flexibility Score: inf
ROOT
ATOM      1  C   UNL     1      -2.869  11.496  -9.809  1.00  0.00     0.000 C 
ENDROOT
BRANCH   1   2
ATOM      2  C   UNL     1      -3.193  12.387  -8.602  1.00  0.00     0.000 C 
BRANCH   2   3
ATOM      3  C   UNL     1      -3.070  11.643  -7.262  1.00  0.00     0.000 C 
BRANCH   3   4
ATOM      4  C   UNL     1      -2.039  12.286  -6.319  1.00  0.00     0.000 C 
BRANCH   4   5
ATOM      5  C   UNL     1      -0.640  11.668  -6.469  1.00  0.00     0.000 C 
BRANCH   5   6
ATOM      6  C   UNL     1      -0.683  10.220  -6.988  1.00  0.00     0.000 C 
BRANCH   6   7
ATOM      7  C   UNL     1       0.172  10.006  -8.250  1.00  0.00     0.006 C 
BRANCH   7   8
ATOM      8  C   UNL     1       1.282  11.057  -8.437  1.00  0.00     0.053 C 
BRANCH   8   9
ATOM      9  C   UNL     1       2.658  10.464  -8.376  1.00  0.00     0.041 C 
ATOM     10  O   UNL     1       3.424  10.729  -7.411  1.00  0.00    -0.550 OA
ATOM     11  O   UNL     1       3.105   9.640  -9.402  1.00  0.00    -0.550 OA
ENDBRANCH   8   9
ENDBRANCH   7   8
ENDBRANCH   6   7
ENDBRANCH   5   6
ENDBRANCH   4   5
ENDBRANCH   3   4
ENDBRANCH   2   3
ENDBRANCH   1   2
BRANCH   1  12
ATOM     12  C   UNL     1      -3.195  10.024  -9.512  1.00  0.00     0.000 C 
BRANCH  12  13
ATOM     13  C   UNL     1      -4.416   9.526 -10.300  1.00  0.00    -0.000 C 
BRANCH  13  14
ATOM     14  C   UNL     1      -4.935  10.566 -11.309  1.00  0.00    -0.000 C 
BRANCH  14  15
ATOM     15  C   UNL     1      -6.321  11.116 -10.912  1.00  0.00    -0.000 C 
BRANCH  15  16
ATOM     16  C   UNL     1      -6.959  10.370  -9.725  1.00  0.00    -0.000 C 
BRANCH  16  17
ATOM     17  C   UNL     1      -6.808  11.121  -8.394  1.00  0.00    -0.000 C 
BRANCH  17  18
ATOM     18  C   UNL     1      -6.906  12.639  -8.602  1.00  0.00    -0.000 C 
BRANCH  18  19
ATOM     19  C   UNL     1      -6.870  13.417  -7.278  1.00  0.00    -0.003 C 
ATOM     20  C   UNL     1      -6.643  12.512  -6.067  1.00  0.00     0.004 C 
ENDBRANCH  18  19
ENDBRANCH  17  18
ENDBRANCH  16  17
ENDBRANCH  15  16
ENDBRANCH  14  15
ENDBRANCH  13  14
ENDBRANCH  12  13
ENDBRANCH   1  12
TORSDOF 16
ENDMDL
