MODEL 1
REMARK VINA RESULT:    -3.749      0.000      0.000
REMARK INTER + INTRA:          -5.268
REMARK INTER:                  -5.065
REMARK INTRA:                  -0.203
REMARK UNBOUND:                -0.203
REMARK SMILES CCCCCCCC(=O)[O-]
REMARK SMILES IDX 5 1 6 2 7 3 8 4 9 5 10 6 4 7 3 8 2 9 1 10
REMARK H PARENT
REMARK Flexibility Score: inf
ROOT
ATOM      1  C   UNL     1     -24.125  29.321   7.418  1.00  0.00     0.000 C 
ENDROOT
BRANCH   1   2
ATOM      2  C   UNL     1     -23.788  28.202   8.415  1.00  0.00     0.006 C 
BRANCH   2   3
ATOM      3  C   UNL     1     -23.759  26.816   7.760  1.00  0.00     0.053 C 
BRANCH   3   4
ATOM      4  C   UNL     1     -23.258  25.791   8.726  1.00  0.00     0.041 C 
ATOM      5  O   UNL     1     -22.810  26.143   9.849  1.00  0.00    -0.550 OA
ATOM      6  O   UNL     1     -23.239  24.448   8.369  1.00  0.00    -0.550 OA
ENDBRANCH   3   4
ENDBRANCH   2   3
ENDBRANCH   1   2
BRANCH   1   7
ATOM      7  C   UNL     1     -23.804  30.721   7.970  1.00  0.00     0.000 C 
BRANCH   7   8
ATOM      8  C   UNL     1     -22.416  30.793   8.626  1.00  0.00    -0.000 C 
BRANCH   8   9
ATOM      9  C   UNL     1     -21.544  31.914   8.043  1.00  0.00    -0.003 C 
ATOM     10  C   UNL     1     -20.075  31.505   8.005  1.00  0.00     0.004 C 
ENDBRANCH   8   9
ENDBRANCH   7   8
ENDBRANCH   1   7
TORSDOF 6
ENDMDL
MODEL 2
REMARK VINA RESULT:    -3.680      2.993      5.202
REMARK INTER + INTRA:          -5.174
REMARK INTER:                  -4.927
REMARK INTRA:                  -0.247
REMARK UNBOUND:                -0.203
REMARK SMILES CCCCCCCC(=O)[O-]
REMARK SMILES IDX 5 1 6 2 7 3 8 4 9 5 10 6 4 7 3 8 2 9 1 10
REMARK H PARENT
REMARK Flexibility Score: inf
ROOT
ATOM      1  C   UNL     1     -23.784  28.414   8.259  1.00  0.00     0.000 C 
ENDROOT
BRANCH   1   2
ATOM      2  C   UNL     1     -24.125  29.571   7.305  1.00  0.00     0.006 C 
BRANCH   2   3
ATOM      3  C   UNL     1     -24.088  30.938   8.000  1.00  0.00     0.053 C 
BRANCH   3   4
ATOM      4  C   UNL     1     -22.674  31.367   8.233  1.00  0.00     0.041 C 
ATOM      5  O   UNL     1     -22.226  31.462   9.406  1.00  0.00    -0.550 OA
ATOM      6  O   UNL     1     -21.865  31.712   7.158  1.00  0.00    -0.550 OA
ENDBRANCH   3   4
ENDBRANCH   2   3
ENDBRANCH   1   2
BRANCH   1   7
ATOM      7  C   UNL     1     -23.810  27.045   7.558  1.00  0.00     0.000 C 
BRANCH   7   8
ATOM      8  C   UNL     1     -23.383  25.898   8.488  1.00  0.00    -0.000 C 
BRANCH   8   9
ATOM      9  C   UNL     1     -23.000  26.387   9.892  1.00  0.00    -0.003 C 
ATOM     10  C   UNL     1     -23.295  25.323  10.944  1.00  0.00     0.004 C 
ENDBRANCH   8   9
ENDBRANCH   7   8
ENDBRANCH   1   7
TORSDOF 6
ENDMDL
MODEL 3
REMARK VINA RESULT:    -3.662      1.397      2.500
REMARK INTER + INTRA:          -5.150
REMARK INTER:                  -4.937
REMARK INTRA:                  -0.213
REMARK UNBOUND:                -0.203
REMARK SMILES CCCCCCCC(=O)[O-]
REMARK SMILES IDX 5 1 6 2 7 3 8 4 9 5 10 6 4 7 3 8 2 9 1 10
REMARK H PARENT
REMARK Flexibility Score: inf
ROOT
ATOM      1  C   UNL     1     -23.820  26.975   7.431  1.00  0.00     0.000 C 
ENDROOT
BRANCH   1   2
ATOM      2  C   UNL     1     -23.818  25.769   8.385  1.00  0.00     0.006 C 
BRANCH   2   3
ATOM      3  C   UNL     1     -22.402  25.333   8.781  1.00  0.00     0.053 C 
BRANCH   3   4
ATOM      4  C   UNL     1     -22.256  25.319  10.269  1.00  0.00     0.041 C 
ATOM      5  O   UNL     1     -21.662  24.367  10.839  1.00  0.00    -0.550 OA
ATOM      6  O   UNL     1     -22.820  26.334  11.033  1.00  0.00    -0.550 OA
ENDBRANCH   3   4
ENDBRANCH   2   3
ENDBRANCH   1   2
BRANCH   1   7
ATOM      7  C   UNL     1     -23.870  28.319   8.179  1.00  0.00     0.000 C 
BRANCH   7   8
ATOM      8  C   UNL     1     -24.125  29.508   7.239  1.00  0.00    -0.000 C 
BRANCH   8   9
ATOM      9  C   UNL     1     -24.026  30.861   7.958  1.00  0.00    -0.003 C 
ATOM     10  C   UNL     1     -22.601  31.405   7.913  1.00  0.00     0.004 C 
ENDBRANCH   8   9
ENDBRANCH   7   8
ENDBRANCH   1   7
TORSDOF 6
ENDMDL
MODEL 4
REMARK VINA RESULT:    -3.401      5.442      7.661
REMARK INTER + INTRA:          -4.796
REMARK INTER:                  -4.604
REMARK INTRA:                  -0.192
REMARK UNBOUND:                -0.203
REMARK SMILES CCCCCCCC(=O)[O-]
REMARK SMILES IDX 5 1 6 2 7 3 8 4 9 5 10 6 4 7 3 8 2 9 1 10
REMARK H PARENT
REMARK Flexibility Score: inf
ROOT
ATOM      1  C   UNL     1     -21.338  24.015  12.774  1.00  0.00     0.000 C 
ENDROOT
BRANCH   1   2
ATOM      2  C   UNL     1     -21.837  23.237  11.546  1.00  0.00     0.006 C 
BRANCH   2   3
ATOM      3  C   UNL     1     -22.903  24.004  10.755  1.00  0.00     0.053 C 
BRANCH   3   4
ATOM      4  C   UNL     1     -22.301  25.202  10.093  1.00  0.00     0.041 C 
ATOM      5  O   UNL     1     -22.638  26.361  10.451  1.00  0.00    -0.550 OA
ATOM      6  O   UNL     1     -21.403  25.041   9.044  1.00  0.00    -0.550 OA
ENDBRANCH   3   4
ENDBRANCH   2   3
ENDBRANCH   1   2
BRANCH   1   7
ATOM      7  C   UNL     1     -19.930  23.578  13.217  1.00  0.00     0.000 C 
BRANCH   7   8
ATOM      8  C   UNL     1     -19.512  24.205  14.557  1.00  0.00    -0.000 C 
BRANCH   8   9
ATOM      9  C   UNL     1     -20.093  23.459  15.766  1.00  0.00    -0.003 C 
ATOM     10  C   UNL     1     -19.138  23.509  16.954  1.00  0.00     0.004 C 
ENDBRANCH   8   9
ENDBRANCH   7   8
ENDBRANCH   1   7
TORSDOF 6
ENDMDL
MODEL 5
REMARK VINA RESULT:    -3.192      4.608      6.266
REMARK INTER + INTRA:          -4.515
REMARK INTER:                  -4.200
REMARK INTRA:                  -0.315
REMARK UNBOUND:                -0.203
REMARK SMILES CCCCCCCC(=O)[O-]
REMARK SMILES IDX 5 1 6 2 7 3 8 4 9 5 10 6 4 7 3 8 2 9 1 10
REMARK H PARENT
REMARK Flexibility Score: inf
ROOT
ATOM      1  C   UNL     1     -23.075  25.300  11.446  1.00  0.00     0.000 C 
ENDROOT
BRANCH   1   2
ATOM      2  C   UNL     1     -24.097  24.730  10.450  1.00  0.00     0.006 C 
BRANCH   2   3
ATOM      3  C   UNL     1     -23.433  24.054   9.245  1.00  0.00     0.053 C 
BRANCH   3   4
ATOM      4  C   UNL     1     -22.539  25.018   8.532  1.00  0.00     0.041 C 
ATOM      5  O   UNL     1     -21.295  24.826   8.502  1.00  0.00    -0.550 OA
ATOM      6  O   UNL     1     -23.073  26.157   7.942  1.00  0.00    -0.550 OA
ENDBRANCH   3   4
ENDBRANCH   2   3
ENDBRANCH   1   2
BRANCH   1   7
ATOM      7  C   UNL     1     -22.594  24.252  12.465  1.00  0.00     0.000 C 
BRANCH   7   8
ATOM      8  C   UNL     1     -21.141  23.815  12.221  1.00  0.00    -0.000 C 
BRANCH   8   9
ATOM      9  C   UNL     1     -20.473  23.254  13.485  1.00  0.00    -0.003 C 
ATOM     10  C   UNL     1     -19.715  24.344  14.237  1.00  0.00     0.004 C 
ENDBRANCH   8   9
ENDBRANCH   7   8
ENDBRANCH   1   7
TORSDOF 6
ENDMDL
MODEL 6
REMARK VINA RESULT:    -3.120     12.946     14.098
REMARK INTER + INTRA:          -4.417
REMARK INTER:                  -4.125
REMARK INTRA:                  -0.292
REMARK UNBOUND:                -0.203
REMARK SMILES CCCCCCCC(=O)[O-]
REMARK SMILES IDX 5 1 6 2 7 3 8 4 9 5 10 6 4 7 3 8 2 9 1 10
REMARK H PARENT
REMARK Flexibility Score: inf
ROOT
ATOM      1  C   UNL     1     -20.246  31.137  22.437  1.00  0.00     0.000 C 
ENDROOT
BRANCH   1   2
ATOM      2  C   UNL     1     -21.000  32.467  22.589  1.00  0.00     0.006 C 
BRANCH   2   3
ATOM      3  C   UNL     1     -22.026  32.695  21.472  1.00  0.00     0.053 C 
BRANCH   3   4
ATOM      4  C   UNL     1     -22.055  34.137  21.075  1.00  0.00     0.041 C 
ATOM      5  O   UNL     1     -21.476  35.001  21.783  1.00  0.00    -0.550 OA
ATOM      6  O   UNL     1     -22.766  34.534  19.949  1.00  0.00    -0.550 OA
ENDBRANCH   3   4
ENDBRANCH   2   3
ENDBRANCH   1   2
BRANCH   1   7
ATOM      7  C   UNL     1     -20.825  30.255  21.316  1.00  0.00     0.000 C 
BRANCH   7   8
ATOM      8  C   UNL     1     -19.733  29.634  20.430  1.00  0.00    -0.000 C 
BRANCH   8   9
ATOM      9  C   UNL     1     -20.309  28.905  19.208  1.00  0.00    -0.003 C 
ATOM     10  C   UNL     1     -21.823  28.759  19.316  1.00  0.00     0.004 C 
ENDBRANCH   8   9
ENDBRANCH   7   8
ENDBRANCH   1   7
TORSDOF 6
ENDMDL
MODEL 7
REMARK VINA RESULT:    -3.114     12.790     13.437
REMARK INTER + INTRA:          -4.410
REMARK INTER:                  -4.039
REMARK INTRA:                  -0.371
REMARK UNBOUND:                -0.203
REMARK SMILES CCCCCCCC(=O)[O-]
REMARK SMILES IDX 5 1 6 2 7 3 8 4 9 5 10 6 4 7 3 8 2 9 1 10
REMARK H PARENT
REMARK Flexibility Score: inf
ROOT
ATOM      1  C   UNL     1     -19.053  29.242  21.395  1.00  0.00     0.000 C 
ENDROOT
BRANCH   1   2
ATOM      2  C   UNL     1     -19.790  29.710  20.130  1.00  0.00     0.006 C 
BRANCH   2   3
ATOM      3  C   UNL     1     -20.436  28.550  19.362  1.00  0.00     0.053 C 
BRANCH   3   4
ATOM      4  C   UNL     1     -21.919  28.555  19.558  1.00  0.00     0.041 C 
ATOM      5  O   UNL     1     -22.490  29.562  20.052  1.00  0.00    -0.550 OA
ATOM      6  O   UNL     1     -22.666  27.426  19.243  1.00  0.00    -0.550 OA
ENDBRANCH   3   4
ENDBRANCH   2   3
ENDBRANCH   1   2
BRANCH   1   7
ATOM      7  C   UNL     1     -19.428  30.071  22.637  1.00  0.00     0.000 C 
BRANCH   7   8
ATOM      8  C   UNL     1     -20.336  31.264  22.298  1.00  0.00    -0.000 C 
BRANCH   8   9
ATOM      9  C   UNL     1     -20.205  32.412  23.308  1.00  0.00    -0.003 C 
ATOM     10  C   UNL     1     -18.745  32.652  23.682  1.00  0.00     0.004 C 
ENDBRANCH   8   9
ENDBRANCH   7   8
ENDBRANCH   1   7
TORSDOF 6
ENDMDL
MODEL 8
REMARK VINA RESULT:    -3.097      4.371      6.125
REMARK INTER + INTRA:          -4.386
REMARK INTER:                  -4.232
REMARK INTRA:                  -0.154
REMARK UNBOUND:                -0.203
REMARK SMILES CCCCCCCC(=O)[O-]
REMARK SMILES IDX 5 1 6 2 7 3 8 4 9 5 10 6 4 7 3 8 2 9 1 10
REMARK H PARENT
REMARK Flexibility Score: inf
ROOT
ATOM      1  C   UNL     1     -22.900  25.075  11.377  1.00  0.00     0.000 C 
ENDROOT
BRANCH   1   2
ATOM      2  C   UNL     1     -22.487  23.935  12.322  1.00  0.00     0.006 C 
BRANCH   2   3
ATOM      3  C   UNL     1     -20.967  23.835  12.497  1.00  0.00     0.053 C 
BRANCH   3   4
ATOM      4  C   UNL     1     -20.598  23.956  13.941  1.00  0.00     0.041 C 
ATOM      5  O   UNL     1     -19.505  24.485  14.275  1.00  0.00    -0.550 OA
ATOM      6  O   UNL     1     -21.437  23.438  14.920  1.00  0.00    -0.550 OA
ENDBRANCH   3   4
ENDBRANCH   2   3
ENDBRANCH   1   2
BRANCH   1   7
ATOM      7  C   UNL     1     -24.089  24.694  10.478  1.00  0.00     0.000 C 
BRANCH   7   8
ATOM      8  C   UNL     1     -23.847  25.043   9.001  1.00  0.00    -0.000 C 
BRANCH   8   9
ATOM      9  C   UNL     1     -23.755  26.556   8.758  1.00  0.00    -0.003 C 
ATOM     10  C   UNL     1     -23.749  26.875   7.266  1.00  0.00     0.004 C 
ENDBRANCH   8   9
ENDBRANCH   7   8
ENDBRANCH   1   7
TORSDOF 6
ENDMDL
MODEL 9
REMARK VINA RESULT:    -3.063     13.356     14.561
REMARK INTER + INTRA:          -4.340
REMARK INTER:                  -4.134
REMARK INTRA:                  -0.206
REMARK UNBOUND:                -0.203
REMARK SMILES CCCCCCCC(=O)[O-]
REMARK SMILES IDX 5 1 6 2 7 3 8 4 9 5 10 6 4 7 3 8 2 9 1 10
REMARK H PARENT
REMARK Flexibility Score: inf
ROOT
ATOM      1  C   UNL     1     -20.570  32.226  23.001  1.00  0.00     0.000 C 
ENDROOT
BRANCH   1   2
ATOM      2  C   UNL     1     -21.467  32.916  21.960  1.00  0.00     0.006 C 
BRANCH   2   3
ATOM      3  C   UNL     1     -21.419  34.446  22.062  1.00  0.00     0.053 C 
BRANCH   3   4
ATOM      4  C   UNL     1     -22.269  35.067  21.000  1.00  0.00     0.041 C 
ATOM      5  O   UNL     1     -22.360  36.319  20.913  1.00  0.00    -0.550 OA
ATOM      6  O   UNL     1     -23.002  34.262  20.137  1.00  0.00    -0.550 OA
ENDBRANCH   3   4
ENDBRANCH   2   3
ENDBRANCH   1   2
BRANCH   1   7
ATOM      7  C   UNL     1     -20.030  30.872  22.509  1.00  0.00     0.000 C 
BRANCH   7   8
ATOM      8  C   UNL     1     -20.674  30.424  21.188  1.00  0.00    -0.000 C 
BRANCH   8   9
ATOM      9  C   UNL     1     -19.702  29.646  20.289  1.00  0.00    -0.003 C 
ATOM     10  C   UNL     1     -20.452  28.842  19.232  1.00  0.00     0.004 C 
ENDBRANCH   8   9
ENDBRANCH   7   8
ENDBRANCH   1   7
TORSDOF 6
ENDMDL
