MODEL 1
REMARK VINA RESULT:    -4.373      0.000      0.000
REMARK INTER + INTRA:          -4.724
REMARK INTER:                  -4.628
REMARK INTRA:                  -0.095
REMARK UNBOUND:                -0.095
REMARK SMILES C=C(C)[C@H]1CC=C(C)C(=O)C1
REMARK SMILES IDX 8 1 7 2 6 3 5 4 4 5 11 6 9 7 10 8 2 9 1 10 3 11
REMARK H PARENT
REMARK Flexibility Score: inf
ROOT
ATOM      1  C   UNL     1      16.385  32.622  28.983  1.00  0.00     0.048 C 
ATOM      2  C   UNL     1      17.699  31.981  29.331  1.00  0.00    -0.012 C 
ATOM      3  C   UNL     1      17.754  30.671  29.630  1.00  0.00    -0.019 C 
ATOM      4  C   UNL     1      19.033  30.003  30.063  1.00  0.00     0.036 C 
ATOM      5  C   UNL     1      20.260  30.682  29.425  1.00  0.00     0.025 C 
ATOM      6  C   UNL     1      20.256  32.192  29.733  1.00  0.00     0.089 C 
ATOM      7  C   UNL     1      18.933  32.806  29.367  1.00  0.00     0.158 C 
ATOM      8  O   UNL     1      18.873  34.043  29.133  1.00  0.00    -0.295 OA
ENDROOT
BRANCH   5   9
ATOM      9  C   UNL     1      21.561  30.022  29.864  1.00  0.00    -0.077 C 
ATOM     10  C   UNL     1      22.358  30.593  30.784  1.00  0.00     0.008 C 
ATOM     11  C   UNL     1      21.977  28.702  29.269  1.00  0.00     0.039 C 
ENDBRANCH   5   9
TORSDOF 1
ENDMDL
MODEL 2
REMARK VINA RESULT:    -4.347      7.774     10.195
REMARK INTER + INTRA:          -4.697
REMARK INTER:                  -4.603
REMARK INTRA:                  -0.094
REMARK UNBOUND:                -0.095
REMARK SMILES C=C(C)[C@H]1CC=C(C)C(=O)C1
REMARK SMILES IDX 8 1 7 2 6 3 5 4 4 5 11 6 9 7 10 8 2 9 1 10 3 11
REMARK H PARENT
REMARK Flexibility Score: inf
ROOT
ATOM      1  C   UNL     1      31.278  34.110  27.838  1.00  0.00     0.048 C 
ATOM      2  C   UNL     1      30.234  33.344  28.604  1.00  0.00    -0.012 C 
ATOM      3  C   UNL     1      29.025  33.888  28.826  1.00  0.00    -0.019 C 
ATOM      4  C   UNL     1      27.976  33.194  29.655  1.00  0.00     0.036 C 
ATOM      5  C   UNL     1      28.106  31.661  29.548  1.00  0.00     0.025 C 
ATOM      6  C   UNL     1      29.533  31.218  29.921  1.00  0.00     0.089 C 
ATOM      7  C   UNL     1      30.553  31.995  29.133  1.00  0.00     0.158 C 
ATOM      8  O   UNL     1      31.702  31.505  28.966  1.00  0.00    -0.295 OA
ENDROOT
BRANCH   5   9
ATOM      9  C   UNL     1      27.058  30.948  30.392  1.00  0.00    -0.077 C 
ATOM     10  C   UNL     1      27.238  30.748  31.709  1.00  0.00     0.008 C 
ATOM     11  C   UNL     1      25.785  30.451  29.756  1.00  0.00     0.039 C 
ENDBRANCH   5   9
TORSDOF 1
ENDMDL
MODEL 3
REMARK VINA RESULT:    -4.224      2.024      4.450
REMARK INTER + INTRA:          -4.567
REMARK INTER:                  -4.471
REMARK INTRA:                  -0.095
REMARK UNBOUND:                -0.095
REMARK SMILES C=C(C)[C@H]1CC=C(C)C(=O)C1
REMARK SMILES IDX 8 1 7 2 6 3 5 4 4 5 11 6 9 7 10 8 2 9 1 10 3 11
REMARK H PARENT
REMARK Flexibility Score: inf
ROOT
ATOM      1  C   UNL     1      22.582  33.714  29.756  1.00  0.00     0.048 C 
ATOM      2  C   UNL     1      21.154  33.245  29.800  1.00  0.00    -0.012 C 
ATOM      3  C   UNL     1      20.149  34.124  29.649  1.00  0.00    -0.019 C 
ATOM      4  C   UNL     1      18.704  33.715  29.766  1.00  0.00     0.036 C 
ATOM      5  C   UNL     1      18.501  32.255  29.316  1.00  0.00     0.025 C 
ATOM      6  C   UNL     1      19.438  31.319  30.102  1.00  0.00     0.089 C 
ATOM      7  C   UNL     1      20.859  31.809  30.033  1.00  0.00     0.158 C 
ATOM      8  O   UNL     1      21.800  30.992  30.221  1.00  0.00    -0.295 OA
ENDROOT
BRANCH   5   9
ATOM      9  C   UNL     1      17.045  31.825  29.440  1.00  0.00    -0.077 C 
ATOM     10  C   UNL     1      16.045  32.723  29.401  1.00  0.00     0.008 C 
ATOM     11  C   UNL     1      16.698  30.369  29.608  1.00  0.00     0.039 C 
ENDBRANCH   5   9
TORSDOF 1
ENDMDL
MODEL 4
REMARK VINA RESULT:    -4.181      8.801     11.300
REMARK INTER + INTRA:          -4.521
REMARK INTER:                  -4.427
REMARK INTRA:                  -0.094
REMARK UNBOUND:                -0.095
REMARK SMILES C=C(C)[C@H]1CC=C(C)C(=O)C1
REMARK SMILES IDX 8 1 7 2 6 3 5 4 4 5 11 6 9 7 10 8 2 9 1 10 3 11
REMARK H PARENT
REMARK Flexibility Score: inf
ROOT
ATOM      1  C   UNL     1      33.028  33.313  27.942  1.00  0.00     0.048 C 
ATOM      2  C   UNL     1      31.655  33.223  28.548  1.00  0.00    -0.012 C 
ATOM      3  C   UNL     1      30.615  33.843  27.961  1.00  0.00    -0.019 C 
ATOM      4  C   UNL     1      29.239  33.848  28.572  1.00  0.00     0.036 C 
ATOM      5  C   UNL     1      28.988  32.566  29.390  1.00  0.00     0.025 C 
ATOM      6  C   UNL     1      30.095  32.380  30.445  1.00  0.00     0.089 C 
ATOM      7  C   UNL     1      31.455  32.466  29.809  1.00  0.00     0.158 C 
ATOM      8  O   UNL     1      32.438  31.925  30.383  1.00  0.00    -0.295 OA
ENDROOT
BRANCH   5   9
ATOM      9  C   UNL     1      27.603  32.565  30.024  1.00  0.00    -0.077 C 
ATOM     10  C   UNL     1      27.054  33.693  30.506  1.00  0.00     0.008 C 
ATOM     11  C   UNL     1      26.816  31.283  30.118  1.00  0.00     0.039 C 
ENDBRANCH   5   9
TORSDOF 1
ENDMDL
MODEL 5
REMARK VINA RESULT:    -4.144      4.638      6.186
REMARK INTER + INTRA:          -4.481
REMARK INTER:                  -4.388
REMARK INTRA:                  -0.094
REMARK UNBOUND:                -0.095
REMARK SMILES C=C(C)[C@H]1CC=C(C)C(=O)C1
REMARK SMILES IDX 8 1 7 2 6 3 5 4 4 5 11 6 9 7 10 8 2 9 1 10 3 11
REMARK H PARENT
REMARK Flexibility Score: inf
ROOT
ATOM      1  C   UNL     1      21.640  28.097  29.786  1.00  0.00     0.048 C 
ATOM      2  C   UNL     1      22.931  28.835  30.010  1.00  0.00    -0.012 C 
ATOM      3  C   UNL     1      23.017  29.770  30.973  1.00  0.00    -0.019 C 
ATOM      4  C   UNL     1      24.262  30.591  31.182  1.00  0.00     0.036 C 
ATOM      5  C   UNL     1      25.524  29.799  30.786  1.00  0.00     0.025 C 
ATOM      6  C   UNL     1      25.399  29.284  29.339  1.00  0.00     0.089 C 
ATOM      7  C   UNL     1      24.104  28.544  29.149  1.00  0.00     0.158 C 
ATOM      8  O   UNL     1      24.009  27.702  28.216  1.00  0.00    -0.295 OA
ENDROOT
BRANCH   5   9
ATOM      9  C   UNL     1      26.790  30.623  30.982  1.00  0.00    -0.077 C 
ATOM     10  C   UNL     1      27.195  31.512  30.058  1.00  0.00     0.008 C 
ATOM     11  C   UNL     1      27.616  30.453  32.230  1.00  0.00     0.039 C 
ENDBRANCH   5   9
TORSDOF 1
ENDMDL
MODEL 6
REMARK VINA RESULT:    -4.080      1.813      2.743
REMARK INTER + INTRA:          -4.414
REMARK INTER:                  -4.317
REMARK INTRA:                  -0.097
REMARK UNBOUND:                -0.095
REMARK SMILES C=C(C)[C@H]1CC=C(C)C(=O)C1
REMARK SMILES IDX 8 1 7 2 6 3 5 4 4 5 11 6 9 7 10 8 2 9 1 10 3 11
REMARK H PARENT
REMARK Flexibility Score: inf
ROOT
ATOM      1  C   UNL     1      16.347  32.585  29.053  1.00  0.00     0.048 C 
ATOM      2  C   UNL     1      17.834  32.560  29.273  1.00  0.00    -0.012 C 
ATOM      3  C   UNL     1      18.521  33.712  29.382  1.00  0.00    -0.019 C 
ATOM      4  C   UNL     1      20.020  33.739  29.523  1.00  0.00     0.036 C 
ATOM      5  C   UNL     1      20.533  32.484  30.256  1.00  0.00     0.025 C 
ATOM      6  C   UNL     1      20.035  31.210  29.547  1.00  0.00     0.089 C 
ATOM      7  C   UNL     1      18.545  31.260  29.348  1.00  0.00     0.158 C 
ATOM      8  O   UNL     1      17.909  30.182  29.199  1.00  0.00    -0.295 OA
ENDROOT
BRANCH   5   9
ATOM      9  C   UNL     1      22.050  32.494  30.394  1.00  0.00    -0.077 C 
ATOM     10  C   UNL     1      22.715  31.427  30.871  1.00  0.00     0.008 C 
ATOM     11  C   UNL     1      22.837  33.713  29.991  1.00  0.00     0.039 C 
ENDBRANCH   5   9
TORSDOF 1
ENDMDL
MODEL 7
REMARK VINA RESULT:    -3.936      8.900     11.143
REMARK INTER + INTRA:          -4.261
REMARK INTER:                  -4.165
REMARK INTRA:                  -0.096
REMARK UNBOUND:                -0.095
REMARK SMILES C=C(C)[C@H]1CC=C(C)C(=O)C1
REMARK SMILES IDX 8 1 7 2 6 3 5 4 4 5 11 6 9 7 10 8 2 9 1 10 3 11
REMARK H PARENT
REMARK Flexibility Score: inf
ROOT
ATOM      1  C   UNL     1      27.071  31.167  30.683  1.00  0.00     0.048 C 
ATOM      2  C   UNL     1      28.374  31.734  30.193  1.00  0.00    -0.012 C 
ATOM      3  C   UNL     1      28.381  32.786  29.354  1.00  0.00    -0.019 C 
ATOM      4  C   UNL     1      29.656  33.338  28.774  1.00  0.00     0.036 C 
ATOM      5  C   UNL     1      30.840  33.136  29.739  1.00  0.00     0.025 C 
ATOM      6  C   UNL     1      30.969  31.650  30.125  1.00  0.00     0.089 C 
ATOM      7  C   UNL     1      29.653  31.114  30.619  1.00  0.00     0.158 C 
ATOM      8  O   UNL     1      29.645  30.099  31.367  1.00  0.00    -0.295 OA
ENDROOT
BRANCH   5   9
ATOM      9  C   UNL     1      32.139  33.680  29.158  1.00  0.00    -0.077 C 
ATOM     10  C   UNL     1      32.205  34.125  27.891  1.00  0.00     0.008 C 
ATOM     11  C   UNL     1      33.383  33.731  30.006  1.00  0.00     0.039 C 
ENDBRANCH   5   9
TORSDOF 1
ENDMDL
MODEL 8
REMARK VINA RESULT:    -3.921      7.712      9.945
REMARK INTER + INTRA:          -4.246
REMARK INTER:                  -4.148
REMARK INTRA:                  -0.098
REMARK UNBOUND:                -0.095
REMARK SMILES C=C(C)[C@H]1CC=C(C)C(=O)C1
REMARK SMILES IDX 8 1 7 2 6 3 5 4 4 5 11 6 9 7 10 8 2 9 1 10 3 11
REMARK H PARENT
REMARK Flexibility Score: inf
ROOT
ATOM      1  C   UNL     1      26.090  30.317  31.866  1.00  0.00     0.048 C 
ATOM      2  C   UNL     1      27.277  30.980  31.226  1.00  0.00    -0.012 C 
ATOM      3  C   UNL     1      27.128  31.682  30.089  1.00  0.00    -0.019 C 
ATOM      4  C   UNL     1      28.300  32.296  29.368  1.00  0.00     0.036 C 
ATOM      5  C   UNL     1      29.417  32.688  30.354  1.00  0.00     0.025 C 
ATOM      6  C   UNL     1      29.827  31.473  31.208  1.00  0.00     0.089 C 
ATOM      7  C   UNL     1      28.620  30.837  31.842  1.00  0.00     0.158 C 
ATOM      8  O   UNL     1      28.768  30.140  32.881  1.00  0.00    -0.295 OA
ENDROOT
BRANCH   5   9
ATOM      9  C   UNL     1      30.613  33.299  29.636  1.00  0.00    -0.077 C 
ATOM     10  C   UNL     1      31.783  33.495  30.268  1.00  0.00     0.008 C 
ATOM     11  C   UNL     1      30.502  33.696  28.187  1.00  0.00     0.039 C 
ENDBRANCH   5   9
TORSDOF 1
ENDMDL
MODEL 9
REMARK VINA RESULT:    -3.830      1.585      4.318
REMARK INTER + INTRA:          -4.149
REMARK INTER:                  -4.055
REMARK INTRA:                  -0.094
REMARK UNBOUND:                -0.095
REMARK SMILES C=C(C)[C@H]1CC=C(C)C(=O)C1
REMARK SMILES IDX 8 1 7 2 6 3 5 4 4 5 11 6 9 7 10 8 2 9 1 10 3 11
REMARK H PARENT
REMARK Flexibility Score: inf
ROOT
ATOM      1  C   UNL     1      22.233  30.922  30.725  1.00  0.00     0.048 C 
ATOM      2  C   UNL     1      20.800  31.182  30.351  1.00  0.00    -0.012 C 
ATOM      3  C   UNL     1      20.214  30.462  29.378  1.00  0.00    -0.019 C 
ATOM      4  C   UNL     1      18.808  30.739  28.914  1.00  0.00     0.036 C 
ATOM      5  C   UNL     1      17.944  31.301  30.060  1.00  0.00     0.025 C 
ATOM      6  C   UNL     1      18.614  32.546  30.673  1.00  0.00     0.089 C 
ATOM      7  C   UNL     1      20.041  32.253  31.044  1.00  0.00     0.158 C 
ATOM      8  O   UNL     1      20.605  32.959  31.923  1.00  0.00    -0.295 OA
ENDROOT
BRANCH   5   9
ATOM      9  C   UNL     1      16.523  31.597  29.600  1.00  0.00    -0.077 C 
ATOM     10  C   UNL     1      16.169  32.819  29.166  1.00  0.00     0.008 C 
ATOM     11  C   UNL     1      15.479  30.510  29.622  1.00  0.00     0.039 C 
ENDBRANCH   5   9
TORSDOF 1
ENDMDL
