MODEL 1
REMARK VINA RESULT:    -3.319      0.000      0.000
REMARK INTER + INTRA:         -11.311
REMARK INTER:                  -7.199
REMARK INTRA:                  -4.112
REMARK UNBOUND:                -4.112
REMARK SMILES CCCCCCCCCCCCCCCCCCCCCC(=O)[O-]
REMARK SMILES IDX 12 1 11 2 10 3 9 4 8 5 7 6 6 7 5 8 4 9 3 10 2 11 1 12 13 13
REMARK SMILES IDX 14 14 15 15 16 16 17 17 18 18 19 19 20 20 21 21 22 22 23 23
REMARK SMILES IDX 24 24
REMARK H PARENT
REMARK Flexibility Score: inf
ROOT
ATOM      1  C   UNL     1      17.375  15.692  30.325  1.00  0.00     0.000 C 
ENDROOT
BRANCH   1   2
ATOM      2  C   UNL     1      15.938  15.624  29.785  1.00  0.00     0.000 C 
BRANCH   2   3
ATOM      3  C   UNL     1      15.893  15.595  28.243  1.00  0.00     0.000 C 
BRANCH   3   4
ATOM      4  C   UNL     1      14.917  14.554  27.673  1.00  0.00    -0.000 C 
BRANCH   4   5
ATOM      5  C   UNL     1      13.783  14.195  28.648  1.00  0.00    -0.000 C 
BRANCH   5   6
ATOM      6  C   UNL     1      13.662  12.671  28.863  1.00  0.00    -0.000 C 
BRANCH   6   7
ATOM      7  C   UNL     1      13.019  12.289  30.209  1.00  0.00    -0.000 C 
BRANCH   7   8
ATOM      8  C   UNL     1      12.989  13.458  31.208  1.00  0.00    -0.000 C 
BRANCH   8   9
ATOM      9  C   UNL     1      11.569  13.791  31.692  1.00  0.00    -0.000 C 
BRANCH   9  10
ATOM     10  C   UNL     1      10.982  15.030  30.992  1.00  0.00    -0.000 C 
BRANCH  10  11
ATOM     11  C   UNL     1       9.847  14.673  30.019  1.00  0.00    -0.003 C 
ATOM     12  C   UNL     1      10.237  14.872  28.555  1.00  0.00     0.004 C 
ENDBRANCH  10  11
ENDBRANCH   9  10
ENDBRANCH   8   9
ENDBRANCH   7   8
ENDBRANCH   6   7
ENDBRANCH   5   6
ENDBRANCH   4   5
ENDBRANCH   3   4
ENDBRANCH   2   3
ENDBRANCH   1   2
BRANCH   1  13
ATOM     13  C   UNL     1      17.668  14.506  31.255  1.00  0.00     0.000 C 
BRANCH  13  14
ATOM     14  C   UNL     1      16.542  13.460  31.258  1.00  0.00     0.000 C 
BRANCH  14  15
ATOM     15  C   UNL     1      17.065  12.024  31.102  1.00  0.00     0.000 C 
BRANCH  15  16
ATOM     16  C   UNL     1      18.014  11.911  29.898  1.00  0.00     0.000 C 
BRANCH  16  17
ATOM     17  C   UNL     1      17.273  11.793  28.552  1.00  0.00     0.000 C 
BRANCH  17  18
ATOM     18  C   UNL     1      17.963  12.507  27.372  1.00  0.00     0.000 C 
BRANCH  18  19
ATOM     19  C   UNL     1      18.990  13.579  27.808  1.00  0.00     0.000 C 
BRANCH  19  20
ATOM     20  C   UNL     1      19.661  14.297  26.623  1.00  0.00     0.006 C 
BRANCH  20  21
ATOM     21  C   UNL     1      18.944  15.589  26.200  1.00  0.00     0.053 C 
BRANCH  21  22
ATOM     22  C   UNL     1      17.982  15.350  25.076  1.00  0.00     0.041 C 
ATOM     23  O   UNL     1      16.950  16.062  24.961  1.00  0.00    -0.550 OA
ATOM     24  O   UNL     1      18.227  14.341  24.151  1.00  0.00    -0.550 OA
ENDBRANCH  21  22
ENDBRANCH  20  21
ENDBRANCH  19  20
ENDBRANCH  18  19
ENDBRANCH  17  18
ENDBRANCH  16  17
ENDBRANCH  15  16
ENDBRANCH  14  15
ENDBRANCH  13  14
ENDBRANCH   1  13
TORSDOF 20
ENDMDL
MODEL 2
REMARK VINA RESULT:    -3.236      3.754      7.442
REMARK INTER + INTRA:         -11.132
REMARK INTER:                  -8.361
REMARK INTRA:                  -2.771
REMARK UNBOUND:                -4.112
REMARK SMILES CCCCCCCCCCCCCCCCCCCCCC(=O)[O-]
REMARK SMILES IDX 12 1 11 2 10 3 9 4 8 5 7 6 6 7 5 8 4 9 3 10 2 11 1 12 13 13
REMARK SMILES IDX 14 14 15 15 16 16 17 17 18 18 19 19 20 20 21 21 22 22 23 23
REMARK SMILES IDX 24 24
REMARK H PARENT
REMARK Flexibility Score: inf
ROOT
ATOM      1  C   UNL     1      16.743  14.323  31.186  1.00  0.00     0.000 C 
ENDROOT
BRANCH   1   2
ATOM      2  C   UNL     1      18.028  14.137  32.008  1.00  0.00     0.000 C 
BRANCH   2   3
ATOM      3  C   UNL     1      19.025  13.178  31.324  1.00  0.00     0.000 C 
BRANCH   3   4
ATOM      4  C   UNL     1      20.220  13.892  30.673  1.00  0.00    -0.000 C 
BRANCH   4   5
ATOM      5  C   UNL     1      20.452  13.466  29.213  1.00  0.00    -0.000 C 
BRANCH   5   6
ATOM      6  C   UNL     1      19.174  13.598  28.358  1.00  0.00    -0.000 C 
BRANCH   6   7
ATOM      7  C   UNL     1      19.252  14.718  27.304  1.00  0.00    -0.000 C 
BRANCH   7   8
ATOM      8  C   UNL     1      18.128  14.631  26.258  1.00  0.00    -0.000 C 
BRANCH   8   9
ATOM      9  C   UNL     1      17.799  15.991  25.623  1.00  0.00    -0.000 C 
BRANCH   9  10
ATOM     10  C   UNL     1      16.285  16.261  25.557  1.00  0.00    -0.000 C 
BRANCH  10  11
ATOM     11  C   UNL     1      15.668  15.826  24.220  1.00  0.00    -0.003 C 
ATOM     12  C   UNL     1      14.931  14.490  24.314  1.00  0.00     0.004 C 
ENDBRANCH  10  11
ENDBRANCH   9  10
ENDBRANCH   8   9
ENDBRANCH   7   8
ENDBRANCH   6   7
ENDBRANCH   5   6
ENDBRANCH   4   5
ENDBRANCH   3   4
ENDBRANCH   2   3
ENDBRANCH   1   2
BRANCH   1  13
ATOM     13  C   UNL     1      16.793  15.628  30.378  1.00  0.00     0.000 C 
BRANCH  13  14
ATOM     14  C   UNL     1      15.990  15.548  29.070  1.00  0.00     0.000 C 
BRANCH  14  15
ATOM     15  C   UNL     1      15.506  14.123  28.757  1.00  0.00     0.000 C 
BRANCH  15  16
ATOM     16  C   UNL     1      14.188  14.151  27.967  1.00  0.00     0.000 C 
BRANCH  16  17
ATOM     17  C   UNL     1      12.984  13.634  28.778  1.00  0.00     0.000 C 
BRANCH  17  18
ATOM     18  C   UNL     1      12.566  14.536  29.957  1.00  0.00     0.000 C 
BRANCH  18  19
ATOM     19  C   UNL     1      12.504  13.796  31.315  1.00  0.00     0.000 C 
BRANCH  19  20
ATOM     20  C   UNL     1      11.381  14.305  32.236  1.00  0.00     0.006 C 
BRANCH  20  21
ATOM     21  C   UNL     1      11.385  13.658  33.629  1.00  0.00     0.053 C 
BRANCH  21  22
ATOM     22  C   UNL     1      10.654  12.350  33.639  1.00  0.00     0.041 C 
ATOM     23  O   UNL     1      11.290  11.268  33.729  1.00  0.00    -0.550 OA
ATOM     24  O   UNL     1       9.266  12.327  33.551  1.00  0.00    -0.550 OA
ENDBRANCH  21  22
ENDBRANCH  20  21
ENDBRANCH  19  20
ENDBRANCH  18  19
ENDBRANCH  17  18
ENDBRANCH  16  17
ENDBRANCH  15  16
ENDBRANCH  14  15
ENDBRANCH  13  14
ENDBRANCH   1  13
TORSDOF 20
ENDMDL
MODEL 3
REMARK VINA RESULT:    -3.223      3.284      7.040
REMARK INTER + INTRA:         -11.105
REMARK INTER:                  -7.922
REMARK INTRA:                  -3.183
REMARK UNBOUND:                -4.112
REMARK SMILES CCCCCCCCCCCCCCCCCCCCCC(=O)[O-]
REMARK SMILES IDX 12 1 11 2 10 3 9 4 8 5 7 6 6 7 5 8 4 9 3 10 2 11 1 12 13 13
REMARK SMILES IDX 14 14 15 15 16 16 17 17 18 18 19 19 20 20 21 21 22 22 23 23
REMARK SMILES IDX 24 24
REMARK H PARENT
REMARK Flexibility Score: inf
ROOT
ATOM      1  C   UNL     1      13.159  11.147  29.834  1.00  0.00     0.000 C 
ENDROOT
BRANCH   1   2
ATOM      2  C   UNL     1      12.107  11.305  28.726  1.00  0.00     0.000 C 
BRANCH   2   3
ATOM      3  C   UNL     1      12.693  11.942  27.449  1.00  0.00     0.000 C 
BRANCH   3   4
ATOM      4  C   UNL     1      14.176  12.326  27.576  1.00  0.00    -0.000 C 
BRANCH   4   5
ATOM      5  C   UNL     1      14.466  13.765  27.117  1.00  0.00    -0.000 C 
BRANCH   5   6
ATOM      6  C   UNL     1      14.715  14.716  28.308  1.00  0.00    -0.000 C 
BRANCH   6   7
ATOM      7  C   UNL     1      15.942  15.627  28.122  1.00  0.00    -0.000 C 
BRANCH   7   8
ATOM      8  C   UNL     1      16.851  15.663  29.363  1.00  0.00    -0.000 C 
BRANCH   8   9
ATOM      9  C   UNL     1      16.296  14.834  30.532  1.00  0.00    -0.000 C 
BRANCH   9  10
ATOM     10  C   UNL     1      17.394  14.389  31.514  1.00  0.00    -0.000 C 
BRANCH  10  11
ATOM     11  C   UNL     1      17.139  12.986  32.084  1.00  0.00    -0.003 C 
ATOM     12  C   UNL     1      16.483  12.045  31.074  1.00  0.00     0.004 C 
ENDBRANCH  10  11
ENDBRANCH   9  10
ENDBRANCH   8   9
ENDBRANCH   7   8
ENDBRANCH   6   7
ENDBRANCH   5   6
ENDBRANCH   4   5
ENDBRANCH   3   4
ENDBRANCH   2   3
ENDBRANCH   1   2
BRANCH   1  13
ATOM     13  C   UNL     1      12.701  11.838  31.128  1.00  0.00     0.000 C 
BRANCH  13  14
ATOM     14  C   UNL     1      12.802  13.369  31.051  1.00  0.00     0.000 C 
BRANCH  14  15
ATOM     15  C   UNL     1      11.702  14.077  31.857  1.00  0.00     0.000 C 
BRANCH  15  16
ATOM     16  C   UNL     1      10.989  15.137  31.003  1.00  0.00     0.000 C 
BRANCH  16  17
ATOM     17  C   UNL     1      11.203  14.940  29.490  1.00  0.00     0.000 C 
BRANCH  17  18
ATOM     18  C   UNL     1       9.943  14.508  28.712  1.00  0.00     0.000 C 
BRANCH  18  19
ATOM     19  C   UNL     1      10.115  14.555  27.175  1.00  0.00     0.000 C 
BRANCH  19  20
ATOM     20  C   UNL     1       8.909  15.175  26.446  1.00  0.00     0.006 C 
BRANCH  20  21
ATOM     21  C   UNL     1       8.289  16.369  27.188  1.00  0.00     0.053 C 
BRANCH  21  22
ATOM     22  C   UNL     1       8.523  17.659  26.462  1.00  0.00     0.041 C 
ATOM     23  O   UNL     1       8.435  18.757  27.073  1.00  0.00    -0.550 OA
ATOM     24  O   UNL     1       8.840  17.650  25.108  1.00  0.00    -0.550 OA
ENDBRANCH  21  22
ENDBRANCH  20  21
ENDBRANCH  19  20
ENDBRANCH  18  19
ENDBRANCH  17  18
ENDBRANCH  16  17
ENDBRANCH  15  16
ENDBRANCH  14  15
ENDBRANCH  13  14
ENDBRANCH   1  13
TORSDOF 20
ENDMDL
MODEL 4
REMARK VINA RESULT:    -3.209      2.836      5.936
REMARK INTER + INTRA:         -11.073
REMARK INTER:                  -7.647
REMARK INTRA:                  -3.426
REMARK UNBOUND:                -4.112
REMARK SMILES CCCCCCCCCCCCCCCCCCCCCC(=O)[O-]
REMARK SMILES IDX 12 1 11 2 10 3 9 4 8 5 7 6 6 7 5 8 4 9 3 10 2 11 1 12 13 13
REMARK SMILES IDX 14 14 15 15 16 16 17 17 18 18 19 19 20 20 21 21 22 22 23 23
REMARK SMILES IDX 24 24
REMARK H PARENT
REMARK Flexibility Score: inf
ROOT
ATOM      1  C   UNL     1      16.459  13.873  28.592  1.00  0.00     0.000 C 
ENDROOT
BRANCH   1   2
ATOM      2  C   UNL     1      17.618  13.217  27.827  1.00  0.00     0.000 C 
BRANCH   2   3
ATOM      3  C   UNL     1      18.737  14.223  27.486  1.00  0.00     0.000 C 
BRANCH   3   4
ATOM      4  C   UNL     1      19.265  14.096  26.048  1.00  0.00    -0.000 C 
BRANCH   4   5
ATOM      5  C   UNL     1      18.395  14.838  25.020  1.00  0.00    -0.000 C 
BRANCH   5   6
ATOM      6  C   UNL     1      17.720  16.089  25.623  1.00  0.00    -0.000 C 
BRANCH   6   7
ATOM      7  C   UNL     1      16.187  16.091  25.480  1.00  0.00    -0.000 C 
BRANCH   7   8
ATOM      8  C   UNL     1      15.719  15.656  24.081  1.00  0.00    -0.000 C 
BRANCH   8   9
ATOM      9  C   UNL     1      14.723  14.486  24.123  1.00  0.00    -0.000 C 
BRANCH   9  10
ATOM     10  C   UNL     1      14.897  13.608  25.374  1.00  0.00    -0.000 C 
BRANCH  10  11
ATOM     11  C   UNL     1      13.558  13.278  26.051  1.00  0.00    -0.003 C 
ATOM     12  C   UNL     1      13.638  12.048  26.955  1.00  0.00     0.004 C 
ENDBRANCH  10  11
ENDBRANCH   9  10
ENDBRANCH   8   9
ENDBRANCH   7   8
ENDBRANCH   6   7
ENDBRANCH   5   6
ENDBRANCH   4   5
ENDBRANCH   3   4
ENDBRANCH   2   3
ENDBRANCH   1   2
BRANCH   1  13
ATOM     13  C   UNL     1      16.861  15.260  29.114  1.00  0.00     0.000 C 
BRANCH  13  14
ATOM     14  C   UNL     1      16.995  15.304  30.644  1.00  0.00     0.000 C 
BRANCH  14  15
ATOM     15  C   UNL     1      18.067  14.339  31.174  1.00  0.00     0.000 C 
BRANCH  15  16
ATOM     16  C   UNL     1      17.503  13.449  32.292  1.00  0.00     0.000 C 
BRANCH  16  17
ATOM     17  C   UNL     1      16.758  12.208  31.762  1.00  0.00     0.000 C 
BRANCH  17  18
ATOM     18  C   UNL     1      15.245  12.189  32.061  1.00  0.00     0.000 C 
BRANCH  18  19
ATOM     19  C   UNL     1      14.364  12.494  30.826  1.00  0.00     0.000 C 
BRANCH  19  20
ATOM     20  C   UNL     1      13.201  13.456  31.130  1.00  0.00     0.006 C 
BRANCH  20  21
ATOM     21  C   UNL     1      12.771  14.304  29.923  1.00  0.00     0.053 C 
BRANCH  21  22
ATOM     22  C   UNL     1      11.425  14.928  30.131  1.00  0.00     0.041 C 
ATOM     23  O   UNL     1      10.977  15.099  31.296  1.00  0.00    -0.550 OA
ATOM     24  O   UNL     1      10.664  15.326  29.037  1.00  0.00    -0.550 OA
ENDBRANCH  21  22
ENDBRANCH  20  21
ENDBRANCH  19  20
ENDBRANCH  18  19
ENDBRANCH  17  18
ENDBRANCH  16  17
ENDBRANCH  15  16
ENDBRANCH  14  15
ENDBRANCH  13  14
ENDBRANCH   1  13
TORSDOF 20
ENDMDL
MODEL 5
REMARK VINA RESULT:    -3.190      3.648      7.527
REMARK INTER + INTRA:         -11.032
REMARK INTER:                  -7.452
REMARK INTRA:                  -3.579
REMARK UNBOUND:                -4.112
REMARK SMILES CCCCCCCCCCCCCCCCCCCCCC(=O)[O-]
REMARK SMILES IDX 12 1 11 2 10 3 9 4 8 5 7 6 6 7 5 8 4 9 3 10 2 11 1 12 13 13
REMARK SMILES IDX 14 14 15 15 16 16 17 17 18 18 19 19 20 20 21 21 22 22 23 23
REMARK SMILES IDX 24 24
REMARK H PARENT
REMARK Flexibility Score: inf
ROOT
ATOM      1  C   UNL     1      13.694  11.800  30.028  1.00  0.00     0.000 C 
ENDROOT
BRANCH   1   2
ATOM      2  C   UNL     1      14.221  12.974  30.867  1.00  0.00     0.000 C 
BRANCH   2   3
ATOM      3  C   UNL     1      15.445  12.581  31.720  1.00  0.00     0.000 C 
BRANCH   3   4
ATOM      4  C   UNL     1      16.710  12.303  30.893  1.00  0.00    -0.000 C 
BRANCH   4   5
ATOM      5  C   UNL     1      17.917  13.147  31.338  1.00  0.00    -0.000 C 
BRANCH   5   6
ATOM      6  C   UNL     1      17.587  14.654  31.387  1.00  0.00    -0.000 C 
BRANCH   6   7
ATOM      7  C   UNL     1      17.554  15.322  30.000  1.00  0.00    -0.000 C 
BRANCH   7   8
ATOM      8  C   UNL     1      16.194  15.965  29.681  1.00  0.00    -0.000 C 
BRANCH   8   9
ATOM      9  C   UNL     1      15.462  15.266  28.524  1.00  0.00    -0.000 C 
BRANCH   9  10
ATOM     10  C   UNL     1      16.421  14.495  27.599  1.00  0.00    -0.000 C 
BRANCH  10  11
ATOM     11  C   UNL     1      16.171  14.793  26.113  1.00  0.00    -0.003 C 
ATOM     12  C   UNL     1      16.246  16.284  25.786  1.00  0.00     0.004 C 
ENDBRANCH  10  11
ENDBRANCH   9  10
ENDBRANCH   8   9
ENDBRANCH   7   8
ENDBRANCH   6   7
ENDBRANCH   5   6
ENDBRANCH   4   5
ENDBRANCH   3   4
ENDBRANCH   2   3
ENDBRANCH   1   2
BRANCH   1  13
ATOM     13  C   UNL     1      13.742  12.131  28.529  1.00  0.00     0.000 C 
BRANCH  13  14
ATOM     14  C   UNL     1      12.442  12.775  28.021  1.00  0.00     0.000 C 
BRANCH  14  15
ATOM     15  C   UNL     1      11.210  12.342  28.830  1.00  0.00     0.000 C 
BRANCH  15  16
ATOM     16  C   UNL     1      10.192  13.488  28.940  1.00  0.00     0.000 C 
BRANCH  16  17
ATOM     17  C   UNL     1      10.852  14.879  29.007  1.00  0.00     0.000 C 
BRANCH  17  18
ATOM     18  C   UNL     1      11.387  15.272  30.399  1.00  0.00     0.000 C 
BRANCH  18  19
ATOM     19  C   UNL     1      10.492  14.793  31.567  1.00  0.00     0.000 C 
BRANCH  19  20
ATOM     20  C   UNL     1      11.290  14.189  32.736  1.00  0.00     0.006 C 
BRANCH  20  21
ATOM     21  C   UNL     1      11.173  12.660  32.837  1.00  0.00     0.053 C 
BRANCH  21  22
ATOM     22  C   UNL     1      11.758  12.138  34.114  1.00  0.00     0.041 C 
ATOM     23  O   UNL     1      12.985  11.864  34.185  1.00  0.00    -0.550 OA
ATOM     24  O   UNL     1      10.948  11.957  35.230  1.00  0.00    -0.550 OA
ENDBRANCH  21  22
ENDBRANCH  20  21
ENDBRANCH  19  20
ENDBRANCH  18  19
ENDBRANCH  17  18
ENDBRANCH  16  17
ENDBRANCH  15  16
ENDBRANCH  14  15
ENDBRANCH  13  14
ENDBRANCH   1  13
TORSDOF 20
ENDMDL
MODEL 6
REMARK VINA RESULT:    -3.175      3.202      6.574
REMARK INTER + INTRA:         -10.999
REMARK INTER:                  -8.261
REMARK INTRA:                  -2.738
REMARK UNBOUND:                -4.112
REMARK SMILES CCCCCCCCCCCCCCCCCCCCCC(=O)[O-]
REMARK SMILES IDX 12 1 11 2 10 3 9 4 8 5 7 6 6 7 5 8 4 9 3 10 2 11 1 12 13 13
REMARK SMILES IDX 14 14 15 15 16 16 17 17 18 18 19 19 20 20 21 21 22 22 23 23
REMARK SMILES IDX 24 24
REMARK H PARENT
REMARK Flexibility Score: inf
ROOT
ATOM      1  C   UNL     1      19.506  13.427  31.726  1.00  0.00     0.000 C 
ENDROOT
BRANCH   1   2
ATOM      2  C   UNL     1      20.208  14.070  30.520  1.00  0.00     0.000 C 
BRANCH   2   3
ATOM      3  C   UNL     1      20.658  13.025  29.478  1.00  0.00     0.000 C 
BRANCH   3   4
ATOM      4  C   UNL     1      19.854  13.072  28.170  1.00  0.00    -0.000 C 
BRANCH   4   5
ATOM      5  C   UNL     1      19.286  14.468  27.862  1.00  0.00    -0.000 C 
BRANCH   5   6
ATOM      6  C   UNL     1      18.105  14.410  26.869  1.00  0.00    -0.000 C 
BRANCH   6   7
ATOM      7  C   UNL     1      17.858  15.737  26.129  1.00  0.00    -0.000 C 
BRANCH   7   8
ATOM      8  C   UNL     1      16.364  16.028  25.911  1.00  0.00    -0.000 C 
BRANCH   8   9
ATOM      9  C   UNL     1      15.916  15.791  24.460  1.00  0.00    -0.000 C 
BRANCH   9  10
ATOM     10  C   UNL     1      15.443  14.347  24.216  1.00  0.00    -0.000 C 
BRANCH  10  11
ATOM     11  C   UNL     1      14.757  13.738  25.448  1.00  0.00    -0.003 C 
ATOM     12  C   UNL     1      13.308  13.331  25.179  1.00  0.00     0.004 C 
ENDBRANCH  10  11
ENDBRANCH   9  10
ENDBRANCH   8   9
ENDBRANCH   7   8
ENDBRANCH   6   7
ENDBRANCH   5   6
ENDBRANCH   4   5
ENDBRANCH   3   4
ENDBRANCH   2   3
ENDBRANCH   1   2
BRANCH   1  13
ATOM     13  C   UNL     1      18.245  14.215  32.111  1.00  0.00     0.000 C 
BRANCH  13  14
ATOM     14  C   UNL     1      17.225  14.302  30.966  1.00  0.00     0.000 C 
BRANCH  14  15
ATOM     15  C   UNL     1      17.029  15.737  30.452  1.00  0.00     0.000 C 
BRANCH  15  16
ATOM     16  C   UNL     1      15.846  15.815  29.475  1.00  0.00     0.000 C 
BRANCH  16  17
ATOM     17  C   UNL     1      15.213  14.442  29.178  1.00  0.00     0.000 C 
BRANCH  17  18
ATOM     18  C   UNL     1      13.767  14.275  29.686  1.00  0.00     0.000 C 
BRANCH  18  19
ATOM     19  C   UNL     1      13.648  13.381  30.943  1.00  0.00     0.000 C 
BRANCH  19  20
ATOM     20  C   UNL     1      12.360  13.630  31.749  1.00  0.00     0.006 C 
BRANCH  20  21
ATOM     21  C   UNL     1      11.384  14.600  31.065  1.00  0.00     0.053 C 
BRANCH  21  22
ATOM     22  C   UNL     1      10.149  13.901  30.582  1.00  0.00     0.041 C 
ATOM     23  O   UNL     1      10.234  12.778  30.020  1.00  0.00    -0.550 OA
ATOM     24  O   UNL     1       8.901  14.490  30.757  1.00  0.00    -0.550 OA
ENDBRANCH  21  22
ENDBRANCH  20  21
ENDBRANCH  19  20
ENDBRANCH  18  19
ENDBRANCH  17  18
ENDBRANCH  16  17
ENDBRANCH  15  16
ENDBRANCH  14  15
ENDBRANCH  13  14
ENDBRANCH   1  13
TORSDOF 20
ENDMDL
MODEL 7
REMARK VINA RESULT:    -3.174      1.751      3.245
REMARK INTER + INTRA:         -10.997
REMARK INTER:                  -8.005
REMARK INTRA:                  -2.992
REMARK UNBOUND:                -4.112
REMARK SMILES CCCCCCCCCCCCCCCCCCCCCC(=O)[O-]
REMARK SMILES IDX 12 1 11 2 10 3 9 4 8 5 7 6 6 7 5 8 4 9 3 10 2 11 1 12 13 13
REMARK SMILES IDX 14 14 15 15 16 16 17 17 18 18 19 19 20 20 21 21 22 22 23 23
REMARK SMILES IDX 24 24
REMARK H PARENT
REMARK Flexibility Score: inf
ROOT
ATOM      1  C   UNL     1      17.215  12.022  30.195  1.00  0.00     0.000 C 
ENDROOT
BRANCH   1   2
ATOM      2  C   UNL     1      16.241  11.668  29.060  1.00  0.00     0.000 C 
BRANCH   2   3
ATOM      3  C   UNL     1      14.809  12.167  29.342  1.00  0.00     0.000 C 
BRANCH   3   4
ATOM      4  C   UNL     1      14.186  12.949  28.175  1.00  0.00    -0.000 C 
BRANCH   4   5
ATOM      5  C   UNL     1      13.344  14.150  28.636  1.00  0.00    -0.000 C 
BRANCH   5   6
ATOM      6  C   UNL     1      13.071  14.121  30.155  1.00  0.00    -0.000 C 
BRANCH   6   7
ATOM      7  C   UNL     1      11.616  14.460  30.526  1.00  0.00    -0.000 C 
BRANCH   7   8
ATOM      8  C   UNL     1      10.911  15.311  29.455  1.00  0.00    -0.000 C 
BRANCH   8   9
ATOM      9  C   UNL     1       9.710  14.593  28.821  1.00  0.00    -0.000 C 
BRANCH   9  10
ATOM     10  C   UNL     1       9.892  14.359  27.311  1.00  0.00    -0.000 C 
BRANCH  10  11
ATOM     11  C   UNL     1       9.018  15.294  26.460  1.00  0.00    -0.003 C 
ATOM     12  C   UNL     1       8.711  16.617  27.160  1.00  0.00     0.004 C 
ENDBRANCH  10  11
ENDBRANCH   9  10
ENDBRANCH   8   9
ENDBRANCH   7   8
ENDBRANCH   6   7
ENDBRANCH   5   6
ENDBRANCH   4   5
ENDBRANCH   3   4
ENDBRANCH   2   3
ENDBRANCH   1   2
BRANCH   1  13
ATOM     13  C   UNL     1      16.524  12.884  31.262  1.00  0.00     0.000 C 
BRANCH  13  14
ATOM     14  C   UNL     1      17.383  14.077  31.710  1.00  0.00     0.000 C 
BRANCH  14  15
ATOM     15  C   UNL     1      17.706  15.042  30.558  1.00  0.00     0.000 C 
BRANCH  15  16
ATOM     16  C   UNL     1      16.458  15.834  30.137  1.00  0.00     0.000 C 
BRANCH  16  17
ATOM     17  C   UNL     1      16.268  15.898  28.609  1.00  0.00     0.000 C 
BRANCH  17  18
ATOM     18  C   UNL     1      17.257  15.035  27.800  1.00  0.00     0.000 C 
BRANCH  18  19
ATOM     19  C   UNL     1      17.349  15.430  26.307  1.00  0.00     0.000 C 
BRANCH  19  20
ATOM     20  C   UNL     1      16.032  15.994  25.744  1.00  0.00     0.006 C 
BRANCH  20  21
ATOM     21  C   UNL     1      15.880  15.807  24.227  1.00  0.00     0.053 C 
BRANCH  21  22
ATOM     22  C   UNL     1      15.117  14.560  23.893  1.00  0.00     0.041 C 
ATOM     23  O   UNL     1      15.286  13.992  22.782  1.00  0.00    -0.550 OA
ATOM     24  O   UNL     1      14.221  14.024  24.811  1.00  0.00    -0.550 OA
ENDBRANCH  21  22
ENDBRANCH  20  21
ENDBRANCH  19  20
ENDBRANCH  18  19
ENDBRANCH  17  18
ENDBRANCH  16  17
ENDBRANCH  15  16
ENDBRANCH  14  15
ENDBRANCH  13  14
ENDBRANCH   1  13
TORSDOF 20
ENDMDL
MODEL 8
REMARK VINA RESULT:    -3.144      3.484      7.222
REMARK INTER + INTRA:         -10.933
REMARK INTER:                  -6.979
REMARK INTRA:                  -3.954
REMARK UNBOUND:                -4.112
REMARK SMILES CCCCCCCCCCCCCCCCCCCCCC(=O)[O-]
REMARK SMILES IDX 12 1 11 2 10 3 9 4 8 5 7 6 6 7 5 8 4 9 3 10 2 11 1 12 13 13
REMARK SMILES IDX 14 14 15 15 16 16 17 17 18 18 19 19 20 20 21 21 22 22 23 23
REMARK SMILES IDX 24 24
REMARK H PARENT
REMARK Flexibility Score: inf
ROOT
ATOM      1  C   UNL     1      16.180  12.449  32.009  1.00  0.00     0.000 C 
ENDROOT
BRANCH   1   2
ATOM      2  C   UNL     1      17.527  13.186  32.067  1.00  0.00     0.000 C 
BRANCH   2   3
ATOM      3  C   UNL     1      17.480  14.549  31.345  1.00  0.00     0.000 C 
BRANCH   3   4
ATOM      4  C   UNL     1      16.193  14.774  30.535  1.00  0.00    -0.000 C 
BRANCH   4   5
ATOM      5  C   UNL     1      16.260  16.019  29.634  1.00  0.00    -0.000 C 
BRANCH   5   6
ATOM      6  C   UNL     1      16.013  15.676  28.149  1.00  0.00    -0.000 C 
BRANCH   6   7
ATOM      7  C   UNL     1      15.517  14.236  27.925  1.00  0.00    -0.000 C 
BRANCH   7   8
ATOM      8  C   UNL     1      16.497  13.391  27.094  1.00  0.00    -0.000 C 
BRANCH   8   9
ATOM      9  C   UNL     1      17.147  12.261  27.908  1.00  0.00    -0.000 C 
BRANCH   9  10
ATOM     10  C   UNL     1      18.684  12.317  27.871  1.00  0.00    -0.000 C 
BRANCH  10  11
ATOM     11  C   UNL     1      19.237  13.651  28.393  1.00  0.00    -0.003 C 
ATOM     12  C   UNL     1      20.363  13.470  29.410  1.00  0.00     0.004 C 
ENDBRANCH  10  11
ENDBRANCH   9  10
ENDBRANCH   8   9
ENDBRANCH   7   8
ENDBRANCH   6   7
ENDBRANCH   5   6
ENDBRANCH   4   5
ENDBRANCH   3   4
ENDBRANCH   2   3
ENDBRANCH   1   2
BRANCH   1  13
ATOM     13  C   UNL     1      16.305  11.141  31.214  1.00  0.00     0.000 C 
BRANCH  13  14
ATOM     14  C   UNL     1      15.005  10.760  30.488  1.00  0.00     0.000 C 
BRANCH  14  15
ATOM     15  C   UNL     1      13.928  11.851  30.588  1.00  0.00     0.000 C 
BRANCH  15  16
ATOM     16  C   UNL     1      12.983  11.805  29.377  1.00  0.00     0.000 C 
BRANCH  16  17
ATOM     17  C   UNL     1      12.288  13.151  29.099  1.00  0.00     0.000 C 
BRANCH  17  18
ATOM     18  C   UNL     1      12.574  14.252  30.140  1.00  0.00     0.000 C 
BRANCH  18  19
ATOM     19  C   UNL     1      11.368  15.184  30.407  1.00  0.00     0.000 C 
BRANCH  19  20
ATOM     20  C   UNL     1      10.583  14.813  31.678  1.00  0.00     0.006 C 
BRANCH  20  21
ATOM     21  C   UNL     1      11.425  14.074  32.730  1.00  0.00     0.053 C 
BRANCH  21  22
ATOM     22  C   UNL     1      10.798  12.774  33.133  1.00  0.00     0.041 C 
ATOM     23  O   UNL     1      10.943  11.750  32.416  1.00  0.00    -0.550 OA
ATOM     24  O   UNL     1      10.055  12.693  34.306  1.00  0.00    -0.550 OA
ENDBRANCH  21  22
ENDBRANCH  20  21
ENDBRANCH  19  20
ENDBRANCH  18  19
ENDBRANCH  17  18
ENDBRANCH  16  17
ENDBRANCH  15  16
ENDBRANCH  14  15
ENDBRANCH  13  14
ENDBRANCH   1  13
TORSDOF 20
ENDMDL
MODEL 9
REMARK VINA RESULT:    -3.130      3.314      6.926
REMARK INTER + INTRA:         -10.902
REMARK INTER:                  -7.076
REMARK INTRA:                  -3.826
REMARK UNBOUND:                -4.112
REMARK SMILES CCCCCCCCCCCCCCCCCCCCCC(=O)[O-]
REMARK SMILES IDX 12 1 11 2 10 3 9 4 8 5 7 6 6 7 5 8 4 9 3 10 2 11 1 12 13 13
REMARK SMILES IDX 14 14 15 15 16 16 17 17 18 18 19 19 20 20 21 21 22 22 23 23
REMARK SMILES IDX 24 24
REMARK H PARENT
REMARK Flexibility Score: inf
ROOT
ATOM      1  C   UNL     1      16.210  14.047  30.883  1.00  0.00     0.000 C 
ENDROOT
BRANCH   1   2
ATOM      2  C   UNL     1      17.124  13.246  31.823  1.00  0.00     0.000 C 
BRANCH   2   3
ATOM      3  C   UNL     1      18.318  14.081  32.330  1.00  0.00     0.000 C 
BRANCH   3   4
ATOM      4  C   UNL     1      19.559  13.241  32.669  1.00  0.00    -0.000 C 
BRANCH   4   5
ATOM      5  C   UNL     1      20.525  13.089  31.482  1.00  0.00    -0.000 C 
BRANCH   5   6
ATOM      6  C   UNL     1      20.384  14.243  30.466  1.00  0.00    -0.000 C 
BRANCH   6   7
ATOM      7  C   UNL     1      19.956  13.777  29.062  1.00  0.00    -0.000 C 
BRANCH   7   8
ATOM      8  C   UNL     1      19.512  12.305  29.033  1.00  0.00    -0.000 C 
BRANCH   8   9
ATOM      9  C   UNL     1      18.146  12.109  28.356  1.00  0.00    -0.000 C 
BRANCH   9  10
ATOM     10  C   UNL     1      18.270  11.547  26.928  1.00  0.00    -0.000 C 
BRANCH  10  11
ATOM     11  C   UNL     1      18.508  12.647  25.883  1.00  0.00    -0.003 C 
ATOM     12  C   UNL     1      17.792  12.373  24.560  1.00  0.00     0.004 C 
ENDBRANCH  10  11
ENDBRANCH   9  10
ENDBRANCH   8   9
ENDBRANCH   7   8
ENDBRANCH   6   7
ENDBRANCH   5   6
ENDBRANCH   4   5
ENDBRANCH   3   4
ENDBRANCH   2   3
ENDBRANCH   1   2
BRANCH   1  13
ATOM     13  C   UNL     1      16.852  15.391  30.508  1.00  0.00     0.000 C 
BRANCH  13  14
ATOM     14  C   UNL     1      16.268  15.989  29.218  1.00  0.00     0.000 C 
BRANCH  14  15
ATOM     15  C   UNL     1      16.742  15.254  27.955  1.00  0.00     0.000 C 
BRANCH  15  16
ATOM     16  C   UNL     1      15.683  15.331  26.844  1.00  0.00     0.000 C 
BRANCH  16  17
ATOM     17  C   UNL     1      15.067  13.962  26.497  1.00  0.00     0.000 C 
BRANCH  17  18
ATOM     18  C   UNL     1      14.440  13.215  27.692  1.00  0.00     0.000 C 
BRANCH  18  19
ATOM     19  C   UNL     1      13.287  13.990  28.372  1.00  0.00     0.000 C 
BRANCH  19  20
ATOM     20  C   UNL     1      12.768  13.309  29.652  1.00  0.00     0.006 C 
BRANCH  20  21
ATOM     21  C   UNL     1      12.614  14.269  30.841  1.00  0.00     0.053 C 
BRANCH  21  22
ATOM     22  C   UNL     1      11.355  14.006  31.611  1.00  0.00     0.041 C 
ATOM     23  O   UNL     1      11.226  12.945  32.275  1.00  0.00    -0.550 OA
ATOM     24  O   UNL     1      10.321  14.937  31.596  1.00  0.00    -0.550 OA
ENDBRANCH  21  22
ENDBRANCH  20  21
ENDBRANCH  19  20
ENDBRANCH  18  19
ENDBRANCH  17  18
ENDBRANCH  16  17
ENDBRANCH  15  16
ENDBRANCH  14  15
ENDBRANCH  13  14
ENDBRANCH   1  13
TORSDOF 20
ENDMDL
