MODEL 1
REMARK VINA RESULT:    -4.146      0.000      0.000
REMARK INTER + INTRA:          -7.745
REMARK INTER:                  -6.327
REMARK INTRA:                  -1.419
REMARK UNBOUND:                -1.419
REMARK SMILES OC[C@@H]1O[C@](CO)(O[C@@H]2O[C@H](CO)[C@@H](O)[C@@H](O)[C@H]2O)[C@H](O)[C@H]1O
REMARK SMILES IDX 8 1 9 2 11 3 14 4 10 5 16 6 18 7 12 8 13 9 15 11 17 13 19 15
REMARK SMILES IDX 5 17 20 18 4 19 22 20 3 21 6 22 7 23 21 25 23 27 2 29 1 30
REMARK H PARENT 13 10 15 12 17 14 19 16 7 24 21 26 23 28 1 31
REMARK Flexibility Score: inf
ROOT
ATOM      1  O   UNL     1      28.150 -22.740  24.181  1.00  0.00    -0.313 OA
ENDROOT
BRANCH   1   2
ATOM      2  C   UNL     1      27.946 -21.832  25.264  1.00  0.00     0.285 C 
ATOM      3  C   UNL     1      28.933 -20.328  26.739  1.00  0.00     0.178 C 
ATOM      4  C   UNL     1      28.073 -20.784  27.938  1.00  0.00     0.177 C 
ATOM      5  O   UNL     1      29.156 -21.429  25.879  1.00  0.00    -0.341 OA
ATOM      6  C   UNL     1      26.718 -21.327  27.431  1.00  0.00     0.179 C 
ATOM      7  C   UNL     1      26.945 -22.372  26.312  1.00  0.00     0.202 C 
BRANCH   3   8
ATOM      8  C   UNL     1      30.288 -19.755  27.174  1.00  0.00     0.191 C 
BRANCH   8   9
ATOM      9  O   UNL     1      30.760 -20.459  28.293  1.00  0.00    -0.394 OA
ATOM     10  H   UNL     1      30.966 -21.384  27.999  1.00  0.00     0.210 HD
ENDBRANCH   8   9
ENDBRANCH   3   8
BRANCH   4  11
ATOM     11  O   UNL     1      27.854 -19.711  28.816  1.00  0.00    -0.387 OA
ATOM     12  H   UNL     1      27.888 -18.883  28.272  1.00  0.00     0.211 HD
ENDBRANCH   4  11
BRANCH   6  13
ATOM     13  O   UNL     1      25.920 -20.268  26.964  1.00  0.00    -0.387 OA
ATOM     14  H   UNL     1      26.490 -19.458  26.947  1.00  0.00     0.211 HD
ENDBRANCH   6  13
BRANCH   7  15
ATOM     15  O   UNL     1      25.731 -22.693  25.680  1.00  0.00    -0.385 OA
ATOM     16  H   UNL     1      25.186 -21.863  25.664  1.00  0.00     0.211 HD
ENDBRANCH   7  15
ENDBRANCH   1   2
BRANCH   1  17
ATOM     17  C   UNL     1      27.859 -22.283  22.856  1.00  0.00     0.224 C 
ATOM     18  C   UNL     1      29.063 -22.620  21.940  1.00  0.00     0.208 C 
ATOM     19  O   UNL     1      27.650 -20.884  22.832  1.00  0.00    -0.337 OA
ATOM     20  C   UNL     1      29.384 -21.333  21.209  1.00  0.00     0.180 C 
ATOM     21  C   UNL     1      28.574 -20.271  21.952  1.00  0.00     0.179 C 
BRANCH  17  22
ATOM     22  C   UNL     1      26.601 -22.991  22.273  1.00  0.00     0.225 C 
BRANCH  22  23
ATOM     23  O   UNL     1      25.420 -22.416  22.764  1.00  0.00    -0.391 OA
ATOM     24  H   UNL     1      25.679 -21.644  23.340  1.00  0.00     0.210 HD
ENDBRANCH  22  23
ENDBRANCH  17  22
BRANCH  18  25
ATOM     25  O   UNL     1      30.177 -23.102  22.655  1.00  0.00    -0.385 OA
ATOM     26  H   UNL     1      30.694 -23.708  22.062  1.00  0.00     0.211 HD
ENDBRANCH  18  25
BRANCH  20  27
ATOM     27  O   UNL     1      28.950 -21.409  19.875  1.00  0.00    -0.387 OA
ATOM     28  H   UNL     1      28.249 -20.711  19.761  1.00  0.00     0.211 HD
ENDBRANCH  20  27
BRANCH  21  29
ATOM     29  C   UNL     1      29.452 -19.262  22.715  1.00  0.00     0.191 C 
BRANCH  29  30
ATOM     30  O   UNL     1      30.719 -19.158  22.121  1.00  0.00    -0.394 OA
ATOM     31  H   UNL     1      30.782 -18.267  21.700  1.00  0.00     0.210 HD
ENDBRANCH  29  30
ENDBRANCH  21  29
ENDBRANCH   1  17
TORSDOF 13
ENDMDL
MODEL 2
REMARK VINA RESULT:    -4.088      2.954      6.739
REMARK INTER + INTRA:          -7.658
REMARK INTER:                  -5.876
REMARK INTRA:                  -1.782
REMARK UNBOUND:                -1.419
REMARK SMILES OC[C@@H]1O[C@](CO)(O[C@@H]2O[C@H](CO)[C@@H](O)[C@@H](O)[C@H]2O)[C@H](O)[C@H]1O
REMARK SMILES IDX 8 1 9 2 11 3 14 4 10 5 16 6 18 7 12 8 13 9 15 11 17 13 19 15
REMARK SMILES IDX 5 17 20 18 4 19 22 20 3 21 6 22 7 23 21 25 23 27 2 29 1 30
REMARK H PARENT 13 10 15 12 17 14 19 16 7 24 21 26 23 28 1 31
REMARK Flexibility Score: inf
ROOT
ATOM      1  O   UNL     1      29.037 -18.843  26.020  1.00  0.00    -0.313 OA
ENDROOT
BRANCH   1   2
ATOM      2  C   UNL     1      29.323 -18.580  24.647  1.00  0.00     0.285 C 
ATOM      3  C   UNL     1      29.209 -17.037  22.909  1.00  0.00     0.178 C 
ATOM      4  C   UNL     1      28.834 -18.101  21.855  1.00  0.00     0.177 C 
ATOM      5  O   UNL     1      28.677 -17.416  24.165  1.00  0.00    -0.341 OA
ATOM      6  C   UNL     1      29.413 -19.473  22.270  1.00  0.00     0.179 C 
ATOM      7  C   UNL     1      29.030 -19.794  23.735  1.00  0.00     0.202 C 
BRANCH   3   8
ATOM      8  C   UNL     1      28.684 -15.642  22.547  1.00  0.00     0.191 C 
BRANCH   8   9
ATOM      9  O   UNL     1      29.525 -15.057  21.588  1.00  0.00    -0.394 OA
ATOM     10  H   UNL     1      30.208 -14.526  22.074  1.00  0.00     0.210 HD
ENDBRANCH   8   9
ENDBRANCH   3   8
BRANCH   4  11
ATOM     11  O   UNL     1      29.335 -17.737  20.595  1.00  0.00    -0.387 OA
ATOM     12  H   UNL     1      30.141 -18.291  20.436  1.00  0.00     0.211 HD
ENDBRANCH   4  11
BRANCH   6  13
ATOM     13  O   UNL     1      30.808 -19.474  22.111  1.00  0.00    -0.387 OA
ATOM     14  H   UNL     1      31.074 -18.554  21.858  1.00  0.00     0.211 HD
ENDBRANCH   6  13
BRANCH   7  15
ATOM     15  O   UNL     1      29.744 -20.912  24.199  1.00  0.00    -0.385 OA
ATOM     16  H   UNL     1      30.634 -20.585  24.492  1.00  0.00     0.211 HD
ENDBRANCH   7  15
ENDBRANCH   1   2
BRANCH   1  17
ATOM     17  C   UNL     1      29.990 -18.419  27.001  1.00  0.00     0.224 C 
ATOM     18  C   UNL     1      29.244 -17.644  28.116  1.00  0.00     0.208 C 
ATOM     19  O   UNL     1      30.964 -17.566  26.430  1.00  0.00    -0.337 OA
ATOM     20  C   UNL     1      30.019 -16.355  28.296  1.00  0.00     0.180 C 
ATOM     21  C   UNL     1      30.961 -16.315  27.094  1.00  0.00     0.179 C 
BRANCH  17  22
ATOM     22  C   UNL     1      30.707 -19.634  27.660  1.00  0.00     0.225 C 
BRANCH  22  23
ATOM     23  O   UNL     1      30.369 -20.834  27.018  1.00  0.00    -0.391 OA
ATOM     24  H   UNL     1      31.213 -21.238  26.673  1.00  0.00     0.210 HD
ENDBRANCH  22  23
ENDBRANCH  17  22
BRANCH  18  25
ATOM     25  O   UNL     1      27.893 -17.396  27.800  1.00  0.00    -0.385 OA
ATOM     26  H   UNL     1      27.324 -17.952  28.394  1.00  0.00     0.211 HD
ENDBRANCH  18  25
BRANCH  20  27
ATOM     27  O   UNL     1      30.771 -16.401  29.482  1.00  0.00    -0.387 OA
ATOM     28  H   UNL     1      31.372 -17.192  29.410  1.00  0.00     0.211 HD
ENDBRANCH  20  27
BRANCH  21  29
ATOM     29  C   UNL     1      30.632 -15.183  26.102  1.00  0.00     0.191 C 
BRANCH  29  30
ATOM     30  O   UNL     1      29.245 -15.059  25.934  1.00  0.00    -0.394 OA
ATOM     31  H   UNL     1      29.013 -14.105  26.046  1.00  0.00     0.210 HD
ENDBRANCH  29  30
ENDBRANCH  21  29
ENDBRANCH   1  17
TORSDOF 13
ENDMDL
MODEL 3
REMARK VINA RESULT:    -4.072      3.602      6.072
REMARK INTER + INTRA:          -7.633
REMARK INTER:                  -6.416
REMARK INTRA:                  -1.217
REMARK UNBOUND:                -1.419
REMARK SMILES OC[C@@H]1O[C@](CO)(O[C@@H]2O[C@H](CO)[C@@H](O)[C@@H](O)[C@H]2O)[C@H](O)[C@H]1O
REMARK SMILES IDX 8 1 9 2 11 3 14 4 10 5 16 6 18 7 12 8 13 9 15 11 17 13 19 15
REMARK SMILES IDX 5 17 20 18 4 19 22 20 3 21 6 22 7 23 21 25 23 27 2 29 1 30
REMARK H PARENT 13 10 15 12 17 14 19 16 7 24 21 26 23 28 1 31
REMARK Flexibility Score: inf
ROOT
ATOM      1  O   UNL     1      28.528 -17.640  22.973  1.00  0.00    -0.313 OA
ENDROOT
BRANCH   1   2
ATOM      2  C   UNL     1      28.972 -18.974  23.224  1.00  0.00     0.285 C 
ATOM      3  C   UNL     1      30.156 -20.804  22.411  1.00  0.00     0.178 C 
ATOM      4  C   UNL     1      29.144 -21.831  22.963  1.00  0.00     0.177 C 
ATOM      5  O   UNL     1      29.472 -19.614  22.065  1.00  0.00    -0.341 OA
ATOM      6  C   UNL     1      28.445 -21.254  24.215  1.00  0.00     0.179 C 
ATOM      7  C   UNL     1      27.892 -19.839  23.914  1.00  0.00     0.202 C 
BRANCH   3   8
ATOM      8  C   UNL     1      30.905 -21.323  21.177  1.00  0.00     0.191 C 
BRANCH   8   9
ATOM      9  O   UNL     1      32.221 -21.657  21.532  1.00  0.00    -0.394 OA
ATOM     10  H   UNL     1      32.176 -22.429  22.154  1.00  0.00     0.210 HD
ENDBRANCH   8   9
ENDBRANCH   3   8
BRANCH   4  11
ATOM     11  O   UNL     1      29.798 -23.028  23.296  1.00  0.00    -0.387 OA
ATOM     12  H   UNL     1      29.913 -23.028  24.280  1.00  0.00     0.211 HD
ENDBRANCH   4  11
BRANCH   6  13
ATOM     13  O   UNL     1      29.345 -21.214  25.293  1.00  0.00    -0.387 OA
ATOM     14  H   UNL     1      29.053 -21.902  25.942  1.00  0.00     0.211 HD
ENDBRANCH   6  13
BRANCH   7  15
ATOM     15  O   UNL     1      27.471 -19.210  25.098  1.00  0.00    -0.385 OA
ATOM     16  H   UNL     1      27.888 -18.309  25.110  1.00  0.00     0.211 HD
ENDBRANCH   7  15
ENDBRANCH   1   2
BRANCH   1  17
ATOM     17  C   UNL     1      29.152 -16.575  23.698  1.00  0.00     0.224 C 
ATOM     18  C   UNL     1      28.071 -15.847  24.537  1.00  0.00     0.208 C 
ATOM     19  O   UNL     1      29.748 -15.640  22.819  1.00  0.00    -0.337 OA
ATOM     20  C   UNL     1      28.251 -14.374  24.234  1.00  0.00     0.180 C 
ATOM     21  C   UNL     1      29.193 -14.354  23.031  1.00  0.00     0.179 C 
BRANCH  17  22
ATOM     22  C   UNL     1      30.237 -17.111  24.677  1.00  0.00     0.225 C 
BRANCH  22  23
ATOM     23  O   UNL     1      29.725 -17.255  25.974  1.00  0.00    -0.391 OA
ATOM     24  H   UNL     1      29.878 -18.201  26.254  1.00  0.00     0.210 HD
ENDBRANCH  22  23
ENDBRANCH  17  22
BRANCH  18  25
ATOM     25  O   UNL     1      26.763 -16.280  24.240  1.00  0.00    -0.385 OA
ATOM     26  H   UNL     1      26.817 -17.003  23.562  1.00  0.00     0.211 HD
ENDBRANCH  18  25
BRANCH  20  27
ATOM     27  O   UNL     1      28.861 -13.725  25.320  1.00  0.00    -0.387 OA
ATOM     28  H   UNL     1      28.138 -13.511  25.970  1.00  0.00     0.211 HD
ENDBRANCH  20  27
BRANCH  21  29
ATOM     29  C   UNL     1      28.522 -13.841  21.743  1.00  0.00     0.191 C 
BRANCH  29  30
ATOM     30  O   UNL     1      29.127 -12.653  21.308  1.00  0.00    -0.394 OA
ATOM     31  H   UNL     1      29.399 -12.781  20.367  1.00  0.00     0.210 HD
ENDBRANCH  29  30
ENDBRANCH  21  29
ENDBRANCH   1  17
TORSDOF 13
ENDMDL
MODEL 4
REMARK VINA RESULT:    -4.038      1.778      6.014
REMARK INTER + INTRA:          -7.581
REMARK INTER:                  -5.761
REMARK INTRA:                  -1.820
REMARK UNBOUND:                -1.419
REMARK SMILES OC[C@@H]1O[C@](CO)(O[C@@H]2O[C@H](CO)[C@@H](O)[C@@H](O)[C@H]2O)[C@H](O)[C@H]1O
REMARK SMILES IDX 8 1 9 2 11 3 14 4 10 5 16 6 18 7 12 8 13 9 15 11 17 13 19 15
REMARK SMILES IDX 5 17 20 18 4 19 22 20 3 21 6 22 7 23 21 25 23 27 2 29 1 30
REMARK H PARENT 13 10 15 12 17 14 19 16 7 24 21 26 23 28 1 31
REMARK Flexibility Score: inf
ROOT
ATOM      1  O   UNL     1      29.783 -19.105  25.432  1.00  0.00    -0.313 OA
ENDROOT
BRANCH   1   2
ATOM      2  C   UNL     1      29.289 -19.371  24.119  1.00  0.00     0.285 C 
ATOM      3  C   UNL     1      29.008 -20.962  22.445  1.00  0.00     0.178 C 
ATOM      4  C   UNL     1      29.348 -19.973  21.309  1.00  0.00     0.177 C 
ATOM      5  O   UNL     1      29.739 -20.611  23.604  1.00  0.00    -0.341 OA
ATOM      6  C   UNL     1      28.977 -18.535  21.740  1.00  0.00     0.179 C 
ATOM      7  C   UNL     1      29.583 -18.220  23.129  1.00  0.00     0.202 C 
BRANCH   3   8
ATOM      8  C   UNL     1      29.331 -22.415  22.074  1.00  0.00     0.191 C 
BRANCH   8   9
ATOM      9  O   UNL     1      29.772 -23.104  23.213  1.00  0.00    -0.394 OA
ATOM     10  H   UNL     1      29.629 -24.073  23.051  1.00  0.00     0.210 HD
ENDBRANCH   8   9
ENDBRANCH   3   8
BRANCH   4  11
ATOM     11  O   UNL     1      28.647 -20.312  20.141  1.00  0.00    -0.387 OA
ATOM     12  H   UNL     1      29.089 -21.115  19.764  1.00  0.00     0.211 HD
ENDBRANCH   4  11
BRANCH   6  13
ATOM     13  O   UNL     1      27.580 -18.387  21.765  1.00  0.00    -0.387 OA
ATOM     14  H   UNL     1      27.391 -17.435  21.963  1.00  0.00     0.211 HD
ENDBRANCH   6  13
BRANCH   7  15
ATOM     15  O   UNL     1      29.059 -17.019  23.637  1.00  0.00    -0.385 OA
ATOM     16  H   UNL     1      28.160 -16.903  23.233  1.00  0.00     0.211 HD
ENDBRANCH   7  15
ENDBRANCH   1   2
BRANCH   1  17
ATOM     17  C   UNL     1      28.850 -19.121  26.519  1.00  0.00     0.224 C 
ATOM     18  C   UNL     1      29.333 -20.151  27.571  1.00  0.00     0.208 C 
ATOM     19  O   UNL     1      27.559 -19.497  26.077  1.00  0.00    -0.337 OA
ATOM     20  C   UNL     1      28.127 -21.018  27.869  1.00  0.00     0.180 C 
ATOM     21  C   UNL     1      27.126 -20.652  26.773  1.00  0.00     0.179 C 
BRANCH  17  22
ATOM     22  C   UNL     1      28.762 -17.732  27.214  1.00  0.00     0.225 C 
BRANCH  22  23
ATOM     23  O   UNL     1      29.518 -16.770  26.528  1.00  0.00    -0.391 OA
ATOM     24  H   UNL     1      30.414 -16.725  26.966  1.00  0.00     0.210 HD
ENDBRANCH  22  23
ENDBRANCH  17  22
BRANCH  18  25
ATOM     25  O   UNL     1      30.425 -20.921  27.124  1.00  0.00    -0.385 OA
ATOM     26  H   UNL     1      30.103 -21.839  26.925  1.00  0.00     0.211 HD
ENDBRANCH  18  25
BRANCH  20  27
ATOM     27  O   UNL     1      27.590 -20.689  29.125  1.00  0.00    -0.387 OA
ATOM     28  H   UNL     1      28.330 -20.776  29.785  1.00  0.00     0.211 HD
ENDBRANCH  20  27
BRANCH  21  29
ATOM     29  C   UNL     1      26.861 -21.803  25.785  1.00  0.00     0.191 C 
BRANCH  29  30
ATOM     30  O   UNL     1      28.062 -22.421  25.409  1.00  0.00    -0.394 OA
ATOM     31  H   UNL     1      28.578 -21.772  24.871  1.00  0.00     0.210 HD
ENDBRANCH  29  30
ENDBRANCH  21  29
ENDBRANCH   1  17
TORSDOF 13
ENDMDL
MODEL 5
REMARK VINA RESULT:    -4.030      1.821      2.218
REMARK INTER + INTRA:          -7.569
REMARK INTER:                  -6.419
REMARK INTRA:                  -1.150
REMARK UNBOUND:                -1.419
REMARK SMILES OC[C@@H]1O[C@](CO)(O[C@@H]2O[C@H](CO)[C@@H](O)[C@@H](O)[C@H]2O)[C@H](O)[C@H]1O
REMARK SMILES IDX 8 1 9 2 11 3 14 4 10 5 16 6 18 7 12 8 13 9 15 11 17 13 19 15
REMARK SMILES IDX 5 17 20 18 4 19 22 20 3 21 6 22 7 23 21 25 23 27 2 29 1 30
REMARK H PARENT 13 10 15 12 17 14 19 16 7 24 21 26 23 28 1 31
REMARK Flexibility Score: inf
ROOT
ATOM      1  O   UNL     1      27.410 -21.978  22.975  1.00  0.00    -0.313 OA
ENDROOT
BRANCH   1   2
ATOM      2  C   UNL     1      27.662 -20.912  23.890  1.00  0.00     0.285 C 
ATOM      3  C   UNL     1      28.577 -20.297  25.939  1.00  0.00     0.178 C 
ATOM      4  C   UNL     1      27.432 -19.315  26.269  1.00  0.00     0.177 C 
ATOM      5  O   UNL     1      28.066 -21.368  25.168  1.00  0.00    -0.341 OA
ATOM      6  C   UNL     1      26.823 -18.765  24.959  1.00  0.00     0.179 C 
ATOM      7  C   UNL     1      26.473 -19.930  24.002  1.00  0.00     0.202 C 
BRANCH   3   8
ATOM      8  C   UNL     1      29.244 -20.865  27.199  1.00  0.00     0.191 C 
BRANCH   8   9
ATOM      9  O   UNL     1      30.639 -20.807  27.059  1.00  0.00    -0.394 OA
ATOM     10  H   UNL     1      30.854 -19.989  26.540  1.00  0.00     0.210 HD
ENDBRANCH   8   9
ENDBRANCH   3   8
BRANCH   4  11
ATOM     11  O   UNL     1      27.912 -18.252  27.050  1.00  0.00    -0.387 OA
ATOM     12  H   UNL     1      27.180 -17.994  27.666  1.00  0.00     0.211 HD
ENDBRANCH   4  11
BRANCH   6  13
ATOM     13  O   UNL     1      27.722 -17.875  24.348  1.00  0.00    -0.387 OA
ATOM     14  H   UNL     1      28.082 -17.288  25.060  1.00  0.00     0.211 HD
ENDBRANCH   6  13
BRANCH   7  15
ATOM     15  O   UNL     1      26.147 -19.440  22.725  1.00  0.00    -0.385 OA
ATOM     16  H   UNL     1      25.785 -18.525  22.851  1.00  0.00     0.211 HD
ENDBRANCH   7  15
ENDBRANCH   1   2
BRANCH   1  17
ATOM     17  C   UNL     1      28.148 -22.003  21.749  1.00  0.00     0.224 C 
ATOM     18  C   UNL     1      29.468 -22.781  21.980  1.00  0.00     0.208 C 
ATOM     19  O   UNL     1      28.464 -20.693  21.317  1.00  0.00    -0.337 OA
ATOM     20  C   UNL     1      30.562 -21.890  21.427  1.00  0.00     0.180 C 
ATOM     21  C   UNL     1      29.867 -20.548  21.198  1.00  0.00     0.179 C 
BRANCH  17  22
ATOM     22  C   UNL     1      27.356 -22.729  20.622  1.00  0.00     0.225 C 
BRANCH  22  23
ATOM     23  O   UNL     1      26.553 -21.831  19.905  1.00  0.00    -0.391 OA
ATOM     24  H   UNL     1      26.338 -21.069  20.512  1.00  0.00     0.210 HD
ENDBRANCH  22  23
ENDBRANCH  17  22
BRANCH  18  25
ATOM     25  O   UNL     1      29.690 -23.092  23.336  1.00  0.00    -0.385 OA
ATOM     26  H   UNL     1      30.592 -22.764  23.591  1.00  0.00     0.211 HD
ENDBRANCH  18  25
BRANCH  20  27
ATOM     27  O   UNL     1      31.028 -22.395  20.202  1.00  0.00    -0.387 OA
ATOM     28  H   UNL     1      30.544 -21.902  19.485  1.00  0.00     0.211 HD
ENDBRANCH  20  27
BRANCH  21  29
ATOM     29  C   UNL     1      30.372 -19.436  22.136  1.00  0.00     0.191 C 
BRANCH  29  30
ATOM     30  O   UNL     1      29.533 -18.313  22.070  1.00  0.00    -0.394 OA
ATOM     31  H   UNL     1      29.900 -17.705  21.383  1.00  0.00     0.210 HD
ENDBRANCH  29  30
ENDBRANCH  21  29
ENDBRANCH   1  17
TORSDOF 13
ENDMDL
MODEL 6
REMARK VINA RESULT:    -4.023      2.139      3.219
REMARK INTER + INTRA:          -7.559
REMARK INTER:                  -5.978
REMARK INTRA:                  -1.580
REMARK UNBOUND:                -1.419
REMARK SMILES OC[C@@H]1O[C@](CO)(O[C@@H]2O[C@H](CO)[C@@H](O)[C@@H](O)[C@H]2O)[C@H](O)[C@H]1O
REMARK SMILES IDX 8 1 9 2 11 3 14 4 10 5 16 6 18 7 12 8 13 9 15 11 17 13 19 15
REMARK SMILES IDX 5 17 20 18 4 19 22 20 3 21 6 22 7 23 21 25 23 27 2 29 1 30
REMARK H PARENT 13 10 15 12 17 14 19 16 7 24 21 26 23 28 1 31
REMARK Flexibility Score: inf
ROOT
ATOM      1  O   UNL     1      29.986 -20.352  24.201  1.00  0.00    -0.313 OA
ENDROOT
BRANCH   1   2
ATOM      2  C   UNL     1      29.505 -19.485  25.229  1.00  0.00     0.285 C 
ATOM      3  C   UNL     1      29.025 -17.293  25.842  1.00  0.00     0.178 C 
ATOM      4  C   UNL     1      29.569 -17.468  27.276  1.00  0.00     0.177 C 
ATOM      5  O   UNL     1      29.760 -18.119  24.959  1.00  0.00    -0.341 OA
ATOM      6  C   UNL     1      29.429 -18.945  27.711  1.00  0.00     0.179 C 
ATOM      7  C   UNL     1      30.026 -19.880  26.631  1.00  0.00     0.202 C 
BRANCH   3   8
ATOM      8  C   UNL     1      29.113 -15.841  25.354  1.00  0.00     0.191 C 
BRANCH   8   9
ATOM      9  O   UNL     1      30.015 -15.759  24.283  1.00  0.00    -0.394 OA
ATOM     10  H   UNL     1      30.274 -14.806  24.182  1.00  0.00     0.210 HD
ENDBRANCH   8   9
ENDBRANCH   3   8
BRANCH   4  11
ATOM     11  O   UNL     1      28.867 -16.643  28.168  1.00  0.00    -0.387 OA
ATOM     12  H   UNL     1      29.544 -16.143  28.690  1.00  0.00     0.211 HD
ENDBRANCH   4  11
BRANCH   6  13
ATOM     13  O   UNL     1      28.077 -19.252  27.939  1.00  0.00    -0.387 OA
ATOM     14  H   UNL     1      27.976 -19.425  28.909  1.00  0.00     0.211 HD
ENDBRANCH   6  13
BRANCH   7  15
ATOM     15  O   UNL     1      29.692 -21.219  26.896  1.00  0.00    -0.385 OA
ATOM     16  H   UNL     1      28.880 -21.206  27.466  1.00  0.00     0.211 HD
ENDBRANCH   7  15
ENDBRANCH   1   2
BRANCH   1  17
ATOM     17  C   UNL     1      29.067 -20.763  23.183  1.00  0.00     0.224 C 
ATOM     18  C   UNL     1      29.774 -20.662  21.807  1.00  0.00     0.208 C 
ATOM     19  O   UNL     1      27.920 -19.934  23.164  1.00  0.00    -0.337 OA
ATOM     20  C   UNL     1      28.819 -19.889  20.921  1.00  0.00     0.180 C 
ATOM     21  C   UNL     1      27.779 -19.331  21.891  1.00  0.00     0.179 C 
BRANCH  17  22
ATOM     22  C   UNL     1      28.620 -22.240  23.383  1.00  0.00     0.225 C 
BRANCH  22  23
ATOM     23  O   UNL     1      29.697 -23.125  23.225  1.00  0.00    -0.391 OA
ATOM     24  H   UNL     1      30.537 -22.592  23.308  1.00  0.00     0.210 HD
ENDBRANCH  22  23
ENDBRANCH  17  22
BRANCH  18  25
ATOM     25  O   UNL     1      31.033 -20.033  21.883  1.00  0.00    -0.385 OA
ATOM     26  H   UNL     1      31.437 -20.027  20.976  1.00  0.00     0.211 HD
ENDBRANCH  18  25
BRANCH  20  27
ATOM     27  O   UNL     1      28.194 -20.756  20.008  1.00  0.00    -0.387 OA
ATOM     28  H   UNL     1      28.209 -21.663  20.418  1.00  0.00     0.211 HD
ENDBRANCH  20  27
BRANCH  21  29
ATOM     29  C   UNL     1      27.830 -17.797  22.018  1.00  0.00     0.191 C 
BRANCH  29  30
ATOM     30  O   UNL     1      29.156 -17.352  22.128  1.00  0.00    -0.394 OA
ATOM     31  H   UNL     1      29.204 -16.743  22.904  1.00  0.00     0.210 HD
ENDBRANCH  29  30
ENDBRANCH  21  29
ENDBRANCH   1  17
TORSDOF 13
ENDMDL
MODEL 7
REMARK VINA RESULT:    -4.014      2.065      3.952
REMARK INTER + INTRA:          -7.545
REMARK INTER:                  -5.750
REMARK INTRA:                  -1.795
REMARK UNBOUND:                -1.419
REMARK SMILES OC[C@@H]1O[C@](CO)(O[C@@H]2O[C@H](CO)[C@@H](O)[C@@H](O)[C@H]2O)[C@H](O)[C@H]1O
REMARK SMILES IDX 8 1 9 2 11 3 14 4 10 5 16 6 18 7 12 8 13 9 15 11 17 13 19 15
REMARK SMILES IDX 5 17 20 18 4 19 22 20 3 21 6 22 7 23 21 25 23 27 2 29 1 30
REMARK H PARENT 13 10 15 12 17 14 19 16 7 24 21 26 23 28 1 31
REMARK Flexibility Score: inf
ROOT
ATOM      1  O   UNL     1      27.395 -19.390  22.463  1.00  0.00    -0.313 OA
ENDROOT
BRANCH   1   2
ATOM      2  C   UNL     1      28.399 -18.982  23.392  1.00  0.00     0.285 C 
ATOM      3  C   UNL     1      29.483 -19.447  25.397  1.00  0.00     0.178 C 
ATOM      4  C   UNL     1      29.538 -17.965  25.827  1.00  0.00     0.177 C 
ATOM      5  O   UNL     1      28.316 -19.667  24.628  1.00  0.00    -0.341 OA
ATOM      6  C   UNL     1      29.565 -17.059  24.575  1.00  0.00     0.179 C 
ATOM      7  C   UNL     1      28.423 -17.450  23.607  1.00  0.00     0.202 C 
BRANCH   3   8
ATOM      8  C   UNL     1      29.477 -20.406  26.595  1.00  0.00     0.191 C 
BRANCH   8   9
ATOM      9  O   UNL     1      30.776 -20.520  27.113  1.00  0.00    -0.394 OA
ATOM     10  H   UNL     1      31.157 -21.373  26.779  1.00  0.00     0.210 HD
ENDBRANCH   8   9
ENDBRANCH   3   8
BRANCH   4  11
ATOM     11  O   UNL     1      30.680 -17.727  26.609  1.00  0.00    -0.387 OA
ATOM     12  H   UNL     1      30.461 -16.973  27.214  1.00  0.00     0.211 HD
ENDBRANCH   4  11
BRANCH   6  13
ATOM     13  O   UNL     1      30.812 -17.160  23.936  1.00  0.00    -0.387 OA
ATOM     14  H   UNL     1      30.656 -17.026  22.967  1.00  0.00     0.211 HD
ENDBRANCH   6  13
BRANCH   7  15
ATOM     15  O   UNL     1      28.581 -16.805  22.369  1.00  0.00    -0.385 OA
ATOM     16  H   UNL     1      28.962 -15.908  22.557  1.00  0.00     0.211 HD
ENDBRANCH   7  15
ENDBRANCH   1   2
BRANCH   1  17
ATOM     17  C   UNL     1      27.798 -20.180  21.338  1.00  0.00     0.224 C 
ATOM     18  C   UNL     1      26.976 -21.493  21.335  1.00  0.00     0.208 C 
ATOM     19  O   UNL     1      29.173 -20.506  21.411  1.00  0.00    -0.337 OA
ATOM     20  C   UNL     1      27.994 -22.604  21.179  1.00  0.00     0.180 C 
ATOM     21  C   UNL     1      29.337 -21.913  21.410  1.00  0.00     0.179 C 
BRANCH  17  22
ATOM     22  C   UNL     1      27.525 -19.440  19.996  1.00  0.00     0.225 C 
BRANCH  22  23
ATOM     23  O   UNL     1      28.285 -18.266  19.898  1.00  0.00    -0.391 OA
ATOM     24  H   UNL     1      29.230 -18.534  19.721  1.00  0.00     0.210 HD
ENDBRANCH  22  23
ENDBRANCH  17  22
BRANCH  18  25
ATOM     25  O   UNL     1      26.203 -21.659  22.502  1.00  0.00    -0.385 OA
ATOM     26  H   UNL     1      25.244 -21.678  22.244  1.00  0.00     0.211 HD
ENDBRANCH  18  25
BRANCH  20  27
ATOM     27  O   UNL     1      27.950 -23.125  19.875  1.00  0.00    -0.387 OA
ATOM     28  H   UNL     1      27.075 -23.590  19.781  1.00  0.00     0.211 HD
ENDBRANCH  20  27
BRANCH  21  29
ATOM     29  C   UNL     1      30.041 -22.371  22.701  1.00  0.00     0.191 C 
BRANCH  29  30
ATOM     30  O   UNL     1      29.107 -22.596  23.722  1.00  0.00    -0.394 OA
ATOM     31  H   UNL     1      29.593 -22.583  24.582  1.00  0.00     0.210 HD
ENDBRANCH  29  30
ENDBRANCH  21  29
ENDBRANCH   1  17
TORSDOF 13
ENDMDL
MODEL 8
REMARK VINA RESULT:    -4.002      2.661      4.283
REMARK INTER + INTRA:          -7.527
REMARK INTER:                  -6.021
REMARK INTRA:                  -1.505
REMARK UNBOUND:                -1.419
REMARK SMILES OC[C@@H]1O[C@](CO)(O[C@@H]2O[C@H](CO)[C@@H](O)[C@@H](O)[C@H]2O)[C@H](O)[C@H]1O
REMARK SMILES IDX 8 1 9 2 11 3 14 4 10 5 16 6 18 7 12 8 13 9 15 11 17 13 19 15
REMARK SMILES IDX 5 17 20 18 4 19 22 20 3 21 6 22 7 23 21 25 23 27 2 29 1 30
REMARK H PARENT 13 10 15 12 17 14 19 16 7 24 21 26 23 28 1 31
REMARK Flexibility Score: inf
ROOT
ATOM      1  O   UNL     1      30.006 -19.722  23.522  1.00  0.00    -0.313 OA
ENDROOT
BRANCH   1   2
ATOM      2  C   UNL     1      29.265 -18.571  23.923  1.00  0.00     0.285 C 
ATOM      3  C   UNL     1      28.429 -16.492  23.294  1.00  0.00     0.178 C 
ATOM      4  C   UNL     1      28.753 -15.838  24.655  1.00  0.00     0.177 C 
ATOM      5  O   UNL     1      29.392 -17.491  23.016  1.00  0.00    -0.341 OA
ATOM      6  C   UNL     1      28.724 -16.910  25.769  1.00  0.00     0.179 C 
ATOM      7  C   UNL     1      29.596 -18.123  25.366  1.00  0.00     0.202 C 
BRANCH   3   8
ATOM      8  C   UNL     1      28.419 -15.478  22.144  1.00  0.00     0.191 C 
BRANCH   8   9
ATOM      9  O   UNL     1      29.589 -15.618  21.381  1.00  0.00    -0.394 OA
ATOM     10  H   UNL     1      29.567 -14.927  20.669  1.00  0.00     0.210 HD
ENDBRANCH   8   9
ENDBRANCH   3   8
BRANCH   4  11
ATOM     11  O   UNL     1      27.821 -14.829  24.944  1.00  0.00    -0.387 OA
ATOM     12  H   UNL     1      27.290 -14.684  24.120  1.00  0.00     0.211 HD
ENDBRANCH   4  11
BRANCH   6  13
ATOM     13  O   UNL     1      27.400 -17.311  26.015  1.00  0.00    -0.387 OA
ATOM     14  H   UNL     1      27.244 -18.137  25.492  1.00  0.00     0.211 HD
ENDBRANCH   6  13
BRANCH   7  15
ATOM     15  O   UNL     1      29.389 -19.197  26.249  1.00  0.00    -0.385 OA
ATOM     16  H   UNL     1      30.155 -19.203  26.881  1.00  0.00     0.211 HD
ENDBRANCH   7  15
ENDBRANCH   1   2
BRANCH   1  17
ATOM     17  C   UNL     1      29.298 -20.792  22.887  1.00  0.00     0.224 C 
ATOM     18  C   UNL     1      30.258 -21.508  21.903  1.00  0.00     0.208 C 
ATOM     19  O   UNL     1      28.184 -20.307  22.160  1.00  0.00    -0.337 OA
ATOM     20  C   UNL     1      29.499 -21.596  20.594  1.00  0.00     0.180 C 
ATOM     21  C   UNL     1      28.298 -20.674  20.798  1.00  0.00     0.179 C 
BRANCH  17  22
ATOM     22  C   UNL     1      28.805 -21.843  23.924  1.00  0.00     0.225 C 
BRANCH  22  23
ATOM     23  O   UNL     1      29.284 -23.125  23.617  1.00  0.00    -0.391 OA
ATOM     24  H   UNL     1      29.335 -23.196  22.623  1.00  0.00     0.210 HD
ENDBRANCH  22  23
ENDBRANCH  17  22
BRANCH  18  25
ATOM     25  O   UNL     1      31.484 -20.833  21.746  1.00  0.00    -0.385 OA
ATOM     26  H   UNL     1      31.887 -20.699  22.644  1.00  0.00     0.211 HD
ENDBRANCH  18  25
BRANCH  20  27
ATOM     27  O   UNL     1      29.053 -22.911  20.379  1.00  0.00    -0.387 OA
ATOM     28  H   UNL     1      28.489 -23.155  21.161  1.00  0.00     0.211 HD
ENDBRANCH  20  27
BRANCH  21  29
ATOM     29  C   UNL     1      28.339 -19.419  19.906  1.00  0.00     0.191 C 
BRANCH  29  30
ATOM     30  O   UNL     1      29.239 -18.475  20.421  1.00  0.00    -0.394 OA
ATOM     31  H   UNL     1      28.805 -17.588  20.371  1.00  0.00     0.210 HD
ENDBRANCH  29  30
ENDBRANCH  21  29
ENDBRANCH   1  17
TORSDOF 13
ENDMDL
MODEL 9
REMARK VINA RESULT:    -3.934      2.219      5.915
REMARK INTER + INTRA:          -7.423
REMARK INTER:                  -5.617
REMARK INTRA:                  -1.806
REMARK UNBOUND:                -1.419
REMARK SMILES OC[C@@H]1O[C@](CO)(O[C@@H]2O[C@H](CO)[C@@H](O)[C@@H](O)[C@H]2O)[C@H](O)[C@H]1O
REMARK SMILES IDX 8 1 9 2 11 3 14 4 10 5 16 6 18 7 12 8 13 9 15 11 17 13 19 15
REMARK SMILES IDX 5 17 20 18 4 19 22 20 3 21 6 22 7 23 21 25 23 27 2 29 1 30
REMARK H PARENT 13 10 15 12 17 14 19 16 7 24 21 26 23 28 1 31
REMARK Flexibility Score: inf
ROOT
ATOM      1  O   UNL     1      27.995 -19.727  25.158  1.00  0.00    -0.313 OA
ENDROOT
BRANCH   1   2
ATOM      2  C   UNL     1      28.613 -20.147  23.942  1.00  0.00     0.285 C 
ATOM      3  C   UNL     1      29.043 -19.633  21.713  1.00  0.00     0.178 C 
ATOM      4  C   UNL     1      28.827 -21.085  21.233  1.00  0.00     0.177 C 
ATOM      5  O   UNL     1      28.204 -19.380  22.824  1.00  0.00    -0.341 OA
ATOM      6  C   UNL     1      29.169 -22.069  22.375  1.00  0.00     0.179 C 
ATOM      7  C   UNL     1      28.432 -21.659  23.673  1.00  0.00     0.202 C 
BRANCH   3   8
ATOM      8  C   UNL     1      28.743 -18.602  20.618  1.00  0.00     0.191 C 
BRANCH   8   9
ATOM      9  O   UNL     1      29.237 -17.347  21.005  1.00  0.00    -0.394 OA
ATOM     10  H   UNL     1      29.402 -17.379  21.983  1.00  0.00     0.210 HD
ENDBRANCH   8   9
ENDBRANCH   3   8
BRANCH   4  11
ATOM     11  O   UNL     1      29.637 -21.354  20.118  1.00  0.00    -0.387 OA
ATOM     12  H   UNL     1      29.028 -21.504  19.351  1.00  0.00     0.211 HD
ENDBRANCH   4  11
BRANCH   6  13
ATOM     13  O   UNL     1      30.558 -22.099  22.584  1.00  0.00    -0.387 OA
ATOM     14  H   UNL     1      30.970 -22.460  21.758  1.00  0.00     0.211 HD
ENDBRANCH   6  13
BRANCH   7  15
ATOM     15  O   UNL     1      28.916 -22.392  24.770  1.00  0.00    -0.385 OA
ATOM     16  H   UNL     1      29.307 -21.737  25.404  1.00  0.00     0.211 HD
ENDBRANCH   7  15
ENDBRANCH   1   2
BRANCH   1  17
ATOM     17  C   UNL     1      28.813 -19.089  26.144  1.00  0.00     0.224 C 
ATOM     18  C   UNL     1      28.045 -17.868  26.711  1.00  0.00     0.208 C 
ATOM     19  O   UNL     1      30.031 -18.637  25.583  1.00  0.00    -0.337 OA
ATOM     20  C   UNL     1      29.020 -16.710  26.636  1.00  0.00     0.180 C 
ATOM     21  C   UNL     1      30.159 -17.238  25.765  1.00  0.00     0.179 C 
BRANCH  17  22
ATOM     22  C   UNL     1      29.129 -20.047  27.330  1.00  0.00     0.225 C 
BRANCH  22  23
ATOM     23  O   UNL     1      30.210 -20.889  27.030  1.00  0.00    -0.391 OA
ATOM     24  H   UNL     1      30.962 -20.312  26.717  1.00  0.00     0.210 HD
ENDBRANCH  22  23
ENDBRANCH  17  22
BRANCH  18  25
ATOM     25  O   UNL     1      26.858 -17.591  26.004  1.00  0.00    -0.385 OA
ATOM     26  H   UNL     1      27.082 -17.022  25.222  1.00  0.00     0.211 HD
ENDBRANCH  18  25
BRANCH  20  27
ATOM     27  O   UNL     1      29.509 -16.403  27.916  1.00  0.00    -0.387 OA
ATOM     28  H   UNL     1      28.742 -16.038  28.437  1.00  0.00     0.211 HD
ENDBRANCH  20  27
BRANCH  21  29
ATOM     29  C   UNL     1      30.261 -16.528  24.403  1.00  0.00     0.191 C 
BRANCH  29  30
ATOM     30  O   UNL     1      29.035 -16.580  23.723  1.00  0.00    -0.394 OA
ATOM     31  H   UNL     1      29.191 -17.031  22.859  1.00  0.00     0.210 HD
ENDBRANCH  29  30
ENDBRANCH  21  29
ENDBRANCH   1  17
TORSDOF 13
ENDMDL
