MODEL 1
REMARK VINA RESULT:    -4.092      0.000      0.000
REMARK INTER + INTRA:          -6.299
REMARK INTER:                  -5.528
REMARK INTRA:                  -0.772
REMARK UNBOUND:                -0.772
REMARK SMILES CC(=O)CCC=C(C)CCC=C(C)C
REMARK SMILES IDX 7 1 6 2 8 3 9 4 10 5 11 6 13 7 12 8 14 9 5 10 4 11 2 12 3 13
REMARK SMILES IDX 1 14
REMARK H PARENT
REMARK Flexibility Score: inf
ROOT
ATOM      1  C   UNL     1     149.798 154.319 165.504  1.00  0.00    -0.077 C 
ATOM      2  C   UNL     1     150.554 153.325 166.026  1.00  0.00    -0.028 C 
ATOM      3  C   UNL     1     148.311 154.163 165.292  1.00  0.00     0.039 C 
ENDROOT
BRANCH   1   4
ATOM      4  C   UNL     1     150.446 155.647 165.179  1.00  0.00     0.034 C 
BRANCH   4   5
ATOM      5  C   UNL     1     150.164 156.076 163.731  1.00  0.00     0.032 C 
BRANCH   5   6
ATOM      6  C   UNL     1     149.626 157.485 163.649  1.00  0.00    -0.028 C 
ATOM      7  C   UNL     1     147.445 156.780 162.640  1.00  0.00     0.039 C 
ATOM      8  C   UNL     1     148.423 157.820 163.132  1.00  0.00    -0.080 C 
ATOM      9  C   UNL     1     148.053 159.279 163.068  1.00  0.00     0.039 C 
ENDBRANCH   5   6
ENDBRANCH   4   5
ENDBRANCH   1   4
BRANCH   2  10
ATOM     10  C   UNL     1     150.011 152.005 166.510  1.00  0.00     0.035 C 
BRANCH  10  11
ATOM     11  C   UNL     1     150.228 151.861 168.019  1.00  0.00     0.079 C 
BRANCH  11  12
ATOM     12  C   UNL     1     148.927 151.573 168.720  1.00  0.00     0.130 C 
ATOM     13  O   UNL     1     148.899 150.749 169.622  1.00  0.00    -0.300 OA
ATOM     14  C   UNL     1     147.657 152.268 168.327  1.00  0.00     0.087 C 
ENDBRANCH  11  12
ENDBRANCH  10  11
ENDBRANCH   2  10
TORSDOF 6
ENDMDL
MODEL 2
REMARK VINA RESULT:    -3.986      2.701      4.729
REMARK INTER + INTRA:          -6.155
REMARK INTER:                  -5.238
REMARK INTRA:                  -0.917
REMARK UNBOUND:                -0.772
REMARK SMILES CC(=O)CCC=C(C)CCC=C(C)C
REMARK SMILES IDX 7 1 6 2 8 3 9 4 10 5 11 6 13 7 12 8 14 9 5 10 4 11 2 12 3 13
REMARK SMILES IDX 1 14
REMARK H PARENT
REMARK Flexibility Score: inf
ROOT
ATOM      1  C   UNL     1     148.736 151.546 168.679  1.00  0.00    -0.077 C 
ATOM      2  C   UNL     1     147.736 152.306 168.176  1.00  0.00    -0.028 C 
ATOM      3  C   UNL     1     148.485 150.480 169.718  1.00  0.00     0.039 C 
ENDROOT
BRANCH   1   4
ATOM      4  C   UNL     1     150.140 151.725 168.142  1.00  0.00     0.034 C 
BRANCH   4   5
ATOM      5  C   UNL     1     150.149 151.866 166.613  1.00  0.00     0.032 C 
BRANCH   5   6
ATOM      6  C   UNL     1     150.785 153.161 166.164  1.00  0.00    -0.028 C 
ATOM      7  C   UNL     1     148.651 154.095 165.244  1.00  0.00     0.039 C 
ATOM      8  C   UNL     1     150.134 154.155 165.520  1.00  0.00    -0.080 C 
ATOM      9  C   UNL     1     150.923 155.362 165.085  1.00  0.00     0.039 C 
ENDBRANCH   5   6
ENDBRANCH   4   5
ENDBRANCH   1   4
BRANCH   2  10
ATOM     10  C   UNL     1     146.280 152.139 168.530  1.00  0.00     0.035 C 
BRANCH  10  11
ATOM     11  C   UNL     1     145.484 151.676 167.306  1.00  0.00     0.079 C 
BRANCH  11  12
ATOM     12  C   UNL     1     144.894 150.311 167.539  1.00  0.00     0.130 C 
ATOM     13  O   UNL     1     144.323 149.738 166.623  1.00  0.00    -0.300 OA
ATOM     14  C   UNL     1     144.981 149.639 168.877  1.00  0.00     0.087 C 
ENDBRANCH  11  12
ENDBRANCH  10  11
ENDBRANCH   2  10
TORSDOF 6
ENDMDL
MODEL 3
REMARK VINA RESULT:    -3.973      2.864      6.669
REMARK INTER + INTRA:          -6.139
REMARK INTER:                  -5.393
REMARK INTRA:                  -0.745
REMARK UNBOUND:                -0.772
REMARK SMILES CC(=O)CCC=C(C)CCC=C(C)C
REMARK SMILES IDX 7 1 6 2 8 3 9 4 10 5 11 6 13 7 12 8 14 9 5 10 4 11 2 12 3 13
REMARK SMILES IDX 1 14
REMARK H PARENT
REMARK Flexibility Score: inf
ROOT
ATOM      1  C   UNL     1     149.931 152.988 164.958  1.00  0.00    -0.077 C 
ATOM      2  C   UNL     1     149.692 154.235 165.427  1.00  0.00    -0.028 C 
ATOM      3  C   UNL     1     149.474 152.548 163.589  1.00  0.00     0.039 C 
ENDROOT
BRANCH   1   4
ATOM      4  C   UNL     1     150.733 152.023 165.805  1.00  0.00     0.034 C 
BRANCH   4   5
ATOM      5  C   UNL     1     150.801 152.475 167.271  1.00  0.00     0.032 C 
BRANCH   5   6
ATOM      6  C   UNL     1     150.176 151.468 168.208  1.00  0.00    -0.028 C 
ATOM      7  C   UNL     1     147.974 152.658 168.301  1.00  0.00     0.039 C 
ATOM      8  C   UNL     1     148.922 151.554 168.704  1.00  0.00    -0.080 C 
ATOM      9  C   UNL     1     148.464 150.498 169.676  1.00  0.00     0.039 C 
ENDBRANCH   5   6
ENDBRANCH   4   5
ENDBRANCH   1   4
BRANCH   2  10
ATOM     10  C   UNL     1     149.021 155.328 164.636  1.00  0.00     0.035 C 
BRANCH  10  11
ATOM     11  C   UNL     1     149.968 156.519 164.461  1.00  0.00     0.079 C 
BRANCH  11  12
ATOM     12  C   UNL     1     149.553 157.363 163.286  1.00  0.00     0.130 C 
ATOM     13  O   UNL     1     150.048 157.152 162.189  1.00  0.00    -0.300 OA
ATOM     14  C   UNL     1     148.549 158.468 163.432  1.00  0.00     0.087 C 
ENDBRANCH  11  12
ENDBRANCH  10  11
ENDBRANCH   2  10
TORSDOF 6
ENDMDL
MODEL 4
REMARK VINA RESULT:    -3.947      2.771      6.781
REMARK INTER + INTRA:          -6.104
REMARK INTER:                  -5.364
REMARK INTRA:                  -0.740
REMARK UNBOUND:                -0.772
REMARK SMILES CC(=O)CCC=C(C)CCC=C(C)C
REMARK SMILES IDX 7 1 6 2 8 3 9 4 10 5 11 6 13 7 12 8 14 9 5 10 4 11 2 12 3 13
REMARK SMILES IDX 1 14
REMARK H PARENT
REMARK Flexibility Score: inf
ROOT
ATOM      1  C   UNL     1     148.159 154.044 165.137  1.00  0.00    -0.077 C 
ATOM      2  C   UNL     1     149.382 154.542 165.430  1.00  0.00    -0.028 C 
ATOM      3  C   UNL     1     147.516 154.248 163.786  1.00  0.00     0.039 C 
ENDROOT
BRANCH   1   4
ATOM      4  C   UNL     1     147.435 153.208 166.171  1.00  0.00     0.034 C 
BRANCH   4   5
ATOM      5  C   UNL     1     147.891 153.551 167.597  1.00  0.00     0.032 C 
BRANCH   5   6
ATOM      6  C   UNL     1     147.770 152.372 168.533  1.00  0.00    -0.028 C 
ATOM      7  C   UNL     1     150.166 151.693 168.271  1.00  0.00     0.039 C 
ATOM      8  C   UNL     1     148.771 151.510 168.819  1.00  0.00    -0.080 C 
ATOM      9  C   UNL     1     148.475 150.346 169.729  1.00  0.00     0.039 C 
ENDBRANCH   5   6
ENDBRANCH   4   5
ENDBRANCH   1   4
BRANCH   2  10
ATOM     10  C   UNL     1     150.259 155.279 164.449  1.00  0.00     0.035 C 
BRANCH  10  11
ATOM     11  C   UNL     1     150.001 156.786 164.532  1.00  0.00     0.079 C 
BRANCH  11  12
ATOM     12  C   UNL     1     149.585 157.331 163.191  1.00  0.00     0.130 C 
ATOM     13  O   UNL     1     149.784 156.667 162.185  1.00  0.00    -0.300 OA
ATOM     14  C   UNL     1     148.939 158.678 163.061  1.00  0.00     0.087 C 
ENDBRANCH  11  12
ENDBRANCH  10  11
ENDBRANCH   2  10
TORSDOF 6
ENDMDL
MODEL 5
REMARK VINA RESULT:    -3.905      2.193      3.829
REMARK INTER + INTRA:          -6.047
REMARK INTER:                  -5.471
REMARK INTRA:                  -0.576
REMARK UNBOUND:                -0.772
REMARK SMILES CC(=O)CCC=C(C)CCC=C(C)C
REMARK SMILES IDX 7 1 6 2 8 3 9 4 10 5 11 6 13 7 12 8 14 9 5 10 4 11 2 12 3 13
REMARK SMILES IDX 1 14
REMARK H PARENT
REMARK Flexibility Score: inf
ROOT
ATOM      1  C   UNL     1     149.434 156.676 163.154  1.00  0.00    -0.077 C 
ATOM      2  C   UNL     1     149.637 156.726 164.490  1.00  0.00    -0.028 C 
ATOM      3  C   UNL     1     150.101 155.639 162.282  1.00  0.00     0.039 C 
ENDROOT
BRANCH   1   4
ATOM      4  C   UNL     1     148.464 157.648 162.517  1.00  0.00     0.034 C 
BRANCH   4   5
ATOM      5  C   UNL     1     148.753 159.096 162.940  1.00  0.00     0.032 C 
BRANCH   5   6
ATOM      6  C   UNL     1     147.591 159.717 163.680  1.00  0.00    -0.028 C 
ATOM      7  C   UNL     1     146.758 160.972 161.679  1.00  0.00     0.039 C 
ATOM      8  C   UNL     1     146.708 160.584 163.138  1.00  0.00    -0.080 C 
ATOM      9  C   UNL     1     145.636 161.161 164.025  1.00  0.00     0.039 C 
ENDBRANCH   5   6
ENDBRANCH   4   5
ENDBRANCH   1   4
BRANCH   2  10
ATOM     10  C   UNL     1     150.475 155.739 165.262  1.00  0.00     0.035 C 
BRANCH  10  11
ATOM     11  C   UNL     1     149.595 154.616 165.821  1.00  0.00     0.079 C 
BRANCH  11  12
ATOM     12  C   UNL     1     150.219 153.270 165.561  1.00  0.00     0.130 C 
ATOM     13  O   UNL     1     150.106 152.759 164.457  1.00  0.00    -0.300 OA
ATOM     14  C   UNL     1     150.968 152.535 166.632  1.00  0.00     0.087 C 
ENDBRANCH  11  12
ENDBRANCH  10  11
ENDBRANCH   2  10
TORSDOF 6
ENDMDL
MODEL 6
REMARK VINA RESULT:    -3.889      1.477      2.365
REMARK INTER + INTRA:          -6.025
REMARK INTER:                  -4.961
REMARK INTRA:                  -1.064
REMARK UNBOUND:                -0.772
REMARK SMILES CC(=O)CCC=C(C)CCC=C(C)C
REMARK SMILES IDX 7 1 6 2 8 3 9 4 10 5 11 6 13 7 12 8 14 9 5 10 4 11 2 12 3 13
REMARK SMILES IDX 1 14
REMARK H PARENT
REMARK Flexibility Score: inf
ROOT
ATOM      1  C   UNL     1     149.790 155.609 164.276  1.00  0.00    -0.077 C 
ATOM      2  C   UNL     1     148.789 154.699 164.258  1.00  0.00    -0.028 C 
ATOM      3  C   UNL     1     150.309 156.201 165.565  1.00  0.00     0.039 C 
ENDROOT
BRANCH   1   4
ATOM      4  C   UNL     1     150.453 156.003 162.974  1.00  0.00     0.034 C 
BRANCH   4   5
ATOM      5  C   UNL     1     149.531 156.878 162.110  1.00  0.00     0.032 C 
BRANCH   5   6
ATOM      6  C   UNL     1     149.119 158.145 162.822  1.00  0.00    -0.028 C 
ATOM      7  C   UNL     1     146.670 157.748 162.483  1.00  0.00     0.039 C 
ATOM      8  C   UNL     1     147.843 158.565 162.968  1.00  0.00    -0.080 C 
ATOM      9  C   UNL     1     147.598 159.885 163.653  1.00  0.00     0.039 C 
ENDBRANCH   5   6
ENDBRANCH   4   5
ENDBRANCH   1   4
BRANCH   2  10
ATOM     10  C   UNL     1     148.135 154.129 165.491  1.00  0.00     0.035 C 
BRANCH  10  11
ATOM     11  C   UNL     1     148.601 152.688 165.723  1.00  0.00     0.079 C 
BRANCH  11  12
ATOM     12  C   UNL     1     149.672 152.638 166.781  1.00  0.00     0.130 C 
ATOM     13  O   UNL     1     149.351 152.603 167.960  1.00  0.00    -0.300 OA
ATOM     14  C   UNL     1     151.128 152.641 166.420  1.00  0.00     0.087 C 
ENDBRANCH  11  12
ENDBRANCH  10  11
ENDBRANCH   2  10
TORSDOF 6
ENDMDL
MODEL 7
REMARK VINA RESULT:    -3.886      2.623      6.311
REMARK INTER + INTRA:          -6.021
REMARK INTER:                  -5.374
REMARK INTRA:                  -0.647
REMARK UNBOUND:                -0.772
REMARK SMILES CC(=O)CCC=C(C)CCC=C(C)C
REMARK SMILES IDX 7 1 6 2 8 3 9 4 10 5 11 6 13 7 12 8 14 9 5 10 4 11 2 12 3 13
REMARK SMILES IDX 1 14
REMARK H PARENT
REMARK Flexibility Score: inf
ROOT
ATOM      1  C   UNL     1     150.780 152.865 166.426  1.00  0.00    -0.077 C 
ATOM      2  C   UNL     1     150.191 153.827 165.678  1.00  0.00    -0.028 C 
ATOM      3  C   UNL     1     152.265 152.862 166.699  1.00  0.00     0.039 C 
ENDROOT
BRANCH   1   4
ATOM      4  C   UNL     1     149.920 151.793 167.059  1.00  0.00     0.034 C 
BRANCH   4   5
ATOM      5  C   UNL     1     149.240 152.296 168.342  1.00  0.00     0.032 C 
BRANCH   5   6
ATOM      6  C   UNL     1     147.878 151.676 168.546  1.00  0.00    -0.028 C 
ATOM      7  C   UNL     1     146.685 153.432 167.218  1.00  0.00     0.039 C 
ATOM      8  C   UNL     1     146.720 152.190 168.077  1.00  0.00    -0.080 C 
ATOM      9  C   UNL     1     145.434 151.483 168.416  1.00  0.00     0.039 C 
ENDBRANCH   5   6
ENDBRANCH   4   5
ENDBRANCH   1   4
BRANCH   2  10
ATOM     10  C   UNL     1     150.913 155.017 165.100  1.00  0.00     0.035 C 
BRANCH  10  11
ATOM     11  C   UNL     1     149.998 156.245 165.096  1.00  0.00     0.079 C 
BRANCH  11  12
ATOM     12  C   UNL     1     149.804 156.762 163.695  1.00  0.00     0.130 C 
ATOM     13  O   UNL     1     150.255 156.128 162.753  1.00  0.00    -0.300 OA
ATOM     14  C   UNL     1     149.078 158.047 163.429  1.00  0.00     0.087 C 
ENDBRANCH  11  12
ENDBRANCH  10  11
ENDBRANCH   2  10
TORSDOF 6
ENDMDL
MODEL 8
REMARK VINA RESULT:    -3.867      3.657      7.189
REMARK INTER + INTRA:          -5.995
REMARK INTER:                  -5.330
REMARK INTRA:                  -0.664
REMARK UNBOUND:                -0.772
REMARK SMILES CC(=O)CCC=C(C)CCC=C(C)C
REMARK SMILES IDX 7 1 6 2 8 3 9 4 10 5 11 6 13 7 12 8 14 9 5 10 4 11 2 12 3 13
REMARK SMILES IDX 1 14
REMARK H PARENT
REMARK Flexibility Score: inf
ROOT
ATOM      1  C   UNL     1     149.929 155.855 164.044  1.00  0.00    -0.077 C 
ATOM      2  C   UNL     1     149.498 156.734 163.110  1.00  0.00    -0.028 C 
ATOM      3  C   UNL     1     150.285 156.289 165.445  1.00  0.00     0.039 C 
ENDROOT
BRANCH   1   4
ATOM      4  C   UNL     1     150.000 154.383 163.695  1.00  0.00     0.034 C 
BRANCH   4   5
ATOM      5  C   UNL     1     148.976 153.562 164.494  1.00  0.00     0.032 C 
BRANCH   5   6
ATOM      6  C   UNL     1     149.636 152.681 165.529  1.00  0.00    -0.028 C 
ATOM      7  C   UNL     1     148.413 153.723 167.451  1.00  0.00     0.039 C 
ATOM      8  C   UNL     1     149.419 152.764 166.860  1.00  0.00    -0.080 C 
ATOM      9  C   UNL     1     150.199 151.851 167.770  1.00  0.00     0.039 C 
ENDBRANCH   5   6
ENDBRANCH   4   5
ENDBRANCH   1   4
BRANCH   2  10
ATOM     10  C   UNL     1     149.261 158.200 163.366  1.00  0.00     0.035 C 
BRANCH  10  11
ATOM     11  C   UNL     1     148.761 158.890 162.093  1.00  0.00     0.079 C 
BRANCH  11  12
ATOM     12  C   UNL     1     147.734 159.940 162.424  1.00  0.00     0.130 C 
ATOM     13  O   UNL     1     147.412 160.756 161.573  1.00  0.00    -0.300 OA
ATOM     14  C   UNL     1     147.101 160.014 163.782  1.00  0.00     0.087 C 
ENDBRANCH  11  12
ENDBRANCH  10  11
ENDBRANCH   2  10
TORSDOF 6
ENDMDL
MODEL 9
REMARK VINA RESULT:    -3.856      4.155      5.401
REMARK INTER + INTRA:          -5.981
REMARK INTER:                  -4.840
REMARK INTRA:                  -1.140
REMARK UNBOUND:                -0.772
REMARK SMILES CC(=O)CCC=C(C)CCC=C(C)C
REMARK SMILES IDX 7 1 6 2 8 3 9 4 10 5 11 6 13 7 12 8 14 9 5 10 4 11 2 12 3 13
REMARK SMILES IDX 1 14
REMARK H PARENT
REMARK Flexibility Score: inf
ROOT
ATOM      1  C   UNL     1     149.100 151.888 168.498  1.00  0.00    -0.077 C 
ATOM      2  C   UNL     1     148.134 152.690 167.992  1.00  0.00    -0.028 C 
ATOM      3  C   UNL     1     148.783 150.757 169.446  1.00  0.00     0.039 C 
ENDROOT
BRANCH   1   4
ATOM      4  C   UNL     1     150.533 152.090 168.056  1.00  0.00     0.034 C 
BRANCH   4   5
ATOM      5  C   UNL     1     150.616 152.543 166.591  1.00  0.00     0.032 C 
BRANCH   5   6
ATOM      6  C   UNL     1     150.889 151.391 165.653  1.00  0.00    -0.028 C 
ATOM      7  C   UNL     1     148.706 151.626 164.447  1.00  0.00     0.039 C 
ATOM      8  C   UNL     1     150.029 150.947 164.709  1.00  0.00    -0.080 C 
ATOM      9  C   UNL     1     150.424 149.746 163.889  1.00  0.00     0.039 C 
ENDBRANCH   5   6
ENDBRANCH   4   5
ENDBRANCH   1   4
BRANCH   2  10
ATOM     10  C   UNL     1     146.659 152.514 168.250  1.00  0.00     0.035 C 
BRANCH  10  11
ATOM     11  C   UNL     1     145.998 151.780 167.079  1.00  0.00     0.079 C 
BRANCH  11  12
ATOM     12  C   UNL     1     145.169 150.625 167.574  1.00  0.00     0.130 C 
ATOM     13  O   UNL     1     144.526 149.960 166.775  1.00  0.00    -0.300 OA
ATOM     14  C   UNL     1     145.105 150.276 169.032  1.00  0.00     0.087 C 
ENDBRANCH  11  12
ENDBRANCH  10  11
ENDBRANCH   2  10
TORSDOF 6
ENDMDL
