MODEL 1
REMARK VINA RESULT:    19.906      0.000      0.000
REMARK INTER + INTRA:          19.906
REMARK INTER:                  19.906
REMARK INTRA:                   0.000
REMARK UNBOUND:                 0.000
REMARK SMILES Cc1cc2cc3c(C)cc(=O)oc3c(C)c2o1
REMARK SMILES IDX 8 1 7 2 9 3 10 4 11 5 12 6 13 7 6 8 5 9 4 10 3 11 2 12 17 13
REMARK SMILES IDX 16 14 14 15 15 16 1 17
REMARK H PARENT
REMARK Flexibility Score: inf
ROOT
ATOM      1  C   UNL     1      39.000 -21.928   3.425  1.00  0.00     0.045 C 
ATOM      2  C   UNL     1      38.712 -22.649   4.717  1.00  0.00    -0.033 A 
ATOM      3  C   UNL     1      38.439 -21.904   5.871  1.00  0.00     0.098 A 
ATOM      4  C   UNL     1      38.168 -22.565   7.071  1.00  0.00     0.336 A 
ATOM      5  O   UNL     1      37.922 -21.899   8.110  1.00  0.00    -0.246 OA
ATOM      6  O   UNL     1      38.169 -23.891   7.126  1.00  0.00    -0.422 OA
ATOM      7  C   UNL     1      38.419 -24.659   6.069  1.00  0.00     0.145 A 
ATOM      8  C   UNL     1      38.703 -24.060   4.801  1.00  0.00     0.022 A 
ATOM      9  C   UNL     1      38.960 -24.887   3.679  1.00  0.00     0.024 A 
ATOM     10  C   UNL     1      38.921 -26.264   3.859  1.00  0.00     0.022 A 
ATOM     11  C   UNL     1      39.116 -27.288   2.960  1.00  0.00     0.054 A 
ATOM     12  C   UNL     1      38.942 -28.442   3.715  1.00  0.00     0.102 A 
ATOM     13  O   UNL     1      38.667 -28.144   4.972  1.00  0.00    -0.461 OA
ATOM     14  C   UNL     1      38.650 -26.836   5.072  1.00  0.00     0.140 A 
ATOM     15  C   UNL     1      38.403 -26.068   6.212  1.00  0.00     0.036 A 
ATOM     16  C   UNL     1      38.079 -26.714   7.530  1.00  0.00     0.052 C 
ATOM     17  C   UNL     1      39.064 -29.835   3.198  1.00  0.00     0.087 C 
ENDROOT
TORSDOF 0
ENDMDL
