MODEL 1
REMARK VINA RESULT:    25.260      0.000      0.000
REMARK INTER + INTRA:          34.311
REMARK INTER:                  34.121
REMARK INTRA:                   0.190
REMARK UNBOUND:                 0.190
REMARK SMILES O=c1c(-c2ccc(O)cc2)coc2c([C@@H]3O[C@@H](CO)[C@H](O)[C@H](O)[C@@H]3O)c(O)ccc12
REMARK SMILES IDX 3 1 11 2 12 3 13 4 30 5 2 6 1 7 29 8 28 9 26 10 14 11 4 12
REMARK SMILES IDX 5 13 6 14 7 15 10 16 9 17 8 18 15 20 24 21 16 22 22 23 17 24
REMARK SMILES IDX 20 25 25 26 23 28 18 30 19 31 21 33 27 35
REMARK H PARENT 8 19 25 27 23 29 19 32 21 34 27 36
REMARK Flexibility Score: inf
ROOT
ATOM      1  C   UNL     1     -13.817  -2.506  16.984  1.00  0.00     0.065 A 
ATOM      2  C   UNL     1     -13.735  -3.346  18.098  1.00  0.00     0.208 A 
ATOM      3  O   UNL     1     -12.716  -4.185  18.237  1.00  0.00    -0.463 OA
ATOM      4  C   UNL     1     -11.716  -4.271  17.363  1.00  0.00     0.147 A 
ATOM      5  C   UNL     1     -11.713  -3.436  16.222  1.00  0.00     0.066 A 
ATOM      6  C   UNL     1     -12.791  -2.557  16.030  1.00  0.00     0.200 A 
ATOM      7  O   UNL     1     -12.832  -1.803  15.015  1.00  0.00    -0.288 OA
ATOM      8  C   UNL     1     -10.647  -3.500  15.313  1.00  0.00     0.020 A 
ATOM      9  C   UNL     1      -9.599  -4.386  15.532  1.00  0.00     0.047 A 
ATOM     10  C   UNL     1      -9.599  -5.233  16.642  1.00  0.00     0.125 A 
ATOM     11  C   UNL     1     -10.672  -5.204  17.572  1.00  0.00     0.069 A 
ENDROOT
BRANCH   1  12
ATOM     12  C   UNL     1     -14.939  -1.559  16.853  1.00  0.00    -0.011 A 
ATOM     13  C   UNL     1     -16.035  -1.880  16.036  1.00  0.00     0.013 A 
ATOM     14  C   UNL     1     -17.137  -1.021  15.970  1.00  0.00     0.047 A 
ATOM     15  C   UNL     1     -17.147   0.172  16.705  1.00  0.00     0.115 A 
ATOM     16  C   UNL     1     -14.944  -0.353  17.575  1.00  0.00     0.013 A 
ATOM     17  C   UNL     1     -16.042   0.508  17.491  1.00  0.00     0.047 A 
BRANCH  15  18
ATOM     18  O   UNL     1     -18.246   1.026  16.658  1.00  0.00    -0.508 OA
ATOM     19  H   UNL     1     -18.291   1.853  17.237  1.00  0.00     0.293 HD
ENDBRANCH  15  18
ENDBRANCH   1  12
BRANCH  11  20
ATOM     20  C   UNL     1     -10.758  -6.179  18.751  1.00  0.00     0.188 C 
ATOM     21  C   UNL     1     -11.143  -7.628  18.292  1.00  0.00     0.179 C 
ATOM     22  O   UNL     1      -9.545  -6.117  19.499  1.00  0.00    -0.362 OA
ATOM     23  C   UNL     1      -9.927  -8.560  18.300  1.00  0.00     0.177 C 
ATOM     24  C   UNL     1      -9.377  -7.185  20.421  1.00  0.00     0.176 C 
ATOM     25  C   UNL     1      -9.256  -8.567  19.708  1.00  0.00     0.177 C 
BRANCH  21  26
ATOM     26  O   UNL     1     -11.746  -7.659  17.026  1.00  0.00    -0.387 OA
ATOM     27  H   UNL     1     -11.050  -7.401  16.365  1.00  0.00     0.211 HD
ENDBRANCH  21  26
BRANCH  23  28
ATOM     28  O   UNL     1      -9.068  -8.221  17.237  1.00  0.00    -0.387 OA
ATOM     29  H   UNL     1      -8.423  -8.945  17.072  1.00  0.00     0.211 HD
ENDBRANCH  23  28
BRANCH  24  30
ATOM     30  C   UNL     1     -10.430  -7.168  21.546  1.00  0.00     0.191 C 
BRANCH  30  31
ATOM     31  O   UNL     1     -10.944  -5.871  21.692  1.00  0.00    -0.394 OA
ATOM     32  H   UNL     1     -11.181  -5.756  22.649  1.00  0.00     0.210 HD
ENDBRANCH  30  31
ENDBRANCH  24  30
BRANCH  25  33
ATOM     33  O   UNL     1      -7.908  -8.946  19.643  1.00  0.00    -0.388 OA
ATOM     34  H   UNL     1      -7.669  -9.353  20.521  1.00  0.00     0.211 HD
ENDBRANCH  25  33
ENDBRANCH  11  20
BRANCH  10  35
ATOM     35  O   UNL     1      -8.517  -6.092  16.829  1.00  0.00    -0.507 OA
ATOM     36  H   UNL     1      -8.368  -6.583  17.703  1.00  0.00     0.293 HD
ENDBRANCH  10  35
TORSDOF 9
ENDMDL
MODEL 2
REMARK VINA RESULT:    26.040      4.172      7.458
REMARK INTER + INTRA:          35.364
REMARK INTER:                  35.238
REMARK INTRA:                   0.126
REMARK UNBOUND:                 0.190
REMARK SMILES O=c1c(-c2ccc(O)cc2)coc2c([C@@H]3O[C@@H](CO)[C@H](O)[C@H](O)[C@@H]3O)c(O)ccc12
REMARK SMILES IDX 3 1 11 2 12 3 13 4 30 5 2 6 1 7 29 8 28 9 26 10 14 11 4 12
REMARK SMILES IDX 5 13 6 14 7 15 10 16 9 17 8 18 15 20 24 21 16 22 22 23 17 24
REMARK SMILES IDX 20 25 25 26 23 28 18 30 19 31 21 33 27 35
REMARK H PARENT 8 19 25 27 23 29 19 32 21 34 27 36
REMARK Flexibility Score: inf
ROOT
ATOM      1  C   UNL     1     -15.551   2.910  18.971  1.00  0.00     0.065 A 
ATOM      2  C   UNL     1     -14.388   2.246  18.573  1.00  0.00     0.208 A 
ATOM      3  O   UNL     1     -14.458   1.126  17.865  1.00  0.00    -0.463 OA
ATOM      4  C   UNL     1     -15.608   0.580  17.474  1.00  0.00     0.147 A 
ATOM      5  C   UNL     1     -16.829   1.207  17.815  1.00  0.00     0.066 A 
ATOM      6  C   UNL     1     -16.790   2.378  18.588  1.00  0.00     0.200 A 
ATOM      7  O   UNL     1     -17.861   2.961  18.926  1.00  0.00    -0.288 OA
ATOM      8  C   UNL     1     -18.041   0.654  17.380  1.00  0.00     0.020 A 
ATOM      9  C   UNL     1     -18.043  -0.510  16.620  1.00  0.00     0.047 A 
ATOM     10  C   UNL     1     -16.846  -1.153  16.295  1.00  0.00     0.125 A 
ATOM     11  C   UNL     1     -15.602  -0.626  16.734  1.00  0.00     0.069 A 
ENDROOT
BRANCH   1  12
ATOM     12  C   UNL     1     -15.460   4.168  19.735  1.00  0.00    -0.011 A 
ATOM     13  C   UNL     1     -16.502   5.105  19.669  1.00  0.00     0.013 A 
ATOM     14  C   UNL     1     -16.457   6.263  20.453  1.00  0.00     0.047 A 
ATOM     15  C   UNL     1     -15.363   6.502  21.295  1.00  0.00     0.115 A 
ATOM     16  C   UNL     1     -14.355   4.419  20.569  1.00  0.00     0.013 A 
ATOM     17  C   UNL     1     -14.310   5.586  21.336  1.00  0.00     0.047 A 
BRANCH  15  18
ATOM     18  O   UNL     1     -15.316   7.644  22.091  1.00  0.00    -0.508 OA
ATOM     19  H   UNL     1     -14.504   8.245  22.096  1.00  0.00     0.293 HD
ENDBRANCH  15  18
ENDBRANCH   1  12
BRANCH  11  20
ATOM     20  C   UNL     1     -14.275  -1.348  16.479  1.00  0.00     0.188 C 
ATOM     21  C   UNL     1     -13.907  -2.335  17.641  1.00  0.00     0.179 C 
ATOM     22  O   UNL     1     -14.316  -1.964  15.194  1.00  0.00    -0.362 OA
ATOM     23  C   UNL     1     -14.162  -3.792  17.240  1.00  0.00     0.177 C 
ATOM     24  C   UNL     1     -13.281  -2.914  14.972  1.00  0.00     0.176 C 
ATOM     25  C   UNL     1     -13.390  -4.140  15.931  1.00  0.00     0.177 C 
BRANCH  21  26
ATOM     26  O   UNL     1     -14.587  -2.053  18.835  1.00  0.00    -0.387 OA
ATOM     27  H   UNL     1     -14.346  -1.124  19.095  1.00  0.00     0.211 HD
ENDBRANCH  21  26
BRANCH  23  28
ATOM     28  O   UNL     1     -15.550  -4.029  17.190  1.00  0.00    -0.387 OA
ATOM     29  H   UNL     1     -15.742  -4.981  17.345  1.00  0.00     0.211 HD
ENDBRANCH  23  28
BRANCH  24  30
ATOM     30  C   UNL     1     -11.881  -2.272  14.958  1.00  0.00     0.191 C 
BRANCH  30  31
ATOM     31  O   UNL     1     -12.001  -0.877  14.875  1.00  0.00    -0.394 OA
ATOM     32  H   UNL     1     -12.361  -0.667  13.974  1.00  0.00     0.210 HD
ENDBRANCH  30  31
ENDBRANCH  24  30
BRANCH  25  33
ATOM     33  O   UNL     1     -13.974  -5.217  15.250  1.00  0.00    -0.388 OA
ATOM     34  H   UNL     1     -14.176  -4.911  14.323  1.00  0.00     0.211 HD
ENDBRANCH  25  33
ENDBRANCH  11  20
BRANCH  10  35
ATOM     35  O   UNL     1     -16.897  -2.307  15.515  1.00  0.00    -0.507 OA
ATOM     36  H   UNL     1     -16.119  -2.592  14.930  1.00  0.00     0.293 HD
ENDBRANCH  10  35
TORSDOF 9
ENDMDL
MODEL 3
REMARK VINA RESULT:    26.689      2.851      7.163
REMARK INTER + INTRA:          36.240
REMARK INTER:                  35.436
REMARK INTRA:                   0.804
REMARK UNBOUND:                 0.190
REMARK SMILES O=c1c(-c2ccc(O)cc2)coc2c([C@@H]3O[C@@H](CO)[C@H](O)[C@H](O)[C@@H]3O)c(O)ccc12
REMARK SMILES IDX 3 1 11 2 12 3 13 4 30 5 2 6 1 7 29 8 28 9 26 10 14 11 4 12
REMARK SMILES IDX 5 13 6 14 7 15 10 16 9 17 8 18 15 20 24 21 16 22 22 23 17 24
REMARK SMILES IDX 20 25 25 26 23 28 18 30 19 31 21 33 27 35
REMARK H PARENT 8 19 25 27 23 29 19 32 21 34 27 36
REMARK Flexibility Score: inf
ROOT
ATOM      1  C   UNL     1     -11.885  -3.515  16.998  1.00  0.00     0.065 A 
ATOM      2  C   UNL     1     -12.055  -3.285  18.367  1.00  0.00     0.208 A 
ATOM      3  O   UNL     1     -13.139  -2.668  18.818  1.00  0.00    -0.463 OA
ATOM      4  C   UNL     1     -14.126  -2.253  18.026  1.00  0.00     0.147 A 
ATOM      5  C   UNL     1     -14.041  -2.471  16.631  1.00  0.00     0.066 A 
ATOM      6  C   UNL     1     -12.893  -3.096  16.119  1.00  0.00     0.200 A 
ATOM      7  O   UNL     1     -12.772  -3.297  14.875  1.00  0.00    -0.288 OA
ATOM      8  C   UNL     1     -15.091  -2.064  15.796  1.00  0.00     0.020 A 
ATOM      9  C   UNL     1     -16.210  -1.444  16.338  1.00  0.00     0.047 A 
ATOM     10  C   UNL     1     -16.299  -1.201  17.710  1.00  0.00     0.125 A 
ATOM     11  C   UNL     1     -15.246  -1.587  18.581  1.00  0.00     0.069 A 
ENDROOT
BRANCH   1  12
ATOM     12  C   UNL     1     -10.688  -4.225  16.511  1.00  0.00    -0.011 A 
ATOM     13  C   UNL     1      -9.882  -3.642  15.521  1.00  0.00     0.013 A 
ATOM     14  C   UNL     1      -8.703  -4.275  15.112  1.00  0.00     0.047 A 
ATOM     15  C   UNL     1      -8.330  -5.502  15.675  1.00  0.00     0.115 A 
ATOM     16  C   UNL     1     -10.319  -5.465  17.062  1.00  0.00     0.013 A 
ATOM     17  C   UNL     1      -9.149  -6.099  16.635  1.00  0.00     0.047 A 
BRANCH  15  18
ATOM     18  O   UNL     1      -7.151  -6.132  15.286  1.00  0.00    -0.508 OA
ATOM     19  H   UNL     1      -7.144  -6.817  14.543  1.00  0.00     0.293 HD
ENDBRANCH  15  18
ENDBRANCH   1  12
BRANCH  11  20
ATOM     20  C   UNL     1     -15.260  -1.257  20.077  1.00  0.00     0.188 C 
ATOM     21  C   UNL     1     -15.706  -2.483  20.947  1.00  0.00     0.179 C 
ATOM     22  O   UNL     1     -13.993  -0.719  20.450  1.00  0.00    -0.362 OA
ATOM     23  C   UNL     1     -14.511  -3.138  21.647  1.00  0.00     0.177 C 
ATOM     24  C   UNL     1     -13.776  -0.667  21.854  1.00  0.00     0.176 C 
ATOM     25  C   UNL     1     -13.736  -2.086  22.499  1.00  0.00     0.177 C 
BRANCH  21  26
ATOM     26  O   UNL     1     -16.404  -3.452  20.212  1.00  0.00    -0.387 OA
ATOM     27  H   UNL     1     -17.238  -3.655  20.714  1.00  0.00     0.211 HD
ENDBRANCH  21  26
BRANCH  23  28
ATOM     28  O   UNL     1     -13.729  -3.824  20.698  1.00  0.00    -0.387 OA
ATOM     29  H   UNL     1     -12.813  -3.466  20.684  1.00  0.00     0.211 HD
ENDBRANCH  23  28
BRANCH  24  30
ATOM     30  C   UNL     1     -14.740   0.301  22.567  1.00  0.00     0.191 C 
BRANCH  30  31
ATOM     31  O   UNL     1     -15.067  -0.207  23.834  1.00  0.00    -0.394 OA
ATOM     32  H   UNL     1     -14.807   0.481  24.500  1.00  0.00     0.210 HD
ENDBRANCH  30  31
ENDBRANCH  24  30
BRANCH  25  33
ATOM     33  O   UNL     1     -12.404  -2.467  22.713  1.00  0.00    -0.388 OA
ATOM     34  H   UNL     1     -12.215  -2.361  23.687  1.00  0.00     0.211 HD
ENDBRANCH  25  33
ENDBRANCH  11  20
BRANCH  10  35
ATOM     35  O   UNL     1     -17.450  -0.593  18.209  1.00  0.00    -0.507 OA
ATOM     36  H   UNL     1     -18.339  -1.080  18.248  1.00  0.00     0.293 HD
ENDBRANCH  10  35
TORSDOF 9
ENDMDL
