MODEL 1
REMARK VINA RESULT:    -4.727      0.000      0.000
REMARK INTER + INTRA:          -6.924
REMARK INTER:                  -7.214
REMARK INTRA:                   0.290
REMARK UNBOUND:                 0.290
REMARK SMILES CC1=CCC[C@H](C)C(=O)C[C@@H](C(C)C)C(=O)C1
REMARK SMILES IDX 8 1 9 2 6 3 7 4 5 5 4 6 3 7 2 8 1 9 10 11 11 12 15 13 16 14
REMARK SMILES IDX 17 15 12 17 13 18 14 19
REMARK H PARENT
REMARK Flexibility Score: 70.00
ROOT
ATOM      1  C   UNL     1     -13.183 -36.934  29.341  1.00  0.00     0.136 C 
ATOM      2  O   UNL     1     -13.322 -38.001  28.756  1.00  0.00    -0.299 OA
ENDROOT
BRANCH   1   3
ATOM      3  C   UNL     1     -12.556 -36.911  30.720  1.00  0.00     0.053 C 
ATOM      4  C   UNL     1     -12.870 -38.210  31.476  1.00  0.00     0.016 C 
BRANCH   3   5
ATOM      5  C   UNL     1     -11.031 -36.691  30.610  1.00  0.00     0.015 C 
BRANCH   5   6
ATOM      6  C   UNL     1     -10.496 -35.758  31.716  1.00  0.00     0.028 C 
BRANCH   6   7
ATOM      7  C   UNL     1     -11.615 -35.003  32.387  1.00  0.00    -0.028 C 
ATOM      8  C   UNL     1     -12.159 -33.851  31.933  1.00  0.00    -0.070 CG0
ATOM      9  C   UNL     1     -13.233 -33.200  32.768  1.00  0.00     0.039 C 
ATOM     10  G   UNL     1     -11.733 -33.179  30.637  1.00  0.00     0.000 G0
ENDBRANCH   6   7
ENDBRANCH   5   6
ENDBRANCH   3   5
ENDBRANCH   1   3
BRANCH   1  11
ATOM     11  C   UNL     1     -13.646 -35.663  28.670  1.00  0.00     0.087 C 
BRANCH  11  12
ATOM     12  C   UNL     1     -12.508 -34.618  28.526  1.00  0.00     0.066 C 
BRANCH  12  13
ATOM     13  C   UNL     1     -12.708 -33.460  29.497  1.00  0.00     0.140 C 
ATOM     14  O   UNL     1     -13.717 -32.776  29.395  1.00  0.00    -0.299 OA
BRANCH  13  15
ATOM     15  C   UNL     1     -11.737 -33.179  30.621  1.00  0.00     0.106 CG0
ATOM     16  G   UNL     1     -12.148 -33.855  31.920  1.00  0.00     0.000 G0
ENDBRANCH  13  15
ENDBRANCH  12  13
BRANCH  12  17
ATOM     17  C   UNL     1     -12.324 -34.112  27.059  1.00  0.00    -0.006 C 
ATOM     18  C   UNL     1     -11.369 -35.032  26.274  1.00  0.00     0.008 C 
ATOM     19  C   UNL     1     -13.658 -34.021  26.297  1.00  0.00     0.008 C 
ENDBRANCH  12  17
ENDBRANCH  11  12
ENDBRANCH   1  11
TORSDOF 1
ENDMDL
MODEL 2
REMARK VINA RESULT:    -4.597      1.905      4.154
REMARK INTER + INTRA:          -6.725
REMARK INTER:                  -6.607
REMARK INTRA:                  -0.118
REMARK UNBOUND:                 0.290
REMARK SMILES CC1=CCC[C@H](C)C(=O)C[C@@H](C(C)C)C(=O)C1
REMARK SMILES IDX 8 1 9 2 6 3 7 4 5 5 4 6 3 7 2 8 1 9 10 11 11 12 15 13 16 14
REMARK SMILES IDX 17 15 12 17 13 18 14 19
REMARK H PARENT
REMARK Flexibility Score: 70.00
ROOT
ATOM      1  C   UNL     1     -12.889 -33.484  28.740  1.00  0.00     0.136 C 
ATOM      2  O   UNL     1     -12.867 -32.292  28.460  1.00  0.00    -0.299 OA
ENDROOT
BRANCH   1   3
ATOM      3  C   UNL     1     -11.825 -34.405  28.179  1.00  0.00     0.053 C 
ATOM      4  C   UNL     1     -11.918 -34.467  26.648  1.00  0.00     0.016 C 
BRANCH   3   5
ATOM      5  C   UNL     1     -10.423 -33.937  28.629  1.00  0.00     0.015 C 
BRANCH   5   6
ATOM      6  C   UNL     1     -10.118 -34.334  30.089  1.00  0.00     0.028 C 
BRANCH   6   7
ATOM      7  C   UNL     1     -10.618 -35.721  30.398  1.00  0.00    -0.028 C 
ATOM      8  C   UNL     1     -11.458 -36.037  31.409  1.00  0.00    -0.070 CG0
ATOM      9  C   UNL     1     -11.807 -37.492  31.609  1.00  0.00     0.039 C 
ATOM     10  G   UNL     1     -12.054 -35.007  32.356  1.00  0.00     0.000 G0
ENDBRANCH   6   7
ENDBRANCH   5   6
ENDBRANCH   3   5
ENDBRANCH   1   3
BRANCH   1  11
ATOM     11  C   UNL     1     -13.984 -34.008  29.639  1.00  0.00     0.087 C 
BRANCH  11  12
ATOM     12  C   UNL     1     -13.842 -33.509  31.101  1.00  0.00     0.066 C 
BRANCH  12  13
ATOM     13  C   UNL     1     -13.475 -34.658  32.033  1.00  0.00     0.140 C 
ATOM     14  O   UNL     1     -14.372 -35.358  32.483  1.00  0.00    -0.299 OA
BRANCH  13  15
ATOM     15  C   UNL     1     -12.039 -35.000  32.358  1.00  0.00     0.106 CG0
ATOM     16  G   UNL     1     -11.464 -36.036  31.404  1.00  0.00     0.000 G0
ENDBRANCH  13  15
ENDBRANCH  12  13
BRANCH  12  17
ATOM     17  C   UNL     1     -15.102 -32.738  31.609  1.00  0.00    -0.006 C 
ATOM     18  C   UNL     1     -14.868 -32.166  33.020  1.00  0.00     0.008 C 
ATOM     19  C   UNL     1     -15.504 -31.586  30.672  1.00  0.00     0.008 C 
ENDBRANCH  12  17
ENDBRANCH  11  12
ENDBRANCH   1  11
TORSDOF 1
ENDMDL
MODEL 3
REMARK VINA RESULT:    -4.583      1.578      3.770
REMARK INTER + INTRA:          -6.704
REMARK INTER:                  -7.131
REMARK INTRA:                   0.428
REMARK UNBOUND:                 0.290
REMARK SMILES CC1=CCC[C@H](C)C(=O)C[C@@H](C(C)C)C(=O)C1
REMARK SMILES IDX 8 1 9 2 6 3 7 4 5 5 4 6 3 7 2 8 1 9 10 11 11 12 15 13 16 14
REMARK SMILES IDX 17 15 12 17 13 18 14 19
REMARK H PARENT
REMARK Flexibility Score: 70.00
ROOT
ATOM      1  C   UNL     1     -13.913 -32.736  29.907  1.00  0.00     0.136 C 
ATOM      2  O   UNL     1     -14.516 -31.968  29.168  1.00  0.00    -0.299 OA
ENDROOT
BRANCH   1   3
ATOM      3  C   UNL     1     -14.179 -32.704  31.399  1.00  0.00     0.053 C 
ATOM      4  C   UNL     1     -15.521 -32.018  31.693  1.00  0.00     0.016 C 
BRANCH   3   5
ATOM      5  C   UNL     1     -14.152 -34.137  31.976  1.00  0.00     0.015 C 
BRANCH   5   6
ATOM      6  C   UNL     1     -12.715 -34.631  32.242  1.00  0.00     0.028 C 
BRANCH   6   7
ATOM      7  C   UNL     1     -12.654 -36.135  32.309  1.00  0.00    -0.028 C 
ATOM      8  C   UNL     1     -12.365 -36.949  31.269  1.00  0.00    -0.070 CG0
ATOM      9  C   UNL     1     -12.409 -38.439  31.504  1.00  0.00     0.039 C 
ATOM     10  G   UNL     1     -12.013 -36.439  29.880  1.00  0.00     0.000 G0
ENDBRANCH   6   7
ENDBRANCH   5   6
ENDBRANCH   3   5
ENDBRANCH   1   3
BRANCH   1  11
ATOM     11  C   UNL     1     -12.913 -33.698  29.310  1.00  0.00     0.087 C 
BRANCH  11  12
ATOM     12  C   UNL     1     -13.589 -34.811  28.467  1.00  0.00     0.066 C 
BRANCH  12  13
ATOM     13  C   UNL     1     -13.251 -36.191  29.017  1.00  0.00     0.140 C 
ATOM     14  O   UNL     1     -13.968 -37.136  28.715  1.00  0.00    -0.299 OA
BRANCH  13  15
ATOM     15  C   UNL     1     -12.022 -36.438  29.862  1.00  0.00     0.106 CG0
ATOM     16  G   UNL     1     -12.371 -36.942  31.254  1.00  0.00     0.000 G0
ENDBRANCH  13  15
ENDBRANCH  12  13
BRANCH  12  17
ATOM     17  C   UNL     1     -13.263 -34.705  26.942  1.00  0.00    -0.006 C 
ATOM     18  C   UNL     1     -13.986 -33.503  26.305  1.00  0.00     0.008 C 
ATOM     19  C   UNL     1     -11.755 -34.574  26.671  1.00  0.00     0.008 C 
ENDBRANCH  12  17
ENDBRANCH  11  12
ENDBRANCH   1  11
TORSDOF 1
ENDMDL
MODEL 4
REMARK VINA RESULT:    -4.458      2.127      4.136
REMARK INTER + INTRA:          -6.513
REMARK INTER:                  -6.365
REMARK INTRA:                  -0.148
REMARK UNBOUND:                 0.290
REMARK SMILES CC1=CCC[C@H](C)C(=O)C[C@@H](C(C)C)C(=O)C1
REMARK SMILES IDX 8 1 9 2 6 3 7 4 5 5 4 6 3 7 2 8 1 9 10 11 11 12 15 13 16 14
REMARK SMILES IDX 17 15 12 17 13 18 14 19
REMARK H PARENT
REMARK Flexibility Score: 70.00
ROOT
ATOM      1  C   UNL     1     -13.217 -35.553  31.545  1.00  0.00     0.136 C 
ATOM      2  O   UNL     1     -14.069 -35.892  32.356  1.00  0.00    -0.299 OA
ENDROOT
BRANCH   1   3
ATOM      3  C   UNL     1     -12.489 -36.608  30.737  1.00  0.00     0.053 C 
ATOM      4  C   UNL     1     -11.728 -37.567  31.664  1.00  0.00     0.016 C 
BRANCH   3   5
ATOM      5  C   UNL     1     -13.487 -37.380  29.844  1.00  0.00     0.015 C 
BRANCH   5   6
ATOM      6  C   UNL     1     -14.050 -36.502  28.708  1.00  0.00     0.028 C 
BRANCH   6   7
ATOM      7  C   UNL     1     -12.964 -36.075  27.754  1.00  0.00    -0.028 C 
ATOM      8  C   UNL     1     -12.776 -34.814  27.303  1.00  0.00    -0.070 CG0
ATOM      9  C   UNL     1     -11.673 -34.580  26.301  1.00  0.00     0.039 C 
ATOM     10  G   UNL     1     -13.625 -33.632  27.745  1.00  0.00     0.000 G0
ENDBRANCH   6   7
ENDBRANCH   5   6
ENDBRANCH   3   5
ENDBRANCH   1   3
BRANCH   1  11
ATOM     11  C   UNL     1     -12.910 -34.084  31.372  1.00  0.00     0.087 C 
BRANCH  11  12
ATOM     12  C   UNL     1     -13.875 -33.389  30.375  1.00  0.00     0.066 C 
BRANCH  12  13
ATOM     13  C   UNL     1     -13.163 -33.060  29.069  1.00  0.00     0.140 C 
ATOM     14  O   UNL     1     -12.154 -32.368  29.108  1.00  0.00    -0.299 OA
BRANCH  13  15
ATOM     15  C   UNL     1     -13.622 -33.621  27.742  1.00  0.00     0.106 CG0
ATOM     16  G   UNL     1     -12.781 -34.807  27.295  1.00  0.00     0.000 G0
ENDBRANCH  13  15
ENDBRANCH  12  13
BRANCH  12  17
ATOM     17  C   UNL     1     -14.575 -32.130  30.980  1.00  0.00    -0.006 C 
ATOM     18  C   UNL     1     -15.513 -31.472  29.951  1.00  0.00     0.008 C 
ATOM     19  C   UNL     1     -15.386 -32.458  32.246  1.00  0.00     0.008 C 
ENDBRANCH  12  17
ENDBRANCH  11  12
ENDBRANCH   1  11
TORSDOF 1
ENDMDL
MODEL 5
REMARK VINA RESULT:    -4.393      1.789      4.345
REMARK INTER + INTRA:          -6.414
REMARK INTER:                  -7.351
REMARK INTRA:                   0.938
REMARK UNBOUND:                 0.290
REMARK SMILES CC1=CCC[C@H](C)C(=O)C[C@@H](C(C)C)C(=O)C1
REMARK SMILES IDX 8 1 9 2 6 3 7 4 5 5 4 6 3 7 2 8 1 9 10 11 11 12 15 13 16 14
REMARK SMILES IDX 17 15 12 17 13 18 14 19
REMARK H PARENT
REMARK Flexibility Score: 70.00
ROOT
ATOM      1  C   UNL     1     -12.958 -33.196  28.801  1.00  0.00     0.136 C 
ATOM      2  O   UNL     1     -13.768 -32.279  28.832  1.00  0.00    -0.299 OA
ENDROOT
BRANCH   1   3
ATOM      3  C   UNL     1     -13.128 -34.314  27.792  1.00  0.00     0.053 C 
ATOM      4  C   UNL     1     -11.761 -34.782  27.270  1.00  0.00     0.016 C 
BRANCH   3   5
ATOM      5  C   UNL     1     -13.910 -35.488  28.421  1.00  0.00     0.015 C 
BRANCH   5   6
ATOM      6  C   UNL     1     -13.131 -36.816  28.341  1.00  0.00     0.028 C 
BRANCH   6   7
ATOM      7  C   UNL     1     -13.077 -37.504  29.680  1.00  0.00    -0.028 C 
ATOM      8  C   UNL     1     -12.221 -37.193  30.681  1.00  0.00    -0.070 CG0
ATOM      9  C   UNL     1     -12.267 -38.031  31.935  1.00  0.00     0.039 C 
ATOM     10  G   UNL     1     -11.214 -36.057  30.598  1.00  0.00     0.000 G0
ENDBRANCH   6   7
ENDBRANCH   5   6
ENDBRANCH   3   5
ENDBRANCH   1   3
BRANCH   1  11
ATOM     11  C   UNL     1     -11.805 -33.192  29.778  1.00  0.00     0.087 C 
BRANCH  11  12
ATOM     12  C   UNL     1     -12.223 -33.674  31.192  1.00  0.00     0.066 C 
BRANCH  12  13
ATOM     13  C   UNL     1     -11.471 -34.942  31.578  1.00  0.00     0.140 C 
ATOM     14  O   UNL     1     -11.124 -35.087  32.743  1.00  0.00    -0.299 OA
BRANCH  13  15
ATOM     15  C   UNL     1     -11.208 -36.052  30.586  1.00  0.00     0.106 CG0
ATOM     16  G   UNL     1     -12.231 -37.173  30.691  1.00  0.00     0.000 G0
ENDBRANCH  13  15
ENDBRANCH  12  13
BRANCH  12  17
ATOM     17  C   UNL     1     -13.768 -33.854  31.345  1.00  0.00    -0.006 C 
ATOM     18  C   UNL     1     -14.097 -35.001  32.320  1.00  0.00     0.008 C 
ATOM     19  C   UNL     1     -14.463 -32.573  31.838  1.00  0.00     0.008 C 
ENDBRANCH  12  17
ENDBRANCH  11  12
ENDBRANCH   1  11
TORSDOF 1
ENDMDL
MODEL 6
REMARK VINA RESULT:    -4.316      1.901      4.035
REMARK INTER + INTRA:          -6.296
REMARK INTER:                  -7.113
REMARK INTRA:                   0.817
REMARK UNBOUND:                 0.290
REMARK SMILES CC1=CCC[C@H](C)C(=O)C[C@@H](C(C)C)C(=O)C1
REMARK SMILES IDX 8 1 9 2 6 3 7 4 5 5 4 6 3 7 2 8 1 9 10 11 11 12 15 13 16 14
REMARK SMILES IDX 17 15 12 17 13 18 14 19
REMARK H PARENT
REMARK Flexibility Score: 70.00
ROOT
ATOM      1  C   UNL     1     -10.928 -34.417  28.920  1.00  0.00     0.136 C 
ATOM      2  O   UNL     1      -9.945 -33.795  29.300  1.00  0.00    -0.299 OA
ENDROOT
BRANCH   1   3
ATOM      3  C   UNL     1     -11.764 -33.874  27.779  1.00  0.00     0.053 C 
ATOM      4  C   UNL     1     -11.688 -34.809  26.563  1.00  0.00     0.016 C 
BRANCH   3   5
ATOM      5  C   UNL     1     -13.228 -33.680  28.235  1.00  0.00     0.015 C 
BRANCH   5   6
ATOM      6  C   UNL     1     -13.417 -32.385  29.050  1.00  0.00     0.028 C 
BRANCH   6   7
ATOM      7  C   UNL     1     -14.380 -32.588  30.191  1.00  0.00    -0.028 C 
ATOM      8  C   UNL     1     -14.043 -33.020  31.427  1.00  0.00    -0.070 CG0
ATOM      9  C   UNL     1     -15.151 -33.226  32.430  1.00  0.00     0.039 C 
ATOM     10  G   UNL     1     -12.612 -33.319  31.848  1.00  0.00     0.000 G0
ENDBRANCH   6   7
ENDBRANCH   5   6
ENDBRANCH   3   5
ENDBRANCH   1   3
BRANCH   1  11
ATOM     11  C   UNL     1     -11.286 -35.716  29.605  1.00  0.00     0.087 C 
BRANCH  11  12
ATOM     12  C   UNL     1     -12.560 -35.593  30.481  1.00  0.00     0.066 C 
BRANCH  12  13
ATOM     13  C   UNL     1     -12.273 -34.797  31.749  1.00  0.00     0.140 C 
ATOM     14  O   UNL     1     -11.695 -35.353  32.673  1.00  0.00    -0.299 OA
BRANCH  13  15
ATOM     15  C   UNL     1     -12.615 -33.330  31.869  1.00  0.00     0.106 CG0
ATOM     16  G   UNL     1     -14.044 -33.034  31.441  1.00  0.00     0.000 G0
ENDBRANCH  13  15
ENDBRANCH  12  13
BRANCH  12  17
ATOM     17  C   UNL     1     -13.213 -36.975  30.807  1.00  0.00    -0.006 C 
ATOM     18  C   UNL     1     -13.692 -37.676  29.521  1.00  0.00     0.008 C 
ATOM     19  C   UNL     1     -12.253 -37.918  31.553  1.00  0.00     0.008 C 
ENDBRANCH  12  17
ENDBRANCH  11  12
ENDBRANCH   1  11
TORSDOF 1
ENDMDL
MODEL 7
REMARK VINA RESULT:    -4.167      2.045      3.307
REMARK INTER + INTRA:          -6.069
REMARK INTER:                  -6.782
REMARK INTRA:                   0.713
REMARK UNBOUND:                 0.290
REMARK SMILES CC1=CCC[C@H](C)C(=O)C[C@@H](C(C)C)C(=O)C1
REMARK SMILES IDX 8 1 9 2 6 3 7 4 5 5 4 6 3 7 2 8 1 9 10 11 11 12 15 13 16 14
REMARK SMILES IDX 17 15 12 17 13 18 14 19
REMARK H PARENT
REMARK Flexibility Score: 70.00
ROOT
ATOM      1  C   UNL     1     -14.237 -32.433  30.211  1.00  0.00     0.136 C 
ATOM      2  O   UNL     1     -15.231 -31.769  29.949  1.00  0.00    -0.299 OA
ENDROOT
BRANCH   1   3
ATOM      3  C   UNL     1     -14.057 -32.994  31.607  1.00  0.00     0.053 C 
ATOM      4  C   UNL     1     -15.104 -32.407  32.563  1.00  0.00     0.016 C 
BRANCH   3   5
ATOM      5  C   UNL     1     -14.140 -34.537  31.577  1.00  0.00     0.015 C 
BRANCH   5   6
ATOM      6  C   UNL     1     -12.969 -35.198  32.334  1.00  0.00     0.028 C 
BRANCH   6   7
ATOM      7  C   UNL     1     -11.959 -34.175  32.784  1.00  0.00    -0.028 C 
ATOM      8  C   UNL     1     -10.804 -33.887  32.142  1.00  0.00    -0.070 CG0
ATOM      9  C   UNL     1      -9.879 -32.874  32.771  1.00  0.00     0.039 C 
ATOM     10  G   UNL     1     -10.390 -34.539  30.832  1.00  0.00     0.000 G0
ENDBRANCH   6   7
ENDBRANCH   5   6
ENDBRANCH   3   5
ENDBRANCH   1   3
BRANCH   1  11
ATOM     11  C   UNL     1     -13.208 -32.675  29.131  1.00  0.00     0.087 C 
BRANCH  11  12
ATOM     12  C   UNL     1     -12.493 -34.043  29.287  1.00  0.00     0.066 C 
BRANCH  12  13
ATOM     13  C   UNL     1     -11.021 -33.850  29.632  1.00  0.00     0.140 C 
ATOM     14  O   UNL     1     -10.355 -33.080  28.953  1.00  0.00    -0.299 OA
BRANCH  13  15
ATOM     15  C   UNL     1     -10.383 -34.522  30.826  1.00  0.00     0.106 CG0
ATOM     16  G   UNL     1     -10.799 -33.880  32.140  1.00  0.00     0.000 G0
ENDBRANCH  13  15
ENDBRANCH  12  13
BRANCH  12  17
ATOM     17  C   UNL     1     -12.674 -34.972  28.044  1.00  0.00    -0.006 C 
ATOM     18  C   UNL     1     -13.724 -36.065  28.321  1.00  0.00     0.008 C 
ATOM     19  C   UNL     1     -13.093 -34.194  26.784  1.00  0.00     0.008 C 
ENDBRANCH  12  17
ENDBRANCH  11  12
ENDBRANCH   1  11
TORSDOF 1
ENDMDL
MODEL 8
REMARK VINA RESULT:    -4.100      1.738      3.426
REMARK INTER + INTRA:          -5.967
REMARK INTER:                  -7.118
REMARK INTRA:                   1.151
REMARK UNBOUND:                 0.290
REMARK SMILES CC1=CCC[C@H](C)C(=O)C[C@@H](C(C)C)C(=O)C1
REMARK SMILES IDX 8 1 9 2 6 3 7 4 5 5 4 6 3 7 2 8 1 9 10 11 11 12 15 13 16 14
REMARK SMILES IDX 17 15 12 17 13 18 14 19
REMARK H PARENT
REMARK Flexibility Score: 70.00
ROOT
ATOM      1  C   UNL     1     -12.938 -34.402  27.973  1.00  0.00     0.136 C 
ATOM      2  O   UNL     1     -13.825 -34.265  27.141  1.00  0.00    -0.299 OA
ENDROOT
BRANCH   1   3
ATOM      3  C   UNL     1     -11.569 -34.884  27.536  1.00  0.00     0.053 C 
ATOM      4  C   UNL     1     -11.393 -34.706  26.021  1.00  0.00     0.016 C 
BRANCH   3   5
ATOM      5  C   UNL     1     -10.465 -34.132  28.312  1.00  0.00     0.015 C 
BRANCH   5   6
ATOM      6  C   UNL     1      -9.981 -34.922  29.546  1.00  0.00     0.028 C 
BRANCH   6   7
ATOM      7  C   UNL     1     -10.019 -34.073  30.791  1.00  0.00    -0.028 C 
ATOM      8  C   UNL     1     -10.771 -34.330  31.886  1.00  0.00    -0.070 CG0
ATOM      9  C   UNL     1     -10.731 -33.336  33.020  1.00  0.00     0.039 C 
ATOM     10  G   UNL     1     -11.658 -35.558  32.022  1.00  0.00     0.000 G0
ENDBRANCH   6   7
ENDBRANCH   5   6
ENDBRANCH   3   5
ENDBRANCH   1   3
BRANCH   1  11
ATOM     11  C   UNL     1     -13.232 -34.089  29.421  1.00  0.00     0.087 C 
BRANCH  11  12
ATOM     12  C   UNL     1     -13.631 -35.350  30.232  1.00  0.00     0.066 C 
BRANCH  12  13
ATOM     13  C   UNL     1     -13.113 -35.261  31.663  1.00  0.00     0.140 C 
ATOM     14  O   UNL     1     -13.905 -35.008  32.560  1.00  0.00    -0.299 OA
BRANCH  13  15
ATOM     15  C   UNL     1     -11.670 -35.548  32.012  1.00  0.00     0.106 CG0
ATOM     16  G   UNL     1     -10.787 -34.318  31.868  1.00  0.00     0.000 G0
ENDBRANCH  13  15
ENDBRANCH  12  13
BRANCH  12  17
ATOM     17  C   UNL     1     -13.194 -36.683  29.545  1.00  0.00    -0.006 C 
ATOM     18  C   UNL     1     -12.865 -37.762  30.593  1.00  0.00     0.008 C 
ATOM     19  C   UNL     1     -14.269 -37.233  28.591  1.00  0.00     0.008 C 
ENDBRANCH  12  17
ENDBRANCH  11  12
ENDBRANCH   1  11
TORSDOF 1
ENDMDL
MODEL 9
REMARK VINA RESULT:    -3.901      1.929      4.033
REMARK INTER + INTRA:          -5.663
REMARK INTER:                  -6.358
REMARK INTRA:                   0.695
REMARK UNBOUND:                 0.290
REMARK SMILES CC1=CCC[C@H](C)C(=O)C[C@@H](C(C)C)C(=O)C1
REMARK SMILES IDX 8 1 9 2 6 3 7 4 5 5 4 6 3 7 2 8 1 9 10 11 11 12 15 13 16 14
REMARK SMILES IDX 17 15 12 17 13 18 14 19
REMARK H PARENT
REMARK Flexibility Score: 70.00
ROOT
ATOM      1  C   UNL     1     -11.829 -34.915  32.086  1.00  0.00     0.136 C 
ATOM      2  O   UNL     1     -11.231 -35.793  32.694  1.00  0.00    -0.299 OA
ENDROOT
BRANCH   1   3
ATOM      3  C   UNL     1     -11.294 -33.497  32.098  1.00  0.00     0.053 C 
ATOM      4  C   UNL     1     -11.142 -32.991  33.539  1.00  0.00     0.016 C 
BRANCH   3   5
ATOM      5  C   UNL     1      -9.947 -33.428  31.344  1.00  0.00     0.015 C 
BRANCH   5   6
ATOM      6  C   UNL     1     -10.139 -33.391  29.813  1.00  0.00     0.028 C 
BRANCH   6   7
ATOM      7  C   UNL     1     -11.426 -32.704  29.437  1.00  0.00    -0.028 C 
ATOM      8  C   UNL     1     -12.397 -33.242  28.664  1.00  0.00    -0.070 CG0
ATOM      9  C   UNL     1     -13.595 -32.384  28.338  1.00  0.00     0.039 C 
ATOM     10  G   UNL     1     -12.334 -34.653  28.101  1.00  0.00     0.000 G0
ENDBRANCH   6   7
ENDBRANCH   5   6
ENDBRANCH   3   5
ENDBRANCH   1   3
BRANCH   1  11
ATOM     11  C   UNL     1     -13.093 -35.268  31.338  1.00  0.00     0.087 C 
BRANCH  11  12
ATOM     12  C   UNL     1     -12.834 -36.250  30.164  1.00  0.00     0.066 C 
BRANCH  12  13
ATOM     13  C   UNL     1     -13.231 -35.622  28.833  1.00  0.00     0.140 C 
ATOM     14  O   UNL     1     -14.340 -35.866  28.376  1.00  0.00    -0.299 OA
BRANCH  13  15
ATOM     15  C   UNL     1     -12.329 -34.654  28.102  1.00  0.00     0.106 CG0
ATOM     16  G   UNL     1     -12.410 -33.247  28.673  1.00  0.00     0.000 G0
ENDBRANCH  13  15
ENDBRANCH  12  13
BRANCH  12  17
ATOM     17  C   UNL     1     -13.516 -37.640  30.369  1.00  0.00    -0.006 C 
ATOM     18  C   UNL     1     -13.630 -38.401  29.034  1.00  0.00     0.008 C 
ATOM     19  C   UNL     1     -12.761 -38.523  31.377  1.00  0.00     0.008 C 
ENDBRANCH  12  17
ENDBRANCH  11  12
ENDBRANCH   1  11
TORSDOF 1
ENDMDL
