MODEL 1
REMARK VINA RESULT:    -3.420      0.000      0.000
REMARK INTER + INTRA:          -5.407
REMARK INTER:                  -5.219
REMARK INTRA:                  -0.188
REMARK UNBOUND:                -0.188
REMARK SMILES CC1=CCC[C@@H](C)C(=O)C[C@H](C(C)C)C(=O)C1
REMARK SMILES IDX 8 1 9 2 6 3 7 4 5 5 4 6 3 7 2 8 1 9 10 11 11 12 15 13 16 14
REMARK SMILES IDX 17 15 12 17 13 18 14 19
REMARK H PARENT
REMARK Flexibility Score: 70.00
ROOT
ATOM      1  C   UNL     1     142.294 134.303 123.848  1.00  0.00     0.136 C 
ATOM      2  O   UNL     1     141.674 134.833 124.762  1.00  0.00    -0.299 OA
ENDROOT
BRANCH   1   3
ATOM      3  C   UNL     1     143.715 133.815 124.073  1.00  0.00     0.053 C 
ATOM      4  C   UNL     1     143.795 132.692 125.119  1.00  0.00     0.016 C 
BRANCH   3   5
ATOM      5  C   UNL     1     144.702 134.968 124.383  1.00  0.00     0.015 C 
BRANCH   5   6
ATOM      6  C   UNL     1     145.082 135.901 123.211  1.00  0.00     0.028 C 
BRANCH   6   7
ATOM      7  C   UNL     1     144.255 137.159 123.077  1.00  0.00    -0.028 C 
ATOM      8  C   UNL     1     143.359 137.423 122.099  1.00  0.00    -0.070 CG0
ATOM      9  C   UNL     1     142.693 138.778 122.098  1.00  0.00     0.039 C 
ATOM     10  G   UNL     1     143.007 136.439 121.000  1.00  0.00     0.000 G0
ENDBRANCH   6   7
ENDBRANCH   5   6
ENDBRANCH   3   5
ENDBRANCH   1   3
BRANCH   1  11
ATOM     11  C   UNL     1     141.602 134.113 122.518  1.00  0.00     0.087 C 
BRANCH  11  12
ATOM     12  C   UNL     1     140.797 135.371 122.092  1.00  0.00     0.066 C 
BRANCH  12  13
ATOM     13  C   UNL     1     141.522 136.054 120.940  1.00  0.00     0.140 C 
ATOM     14  O   UNL     1     140.881 136.388 119.954  1.00  0.00    -0.299 OA
BRANCH  13  15
ATOM     15  C   UNL     1     142.988 136.414 120.995  1.00  0.00     0.106 CG0
ATOM     16  G   UNL     1     143.322 137.417 122.082  1.00  0.00     0.000 G0
ENDBRANCH  13  15
ENDBRANCH  12  13
BRANCH  12  17
ATOM     17  C   UNL     1     139.321 135.041 121.693  1.00  0.00    -0.006 C 
ATOM     18  C   UNL     1     138.898 133.626 122.132  1.00  0.00     0.008 C 
ATOM     19  C   UNL     1     138.339 136.059 122.306  1.00  0.00     0.008 C 
ENDBRANCH  12  17
ENDBRANCH  11  12
ENDBRANCH   1  11
TORSDOF 1
ENDMDL
MODEL 2
REMARK VINA RESULT:    -3.377      1.898      4.205
REMARK INTER + INTRA:          -5.343
REMARK INTER:                  -5.180
REMARK INTRA:                  -0.163
REMARK UNBOUND:                -0.188
REMARK SMILES CC1=CCC[C@@H](C)C(=O)C[C@H](C(C)C)C(=O)C1
REMARK SMILES IDX 8 1 9 2 6 3 7 4 5 5 4 6 3 7 2 8 1 9 10 11 11 12 15 13 16 14
REMARK SMILES IDX 17 15 12 17 13 18 14 19
REMARK H PARENT
REMARK Flexibility Score: 70.00
ROOT
ATOM      1  C   UNL     1     141.053 134.126 123.766  1.00  0.00     0.136 C 
ATOM      2  O   UNL     1     141.556 133.176 124.352  1.00  0.00    -0.299 OA
ENDROOT
BRANCH   1   3
ATOM      3  C   UNL     1     139.573 134.113 123.422  1.00  0.00     0.053 C 
ATOM      4  C   UNL     1     139.238 133.119 122.298  1.00  0.00     0.016 C 
BRANCH   3   5
ATOM      5  C   UNL     1     139.013 135.527 123.130  1.00  0.00     0.015 C 
BRANCH   5   6
ATOM      6  C   UNL     1     138.370 135.756 121.744  1.00  0.00     0.028 C 
BRANCH   6   7
ATOM      7  C   UNL     1     138.677 137.081 121.086  1.00  0.00    -0.028 C 
ATOM      8  C   UNL     1     139.809 137.394 120.415  1.00  0.00    -0.070 CG0
ATOM      9  C   UNL     1     139.957 138.805 119.899  1.00  0.00     0.039 C 
ATOM     10  G   UNL     1     140.938 136.410 120.175  1.00  0.00     0.000 G0
ENDBRANCH   6   7
ENDBRANCH   5   6
ENDBRANCH   3   5
ENDBRANCH   1   3
BRANCH   1  11
ATOM     11  C   UNL     1     141.922 135.317 123.434  1.00  0.00     0.087 C 
BRANCH  11  12
ATOM     12  C   UNL     1     142.501 135.235 121.994  1.00  0.00     0.066 C 
BRANCH  12  13
ATOM     13  C   UNL     1     142.055 136.464 121.214  1.00  0.00     0.140 C 
ATOM     14  O   UNL     1     142.650 137.519 121.384  1.00  0.00    -0.299 OA
BRANCH  13  15
ATOM     15  C   UNL     1     140.963 136.420 120.171  1.00  0.00     0.106 CG0
ATOM     16  G   UNL     1     139.833 137.394 120.441  1.00  0.00     0.000 G0
ENDBRANCH  13  15
ENDBRANCH  12  13
BRANCH  12  17
ATOM     17  C   UNL     1     144.059 135.106 121.973  1.00  0.00    -0.006 C 
ATOM     18  C   UNL     1     144.665 135.090 123.390  1.00  0.00     0.008 C 
ATOM     19  C   UNL     1     144.501 133.826 121.236  1.00  0.00     0.008 C 
ENDBRANCH  12  17
ENDBRANCH  11  12
ENDBRANCH   1  11
TORSDOF 1
ENDMDL
MODEL 3
REMARK VINA RESULT:    -3.354     13.667     16.689
REMARK INTER + INTRA:          -5.307
REMARK INTER:                  -5.319
REMARK INTRA:                   0.012
REMARK UNBOUND:                -0.188
REMARK SMILES CC1=CCC[C@@H](C)C(=O)C[C@H](C(C)C)C(=O)C1
REMARK SMILES IDX 8 1 9 2 6 3 7 4 5 5 4 6 3 7 2 8 1 9 10 11 11 12 15 13 16 14
REMARK SMILES IDX 17 15 12 17 13 18 14 19
REMARK H PARENT
REMARK Flexibility Score: 70.00
ROOT
ATOM      1  C   UNL     1     130.276 140.281 115.800  1.00  0.00     0.136 C 
ATOM      2  O   UNL     1     130.890 141.309 115.546  1.00  0.00    -0.299 OA
ENDROOT
BRANCH   1   3
ATOM      3  C   UNL     1     130.995 138.943 115.802  1.00  0.00     0.053 C 
ATOM      4  C   UNL     1     132.512 139.088 116.000  1.00  0.00     0.016 C 
BRANCH   3   5
ATOM      5  C   UNL     1     130.653 138.077 114.564  1.00  0.00     0.015 C 
BRANCH   5   6
ATOM      6  C   UNL     1     129.536 137.022 114.732  1.00  0.00     0.028 C 
BRANCH   6   7
ATOM      7  C   UNL     1     128.458 137.030 113.672  1.00  0.00    -0.028 C 
ATOM      8  C   UNL     1     127.294 137.716 113.725  1.00  0.00    -0.070 CG0
ATOM      9  C   UNL     1     126.310 137.525 112.596  1.00  0.00     0.039 C 
ATOM     10  G   UNL     1     126.922 138.646 114.863  1.00  0.00     0.000 G0
ENDBRANCH   6   7
ENDBRANCH   5   6
ENDBRANCH   3   5
ENDBRANCH   1   3
BRANCH   1  11
ATOM     11  C   UNL     1     128.808 140.381 116.147  1.00  0.00     0.087 C 
BRANCH  11  12
ATOM     12  C   UNL     1     127.994 141.107 115.040  1.00  0.00     0.066 C 
BRANCH  12  13
ATOM     13  C   UNL     1     126.975 140.135 114.460  1.00  0.00     0.140 C 
ATOM     14  O   UNL     1     126.208 140.530 113.594  1.00  0.00    -0.299 OA
BRANCH  13  15
ATOM     15  C   UNL     1     126.925 138.675 114.847  1.00  0.00     0.106 CG0
ATOM     16  G   UNL     1     127.321 137.739 113.722  1.00  0.00     0.000 G0
ENDBRANCH  13  15
ENDBRANCH  12  13
BRANCH  12  17
ATOM     17  C   UNL     1     127.284 142.400 115.560  1.00  0.00    -0.006 C 
ATOM     18  C   UNL     1     126.595 142.184 116.921  1.00  0.00     0.008 C 
ATOM     19  C   UNL     1     128.285 143.565 115.697  1.00  0.00     0.008 C 
ENDBRANCH  12  17
ENDBRANCH  11  12
ENDBRANCH   1  11
TORSDOF 1
ENDMDL
MODEL 4
REMARK VINA RESULT:    -3.305      2.040      4.823
REMARK INTER + INTRA:          -5.232
REMARK INTER:                  -4.912
REMARK INTRA:                  -0.320
REMARK UNBOUND:                -0.188
REMARK SMILES CC1=CCC[C@@H](C)C(=O)C[C@H](C(C)C)C(=O)C1
REMARK SMILES IDX 8 1 9 2 6 3 7 4 5 5 4 6 3 7 2 8 1 9 10 11 11 12 15 13 16 14
REMARK SMILES IDX 17 15 12 17 13 18 14 19
REMARK H PARENT
REMARK Flexibility Score: 70.00
ROOT
ATOM      1  C   UNL     1     138.527 136.360 120.398  1.00  0.00     0.136 C 
ATOM      2  O   UNL     1     137.788 136.933 119.608  1.00  0.00    -0.299 OA
ENDROOT
BRANCH   1   3
ATOM      3  C   UNL     1     137.940 135.503 121.507  1.00  0.00     0.053 C 
ATOM      4  C   UNL     1     137.615 136.314 122.771  1.00  0.00     0.016 C 
BRANCH   3   5
ATOM      5  C   UNL     1     138.808 134.259 121.824  1.00  0.00     0.015 C 
BRANCH   5   6
ATOM      6  C   UNL     1     139.403 134.163 123.247  1.00  0.00     0.028 C 
BRANCH   6   7
ATOM      7  C   UNL     1     140.882 133.860 123.323  1.00  0.00    -0.028 C 
ATOM      8  C   UNL     1     141.883 134.770 123.323  1.00  0.00    -0.070 CG0
ATOM      9  C   UNL     1     143.303 134.257 123.323  1.00  0.00     0.039 C 
ATOM     10  G   UNL     1     141.651 136.268 123.305  1.00  0.00     0.000 G0
ENDBRANCH   6   7
ENDBRANCH   5   6
ENDBRANCH   3   5
ENDBRANCH   1   3
BRANCH   1  11
ATOM     11  C   UNL     1     140.022 136.493 120.220  1.00  0.00     0.087 C 
BRANCH  11  12
ATOM     12  C   UNL     1     140.635 137.542 121.188  1.00  0.00     0.066 C 
BRANCH  12  13
ATOM     13  C   UNL     1     141.803 136.904 121.928  1.00  0.00     0.140 C 
ATOM     14  O   UNL     1     142.916 136.947 121.423  1.00  0.00    -0.299 OA
BRANCH  13  15
ATOM     15  C   UNL     1     141.666 136.294 123.303  1.00  0.00     0.106 CG0
ATOM     16  G   UNL     1     141.870 134.791 123.319  1.00  0.00     0.000 G0
ENDBRANCH  13  15
ENDBRANCH  12  13
BRANCH  12  17
ATOM     17  C   UNL     1     141.094 138.846 120.458  1.00  0.00    -0.006 C 
ATOM     18  C   UNL     1     141.035 138.711 118.924  1.00  0.00     0.008 C 
ATOM     19  C   UNL     1     140.228 140.051 120.877  1.00  0.00     0.008 C 
ENDBRANCH  12  17
ENDBRANCH  11  12
ENDBRANCH   1  11
TORSDOF 1
ENDMDL
MODEL 5
REMARK VINA RESULT:    -3.244     12.362     15.460
REMARK INTER + INTRA:          -5.139
REMARK INTER:                  -4.839
REMARK INTRA:                  -0.300
REMARK UNBOUND:                -0.188
REMARK SMILES CC1=CCC[C@@H](C)C(=O)C[C@H](C(C)C)C(=O)C1
REMARK SMILES IDX 8 1 9 2 6 3 7 4 5 5 4 6 3 7 2 8 1 9 10 11 11 12 15 13 16 14
REMARK SMILES IDX 17 15 12 17 13 18 14 19
REMARK H PARENT
REMARK Flexibility Score: 70.00
ROOT
ATOM      1  C   UNL     1     127.835 141.091 115.409  1.00  0.00     0.136 C 
ATOM      2  O   UNL     1     127.268 140.881 114.345  1.00  0.00    -0.299 OA
ENDROOT
BRANCH   1   3
ATOM      3  C   UNL     1     128.171 142.513 115.827  1.00  0.00     0.053 C 
ATOM      4  C   UNL     1     126.949 143.444 115.787  1.00  0.00     0.016 C 
BRANCH   3   5
ATOM      5  C   UNL     1     129.372 143.099 115.043  1.00  0.00     0.015 C 
BRANCH   5   6
ATOM      6  C   UNL     1     130.582 142.166 114.812  1.00  0.00     0.028 C 
BRANCH   6   7
ATOM      7  C   UNL     1     131.481 141.945 116.007  1.00  0.00    -0.028 C 
ATOM      8  C   UNL     1     131.925 140.750 116.460  1.00  0.00    -0.070 CG0
ATOM      9  C   UNL     1     132.752 140.737 117.723  1.00  0.00     0.039 C 
ATOM     10  G   UNL     1     131.620 139.431 115.777  1.00  0.00     0.000 G0
ENDBRANCH   6   7
ENDBRANCH   5   6
ENDBRANCH   3   5
ENDBRANCH   1   3
BRANCH   1  11
ATOM     11  C   UNL     1     128.153 139.917 116.306  1.00  0.00     0.087 C 
BRANCH  11  12
ATOM     12  C   UNL     1     129.018 138.847 115.584  1.00  0.00     0.066 C 
BRANCH  12  13
ATOM     13  C   UNL     1     130.365 138.746 116.287  1.00  0.00     0.140 C 
ATOM     14  O   UNL     1     130.464 138.030 117.274  1.00  0.00    -0.299 OA
BRANCH  13  15
ATOM     15  C   UNL     1     131.611 139.425 115.770  1.00  0.00     0.106 CG0
ATOM     16  G   UNL     1     131.915 140.739 116.465  1.00  0.00     0.000 G0
ENDBRANCH  13  15
ENDBRANCH  12  13
BRANCH  12  17
ATOM     17  C   UNL     1     128.325 137.447 115.522  1.00  0.00    -0.006 C 
ATOM     18  C   UNL     1     127.099 137.359 116.451  1.00  0.00     0.008 C 
ATOM     19  C   UNL     1     127.876 137.112 114.085  1.00  0.00     0.008 C 
ENDBRANCH  12  17
ENDBRANCH  11  12
ENDBRANCH   1  11
TORSDOF 1
ENDMDL
MODEL 6
REMARK VINA RESULT:    -3.223      1.652      4.085
REMARK INTER + INTRA:          -5.108
REMARK INTER:                  -4.752
REMARK INTRA:                  -0.356
REMARK UNBOUND:                -0.188
REMARK SMILES CC1=CCC[C@@H](C)C(=O)C[C@H](C(C)C)C(=O)C1
REMARK SMILES IDX 8 1 9 2 6 3 7 4 5 5 4 6 3 7 2 8 1 9 10 11 11 12 15 13 16 14
REMARK SMILES IDX 17 15 12 17 13 18 14 19
REMARK H PARENT
REMARK Flexibility Score: 70.00
ROOT
ATOM      1  C   UNL     1     140.434 134.604 123.541  1.00  0.00     0.136 C 
ATOM      2  O   UNL     1     140.089 133.432 123.460  1.00  0.00    -0.299 OA
ENDROOT
BRANCH   1   3
ATOM      3  C   UNL     1     139.669 135.678 122.786  1.00  0.00     0.053 C 
ATOM      4  C   UNL     1     138.184 135.730 123.176  1.00  0.00     0.016 C 
BRANCH   3   5
ATOM      5  C   UNL     1     139.863 135.584 121.252  1.00  0.00     0.015 C 
BRANCH   5   6
ATOM      6  C   UNL     1     141.077 136.325 120.650  1.00  0.00     0.028 C 
BRANCH   6   7
ATOM      7  C   UNL     1     141.451 137.627 121.320  1.00  0.00    -0.028 C 
ATOM      8  C   UNL     1     142.580 137.865 122.027  1.00  0.00    -0.070 CG0
ATOM      9  C   UNL     1     142.728 139.214 122.688  1.00  0.00     0.039 C 
ATOM     10  G   UNL     1     143.686 136.843 122.204  1.00  0.00     0.000 G0
ENDBRANCH   6   7
ENDBRANCH   5   6
ENDBRANCH   3   5
ENDBRANCH   1   3
BRANCH   1  11
ATOM     11  C   UNL     1     141.601 134.955 124.434  1.00  0.00     0.087 C 
BRANCH  11  12
ATOM     12  C   UNL     1     142.965 134.766 123.714  1.00  0.00     0.066 C 
BRANCH  12  13
ATOM     13  C   UNL     1     143.624 136.128 123.542  1.00  0.00     0.140 C 
ATOM     14  O   UNL     1     144.186 136.638 124.501  1.00  0.00    -0.299 OA
BRANCH  13  15
ATOM     15  C   UNL     1     143.690 136.843 122.212  1.00  0.00     0.106 CG0
ATOM     16  G   UNL     1     142.579 137.856 122.017  1.00  0.00     0.000 G0
ENDBRANCH  13  15
ENDBRANCH  12  13
BRANCH  12  17
ATOM     17  C   UNL     1     143.920 133.786 124.472  1.00  0.00    -0.006 C 
ATOM     18  C   UNL     1     143.165 132.593 125.090  1.00  0.00     0.008 C 
ATOM     19  C   UNL     1     145.015 133.241 123.534  1.00  0.00     0.008 C 
ENDBRANCH  12  17
ENDBRANCH  11  12
ENDBRANCH   1  11
TORSDOF 1
ENDMDL
MODEL 7
REMARK VINA RESULT:    -3.206      2.383      4.594
REMARK INTER + INTRA:          -5.081
REMARK INTER:                  -4.738
REMARK INTRA:                  -0.344
REMARK UNBOUND:                -0.188
REMARK SMILES CC1=CCC[C@@H](C)C(=O)C[C@H](C(C)C)C(=O)C1
REMARK SMILES IDX 8 1 9 2 6 3 7 4 5 5 4 6 3 7 2 8 1 9 10 11 11 12 15 13 16 14
REMARK SMILES IDX 17 15 12 17 13 18 14 19
REMARK H PARENT
REMARK Flexibility Score: 70.00
ROOT
ATOM      1  C   UNL     1     143.132 136.448 125.272  1.00  0.00     0.136 C 
ATOM      2  O   UNL     1     143.734 136.327 126.331  1.00  0.00    -0.299 OA
ENDROOT
BRANCH   1   3
ATOM      3  C   UNL     1     141.818 137.209 125.224  1.00  0.00     0.053 C 
ATOM      4  C   UNL     1     141.944 138.639 125.775  1.00  0.00     0.016 C 
BRANCH   3   5
ATOM      5  C   UNL     1     140.652 136.434 125.887  1.00  0.00     0.015 C 
BRANCH   5   6
ATOM      6  C   UNL     1     139.700 135.661 124.948  1.00  0.00     0.028 C 
BRANCH   6   7
ATOM      7  C   UNL     1     139.720 136.082 123.497  1.00  0.00    -0.028 C 
ATOM      8  C   UNL     1     140.318 135.417 122.482  1.00  0.00    -0.070 CG0
ATOM      9  C   UNL     1     140.294 136.048 121.112  1.00  0.00     0.039 C 
ATOM     10  G   UNL     1     141.023 134.085 122.656  1.00  0.00     0.000 G0
ENDBRANCH   6   7
ENDBRANCH   5   6
ENDBRANCH   3   5
ENDBRANCH   1   3
BRANCH   1  11
ATOM     11  C   UNL     1     143.742 135.862 124.020  1.00  0.00     0.087 C 
BRANCH  11  12
ATOM     12  C   UNL     1     143.393 134.358 123.848  1.00  0.00     0.066 C 
BRANCH  12  13
ATOM     13  C   UNL     1     142.538 134.190 122.599  1.00  0.00     0.140 C 
ATOM     14  O   UNL     1     143.094 134.064 121.516  1.00  0.00    -0.299 OA
BRANCH  13  15
ATOM     15  C   UNL     1     141.032 134.086 122.646  1.00  0.00     0.106 CG0
ATOM     16  G   UNL     1     140.330 135.419 122.471  1.00  0.00     0.000 G0
ENDBRANCH  13  15
ENDBRANCH  12  13
BRANCH  12  17
ATOM     17  C   UNL     1     144.661 133.445 123.773  1.00  0.00    -0.006 C 
ATOM     18  C   UNL     1     145.968 134.243 123.944  1.00  0.00     0.008 C 
ATOM     19  C   UNL     1     144.615 132.341 124.848  1.00  0.00     0.008 C 
ENDBRANCH  12  17
ENDBRANCH  11  12
ENDBRANCH   1  11
TORSDOF 1
ENDMDL
MODEL 8
REMARK VINA RESULT:    -3.148      4.334      6.813
REMARK INTER + INTRA:          -4.993
REMARK INTER:                  -5.076
REMARK INTRA:                   0.084
REMARK UNBOUND:                -0.188
REMARK SMILES CC1=CCC[C@@H](C)C(=O)C[C@H](C(C)C)C(=O)C1
REMARK SMILES IDX 8 1 9 2 6 3 7 4 5 5 4 6 3 7 2 8 1 9 10 11 11 12 15 13 16 14
REMARK SMILES IDX 17 15 12 17 13 18 14 19
REMARK H PARENT
REMARK Flexibility Score: 70.00
ROOT
ATOM      1  C   UNL     1     137.703 139.424 118.161  1.00  0.00     0.136 C 
ATOM      2  O   UNL     1     137.258 138.575 117.399  1.00  0.00    -0.299 OA
ENDROOT
BRANCH   1   3
ATOM      3  C   UNL     1     137.901 140.851 117.679  1.00  0.00     0.053 C 
ATOM      4  C   UNL     1     136.692 141.383 116.895  1.00  0.00     0.016 C 
BRANCH   3   5
ATOM      5  C   UNL     1     139.226 141.041 116.899  1.00  0.00     0.015 C 
BRANCH   5   6
ATOM      6  C   UNL     1     140.422 140.159 117.321  1.00  0.00     0.028 C 
BRANCH   6   7
ATOM      7  C   UNL     1     141.018 140.461 118.677  1.00  0.00    -0.028 C 
ATOM      8  C   UNL     1     141.285 139.560 119.649  1.00  0.00    -0.070 CG0
ATOM      9  C   UNL     1     141.806 140.077 120.968  1.00  0.00     0.039 C 
ATOM     10  G   UNL     1     141.072 138.067 119.487  1.00  0.00     0.000 G0
ENDBRANCH   6   7
ENDBRANCH   5   6
ENDBRANCH   3   5
ENDBRANCH   1   3
BRANCH   1  11
ATOM     11  C   UNL     1     138.008 139.030 119.587  1.00  0.00     0.087 C 
BRANCH  11  12
ATOM     12  C   UNL     1     138.471 137.551 119.699  1.00  0.00     0.066 C 
BRANCH  12  13
ATOM     13  C   UNL     1     139.888 137.519 120.256  1.00  0.00     0.140 C 
ATOM     14  O   UNL     1     140.088 136.972 121.331  1.00  0.00    -0.299 OA
BRANCH  13  15
ATOM     15  C   UNL     1     141.077 138.060 119.497  1.00  0.00     0.106 CG0
ATOM     16  G   UNL     1     141.269 139.555 119.661  1.00  0.00     0.000 G0
ENDBRANCH  13  15
ENDBRANCH  12  13
BRANCH  12  17
ATOM     17  C   UNL     1     137.515 136.682 120.582  1.00  0.00    -0.006 C 
ATOM     18  C   UNL     1     136.479 137.535 121.339  1.00  0.00     0.008 C 
ATOM     19  C   UNL     1     136.763 135.642 119.727  1.00  0.00     0.008 C 
ENDBRANCH  12  17
ENDBRANCH  11  12
ENDBRANCH   1  11
TORSDOF 1
ENDMDL
MODEL 9
REMARK VINA RESULT:    -3.130      2.481      4.852
REMARK INTER + INTRA:          -4.965
REMARK INTER:                  -4.705
REMARK INTRA:                  -0.260
REMARK UNBOUND:                -0.188
REMARK SMILES CC1=CCC[C@@H](C)C(=O)C[C@H](C(C)C)C(=O)C1
REMARK SMILES IDX 8 1 9 2 6 3 7 4 5 5 4 6 3 7 2 8 1 9 10 11 11 12 15 13 16 14
REMARK SMILES IDX 17 15 12 17 13 18 14 19
REMARK H PARENT
REMARK Flexibility Score: 70.00
ROOT
ATOM      1  C   UNL     1     140.893 135.227 122.175  1.00  0.00     0.136 C 
ATOM      2  O   UNL     1     141.035 135.973 121.215  1.00  0.00    -0.299 OA
ENDROOT
BRANCH   1   3
ATOM      3  C   UNL     1     139.525 135.061 122.815  1.00  0.00     0.053 C 
ATOM      4  C   UNL     1     138.447 134.645 121.803  1.00  0.00     0.016 C 
BRANCH   3   5
ATOM      5  C   UNL     1     139.097 136.298 123.643  1.00  0.00     0.015 C 
BRANCH   5   6
ATOM      6  C   UNL     1     139.439 136.288 125.150  1.00  0.00     0.028 C 
BRANCH   6   7
ATOM      7  C   UNL     1     140.592 137.170 125.569  1.00  0.00    -0.028 C 
ATOM      8  C   UNL     1     141.843 136.755 125.874  1.00  0.00    -0.070 CG0
ATOM      9  C   UNL     1     142.833 137.789 126.351  1.00  0.00     0.039 C 
ATOM     10  G   UNL     1     142.291 135.309 125.778  1.00  0.00     0.000 G0
ENDBRANCH   6   7
ENDBRANCH   5   6
ENDBRANCH   3   5
ENDBRANCH   1   3
BRANCH   1  11
ATOM     11  C   UNL     1     142.091 134.456 122.678  1.00  0.00     0.087 C 
BRANCH  11  12
ATOM     12  C   UNL     1     143.185 135.390 123.265  1.00  0.00     0.066 C 
BRANCH  12  13
ATOM     13  C   UNL     1     143.377 135.059 124.738  1.00  0.00     0.140 C 
ATOM     14  O   UNL     1     144.464 134.642 125.113  1.00  0.00    -0.299 OA
BRANCH  13  15
ATOM     15  C   UNL     1     142.308 135.303 125.778  1.00  0.00     0.106 CG0
ATOM     16  G   UNL     1     141.870 136.752 125.864  1.00  0.00     0.000 G0
ENDBRANCH  13  15
ENDBRANCH  12  13
BRANCH  12  17
ATOM     17  C   UNL     1     144.544 135.289 122.498  1.00  0.00    -0.006 C 
ATOM     18  C   UNL     1     144.653 133.997 121.665  1.00  0.00     0.008 C 
ATOM     19  C   UNL     1     144.742 136.496 121.558  1.00  0.00     0.008 C 
ENDBRANCH  12  17
ENDBRANCH  11  12
ENDBRANCH   1  11
TORSDOF 1
ENDMDL
