MODEL 1
REMARK VINA RESULT:    -7.308      0.000      0.000
REMARK INTER + INTRA:         -10.857
REMARK INTER:                 -10.298
REMARK INTRA:                  -0.558
REMARK UNBOUND:                -0.558
REMARK SMILES COc1ccc(-c2cc(=O)c3c(OC)c(OC)c(OC)c(OC)c3o2)cc1OC
REMARK SMILES IDX 7 1 8 2 9 3 10 4 11 5 24 6 25 7 21 8 18 9 15 10 12 11 6 12
REMARK SMILES IDX 3 13 27 14 4 15 26 16 5 17 2 18 1 19 28 20 29 21 22 22 23 23
REMARK SMILES IDX 13 24 14 25 19 26 20 27 16 28 17 29
REMARK H PARENT
REMARK Flexibility Score: inf
ROOT
ATOM      1  C   UNL     1     165.585 154.196 151.135  1.00  0.00     0.138 A 
ATOM      2  C   UNL     1     164.491 153.334 151.252  1.00  0.00     0.100 A 
ATOM      3  C   UNL     1     164.619 152.010 150.843  1.00  0.00     0.197 A 
ATOM      4  O   UNL     1     163.620 151.250 150.951  1.00  0.00    -0.289 OA
ATOM      5  C   UNL     1     165.850 151.551 150.317  1.00  0.00     0.115 A 
ATOM      6  C   UNL     1     166.907 152.488 150.212  1.00  0.00     0.188 A 
ATOM      7  O   UNL     1     166.721 153.742 150.616  1.00  0.00    -0.452 OA
ATOM      8  C   UNL     1     168.158 152.092 149.700  1.00  0.00     0.209 A 
ATOM      9  C   UNL     1     168.362 150.756 149.314  1.00  0.00     0.211 A 
ATOM     10  C   UNL     1     167.302 149.820 149.366  1.00  0.00     0.208 A 
ATOM     11  C   UNL     1     166.050 150.209 149.910  1.00  0.00     0.179 A 
ENDROOT
BRANCH   1  12
ATOM     12  C   UNL     1     165.509 155.609 151.575  1.00  0.00     0.021 A 
ATOM     13  C   UNL     1     165.312 158.278 152.471  1.00  0.00     0.160 A 
ATOM     14  C   UNL     1     164.907 157.945 151.169  1.00  0.00     0.161 A 
ATOM     15  C   UNL     1     165.812 157.273 153.319  1.00  0.00     0.051 A 
ATOM     16  C   UNL     1     165.006 156.611 150.727  1.00  0.00     0.062 A 
ATOM     17  C   UNL     1     165.904 155.954 152.875  1.00  0.00     0.016 A 
BRANCH  13  18
ATOM     18  O   UNL     1     165.197 159.614 152.885  1.00  0.00    -0.493 OA
ATOM     19  C   UNL     1     164.432 160.049 154.005  1.00  0.00     0.278 C 
ENDBRANCH  13  18
BRANCH  14  20
ATOM     20  O   UNL     1     164.406 158.969 150.346  1.00  0.00    -0.493 OA
ATOM     21  C   UNL     1     164.942 159.316 149.074  1.00  0.00     0.278 C 
ENDBRANCH  14  20
ENDBRANCH   1  12
BRANCH   8  22
ATOM     22  O   UNL     1     169.238 152.980 149.532  1.00  0.00    -0.490 OA
ATOM     23  C   UNL     1     169.750 153.474 148.301  1.00  0.00     0.278 C 
ENDBRANCH   8  22
BRANCH  11  24
ATOM     24  O   UNL     1     164.982 149.301 150.072  1.00  0.00    -0.492 OA
ATOM     25  C   UNL     1     164.287 148.601 149.034  1.00  0.00     0.278 C 
ENDBRANCH  11  24
BRANCH   9  26
ATOM     26  O   UNL     1     169.622 150.365 148.848  1.00  0.00    -0.490 OA
ATOM     27  C   UNL     1     170.596 149.747 149.685  1.00  0.00     0.279 C 
ENDBRANCH   9  26
BRANCH  10  28
ATOM     28  O   UNL     1     167.435 148.503 148.882  1.00  0.00    -0.490 OA
ATOM     29  C   UNL     1     167.813 147.345 149.617  1.00  0.00     0.278 C 
ENDBRANCH  10  28
TORSDOF 7
ENDMDL
MODEL 2
REMARK VINA RESULT:    -6.935      1.962      3.754
REMARK INTER + INTRA:         -10.332
REMARK INTER:                  -9.854
REMARK INTRA:                  -0.478
REMARK UNBOUND:                -0.558
REMARK SMILES COc1ccc(-c2cc(=O)c3c(OC)c(OC)c(OC)c(OC)c3o2)cc1OC
REMARK SMILES IDX 7 1 8 2 9 3 10 4 11 5 24 6 25 7 21 8 18 9 15 10 12 11 6 12
REMARK SMILES IDX 3 13 27 14 4 15 26 16 5 17 2 18 1 19 28 20 29 21 22 22 23 23
REMARK SMILES IDX 13 24 14 25 19 26 20 27 16 28 17 29
REMARK H PARENT
REMARK Flexibility Score: inf
ROOT
ATOM      1  C   UNL     1     166.541 153.886 149.923  1.00  0.00     0.138 A 
ATOM      2  C   UNL     1     167.904 153.985 149.631  1.00  0.00     0.100 A 
ATOM      3  C   UNL     1     168.495 153.031 148.808  1.00  0.00     0.197 A 
ATOM      4  O   UNL     1     169.726 153.134 148.561  1.00  0.00    -0.289 OA
ATOM      5  C   UNL     1     167.715 151.977 148.276  1.00  0.00     0.115 A 
ATOM      6  C   UNL     1     166.345 151.934 148.632  1.00  0.00     0.188 A 
ATOM      7  O   UNL     1     165.838 152.873 149.427  1.00  0.00    -0.452 OA
ATOM      8  C   UNL     1     165.513 150.911 148.133  1.00  0.00     0.209 A 
ATOM      9  C   UNL     1     166.044 149.946 147.260  1.00  0.00     0.211 A 
ATOM     10  C   UNL     1     167.422 149.947 146.934  1.00  0.00     0.208 A 
ATOM     11  C   UNL     1     168.253 150.993 147.411  1.00  0.00     0.179 A 
ENDROOT
BRANCH   1  12
ATOM     12  C   UNL     1     165.856 154.886 150.776  1.00  0.00     0.021 A 
ATOM     13  C   UNL     1     164.480 156.757 152.380  1.00  0.00     0.160 A 
ATOM     14  C   UNL     1     165.240 157.198 151.285  1.00  0.00     0.161 A 
ATOM     15  C   UNL     1     164.411 155.381 152.665  1.00  0.00     0.051 A 
ATOM     16  C   UNL     1     165.923 156.260 150.486  1.00  0.00     0.062 A 
ATOM     17  C   UNL     1     165.088 154.458 151.868  1.00  0.00     0.016 A 
BRANCH  13  18
ATOM     18  O   UNL     1     163.806 157.714 153.154  1.00  0.00    -0.493 OA
ATOM     19  C   UNL     1     164.414 158.500 154.174  1.00  0.00     0.278 C 
ENDBRANCH  13  18
BRANCH  14  20
ATOM     20  O   UNL     1     165.286 158.578 151.020  1.00  0.00    -0.493 OA
ATOM     21  C   UNL     1     164.762 159.192 149.849  1.00  0.00     0.278 C 
ENDBRANCH  14  20
ENDBRANCH   1  12
BRANCH   8  22
ATOM     22  O   UNL     1     164.154 150.786 148.477  1.00  0.00    -0.490 OA
ATOM     23  C   UNL     1     163.050 151.394 147.817  1.00  0.00     0.278 C 
ENDBRANCH   8  22
BRANCH  11  24
ATOM     24  O   UNL     1     169.614 151.101 147.051  1.00  0.00    -0.492 OA
ATOM     25  C   UNL     1     170.683 150.248 147.475  1.00  0.00     0.278 C 
ENDBRANCH  11  24
BRANCH   9  26
ATOM     26  O   UNL     1     165.199 148.962 146.735  1.00  0.00    -0.490 OA
ATOM     27  C   UNL     1     164.910 147.747 147.422  1.00  0.00     0.279 C 
ENDBRANCH   9  26
BRANCH  10  28
ATOM     28  O   UNL     1     168.011 148.932 146.155  1.00  0.00    -0.490 OA
ATOM     29  C   UNL     1     168.416 147.636 146.583  1.00  0.00     0.278 C 
ENDBRANCH  10  28
TORSDOF 7
ENDMDL
MODEL 3
REMARK VINA RESULT:    -6.780      3.246      9.460
REMARK INTER + INTRA:         -10.113
REMARK INTER:                  -9.351
REMARK INTRA:                  -0.762
REMARK UNBOUND:                -0.558
REMARK SMILES COc1ccc(-c2cc(=O)c3c(OC)c(OC)c(OC)c(OC)c3o2)cc1OC
REMARK SMILES IDX 7 1 8 2 9 3 10 4 11 5 24 6 25 7 21 8 18 9 15 10 12 11 6 12
REMARK SMILES IDX 3 13 27 14 4 15 26 16 5 17 2 18 1 19 28 20 29 21 22 22 23 23
REMARK SMILES IDX 13 24 14 25 19 26 20 27 16 28 17 29
REMARK H PARENT
REMARK Flexibility Score: inf
ROOT
ATOM      1  C   UNL     1     167.432 147.180 150.365  1.00  0.00     0.138 A 
ATOM      2  C   UNL     1     166.056 147.379 150.223  1.00  0.00     0.100 A 
ATOM      3  C   UNL     1     165.582 148.638 149.866  1.00  0.00     0.197 A 
ATOM      4  O   UNL     1     164.339 148.799 149.749  1.00  0.00    -0.289 OA
ATOM      5  C   UNL     1     166.494 149.698 149.650  1.00  0.00     0.115 A 
ATOM      6  C   UNL     1     167.872 149.424 149.830  1.00  0.00     0.188 A 
ATOM      7  O   UNL     1     168.263 148.200 150.176  1.00  0.00    -0.452 OA
ATOM      8  C   UNL     1     168.830 150.437 149.627  1.00  0.00     0.209 A 
ATOM      9  C   UNL     1     168.416 151.717 149.220  1.00  0.00     0.211 A 
ATOM     10  C   UNL     1     167.040 152.020 149.083  1.00  0.00     0.208 A 
ATOM     11  C   UNL     1     166.075 150.994 149.258  1.00  0.00     0.179 A 
ENDROOT
BRANCH   1  12
ATOM     12  C   UNL     1     167.991 145.855 150.722  1.00  0.00     0.021 A 
ATOM     13  C   UNL     1     168.995 143.295 151.359  1.00  0.00     0.160 A 
ATOM     14  C   UNL     1     168.543 144.144 152.382  1.00  0.00     0.161 A 
ATOM     15  C   UNL     1     168.939 143.730 150.022  1.00  0.00     0.051 A 
ATOM     16  C   UNL     1     168.041 145.420 152.057  1.00  0.00     0.062 A 
ATOM     17  C   UNL     1     168.438 144.994 149.710  1.00  0.00     0.016 A 
BRANCH  13  18
ATOM     18  O   UNL     1     169.485 142.027 151.711  1.00  0.00    -0.493 OA
ATOM     19  C   UNL     1     170.856 141.647 151.652  1.00  0.00     0.278 C 
ENDBRANCH  13  18
BRANCH  14  20
ATOM     20  O   UNL     1     168.605 143.680 153.707  1.00  0.00    -0.493 OA
ATOM     21  C   UNL     1     169.595 144.070 154.652  1.00  0.00     0.278 C 
ENDBRANCH  14  20
ENDBRANCH   1  12
BRANCH   8  22
ATOM     22  O   UNL     1     170.211 150.243 149.826  1.00  0.00    -0.490 OA
ATOM     23  C   UNL     1     171.087 149.469 149.017  1.00  0.00     0.278 C 
ENDBRANCH   8  22
BRANCH  11  24
ATOM     24  O   UNL     1     164.696 151.209 149.050  1.00  0.00    -0.492 OA
ATOM     25  C   UNL     1     164.047 151.462 147.799  1.00  0.00     0.278 C 
ENDBRANCH  11  24
BRANCH   9  26
ATOM     26  O   UNL     1     169.379 152.701 148.978  1.00  0.00    -0.490 OA
ATOM     27  C   UNL     1     169.868 152.998 147.672  1.00  0.00     0.279 C 
ENDBRANCH   9  26
BRANCH  10  28
ATOM     28  O   UNL     1     166.581 153.319 148.788  1.00  0.00    -0.490 OA
ATOM     29  C   UNL     1     166.377 154.393 149.700  1.00  0.00     0.278 C 
ENDBRANCH  10  28
TORSDOF 7
ENDMDL
MODEL 4
REMARK VINA RESULT:    -6.660      9.343     12.682
REMARK INTER + INTRA:          -9.944
REMARK INTER:                  -9.260
REMARK INTRA:                  -0.684
REMARK UNBOUND:                -0.558
REMARK SMILES COc1ccc(-c2cc(=O)c3c(OC)c(OC)c(OC)c(OC)c3o2)cc1OC
REMARK SMILES IDX 7 1 8 2 9 3 10 4 11 5 24 6 25 7 21 8 18 9 15 10 12 11 6 12
REMARK SMILES IDX 3 13 27 14 4 15 26 16 5 17 2 18 1 19 28 20 29 21 22 22 23 23
REMARK SMILES IDX 13 24 14 25 19 26 20 27 16 28 17 29
REMARK H PARENT
REMARK Flexibility Score: inf
ROOT
ATOM      1  C   UNL     1     168.750 143.604 151.892  1.00  0.00     0.138 A 
ATOM      2  C   UNL     1     168.256 144.876 152.195  1.00  0.00     0.100 A 
ATOM      3  C   UNL     1     168.633 145.489 153.385  1.00  0.00     0.197 A 
ATOM      4  O   UNL     1     168.172 146.633 153.643  1.00  0.00    -0.289 OA
ATOM      5  C   UNL     1     169.511 144.823 154.273  1.00  0.00     0.115 A 
ATOM      6  C   UNL     1     169.955 143.530 153.907  1.00  0.00     0.188 A 
ATOM      7  O   UNL     1     169.555 142.994 152.756  1.00  0.00    -0.452 OA
ATOM      8  C   UNL     1     170.833 142.816 154.747  1.00  0.00     0.209 A 
ATOM      9  C   UNL     1     171.286 143.403 155.941  1.00  0.00     0.211 A 
ATOM     10  C   UNL     1     170.813 144.674 156.345  1.00  0.00     0.208 A 
ATOM     11  C   UNL     1     169.953 145.407 155.486  1.00  0.00     0.179 A 
ENDROOT
BRANCH   1  12
ATOM     12  C   UNL     1     168.397 142.915 150.629  1.00  0.00     0.021 A 
ATOM     13  C   UNL     1     167.786 141.548 148.236  1.00  0.00     0.160 A 
ATOM     14  C   UNL     1     168.203 142.888 148.190  1.00  0.00     0.161 A 
ATOM     15  C   UNL     1     167.680 140.898 149.479  1.00  0.00     0.051 A 
ATOM     16  C   UNL     1     168.509 143.565 149.388  1.00  0.00     0.062 A 
ATOM     17  C   UNL     1     167.987 141.575 150.660  1.00  0.00     0.016 A 
BRANCH  13  18
ATOM     18  O   UNL     1     167.494 140.898 147.027  1.00  0.00    -0.493 OA
ATOM     19  C   UNL     1     166.211 140.881 146.410  1.00  0.00     0.278 C 
ENDBRANCH  13  18
BRANCH  14  20
ATOM     20  O   UNL     1     168.306 143.510 146.934  1.00  0.00    -0.493 OA
ATOM     21  C   UNL     1     169.400 144.321 146.523  1.00  0.00     0.278 C 
ENDBRANCH  14  20
ENDBRANCH   1  12
BRANCH   8  22
ATOM     22  O   UNL     1     171.282 141.512 154.463  1.00  0.00    -0.490 OA
ATOM     23  C   UNL     1     172.346 141.150 153.592  1.00  0.00     0.278 C 
ENDBRANCH   8  22
BRANCH  11  24
ATOM     24  O   UNL     1     169.517 146.714 155.790  1.00  0.00    -0.492 OA
ATOM     25  C   UNL     1     168.601 147.095 156.822  1.00  0.00     0.278 C 
ENDBRANCH  11  24
BRANCH   9  26
ATOM     26  O   UNL     1     172.192 142.703 156.745  1.00  0.00    -0.490 OA
ATOM     27  C   UNL     1     173.604 142.874 156.646  1.00  0.00     0.279 C 
ENDBRANCH   9  26
BRANCH  10  28
ATOM     28  O   UNL     1     171.155 145.245 157.587  1.00  0.00    -0.490 OA
ATOM     29  C   UNL     1     172.260 146.094 157.875  1.00  0.00     0.278 C 
ENDBRANCH  10  28
TORSDOF 7
ENDMDL
MODEL 5
REMARK VINA RESULT:    -6.636      3.392     10.092
REMARK INTER + INTRA:          -9.909
REMARK INTER:                  -9.169
REMARK INTRA:                  -0.740
REMARK UNBOUND:                -0.558
REMARK SMILES COc1ccc(-c2cc(=O)c3c(OC)c(OC)c(OC)c(OC)c3o2)cc1OC
REMARK SMILES IDX 7 1 8 2 9 3 10 4 11 5 24 6 25 7 21 8 18 9 15 10 12 11 6 12
REMARK SMILES IDX 3 13 27 14 4 15 26 16 5 17 2 18 1 19 28 20 29 21 22 22 23 23
REMARK SMILES IDX 13 24 14 25 19 26 20 27 16 28 17 29
REMARK H PARENT
REMARK Flexibility Score: inf
ROOT
ATOM      1  C   UNL     1     168.418 147.216 150.189  1.00  0.00     0.138 A 
ATOM      2  C   UNL     1     169.580 147.970 150.002  1.00  0.00     0.100 A 
ATOM      3  C   UNL     1     169.474 149.309 149.638  1.00  0.00     0.197 A 
ATOM      4  O   UNL     1     170.533 149.969 149.469  1.00  0.00    -0.289 OA
ATOM      5  C   UNL     1     168.197 149.892 149.462  1.00  0.00     0.115 A 
ATOM      6  C   UNL     1     167.067 149.060 149.650  1.00  0.00     0.188 A 
ATOM      7  O   UNL     1     167.233 147.786 149.995  1.00  0.00    -0.452 OA
ATOM      8  C   UNL     1     165.767 149.582 149.493  1.00  0.00     0.209 A 
ATOM      9  C   UNL     1     165.595 150.940 149.171  1.00  0.00     0.211 A 
ATOM     10  C   UNL     1     166.715 151.771 148.931  1.00  0.00     0.208 A 
ATOM     11  C   UNL     1     168.024 151.255 149.119  1.00  0.00     0.179 A 
ENDROOT
BRANCH   1  12
ATOM     12  C   UNL     1     168.473 145.794 150.598  1.00  0.00     0.021 A 
ATOM     13  C   UNL     1     168.507 143.070 151.339  1.00  0.00     0.160 A 
ATOM     14  C   UNL     1     168.468 144.064 152.329  1.00  0.00     0.161 A 
ATOM     15  C   UNL     1     168.526 143.443 149.982  1.00  0.00     0.051 A 
ATOM     16  C   UNL     1     168.450 145.422 151.953  1.00  0.00     0.062 A 
ATOM     17  C   UNL     1     168.504 144.790 149.619  1.00  0.00     0.016 A 
BRANCH  13  18
ATOM     18  O   UNL     1     168.519 141.725 151.742  1.00  0.00    -0.493 OA
ATOM     19  C   UNL     1     169.659 140.875 151.680  1.00  0.00     0.278 C 
ENDBRANCH  13  18
BRANCH  14  20
ATOM     20  O   UNL     1     168.444 143.662 153.675  1.00  0.00    -0.493 OA
ATOM     21  C   UNL     1     169.584 143.626 154.527  1.00  0.00     0.278 C 
ENDBRANCH  14  20
ENDBRANCH   1  12
BRANCH   8  22
ATOM     22  O   UNL     1     164.602 148.803 149.628  1.00  0.00    -0.490 OA
ATOM     23  C   UNL     1     164.012 147.976 148.633  1.00  0.00     0.278 C 
ENDBRANCH   8  22
BRANCH  11  24
ATOM     24  O   UNL     1     169.179 152.055 148.982  1.00  0.00    -0.492 OA
ATOM     25  C   UNL     1     169.632 152.710 147.792  1.00  0.00     0.278 C 
ENDBRANCH  11  24
BRANCH   9  26
ATOM     26  O   UNL     1     164.300 151.457 149.061  1.00  0.00    -0.490 OA
ATOM     27  C   UNL     1     163.616 152.062 150.156  1.00  0.00     0.279 C 
ENDBRANCH   9  26
BRANCH  10  28
ATOM     28  O   UNL     1     166.583 153.105 148.496  1.00  0.00    -0.490 OA
ATOM     29  C   UNL     1     166.509 154.276 149.302  1.00  0.00     0.278 C 
ENDBRANCH  10  28
TORSDOF 7
ENDMDL
MODEL 6
REMARK VINA RESULT:    -6.574      3.477      7.081
REMARK INTER + INTRA:          -9.822
REMARK INTER:                  -9.015
REMARK INTRA:                  -0.807
REMARK UNBOUND:                -0.558
REMARK SMILES COc1ccc(-c2cc(=O)c3c(OC)c(OC)c(OC)c(OC)c3o2)cc1OC
REMARK SMILES IDX 7 1 8 2 9 3 10 4 11 5 24 6 25 7 21 8 18 9 15 10 12 11 6 12
REMARK SMILES IDX 3 13 27 14 4 15 26 16 5 17 2 18 1 19 28 20 29 21 22 22 23 23
REMARK SMILES IDX 13 24 14 25 19 26 20 27 16 28 17 29
REMARK H PARENT
REMARK Flexibility Score: inf
ROOT
ATOM      1  C   UNL     1     167.554 148.180 150.218  1.00  0.00     0.138 A 
ATOM      2  C   UNL     1     167.754 147.690 151.511  1.00  0.00     0.100 A 
ATOM      3  C   UNL     1     168.054 146.343 151.691  1.00  0.00     0.197 A 
ATOM      4  O   UNL     1     168.225 145.919 152.865  1.00  0.00    -0.289 OA
ATOM      5  C   UNL     1     168.155 145.487 150.569  1.00  0.00     0.115 A 
ATOM      6  C   UNL     1     167.920 146.053 149.292  1.00  0.00     0.188 A 
ATOM      7  O   UNL     1     167.633 147.348 149.185  1.00  0.00    -0.452 OA
ATOM      8  C   UNL     1     168.009 145.255 148.134  1.00  0.00     0.209 A 
ATOM      9  C   UNL     1     168.354 143.897 148.249  1.00  0.00     0.211 A 
ATOM     10  C   UNL     1     168.543 143.305 149.521  1.00  0.00     0.208 A 
ATOM     11  C   UNL     1     168.485 144.114 150.685  1.00  0.00     0.179 A 
ENDROOT
BRANCH   1  12
ATOM     12  C   UNL     1     167.253 149.609 149.968  1.00  0.00     0.021 A 
ATOM     13  C   UNL     1     166.606 152.310 149.467  1.00  0.00     0.160 A 
ATOM     14  C   UNL     1     167.655 151.700 148.762  1.00  0.00     0.161 A 
ATOM     15  C   UNL     1     165.883 151.565 150.417  1.00  0.00     0.051 A 
ATOM     16  C   UNL     1     167.973 150.351 149.016  1.00  0.00     0.062 A 
ATOM     17  C   UNL     1     166.203 150.229 150.659  1.00  0.00     0.016 A 
BRANCH  13  18
ATOM     18  O   UNL     1     166.308 153.654 149.190  1.00  0.00    -0.493 OA
ATOM     19  C   UNL     1     166.681 154.750 150.019  1.00  0.00     0.278 C 
ENDBRANCH  13  18
BRANCH  14  20
ATOM     20  O   UNL     1     168.355 152.467 147.815  1.00  0.00    -0.493 OA
ATOM     21  C   UNL     1     169.670 152.977 148.004  1.00  0.00     0.278 C 
ENDBRANCH  14  20
ENDBRANCH   1  12
BRANCH   8  22
ATOM     22  O   UNL     1     167.751 145.743 146.839  1.00  0.00    -0.490 OA
ATOM     23  C   UNL     1     168.665 146.420 145.987  1.00  0.00     0.278 C 
ENDBRANCH   8  22
BRANCH  11  24
ATOM     24  O   UNL     1     168.750 143.604 151.974  1.00  0.00    -0.492 OA
ATOM     25  C   UNL     1     170.022 143.194 152.489  1.00  0.00     0.278 C 
ENDBRANCH  11  24
BRANCH   9  26
ATOM     26  O   UNL     1     168.483 143.125 147.089  1.00  0.00    -0.490 OA
ATOM     27  C   UNL     1     167.409 142.357 146.551  1.00  0.00     0.279 C 
ENDBRANCH   9  26
BRANCH  10  28
ATOM     28  O   UNL     1     168.778 141.925 149.682  1.00  0.00    -0.490 OA
ATOM     29  C   UNL     1     167.819 140.911 149.962  1.00  0.00     0.278 C 
ENDBRANCH  10  28
TORSDOF 7
ENDMDL
MODEL 7
REMARK VINA RESULT:    -6.553      8.795     12.615
REMARK INTER + INTRA:          -9.793
REMARK INTER:                  -9.017
REMARK INTRA:                  -0.776
REMARK UNBOUND:                -0.558
REMARK SMILES COc1ccc(-c2cc(=O)c3c(OC)c(OC)c(OC)c(OC)c3o2)cc1OC
REMARK SMILES IDX 7 1 8 2 9 3 10 4 11 5 24 6 25 7 21 8 18 9 15 10 12 11 6 12
REMARK SMILES IDX 3 13 27 14 4 15 26 16 5 17 2 18 1 19 28 20 29 21 22 22 23 23
REMARK SMILES IDX 13 24 14 25 19 26 20 27 16 28 17 29
REMARK H PARENT
REMARK Flexibility Score: inf
ROOT
ATOM      1  C   UNL     1     169.427 142.830 151.443  1.00  0.00     0.138 A 
ATOM      2  C   UNL     1     170.520 142.053 151.839  1.00  0.00     0.100 A 
ATOM      3  C   UNL     1     171.029 142.199 153.126  1.00  0.00     0.197 A 
ATOM      4  O   UNL     1     172.018 141.495 153.462  1.00  0.00    -0.289 OA
ATOM      5  C   UNL     1     170.438 143.125 154.017  1.00  0.00     0.115 A 
ATOM      6  C   UNL     1     169.346 143.889 153.537  1.00  0.00     0.188 A 
ATOM      7  O   UNL     1     168.907 143.707 152.294  1.00  0.00    -0.452 OA
ATOM      8  C   UNL     1     168.712 144.826 154.377  1.00  0.00     0.209 A 
ATOM      9  C   UNL     1     169.152 144.985 155.703  1.00  0.00     0.211 A 
ATOM     10  C   UNL     1     170.273 144.265 156.181  1.00  0.00     0.208 A 
ATOM     11  C   UNL     1     170.894 143.299 155.347  1.00  0.00     0.179 A 
ENDROOT
BRANCH   1  12
ATOM     12  C   UNL     1     168.832 142.699 150.093  1.00  0.00     0.021 A 
ATOM     13  C   UNL     1     167.752 142.390 147.503  1.00  0.00     0.160 A 
ATOM     14  C   UNL     1     168.357 143.602 147.868  1.00  0.00     0.161 A 
ATOM     15  C   UNL     1     167.692 141.337 148.434  1.00  0.00     0.051 A 
ATOM     16  C   UNL     1     168.897 143.751 149.162  1.00  0.00     0.062 A 
ATOM     17  C   UNL     1     168.231 141.491 149.712  1.00  0.00     0.016 A 
BRANCH  13  18
ATOM     18  O   UNL     1     167.228 142.270 146.206  1.00  0.00    -0.493 OA
ATOM     19  C   UNL     1     165.850 142.415 145.876  1.00  0.00     0.278 C 
ENDBRANCH  13  18
BRANCH  14  20
ATOM     20  O   UNL     1     168.408 144.635 146.915  1.00  0.00    -0.493 OA
ATOM     21  C   UNL     1     169.560 144.969 146.149  1.00  0.00     0.278 C 
ENDBRANCH  14  20
ENDBRANCH   1  12
BRANCH   8  22
ATOM     22  O   UNL     1     167.647 145.645 153.953  1.00  0.00    -0.490 OA
ATOM     23  C   UNL     1     167.743 146.821 153.161  1.00  0.00     0.278 C 
ENDBRANCH   8  22
BRANCH  11  24
ATOM     24  O   UNL     1     171.958 142.486 155.794  1.00  0.00    -0.492 OA
ATOM     25  C   UNL     1     171.889 141.446 156.776  1.00  0.00     0.278 C 
ENDBRANCH  11  24
BRANCH   9  26
ATOM     26  O   UNL     1     168.487 145.886 156.540  1.00  0.00    -0.490 OA
ATOM     27  C   UNL     1     168.925 147.228 156.733  1.00  0.00     0.279 C 
ENDBRANCH   9  26
BRANCH  10  28
ATOM     28  O   UNL     1     170.814 144.479 157.465  1.00  0.00    -0.490 OA
ATOM     29  C   UNL     1     171.874 145.359 157.822  1.00  0.00     0.278 C 
ENDBRANCH  10  28
TORSDOF 7
ENDMDL
MODEL 8
REMARK VINA RESULT:    -6.524      4.267      7.874
REMARK INTER + INTRA:          -9.752
REMARK INTER:                  -9.018
REMARK INTRA:                  -0.734
REMARK UNBOUND:                -0.558
REMARK SMILES COc1ccc(-c2cc(=O)c3c(OC)c(OC)c(OC)c(OC)c3o2)cc1OC
REMARK SMILES IDX 7 1 8 2 9 3 10 4 11 5 24 6 25 7 21 8 18 9 15 10 12 11 6 12
REMARK SMILES IDX 3 13 27 14 4 15 26 16 5 17 2 18 1 19 28 20 29 21 22 22 23 23
REMARK SMILES IDX 13 24 14 25 19 26 20 27 16 28 17 29
REMARK H PARENT
REMARK Flexibility Score: inf
ROOT
ATOM      1  C   UNL     1     168.033 147.366 150.131  1.00  0.00     0.138 A 
ATOM      2  C   UNL     1     167.999 146.500 149.034  1.00  0.00     0.100 A 
ATOM      3  C   UNL     1     168.236 145.142 149.229  1.00  0.00     0.197 A 
ATOM      4  O   UNL     1     168.207 144.379 148.227  1.00  0.00    -0.289 OA
ATOM      5  C   UNL     1     168.506 144.654 150.529  1.00  0.00     0.115 A 
ATOM      6  C   UNL     1     168.542 145.595 151.587  1.00  0.00     0.188 A 
ATOM      7  O   UNL     1     168.311 146.882 151.337  1.00  0.00    -0.452 OA
ATOM      8  C   UNL     1     168.802 145.172 152.906  1.00  0.00     0.209 A 
ATOM      9  C   UNL     1     169.004 143.806 153.172  1.00  0.00     0.211 A 
ATOM     10  C   UNL     1     169.020 142.860 152.119  1.00  0.00     0.208 A 
ATOM     11  C   UNL     1     168.728 143.281 150.796  1.00  0.00     0.179 A 
ENDROOT
BRANCH   1  12
ATOM     12  C   UNL     1     167.767 148.815 149.982  1.00  0.00     0.021 A 
ATOM     13  C   UNL     1     167.329 151.593 149.742  1.00  0.00     0.160 A 
ATOM     14  C   UNL     1     166.402 150.796 150.432  1.00  0.00     0.161 A 
ATOM     15  C   UNL     1     168.471 150.997 149.178  1.00  0.00     0.051 A 
ATOM     16  C   UNL     1     166.627 149.410 150.550  1.00  0.00     0.062 A 
ATOM     17  C   UNL     1     168.688 149.625 149.303  1.00  0.00     0.016 A 
BRANCH  13  18
ATOM     18  O   UNL     1     167.081 152.972 149.644  1.00  0.00    -0.493 OA
ATOM     19  C   UNL     1     167.780 153.971 150.380  1.00  0.00     0.278 C 
ENDBRANCH  13  18
BRANCH  14  20
ATOM     20  O   UNL     1     165.272 151.420 150.990  1.00  0.00    -0.493 OA
ATOM     21  C   UNL     1     163.972 151.398 150.412  1.00  0.00     0.278 C 
ENDBRANCH  14  20
ENDBRANCH   1  12
BRANCH   8  22
ATOM     22  O   UNL     1     168.891 146.057 153.997  1.00  0.00    -0.490 OA
ATOM     23  C   UNL     1     167.825 146.479 154.839  1.00  0.00     0.278 C 
ENDBRANCH   8  22
BRANCH  11  24
ATOM     24  O   UNL     1     168.641 142.375 149.717  1.00  0.00    -0.492 OA
ATOM     25  C   UNL     1     167.726 141.281 149.586  1.00  0.00     0.278 C 
ENDBRANCH  11  24
BRANCH   9  26
ATOM     26  O   UNL     1     169.217 143.392 154.491  1.00  0.00    -0.490 OA
ATOM     27  C   UNL     1     170.509 143.368 155.093  1.00  0.00     0.279 C 
ENDBRANCH   9  26
BRANCH  10  28
ATOM     28  O   UNL     1     169.331 141.503 152.332  1.00  0.00    -0.490 OA
ATOM     29  C   UNL     1     170.617 140.893 152.298  1.00  0.00     0.278 C 
ENDBRANCH  10  28
TORSDOF 7
ENDMDL
MODEL 9
REMARK VINA RESULT:    -6.444      5.633      9.379
REMARK INTER + INTRA:          -9.639
REMARK INTER:                  -8.882
REMARK INTRA:                  -0.757
REMARK UNBOUND:                -0.558
REMARK SMILES COc1ccc(-c2cc(=O)c3c(OC)c(OC)c(OC)c(OC)c3o2)cc1OC
REMARK SMILES IDX 7 1 8 2 9 3 10 4 11 5 24 6 25 7 21 8 18 9 15 10 12 11 6 12
REMARK SMILES IDX 3 13 27 14 4 15 26 16 5 17 2 18 1 19 28 20 29 21 22 22 23 23
REMARK SMILES IDX 13 24 14 25 19 26 20 27 16 28 17 29
REMARK H PARENT
REMARK Flexibility Score: inf
ROOT
ATOM      1  C   UNL     1     167.734 146.558 151.797  1.00  0.00     0.138 A 
ATOM      2  C   UNL     1     167.716 146.866 153.161  1.00  0.00     0.100 A 
ATOM      3  C   UNL     1     168.326 146.001 154.064  1.00  0.00     0.197 A 
ATOM      4  O   UNL     1     168.294 146.293 155.288  1.00  0.00    -0.289 OA
ATOM      5  C   UNL     1     168.956 144.824 153.595  1.00  0.00     0.115 A 
ATOM      6  C   UNL     1     168.917 144.571 152.202  1.00  0.00     0.188 A 
ATOM      7  O   UNL     1     168.314 145.435 151.389  1.00  0.00    -0.452 OA
ATOM      8  C   UNL     1     169.530 143.417 151.672  1.00  0.00     0.209 A 
ATOM      9  C   UNL     1     170.202 142.529 152.530  1.00  0.00     0.211 A 
ATOM     10  C   UNL     1     170.208 142.742 153.929  1.00  0.00     0.208 A 
ATOM     11  C   UNL     1     169.618 143.919 154.461  1.00  0.00     0.179 A 
ENDROOT
BRANCH   1  12
ATOM     12  C   UNL     1     167.118 147.455 150.792  1.00  0.00     0.021 A 
ATOM     13  C   UNL     1     165.913 149.209 148.937  1.00  0.00     0.160 A 
ATOM     14  C   UNL     1     165.552 147.852 148.954  1.00  0.00     0.161 A 
ATOM     15  C   UNL     1     166.873 149.682 149.850  1.00  0.00     0.051 A 
ATOM     16  C   UNL     1     166.156 146.982 149.883  1.00  0.00     0.062 A 
ATOM     17  C   UNL     1     167.463 148.814 150.769  1.00  0.00     0.016 A 
BRANCH  13  18
ATOM     18  O   UNL     1     165.291 150.054 148.004  1.00  0.00    -0.493 OA
ATOM     19  C   UNL     1     164.164 150.877 148.286  1.00  0.00     0.278 C 
ENDBRANCH  13  18
BRANCH  14  20
ATOM     20  O   UNL     1     164.586 147.409 148.034  1.00  0.00    -0.493 OA
ATOM     21  C   UNL     1     163.314 146.882 148.392  1.00  0.00     0.278 C 
ENDBRANCH  14  20
ENDBRANCH   1  12
BRANCH   8  22
ATOM     22  O   UNL     1     169.495 143.085 150.305  1.00  0.00    -0.490 OA
ATOM     23  C   UNL     1     168.450 142.405 149.621  1.00  0.00     0.278 C 
ENDBRANCH   8  22
BRANCH  11  24
ATOM     24  O   UNL     1     169.667 144.234 155.836  1.00  0.00    -0.492 OA
ATOM     25  C   UNL     1     170.799 144.723 156.563  1.00  0.00     0.278 C 
ENDBRANCH  11  24
BRANCH   9  26
ATOM     26  O   UNL     1     170.844 141.411 151.987  1.00  0.00    -0.490 OA
ATOM     27  C   UNL     1     172.188 141.448 151.514  1.00  0.00     0.279 C 
ENDBRANCH   9  26
BRANCH  10  28
ATOM     28  O   UNL     1     170.772 141.817 154.830  1.00  0.00    -0.490 OA
ATOM     29  C   UNL     1     172.142 141.689 155.196  1.00  0.00     0.278 C 
ENDBRANCH  10  28
TORSDOF 7
ENDMDL
