MODEL 1
REMARK VINA RESULT:    10.084      0.000      0.000
REMARK INTER + INTRA:          12.023
REMARK INTER:                  12.147
REMARK INTRA:                  -0.124
REMARK UNBOUND:                -0.124
REMARK SMILES O=c1c(O)c(-c2ccc(O)cc2O)oc2cc(O)cc(O)c12
REMARK SMILES IDX 5 1 3 2 2 3 1 4 22 5 20 6 19 7 17 8 16 9 15 10 14 11 6 12
REMARK SMILES IDX 8 13 7 14 9 15 11 16 12 17 10 18 13 20 4 22 21 24 18 26
REMARK H PARENT 10 19 13 21 4 23 21 25 18 27
REMARK Flexibility Score: inf
ROOT
ATOM      1  C   UNL     1      10.635   6.156  -4.157  1.00  0.00     0.184 A 
ATOM      2  C   UNL     1       9.545   7.036  -4.239  1.00  0.00     0.208 A 
ATOM      3  C   UNL     1       9.157   7.747  -3.092  1.00  0.00     0.238 A 
ATOM      4  O   UNL     1       8.212   8.574  -3.186  1.00  0.00    -0.285 OA
ATOM      5  C   UNL     1       9.856   7.556  -1.876  1.00  0.00     0.111 A 
ATOM      6  C   UNL     1       9.525   8.193  -0.642  1.00  0.00     0.134 A 
ATOM      7  C   UNL     1      10.364   8.031   0.467  1.00  0.00     0.093 A 
ATOM      8  C   UNL     1      11.487   7.200   0.405  1.00  0.00     0.123 A 
ATOM      9  C   UNL     1      11.785   6.527  -0.778  1.00  0.00     0.094 A 
ATOM     10  C   UNL     1      10.987   6.699  -1.911  1.00  0.00     0.146 A 
ATOM     11  O   UNL     1      11.314   6.047  -3.021  1.00  0.00    -0.451 OA
ENDROOT
BRANCH   1  12
ATOM     12  C   UNL     1      11.085   5.365  -5.322  1.00  0.00     0.063 A 
ATOM     13  C   UNL     1      11.675   5.292  -7.680  1.00  0.00     0.047 A 
ATOM     14  C   UNL     1      11.246   6.009  -6.560  1.00  0.00     0.020 A 
ATOM     15  C   UNL     1      11.962   3.928  -7.575  1.00  0.00     0.119 A 
ATOM     16  C   UNL     1      11.827   3.282  -6.339  1.00  0.00     0.093 A 
ATOM     17  C   UNL     1      11.402   3.996  -5.208  1.00  0.00     0.130 A 
BRANCH  15  18
ATOM     18  O   UNL     1      12.384   3.227  -8.701  1.00  0.00    -0.508 OA
ATOM     19  H   UNL     1      12.744   2.282  -8.632  1.00  0.00     0.293 HD
ENDBRANCH  15  18
BRANCH  17  20
ATOM     20  O   UNL     1      11.318   3.352  -3.974  1.00  0.00    -0.507 OA
ATOM     21  H   UNL     1      11.735   2.442  -3.819  1.00  0.00     0.293 HD
ENDBRANCH  17  20
ENDBRANCH   1  12
BRANCH   2  22
ATOM     22  O   UNL     1       8.885   7.219  -5.457  1.00  0.00    -0.502 OA
ATOM     23  H   UNL     1       9.199   7.889  -6.149  1.00  0.00     0.293 HD
ENDBRANCH   2  22
BRANCH   6  24
ATOM     24  O   UNL     1       8.378   8.969  -0.448  1.00  0.00    -0.507 OA
ATOM     25  H   UNL     1       7.532   8.889  -0.991  1.00  0.00     0.293 HD
ENDBRANCH   6  24
BRANCH   8  26
ATOM     26  O   UNL     1      12.307   7.031   1.518  1.00  0.00    -0.508 OA
ATOM     27  H   UNL     1      12.654   6.118   1.787  1.00  0.00     0.293 HD
ENDBRANCH   8  26
TORSDOF 6
ENDMDL
