MODEL 1
REMARK VINA RESULT:    -5.260      0.000      0.000
REMARK INTER + INTRA:          -5.260
REMARK INTER:                  -5.260
REMARK INTRA:                   0.000
REMARK UNBOUND:                 0.000
REMARK SMILES C=C1CCC[C@]2(C)CC(=O)C(=C(C)C)C[C@@H]12
REMARK SMILES IDX 13 1 12 2 11 3 15 4 16 5 2 6 1 7 3 8 4 9 5 10 6 11 8 12 9 13
REMARK SMILES IDX 10 14 7 15 14 16
REMARK H PARENT
REMARK Flexibility Score: inf
ROOT
ATOM      1  C   UNL     1     -33.375 -22.333  21.082  1.00  0.00     0.039 C 
ATOM      2  C   UNL     1     -32.620 -21.522  22.111  1.00  0.00    -0.070 C 
ATOM      3  C   UNL     1     -32.355 -20.195  21.928  1.00  0.00    -0.006 C 
ATOM      4  C   UNL     1     -31.647 -19.378  23.001  1.00  0.00     0.047 C 
ATOM      5  C   UNL     1     -32.072 -17.889  22.998  1.00  0.00     0.025 C 
ATOM      6  C   UNL     1     -31.364 -17.009  24.029  1.00  0.00    -0.073 C 
ATOM      7  C   UNL     1     -30.425 -17.456  24.885  1.00  0.00     0.008 C 
ATOM      8  C   UNL     1     -31.802 -15.565  24.089  1.00  0.00     0.031 C 
ATOM      9  C   UNL     1     -31.728 -14.928  22.699  1.00  0.00     0.005 C 
ATOM     10  C   UNL     1     -32.472 -15.769  21.648  1.00  0.00     0.008 C 
ATOM     11  C   UNL     1     -31.972 -17.244  21.581  1.00  0.00    -0.018 C 
ATOM     12  C   UNL     1     -32.899 -18.023  20.616  1.00  0.00     0.088 C 
ATOM     13  C   UNL     1     -32.625 -19.500  20.636  1.00  0.00     0.159 C 
ATOM     14  O   UNL     1     -32.615 -20.125  19.542  1.00  0.00    -0.295 OA
ATOM     15  C   UNL     1     -30.517 -17.276  21.033  1.00  0.00     0.012 C 
ATOM     16  C   UNL     1     -32.202 -22.239  23.375  1.00  0.00     0.039 C 
ENDROOT
TORSDOF 0
ENDMDL
MODEL 2
REMARK VINA RESULT:    -5.179      1.240      1.464
REMARK INTER + INTRA:          -5.179
REMARK INTER:                  -5.179
REMARK INTRA:                   0.000
REMARK UNBOUND:                 0.000
REMARK SMILES C=C1CCC[C@]2(C)CC(=O)C(=C(C)C)C[C@@H]12
REMARK SMILES IDX 13 1 12 2 11 3 15 4 16 5 2 6 1 7 3 8 4 9 5 10 6 11 8 12 9 13
REMARK SMILES IDX 10 14 7 15 14 16
REMARK H PARENT
REMARK Flexibility Score: inf
ROOT
ATOM      1  C   UNL     1     -32.702 -21.589  20.787  1.00  0.00     0.039 C 
ATOM      2  C   UNL     1     -32.500 -20.656  21.959  1.00  0.00    -0.070 C 
ATOM      3  C   UNL     1     -32.559 -19.299  21.816  1.00  0.00    -0.006 C 
ATOM      4  C   UNL     1     -32.415 -18.373  23.017  1.00  0.00     0.047 C 
ATOM      5  C   UNL     1     -33.204 -17.051  22.853  1.00  0.00     0.025 C 
ATOM      6  C   UNL     1     -33.064 -16.063  24.012  1.00  0.00    -0.073 C 
ATOM      7  C   UNL     1     -32.310 -16.285  25.106  1.00  0.00     0.008 C 
ATOM      8  C   UNL     1     -33.871 -14.791  23.906  1.00  0.00     0.031 C 
ATOM      9  C   UNL     1     -33.594 -14.093  22.571  1.00  0.00     0.005 C 
ATOM     10  C   UNL     1     -33.771 -15.053  21.382  1.00  0.00     0.008 C 
ATOM     11  C   UNL     1     -32.897 -16.338  21.499  1.00  0.00    -0.018 C 
ATOM     12  C   UNL     1     -33.284 -17.291  20.341  1.00  0.00     0.088 C 
ATOM     13  C   UNL     1     -32.642 -18.641  20.480  1.00  0.00     0.159 C 
ATOM     14  O   UNL     1     -32.169 -19.192  19.449  1.00  0.00    -0.295 OA
ATOM     15  C   UNL     1     -31.395 -15.960  21.373  1.00  0.00     0.012 C 
ATOM     16  C   UNL     1     -32.266 -21.293  23.310  1.00  0.00     0.039 C 
ENDROOT
TORSDOF 0
ENDMDL
MODEL 3
REMARK VINA RESULT:    -4.799      3.124      4.713
REMARK INTER + INTRA:          -4.799
REMARK INTER:                  -4.799
REMARK INTRA:                   0.000
REMARK UNBOUND:                 0.000
REMARK SMILES C=C1CCC[C@]2(C)CC(=O)C(=C(C)C)C[C@@H]12
REMARK SMILES IDX 13 1 12 2 11 3 15 4 16 5 2 6 1 7 3 8 4 9 5 10 6 11 8 12 9 13
REMARK SMILES IDX 10 14 7 15 14 16
REMARK H PARENT
REMARK Flexibility Score: inf
ROOT
ATOM      1  C   UNL     1     -32.232 -19.909  22.346  1.00  0.00     0.039 C 
ATOM      2  C   UNL     1     -31.331 -19.122  21.421  1.00  0.00    -0.070 C 
ATOM      3  C   UNL     1     -30.405 -18.239  21.899  1.00  0.00    -0.006 C 
ATOM      4  C   UNL     1     -29.463 -17.500  20.958  1.00  0.00     0.047 C 
ATOM      5  C   UNL     1     -28.097 -17.175  21.611  1.00  0.00     0.025 C 
ATOM      6  C   UNL     1     -27.123 -16.396  20.726  1.00  0.00    -0.073 C 
ATOM      7  C   UNL     1     -27.400 -15.994  19.471  1.00  0.00     0.008 C 
ATOM      8  C   UNL     1     -25.761 -16.117  21.316  1.00  0.00     0.031 C 
ATOM      9  C   UNL     1     -25.900 -15.442  22.683  1.00  0.00     0.005 C 
ATOM     10  C   UNL     1     -26.840 -16.229  23.612  1.00  0.00     0.008 C 
ATOM     11  C   UNL     1     -28.251 -16.467  22.993  1.00  0.00    -0.018 C 
ATOM     12  C   UNL     1     -29.041 -17.402  23.942  1.00  0.00     0.088 C 
ATOM     13  C   UNL     1     -30.340 -17.855  23.339  1.00  0.00     0.159 C 
ATOM     14  O   UNL     1     -31.365 -17.886  24.072  1.00  0.00    -0.295 OA
ATOM     15  C   UNL     1     -29.000 -15.111  22.868  1.00  0.00     0.012 C 
ATOM     16  C   UNL     1     -31.475 -19.383  19.939  1.00  0.00     0.039 C 
ENDROOT
TORSDOF 0
ENDMDL
MODEL 4
REMARK VINA RESULT:    -4.699      2.811      5.186
REMARK INTER + INTRA:          -4.699
REMARK INTER:                  -4.699
REMARK INTRA:                   0.000
REMARK UNBOUND:                 0.000
REMARK SMILES C=C1CCC[C@]2(C)CC(=O)C(=C(C)C)C[C@@H]12
REMARK SMILES IDX 13 1 12 2 11 3 15 4 16 5 2 6 1 7 3 8 4 9 5 10 6 11 8 12 9 13
REMARK SMILES IDX 10 14 7 15 14 16
REMARK H PARENT
REMARK Flexibility Score: inf
ROOT
ATOM      1  C   UNL     1     -25.878 -16.271  21.662  1.00  0.00     0.039 C 
ATOM      2  C   UNL     1     -27.092 -16.929  22.277  1.00  0.00    -0.070 C 
ATOM      3  C   UNL     1     -28.238 -17.136  21.563  1.00  0.00    -0.006 C 
ATOM      4  C   UNL     1     -29.430 -17.857  22.179  1.00  0.00     0.047 C 
ATOM      5  C   UNL     1     -30.265 -18.637  21.133  1.00  0.00     0.025 C 
ATOM      6  C   UNL     1     -31.499 -19.348  21.687  1.00  0.00    -0.073 C 
ATOM      7  C   UNL     1     -31.874 -19.313  22.980  1.00  0.00     0.008 C 
ATOM      8  C   UNL     1     -32.299 -20.166  20.700  1.00  0.00     0.031 C 
ATOM      9  C   UNL     1     -32.671 -19.317  19.482  1.00  0.00     0.005 C 
ATOM     10  C   UNL     1     -31.439 -18.624  18.875  1.00  0.00     0.008 C 
ATOM     11  C   UNL     1     -30.656 -17.755  19.906  1.00  0.00    -0.018 C 
ATOM     12  C   UNL     1     -29.360 -17.251  19.226  1.00  0.00     0.088 C 
ATOM     13  C   UNL     1     -28.438 -16.571  20.197  1.00  0.00     0.159 C 
ATOM     14  O   UNL     1     -27.856 -15.513  19.836  1.00  0.00    -0.295 OA
ATOM     15  C   UNL     1     -31.525 -16.536  20.325  1.00  0.00     0.012 C 
ATOM     16  C   UNL     1     -26.969 -17.385  23.714  1.00  0.00     0.039 C 
ENDROOT
TORSDOF 0
ENDMDL
MODEL 5
REMARK VINA RESULT:    -4.682      2.182      5.024
REMARK INTER + INTRA:          -4.682
REMARK INTER:                  -4.682
REMARK INTRA:                   0.000
REMARK UNBOUND:                 0.000
REMARK SMILES C=C1CCC[C@]2(C)CC(=O)C(=C(C)C)C[C@@H]12
REMARK SMILES IDX 13 1 12 2 11 3 15 4 16 5 2 6 1 7 3 8 4 9 5 10 6 11 8 12 9 13
REMARK SMILES IDX 10 14 7 15 14 16
REMARK H PARENT
REMARK Flexibility Score: inf
ROOT
ATOM      1  C   UNL     1     -32.410 -16.323  26.059  1.00  0.00     0.039 C 
ATOM      2  C   UNL     1     -32.767 -15.902  24.652  1.00  0.00    -0.070 C 
ATOM      3  C   UNL     1     -32.440 -16.667  23.568  1.00  0.00    -0.006 C 
ATOM      4  C   UNL     1     -32.861 -16.259  22.162  1.00  0.00     0.047 C 
ATOM      5  C   UNL     1     -33.091 -17.474  21.229  1.00  0.00     0.025 C 
ATOM      6  C   UNL     1     -33.476 -17.126  19.791  1.00  0.00    -0.073 C 
ATOM      7  C   UNL     1     -33.605 -15.867  19.328  1.00  0.00     0.008 C 
ATOM      8  C   UNL     1     -33.764 -18.291  18.875  1.00  0.00     0.031 C 
ATOM      9  C   UNL     1     -32.598 -19.284  18.892  1.00  0.00     0.005 C 
ATOM     10  C   UNL     1     -32.217 -19.687  20.327  1.00  0.00     0.008 C 
ATOM     11  C   UNL     1     -31.887 -18.467  21.238  1.00  0.00    -0.018 C 
ATOM     12  C   UNL     1     -31.684 -18.986  22.683  1.00  0.00     0.088 C 
ATOM     13  C   UNL     1     -31.559 -17.865  23.675  1.00  0.00     0.159 C 
ATOM     14  O   UNL     1     -30.688 -17.958  24.581  1.00  0.00    -0.295 OA
ATOM     15  C   UNL     1     -30.577 -17.791  20.746  1.00  0.00     0.012 C 
ATOM     16  C   UNL     1     -33.538 -14.611  24.498  1.00  0.00     0.039 C 
ENDROOT
TORSDOF 0
ENDMDL
MODEL 6
REMARK VINA RESULT:    -4.661      2.185      4.807
REMARK INTER + INTRA:          -4.661
REMARK INTER:                  -4.661
REMARK INTRA:                   0.000
REMARK UNBOUND:                 0.000
REMARK SMILES C=C1CCC[C@]2(C)CC(=O)C(=C(C)C)C[C@@H]12
REMARK SMILES IDX 13 1 12 2 11 3 15 4 16 5 2 6 1 7 3 8 4 9 5 10 6 11 8 12 9 13
REMARK SMILES IDX 10 14 7 15 14 16
REMARK H PARENT
REMARK Flexibility Score: inf
ROOT
ATOM      1  C   UNL     1     -27.864 -15.870  23.672  1.00  0.00     0.039 C 
ATOM      2  C   UNL     1     -28.850 -17.004  23.840  1.00  0.00    -0.070 C 
ATOM      3  C   UNL     1     -29.788 -17.288  22.888  1.00  0.00    -0.006 C 
ATOM      4  C   UNL     1     -30.733 -18.472  23.044  1.00  0.00     0.047 C 
ATOM      5  C   UNL     1     -31.158 -19.083  21.685  1.00  0.00     0.025 C 
ATOM      6  C   UNL     1     -32.141 -20.250  21.777  1.00  0.00    -0.073 C 
ATOM      7  C   UNL     1     -32.634 -20.733  22.934  1.00  0.00     0.008 C 
ATOM      8  C   UNL     1     -32.525 -20.904  20.471  1.00  0.00     0.031 C 
ATOM      9  C   UNL     1     -33.032 -19.854  19.478  1.00  0.00     0.005 C 
ATOM     10  C   UNL     1     -32.040 -18.687  19.331  1.00  0.00     0.008 C 
ATOM     11  C   UNL     1     -31.693 -18.006  20.690  1.00  0.00    -0.018 C 
ATOM     12  C   UNL     1     -30.572 -16.968  20.436  1.00  0.00     0.088 C 
ATOM     13  C   UNL     1     -30.025 -16.400  21.714  1.00  0.00     0.159 C 
ATOM     14  O   UNL     1     -29.789 -15.163  21.770  1.00  0.00    -0.295 OA
ATOM     15  C   UNL     1     -32.949 -17.280  21.245  1.00  0.00     0.012 C 
ATOM     16  C   UNL     1     -28.729 -17.837  25.096  1.00  0.00     0.039 C 
ENDROOT
TORSDOF 0
ENDMDL
MODEL 7
REMARK VINA RESULT:    -4.559      3.065      5.195
REMARK INTER + INTRA:          -4.559
REMARK INTER:                  -4.559
REMARK INTRA:                   0.000
REMARK UNBOUND:                 0.000
REMARK SMILES C=C1CCC[C@]2(C)CC(=O)C(=C(C)C)C[C@@H]12
REMARK SMILES IDX 13 1 12 2 11 3 15 4 16 5 2 6 1 7 3 8 4 9 5 10 6 11 8 12 9 13
REMARK SMILES IDX 10 14 7 15 14 16
REMARK H PARENT
REMARK Flexibility Score: inf
ROOT
ATOM      1  C   UNL     1     -30.247 -17.842  28.513  1.00  0.00     0.039 C 
ATOM      2  C   UNL     1     -31.178 -16.909  27.772  1.00  0.00    -0.070 C 
ATOM      3  C   UNL     1     -31.228 -16.878  26.408  1.00  0.00    -0.006 C 
ATOM      4  C   UNL     1     -32.215 -15.977  25.677  1.00  0.00     0.047 C 
ATOM      5  C   UNL     1     -32.664 -16.560  24.314  1.00  0.00     0.025 C 
ATOM      6  C   UNL     1     -33.624 -15.680  23.515  1.00  0.00    -0.073 C 
ATOM      7  C   UNL     1     -34.062 -14.474  23.926  1.00  0.00     0.008 C 
ATOM      8  C   UNL     1     -34.125 -16.250  22.209  1.00  0.00     0.031 C 
ATOM      9  C   UNL     1     -32.948 -16.691  21.334  1.00  0.00     0.005 C 
ATOM     10  C   UNL     1     -31.987 -17.616  22.100  1.00  0.00     0.008 C 
ATOM     11  C   UNL     1     -31.455 -16.985  23.422  1.00  0.00    -0.018 C 
ATOM     12  C   UNL     1     -30.640 -18.064  24.176  1.00  0.00     0.088 C 
ATOM     13  C   UNL     1     -30.253 -17.620  25.557  1.00  0.00     0.159 C 
ATOM     14  O   UNL     1     -29.088 -17.875  25.968  1.00  0.00    -0.295 OA
ATOM     15  C   UNL     1     -30.531 -15.781  23.090  1.00  0.00     0.012 C 
ATOM     16  C   UNL     1     -32.081 -16.034  28.612  1.00  0.00     0.039 C 
ENDROOT
TORSDOF 0
ENDMDL
MODEL 8
REMARK VINA RESULT:    -4.476      3.770      5.819
REMARK INTER + INTRA:          -4.476
REMARK INTER:                  -4.476
REMARK INTRA:                   0.000
REMARK UNBOUND:                 0.000
REMARK SMILES C=C1CCC[C@]2(C)CC(=O)C(=C(C)C)C[C@@H]12
REMARK SMILES IDX 13 1 12 2 11 3 15 4 16 5 2 6 1 7 3 8 4 9 5 10 6 11 8 12 9 13
REMARK SMILES IDX 10 14 7 15 14 16
REMARK H PARENT
REMARK Flexibility Score: inf
ROOT
ATOM      1  C   UNL     1     -34.124 -14.711  22.144  1.00  0.00     0.039 C 
ATOM      2  C   UNL     1     -32.951 -15.491  22.693  1.00  0.00    -0.070 C 
ATOM      3  C   UNL     1     -32.618 -15.451  24.017  1.00  0.00    -0.006 C 
ATOM      4  C   UNL     1     -31.472 -16.291  24.566  1.00  0.00     0.047 C 
ATOM      5  C   UNL     1     -31.688 -16.711  26.041  1.00  0.00     0.025 C 
ATOM      6  C   UNL     1     -30.549 -17.522  26.659  1.00  0.00    -0.073 C 
ATOM      7  C   UNL     1     -29.420 -17.857  26.006  1.00  0.00     0.008 C 
ATOM      8  C   UNL     1     -30.760 -17.996  28.078  1.00  0.00     0.031 C 
ATOM      9  C   UNL     1     -31.132 -16.818  28.983  1.00  0.00     0.005 C 
ATOM     10  C   UNL     1     -32.307 -16.009  28.407  1.00  0.00     0.008 C 
ATOM     11  C   UNL     1     -32.045 -15.499  26.958  1.00  0.00    -0.018 C 
ATOM     12  C   UNL     1     -33.349 -14.850  26.433  1.00  0.00     0.088 C 
ATOM     13  C   UNL     1     -33.264 -14.507  24.974  1.00  0.00     0.159 C 
ATOM     14  O   UNL     1     -33.735 -13.404  24.586  1.00  0.00    -0.295 OA
ATOM     15  C   UNL     1     -30.913 -14.435  26.976  1.00  0.00     0.012 C 
ATOM     16  C   UNL     1     -32.182 -16.349  21.715  1.00  0.00     0.039 C 
ENDROOT
TORSDOF 0
ENDMDL
MODEL 9
REMARK VINA RESULT:    -4.437      2.952      4.477
REMARK INTER + INTRA:          -4.437
REMARK INTER:                  -4.437
REMARK INTRA:                   0.000
REMARK UNBOUND:                 0.000
REMARK SMILES C=C1CCC[C@]2(C)CC(=O)C(=C(C)C)C[C@@H]12
REMARK SMILES IDX 13 1 12 2 11 3 15 4 16 5 2 6 1 7 3 8 4 9 5 10 6 11 8 12 9 13
REMARK SMILES IDX 10 14 7 15 14 16
REMARK H PARENT
REMARK Flexibility Score: inf
ROOT
ATOM      1  C   UNL     1     -32.992 -16.452  24.690  1.00  0.00     0.039 C 
ATOM      2  C   UNL     1     -31.544 -16.873  24.576  1.00  0.00    -0.070 C 
ATOM      3  C   UNL     1     -30.920 -16.980  23.366  1.00  0.00    -0.006 C 
ATOM      4  C   UNL     1     -29.444 -17.345  23.271  1.00  0.00     0.047 C 
ATOM      5  C   UNL     1     -28.751 -16.725  22.033  1.00  0.00     0.025 C 
ATOM      6  C   UNL     1     -27.277 -17.090  21.862  1.00  0.00    -0.073 C 
ATOM      7  C   UNL     1     -26.598 -17.899  22.699  1.00  0.00     0.008 C 
ATOM      8  C   UNL     1     -26.560 -16.451  20.697  1.00  0.00     0.031 C 
ATOM      9  C   UNL     1     -27.329 -16.702  19.396  1.00  0.00     0.005 C 
ATOM     10  C   UNL     1     -28.808 -16.301  19.524  1.00  0.00     0.008 C 
ATOM     11  C   UNL     1     -29.532 -17.006  20.711  1.00  0.00    -0.018 C 
ATOM     12  C   UNL     1     -30.952 -16.401  20.837  1.00  0.00     0.088 C 
ATOM     13  C   UNL     1     -31.659 -16.870  22.076  1.00  0.00     0.159 C 
ATOM     14  O   UNL     1     -32.879 -17.178  21.992  1.00  0.00    -0.295 OA
ATOM     15  C   UNL     1     -29.646 -18.528  20.421  1.00  0.00     0.012 C 
ATOM     16  C   UNL     1     -30.803 -17.135  25.868  1.00  0.00     0.039 C 
ENDROOT
TORSDOF 0
ENDMDL
