MODEL 1
REMARK VINA RESULT:    -3.267      0.000      0.000
REMARK INTER + INTRA:          -7.194
REMARK INTER:                  -5.558
REMARK INTRA:                  -1.636
REMARK UNBOUND:                -1.636
REMARK SMILES CCCCCCCCCCCCCC(=O)[O-]
REMARK SMILES IDX 8 1 9 2 10 3 11 4 12 5 13 6 14 7 15 8 16 9 7 10 6 11 5 12
REMARK SMILES IDX 4 13 3 14 2 15 1 16
REMARK H PARENT
REMARK Flexibility Score: inf
ROOT
ATOM      1  C   UNL     1      11.943  22.500  18.205  1.00  0.00     0.000 C 
ENDROOT
BRANCH   1   2
ATOM      2  C   UNL     1      12.648  22.328  19.563  1.00  0.00     0.000 C 
BRANCH   2   3
ATOM      3  C   UNL     1      11.765  21.629  20.610  1.00  0.00     0.000 C 
BRANCH   3   4
ATOM      4  C   UNL     1      10.259  21.851  20.346  1.00  0.00     0.000 C 
BRANCH   4   5
ATOM      5  C   UNL     1       9.348  21.178  21.389  1.00  0.00     0.006 C 
BRANCH   5   6
ATOM      6  C   UNL     1       7.876  21.608  21.303  1.00  0.00     0.053 C 
BRANCH   6   7
ATOM      7  C   UNL     1       7.190  21.519  22.633  1.00  0.00     0.041 C 
ATOM      8  O   UNL     1       7.371  22.416  23.498  1.00  0.00    -0.550 OA
ATOM      9  O   UNL     1       6.338  20.458  22.911  1.00  0.00    -0.550 OA
ENDBRANCH   6   7
ENDBRANCH   5   6
ENDBRANCH   4   5
ENDBRANCH   3   4
ENDBRANCH   2   3
ENDBRANCH   1   2
BRANCH   1  10
ATOM     10  C   UNL     1      12.737  21.985  16.986  1.00  0.00     0.000 C 
BRANCH  10  11
ATOM     11  C   UNL     1      12.021  20.919  16.139  1.00  0.00    -0.000 C 
BRANCH  11  12
ATOM     12  C   UNL     1      10.536  21.244  15.899  1.00  0.00    -0.000 C 
BRANCH  12  13
ATOM     13  C   UNL     1       9.622  20.029  16.126  1.00  0.00    -0.000 C 
BRANCH  13  14
ATOM     14  C   UNL     1       8.805  20.135  17.423  1.00  0.00    -0.000 C 
BRANCH  14  15
ATOM     15  C   UNL     1       8.929  18.852  18.254  1.00  0.00    -0.003 C 
ATOM     16  C   UNL     1      10.390  18.535  18.563  1.00  0.00     0.004 C 
ENDBRANCH  14  15
ENDBRANCH  13  14
ENDBRANCH  12  13
ENDBRANCH  11  12
ENDBRANCH  10  11
ENDBRANCH   1  10
TORSDOF 12
ENDMDL
MODEL 2
REMARK VINA RESULT:    -3.178      2.540      3.223
REMARK INTER + INTRA:          -7.043
REMARK INTER:                  -5.029
REMARK INTRA:                  -2.014
REMARK UNBOUND:                -1.636
REMARK SMILES CCCCCCCCCCCCCC(=O)[O-]
REMARK SMILES IDX 8 1 9 2 10 3 11 4 12 5 13 6 14 7 15 8 16 9 7 10 6 11 5 12
REMARK SMILES IDX 4 13 3 14 2 15 1 16
REMARK H PARENT
REMARK Flexibility Score: inf
ROOT
ATOM      1  C   UNL     1      12.253  22.379  19.819  1.00  0.00     0.000 C 
ENDROOT
BRANCH   1   2
ATOM      2  C   UNL     1      11.061  21.645  20.458  1.00  0.00     0.000 C 
BRANCH   2   3
ATOM      3  C   UNL     1       9.704  22.241  20.050  1.00  0.00     0.000 C 
BRANCH   3   4
ATOM      4  C   UNL     1       8.549  21.227  20.204  1.00  0.00     0.000 C 
BRANCH   4   5
ATOM      5  C   UNL     1       7.483  21.338  19.099  1.00  0.00     0.006 C 
BRANCH   5   6
ATOM      6  C   UNL     1       6.573  20.107  18.984  1.00  0.00     0.053 C 
BRANCH   6   7
ATOM      7  C   UNL     1       5.937  20.008  17.629  1.00  0.00     0.041 C 
ATOM      8  O   UNL     1       6.508  20.509  16.625  1.00  0.00    -0.550 OA
ATOM      9  O   UNL     1       4.725  19.348  17.472  1.00  0.00    -0.550 OA
ENDBRANCH   6   7
ENDBRANCH   5   6
ENDBRANCH   4   5
ENDBRANCH   3   4
ENDBRANCH   2   3
ENDBRANCH   1   2
BRANCH   1  10
ATOM     10  C   UNL     1      12.023  22.868  18.374  1.00  0.00     0.000 C 
BRANCH  10  11
ATOM     11  C   UNL     1      12.924  22.217  17.310  1.00  0.00    -0.000 C 
BRANCH  11  12
ATOM     12  C   UNL     1      12.126  21.469  16.228  1.00  0.00    -0.000 C 
BRANCH  12  13
ATOM     13  C   UNL     1      10.608  21.549  16.454  1.00  0.00    -0.000 C 
BRANCH  13  14
ATOM     14  C   UNL     1       9.945  20.165  16.532  1.00  0.00    -0.000 C 
BRANCH  14  15
ATOM     15  C   UNL     1      10.572  19.320  17.648  1.00  0.00    -0.003 C 
ATOM     16  C   UNL     1       9.606  18.243  18.133  1.00  0.00     0.004 C 
ENDBRANCH  14  15
ENDBRANCH  13  14
ENDBRANCH  12  13
ENDBRANCH  11  12
ENDBRANCH  10  11
ENDBRANCH   1  10
TORSDOF 12
ENDMDL
MODEL 3
REMARK VINA RESULT:    -3.157      2.560      4.523
REMARK INTER + INTRA:          -7.008
REMARK INTER:                  -5.623
REMARK INTRA:                  -1.385
REMARK UNBOUND:                -1.636
REMARK SMILES CCCCCCCCCCCCCC(=O)[O-]
REMARK SMILES IDX 8 1 9 2 10 3 11 4 12 5 13 6 14 7 15 8 16 9 7 10 6 11 5 12
REMARK SMILES IDX 4 13 3 14 2 15 1 16
REMARK H PARENT
REMARK Flexibility Score: inf
ROOT
ATOM      1  C   UNL     1      11.833  20.472  15.875  1.00  0.00     0.000 C 
ENDROOT
BRANCH   1   2
ATOM      2  C   UNL     1      10.488  20.480  16.623  1.00  0.00     0.000 C 
BRANCH   2   3
ATOM      3  C   UNL     1      10.405  19.401  17.715  1.00  0.00     0.000 C 
BRANCH   3   4
ATOM      4  C   UNL     1       8.959  18.902  17.935  1.00  0.00     0.000 C 
BRANCH   4   5
ATOM      5  C   UNL     1       7.932  20.042  18.069  1.00  0.00     0.006 C 
BRANCH   5   6
ATOM      6  C   UNL     1       7.064  20.250  16.820  1.00  0.00     0.053 C 
BRANCH   6   7
ATOM      7  C   UNL     1       5.790  19.462  16.888  1.00  0.00     0.041 C 
ATOM      8  O   UNL     1       4.983  19.647  17.838  1.00  0.00    -0.550 OA
ATOM      9  O   UNL     1       5.483  18.540  15.897  1.00  0.00    -0.550 OA
ENDBRANCH   6   7
ENDBRANCH   5   6
ENDBRANCH   4   5
ENDBRANCH   3   4
ENDBRANCH   2   3
ENDBRANCH   1   2
BRANCH   1  10
ATOM     10  C   UNL     1      12.791  21.625  16.239  1.00  0.00     0.000 C 
BRANCH  10  11
ATOM     11  C   UNL     1      12.222  22.670  17.214  1.00  0.00    -0.000 C 
BRANCH  11  12
ATOM     12  C   UNL     1      12.741  22.492  18.651  1.00  0.00    -0.000 C 
BRANCH  12  13
ATOM     13  C   UNL     1      11.610  22.493  19.692  1.00  0.00    -0.000 C 
BRANCH  13  14
ATOM     14  C   UNL     1      11.666  21.280  20.633  1.00  0.00    -0.000 C 
BRANCH  14  15
ATOM     15  C   UNL     1      10.271  20.938  21.170  1.00  0.00    -0.003 C 
ATOM     16  C   UNL     1       9.257  22.015  20.794  1.00  0.00     0.004 C 
ENDBRANCH  14  15
ENDBRANCH  13  14
ENDBRANCH  12  13
ENDBRANCH  11  12
ENDBRANCH  10  11
ENDBRANCH   1  10
TORSDOF 12
ENDMDL
MODEL 4
REMARK VINA RESULT:    -3.157      1.532      3.519
REMARK INTER + INTRA:          -7.007
REMARK INTER:                  -5.367
REMARK INTRA:                  -1.641
REMARK UNBOUND:                -1.636
REMARK SMILES CCCCCCCCCCCCCC(=O)[O-]
REMARK SMILES IDX 8 1 9 2 10 3 11 4 12 5 13 6 14 7 15 8 16 9 7 10 6 11 5 12
REMARK SMILES IDX 4 13 3 14 2 15 1 16
REMARK H PARENT
REMARK Flexibility Score: inf
ROOT
ATOM      1  C   UNL     1      10.377  20.566  15.947  1.00  0.00     0.000 C 
ENDROOT
BRANCH   1   2
ATOM      2  C   UNL     1       9.538  19.667  16.873  1.00  0.00     0.000 C 
BRANCH   2   3
ATOM      3  C   UNL     1       8.076  20.129  16.990  1.00  0.00     0.000 C 
BRANCH   3   4
ATOM      4  C   UNL     1       7.962  21.589  17.483  1.00  0.00     0.000 C 
BRANCH   4   5
ATOM      5  C   UNL     1       6.963  21.768  18.642  1.00  0.00     0.006 C 
BRANCH   5   6
ATOM      6  C   UNL     1       7.246  20.870  19.854  1.00  0.00     0.053 C 
BRANCH   6   7
ATOM      7  C   UNL     1       6.046  20.738  20.743  1.00  0.00     0.041 C 
ATOM      8  O   UNL     1       6.186  20.713  21.995  1.00  0.00    -0.550 OA
ATOM      9  O   UNL     1       4.773  20.662  20.194  1.00  0.00    -0.550 OA
ENDBRANCH   6   7
ENDBRANCH   5   6
ENDBRANCH   4   5
ENDBRANCH   3   4
ENDBRANCH   2   3
ENDBRANCH   1   2
BRANCH   1  10
ATOM     10  C   UNL     1      11.903  20.466  16.145  1.00  0.00     0.000 C 
BRANCH  10  11
ATOM     11  C   UNL     1      12.646  21.812  16.215  1.00  0.00    -0.000 C 
BRANCH  11  12
ATOM     12  C   UNL     1      12.052  22.768  17.264  1.00  0.00    -0.000 C 
BRANCH  12  13
ATOM     13  C   UNL     1      12.992  22.988  18.460  1.00  0.00    -0.000 C 
BRANCH  13  14
ATOM     14  C   UNL     1      12.466  22.349  19.755  1.00  0.00    -0.000 C 
BRANCH  14  15
ATOM     15  C   UNL     1      11.044  21.809  19.559  1.00  0.00    -0.003 C 
ATOM     16  C   UNL     1      10.902  20.406  20.142  1.00  0.00     0.004 C 
ENDBRANCH  14  15
ENDBRANCH  13  14
ENDBRANCH  12  13
ENDBRANCH  11  12
ENDBRANCH  10  11
ENDBRANCH   1  10
TORSDOF 12
ENDMDL
MODEL 5
REMARK VINA RESULT:    -3.062     20.326     22.079
REMARK INTER + INTRA:          -6.846
REMARK INTER:                  -4.619
REMARK INTRA:                  -2.226
REMARK UNBOUND:                -1.636
REMARK SMILES CCCCCCCCCCCCCC(=O)[O-]
REMARK SMILES IDX 8 1 9 2 10 3 11 4 12 5 13 6 14 7 15 8 16 9 7 10 6 11 5 12
REMARK SMILES IDX 4 13 3 14 2 15 1 16
REMARK H PARENT
REMARK Flexibility Score: inf
ROOT
ATOM      1  C   UNL     1      11.004   3.243  32.038  1.00  0.00     0.000 C 
ENDROOT
BRANCH   1   2
ATOM      2  C   UNL     1      10.259   4.424  31.391  1.00  0.00     0.000 C 
BRANCH   2   3
ATOM      3  C   UNL     1       8.739   4.367  31.616  1.00  0.00     0.000 C 
BRANCH   3   4
ATOM      4  C   UNL     1       8.352   3.381  32.741  1.00  0.00     0.000 C 
BRANCH   4   5
ATOM      5  C   UNL     1       7.119   3.827  33.549  1.00  0.00     0.006 C 
BRANCH   5   6
ATOM      6  C   UNL     1       6.546   5.184  33.116  1.00  0.00     0.053 C 
BRANCH   6   7
ATOM      7  C   UNL     1       5.707   5.804  34.193  1.00  0.00     0.041 C 
ATOM      8  O   UNL     1       6.247   6.231  35.248  1.00  0.00    -0.550 OA
ATOM      9  O   UNL     1       4.334   5.929  34.026  1.00  0.00    -0.550 OA
ENDBRANCH   6   7
ENDBRANCH   5   6
ENDBRANCH   4   5
ENDBRANCH   3   4
ENDBRANCH   2   3
ENDBRANCH   1   2
BRANCH   1  10
ATOM     10  C   UNL     1      12.236   3.629  32.882  1.00  0.00     0.000 C 
BRANCH  10  11
ATOM     11  C   UNL     1      12.210   3.146  34.343  1.00  0.00    -0.000 C 
BRANCH  11  12
ATOM     12  C   UNL     1      11.838   4.262  35.334  1.00  0.00    -0.000 C 
BRANCH  12  13
ATOM     13  C   UNL     1      10.353   4.228  35.731  1.00  0.00    -0.000 C 
BRANCH  13  14
ATOM     14  C   UNL     1       9.655   5.583  35.538  1.00  0.00    -0.000 C 
BRANCH  14  15
ATOM     15  C   UNL     1      10.322   6.388  34.415  1.00  0.00    -0.003 C 
ATOM     16  C   UNL     1       9.341   7.371  33.783  1.00  0.00     0.004 C 
ENDBRANCH  14  15
ENDBRANCH  13  14
ENDBRANCH  12  13
ENDBRANCH  11  12
ENDBRANCH  10  11
ENDBRANCH   1  10
TORSDOF 12
ENDMDL
MODEL 6
REMARK VINA RESULT:    -3.060      1.036      2.042
REMARK INTER + INTRA:          -6.843
REMARK INTER:                  -5.047
REMARK INTRA:                  -1.796
REMARK UNBOUND:                -1.636
REMARK SMILES CCCCCCCCCCCCCC(=O)[O-]
REMARK SMILES IDX 8 1 9 2 10 3 11 4 12 5 13 6 14 7 15 8 16 9 7 10 6 11 5 12
REMARK SMILES IDX 4 13 3 14 2 15 1 16
REMARK H PARENT
REMARK Flexibility Score: inf
ROOT
ATOM      1  C   UNL     1      11.796  21.627  19.810  1.00  0.00     0.000 C 
ENDROOT
BRANCH   1   2
ATOM      2  C   UNL     1      10.343  21.652  20.318  1.00  0.00     0.000 C 
BRANCH   2   3
ATOM      3  C   UNL     1       9.522  22.808  19.725  1.00  0.00     0.000 C 
BRANCH   3   4
ATOM      4  C   UNL     1       8.188  22.325  19.114  1.00  0.00     0.000 C 
BRANCH   4   5
ATOM      5  C   UNL     1       7.474  21.259  19.966  1.00  0.00     0.006 C 
BRANCH   5   6
ATOM      6  C   UNL     1       6.570  21.840  21.062  1.00  0.00     0.053 C 
BRANCH   6   7
ATOM      7  C   UNL     1       6.977  21.373  22.428  1.00  0.00     0.041 C 
ATOM      8  O   UNL     1       6.334  20.454  23.000  1.00  0.00    -0.550 OA
ATOM      9  O   UNL     1       8.076  21.939  23.061  1.00  0.00    -0.550 OA
ENDBRANCH   6   7
ENDBRANCH   5   6
ENDBRANCH   4   5
ENDBRANCH   3   4
ENDBRANCH   2   3
ENDBRANCH   1   2
BRANCH   1  10
ATOM     10  C   UNL     1      12.197  22.817  18.916  1.00  0.00     0.000 C 
BRANCH  10  11
ATOM     11  C   UNL     1      12.945  22.446  17.623  1.00  0.00    -0.000 C 
BRANCH  11  12
ATOM     12  C   UNL     1      11.999  22.189  16.438  1.00  0.00    -0.000 C 
BRANCH  12  13
ATOM     13  C   UNL     1      11.699  20.695  16.235  1.00  0.00    -0.000 C 
BRANCH  13  14
ATOM     14  C   UNL     1      10.229  20.427  15.875  1.00  0.00    -0.000 C 
BRANCH  14  15
ATOM     15  C   UNL     1       9.487  19.782  17.051  1.00  0.00    -0.003 C 
ATOM     16  C   UNL     1      10.409  18.863  17.848  1.00  0.00     0.004 C 
ENDBRANCH  14  15
ENDBRANCH  13  14
ENDBRANCH  12  13
ENDBRANCH  11  12
ENDBRANCH  10  11
ENDBRANCH   1  10
TORSDOF 12
ENDMDL
MODEL 7
REMARK VINA RESULT:    -3.053     19.801     21.824
REMARK INTER + INTRA:          -6.831
REMARK INTER:                  -5.225
REMARK INTRA:                  -1.606
REMARK UNBOUND:                -1.636
REMARK SMILES CCCCCCCCCCCCCC(=O)[O-]
REMARK SMILES IDX 8 1 9 2 10 3 11 4 12 5 13 6 14 7 15 8 16 9 7 10 6 11 5 12
REMARK SMILES IDX 4 13 3 14 2 15 1 16
REMARK H PARENT
REMARK Flexibility Score: inf
ROOT
ATOM      1  C   UNL     1      11.690   2.992  33.191  1.00  0.00     0.000 C 
ENDROOT
BRANCH   1   2
ATOM      2  C   UNL     1      11.867   4.215  32.274  1.00  0.00     0.000 C 
BRANCH   2   3
ATOM      3  C   UNL     1      10.639   4.480  31.388  1.00  0.00     0.000 C 
BRANCH   3   4
ATOM      4  C   UNL     1       9.495   3.477  31.659  1.00  0.00     0.000 C 
BRANCH   4   5
ATOM      5  C   UNL     1       8.166   3.866  30.985  1.00  0.00     0.006 C 
BRANCH   5   6
ATOM      6  C   UNL     1       8.265   4.038  29.462  1.00  0.00     0.053 C 
BRANCH   6   7
ATOM      7  C   UNL     1       6.915   4.191  28.829  1.00  0.00     0.041 C 
ATOM      8  O   UNL     1       6.177   5.163  29.139  1.00  0.00    -0.550 OA
ATOM      9  O   UNL     1       6.478   3.272  27.884  1.00  0.00    -0.550 OA
ENDBRANCH   6   7
ENDBRANCH   5   6
ENDBRANCH   4   5
ENDBRANCH   3   4
ENDBRANCH   2   3
ENDBRANCH   1   2
BRANCH   1  10
ATOM     10  C   UNL     1      12.717   2.878  34.336  1.00  0.00     0.000 C 
BRANCH  10  11
ATOM     11  C   UNL     1      12.627   3.974  35.412  1.00  0.00    -0.000 C 
BRANCH  11  12
ATOM     12  C   UNL     1      11.208   4.131  35.987  1.00  0.00    -0.000 C 
BRANCH  12  13
ATOM     13  C   UNL     1      10.569   5.480  35.619  1.00  0.00    -0.000 C 
BRANCH  13  14
ATOM     14  C   UNL     1       9.262   5.321  34.828  1.00  0.00    -0.000 C 
BRANCH  14  15
ATOM     15  C   UNL     1       8.883   6.633  34.128  1.00  0.00    -0.003 C 
ATOM     16  C   UNL     1      10.118   7.336  33.571  1.00  0.00     0.004 C 
ENDBRANCH  14  15
ENDBRANCH  13  14
ENDBRANCH  12  13
ENDBRANCH  11  12
ENDBRANCH  10  11
ENDBRANCH   1  10
TORSDOF 12
ENDMDL
MODEL 8
REMARK VINA RESULT:    -3.045      1.879      4.316
REMARK INTER + INTRA:          -6.816
REMARK INTER:                  -4.929
REMARK INTRA:                  -1.887
REMARK UNBOUND:                -1.636
REMARK SMILES CCCCCCCCCCCCCC(=O)[O-]
REMARK SMILES IDX 8 1 9 2 10 3 11 4 12 5 13 6 14 7 15 8 16 9 7 10 6 11 5 12
REMARK SMILES IDX 4 13 3 14 2 15 1 16
REMARK H PARENT
REMARK Flexibility Score: inf
ROOT
ATOM      1  C   UNL     1       9.202  18.540  17.558  1.00  0.00     0.000 C 
ENDROOT
BRANCH   1   2
ATOM      2  C   UNL     1       8.460  18.644  16.214  1.00  0.00     0.000 C 
BRANCH   2   3
ATOM      3  C   UNL     1       7.129  19.406  16.324  1.00  0.00     0.000 C 
BRANCH   3   4
ATOM      4  C   UNL     1       7.292  20.912  16.021  1.00  0.00     0.000 C 
BRANCH   4   5
ATOM      5  C   UNL     1       6.866  21.822  17.188  1.00  0.00     0.006 C 
BRANCH   5   6
ATOM      6  C   UNL     1       8.027  22.266  18.089  1.00  0.00     0.053 C 
BRANCH   6   7
ATOM      7  C   UNL     1       7.875  21.751  19.489  1.00  0.00     0.041 C 
ATOM      8  O   UNL     1       8.294  22.433  20.462  1.00  0.00    -0.550 OA
ATOM      9  O   UNL     1       7.255  20.531  19.723  1.00  0.00    -0.550 OA
ENDBRANCH   6   7
ENDBRANCH   5   6
ENDBRANCH   4   5
ENDBRANCH   3   4
ENDBRANCH   2   3
ENDBRANCH   1   2
BRANCH   1  10
ATOM     10  C   UNL     1      10.392  19.506  17.726  1.00  0.00     0.000 C 
BRANCH  10  11
ATOM     11  C   UNL     1      10.949  20.096  16.418  1.00  0.00    -0.000 C 
BRANCH  11  12
ATOM     12  C   UNL     1      11.180  21.615  16.499  1.00  0.00    -0.000 C 
BRANCH  12  13
ATOM     13  C   UNL     1      12.667  21.978  16.645  1.00  0.00    -0.000 C 
BRANCH  13  14
ATOM     14  C   UNL     1      12.975  22.697  17.968  1.00  0.00    -0.000 C 
BRANCH  14  15
ATOM     15  C   UNL     1      11.733  22.749  18.865  1.00  0.00    -0.003 C 
ATOM     16  C   UNL     1      11.940  21.936  20.140  1.00  0.00     0.004 C 
ENDBRANCH  14  15
ENDBRANCH  13  14
ENDBRANCH  12  13
ENDBRANCH  11  12
ENDBRANCH  10  11
ENDBRANCH   1  10
TORSDOF 12
ENDMDL
MODEL 9
REMARK VINA RESULT:    -3.038     20.083     22.003
REMARK INTER + INTRA:          -6.806
REMARK INTER:                  -5.066
REMARK INTRA:                  -1.739
REMARK UNBOUND:                -1.636
REMARK SMILES CCCCCCCCCCCCCC(=O)[O-]
REMARK SMILES IDX 8 1 9 2 10 3 11 4 12 5 13 6 14 7 15 8 16 9 7 10 6 11 5 12
REMARK SMILES IDX 4 13 3 14 2 15 1 16
REMARK H PARENT
REMARK Flexibility Score: inf
ROOT
ATOM      1  C   UNL     1      11.468   4.540  31.968  1.00  0.00     0.000 C 
ENDROOT
BRANCH   1   2
ATOM      2  C   UNL     1       9.999   4.389  31.536  1.00  0.00     0.000 C 
BRANCH   2   3
ATOM      3  C   UNL     1       9.312   3.168  32.169  1.00  0.00     0.000 C 
BRANCH   3   4
ATOM      4  C   UNL     1       7.848   3.461  32.565  1.00  0.00     0.000 C 
BRANCH   4   5
ATOM      5  C   UNL     1       7.353   4.846  32.106  1.00  0.00     0.006 C 
BRANCH   5   6
ATOM      6  C   UNL     1       5.940   4.837  31.507  1.00  0.00     0.053 C 
BRANCH   6   7
ATOM      7  C   UNL     1       5.969   4.794  30.009  1.00  0.00     0.041 C 
ATOM      8  O   UNL     1       4.906   4.953  29.351  1.00  0.00    -0.550 OA
ATOM      9  O   UNL     1       7.169   4.599  29.337  1.00  0.00    -0.550 OA
ENDBRANCH   6   7
ENDBRANCH   5   6
ENDBRANCH   4   5
ENDBRANCH   3   4
ENDBRANCH   2   3
ENDBRANCH   1   2
BRANCH   1  10
ATOM     10  C   UNL     1      12.256   3.219  32.081  1.00  0.00     0.000 C 
BRANCH  10  11
ATOM     11  C   UNL     1      12.992   3.004  33.415  1.00  0.00    -0.000 C 
BRANCH  11  12
ATOM     12  C   UNL     1      12.052   3.059  34.632  1.00  0.00    -0.000 C 
BRANCH  12  13
ATOM     13  C   UNL     1      12.574   3.989  35.739  1.00  0.00    -0.000 C 
BRANCH  13  14
ATOM     14  C   UNL     1      11.598   5.130  36.067  1.00  0.00    -0.000 C 
BRANCH  14  15
ATOM     15  C   UNL     1      10.184   4.798  35.573  1.00  0.00    -0.003 C 
ATOM     16  C   UNL     1       9.552   5.995  34.868  1.00  0.00     0.004 C 
ENDBRANCH  14  15
ENDBRANCH  13  14
ENDBRANCH  12  13
ENDBRANCH  11  12
ENDBRANCH  10  11
ENDBRANCH   1  10
TORSDOF 12
ENDMDL
