MODEL 1
REMARK VINA RESULT:    -5.955      0.000      0.000
REMARK INTER + INTRA:          -7.270
REMARK INTER:                  -6.999
REMARK INTRA:                  -0.271
REMARK UNBOUND:                -0.271
REMARK SMILES O=c1cc(-c2ccc(O)c(O)c2)oc2cc(O)cc(O)c12
REMARK SMILES IDX 4 1 3 2 2 3 1 4 21 5 19 6 18 7 16 8 15 9 14 10 13 11 5 12
REMARK SMILES IDX 6 13 7 14 8 15 12 16 10 17 9 18 11 20 20 22 17 24
REMARK H PARENT 9 19 11 21 20 23 17 25
REMARK Flexibility Score: inf
ROOT
ATOM      1  C   UNL     1      10.018 -25.520 -25.416  1.00  0.00     0.138 A 
ATOM      2  C   UNL     1      11.089 -25.034 -26.185  1.00  0.00     0.100 A 
ATOM      3  C   UNL     1      11.239 -25.462 -27.504  1.00  0.00     0.197 A 
ATOM      4  O   UNL     1      12.202 -25.019 -28.185  1.00  0.00    -0.289 OA
ATOM      5  C   UNL     1      10.311 -26.373 -28.048  1.00  0.00     0.107 A 
ATOM      6  C   UNL     1      10.389 -26.857 -29.375  1.00  0.00     0.134 A 
ATOM      7  C   UNL     1       9.423 -27.760 -29.844  1.00  0.00     0.093 A 
ATOM      8  C   UNL     1       8.382 -28.183 -29.015  1.00  0.00     0.123 A 
ATOM      9  C   UNL     1       8.299 -27.707 -27.702  1.00  0.00     0.094 A 
ATOM     10  C   UNL     1       9.253 -26.809 -27.216  1.00  0.00     0.146 A 
ATOM     11  O   UNL     1       9.155 -26.371 -25.964  1.00  0.00    -0.456 OA
ENDROOT
BRANCH   1  12
ATOM     12  C   UNL     1       9.810 -25.098 -24.008  1.00  0.00     0.021 A 
ATOM     13  C   UNL     1       9.375 -23.801 -23.681  1.00  0.00     0.016 A 
ATOM     14  C   UNL     1       9.197 -23.431 -22.347  1.00  0.00     0.051 A 
ATOM     15  C   UNL     1       9.454 -24.336 -21.312  1.00  0.00     0.157 A 
ATOM     16  C   UNL     1      10.082 -26.003 -22.967  1.00  0.00     0.062 A 
ATOM     17  C   UNL     1       9.905 -25.638 -21.627  1.00  0.00     0.158 A 
BRANCH  15  18
ATOM     18  O   UNL     1       9.254 -23.901 -20.000  1.00  0.00    -0.504 OA
ATOM     19  H   UNL     1       9.278 -24.509 -19.194  1.00  0.00     0.293 HD
ENDBRANCH  15  18
BRANCH  17  20
ATOM     20  O   UNL     1      10.188 -26.595 -20.649  1.00  0.00    -0.504 OA
ATOM     21  H   UNL     1       9.509 -27.247 -20.284  1.00  0.00     0.293 HD
ENDBRANCH  17  20
ENDBRANCH   1  12
BRANCH   6  22
ATOM     22  O   UNL     1      11.417 -26.452 -30.228  1.00  0.00    -0.507 OA
ATOM     23  H   UNL     1      11.988 -27.122 -30.730  1.00  0.00     0.293 HD
ENDBRANCH   6  22
BRANCH   8  24
ATOM     24  O   UNL     1       7.434 -29.079 -29.505  1.00  0.00    -0.508 OA
ATOM     25  H   UNL     1       6.524 -29.179 -29.070  1.00  0.00     0.293 HD
ENDBRANCH   8  24
TORSDOF 5
ENDMDL
MODEL 2
REMARK VINA RESULT:    -5.812     10.000     13.018
REMARK INTER + INTRA:          -7.103
REMARK INTER:                  -6.808
REMARK INTRA:                  -0.295
REMARK UNBOUND:                -0.271
REMARK SMILES O=c1cc(-c2ccc(O)c(O)c2)oc2cc(O)cc(O)c12
REMARK SMILES IDX 4 1 3 2 2 3 1 4 21 5 19 6 18 7 16 8 15 9 14 10 13 11 5 12
REMARK SMILES IDX 6 13 7 14 8 15 12 16 10 17 9 18 11 20 20 22 17 24
REMARK H PARENT 9 19 11 21 20 23 17 25
REMARK Flexibility Score: inf
ROOT
ATOM      1  C   UNL     1      19.936 -22.363 -28.077  1.00  0.00     0.138 A 
ATOM      2  C   UNL     1      18.723 -21.683 -28.280  1.00  0.00     0.100 A 
ATOM      3  C   UNL     1      18.661 -20.307 -28.061  1.00  0.00     0.197 A 
ATOM      4  O   UNL     1      17.569 -19.707 -28.247  1.00  0.00    -0.289 OA
ATOM      5  C   UNL     1      19.816 -19.617 -27.642  1.00  0.00     0.107 A 
ATOM      6  C   UNL     1      19.840 -18.224 -27.397  1.00  0.00     0.134 A 
ATOM      7  C   UNL     1      21.033 -17.610 -26.987  1.00  0.00     0.093 A 
ATOM      8  C   UNL     1      22.200 -18.360 -26.821  1.00  0.00     0.123 A 
ATOM      9  C   UNL     1      22.182 -19.738 -27.062  1.00  0.00     0.094 A 
ATOM     10  C   UNL     1      21.004 -20.368 -27.469  1.00  0.00     0.146 A 
ATOM     11  O   UNL     1      21.011 -21.679 -27.691  1.00  0.00    -0.456 OA
ENDROOT
BRANCH   1  12
ATOM     12  C   UNL     1      20.061 -23.826 -28.295  1.00  0.00     0.021 A 
ATOM     13  C   UNL     1      21.310 -24.472 -28.276  1.00  0.00     0.016 A 
ATOM     14  C   UNL     1      21.396 -25.848 -28.494  1.00  0.00     0.051 A 
ATOM     15  C   UNL     1      20.249 -26.607 -28.744  1.00  0.00     0.157 A 
ATOM     16  C   UNL     1      18.910 -24.586 -28.561  1.00  0.00     0.062 A 
ATOM     17  C   UNL     1      18.989 -25.967 -28.781  1.00  0.00     0.158 A 
BRANCH  15  18
ATOM     18  O   UNL     1      20.406 -27.979 -28.953  1.00  0.00    -0.504 OA
ATOM     19  H   UNL     1      19.841 -28.521 -29.590  1.00  0.00     0.293 HD
ENDBRANCH  15  18
BRANCH  17  20
ATOM     20  O   UNL     1      17.800 -26.657 -29.030  1.00  0.00    -0.504 OA
ATOM     21  H   UNL     1      16.921 -26.207 -29.240  1.00  0.00     0.293 HD
ENDBRANCH  17  20
ENDBRANCH   1  12
BRANCH   6  22
ATOM     22  O   UNL     1      18.691 -17.447 -27.557  1.00  0.00    -0.507 OA
ATOM     23  H   UNL     1      17.792 -17.747 -27.200  1.00  0.00     0.293 HD
ENDBRANCH   6  22
BRANCH   8  24
ATOM     24  O   UNL     1      23.372 -17.726 -26.414  1.00  0.00    -0.508 OA
ATOM     25  H   UNL     1      23.421 -16.720 -26.307  1.00  0.00     0.293 HD
ENDBRANCH   8  24
TORSDOF 5
ENDMDL
MODEL 3
REMARK VINA RESULT:    -5.745     10.790     12.370
REMARK INTER + INTRA:          -7.023
REMARK INTER:                  -6.705
REMARK INTRA:                  -0.318
REMARK UNBOUND:                -0.271
REMARK SMILES O=c1cc(-c2ccc(O)c(O)c2)oc2cc(O)cc(O)c12
REMARK SMILES IDX 4 1 3 2 2 3 1 4 21 5 19 6 18 7 16 8 15 9 14 10 13 11 5 12
REMARK SMILES IDX 6 13 7 14 8 15 12 16 10 17 9 18 11 20 20 22 17 24
REMARK H PARENT 9 19 11 21 20 23 17 25
REMARK Flexibility Score: inf
ROOT
ATOM      1  C   UNL     1      20.809 -22.424 -26.462  1.00  0.00     0.138 A 
ATOM      2  C   UNL     1      20.475 -23.128 -25.293  1.00  0.00     0.100 A 
ATOM      3  C   UNL     1      20.277 -24.507 -25.353  1.00  0.00     0.197 A 
ATOM      4  O   UNL     1      19.980 -25.130 -24.298  1.00  0.00    -0.289 OA
ATOM      5  C   UNL     1      20.417 -25.176 -26.586  1.00  0.00     0.107 A 
ATOM      6  C   UNL     1      20.234 -26.571 -26.735  1.00  0.00     0.134 A 
ATOM      7  C   UNL     1      20.397 -27.163 -27.997  1.00  0.00     0.093 A 
ATOM      8  C   UNL     1      20.742 -26.389 -29.107  1.00  0.00     0.123 A 
ATOM      9  C   UNL     1      20.925 -25.009 -28.965  1.00  0.00     0.094 A 
ATOM     10  C   UNL     1      20.766 -24.401 -27.718  1.00  0.00     0.146 A 
ATOM     11  O   UNL     1      20.943 -23.088 -27.608  1.00  0.00    -0.456 OA
ENDROOT
BRANCH   1  12
ATOM     12  C   UNL     1      21.032 -20.956 -26.457  1.00  0.00     0.021 A 
ATOM     13  C   UNL     1      20.771 -20.173 -25.319  1.00  0.00     0.016 A 
ATOM     14  C   UNL     1      20.982 -18.794 -25.347  1.00  0.00     0.051 A 
ATOM     15  C   UNL     1      21.448 -18.164 -26.505  1.00  0.00     0.157 A 
ATOM     16  C   UNL     1      21.487 -20.321 -27.625  1.00  0.00     0.062 A 
ATOM     17  C   UNL     1      21.701 -18.938 -27.661  1.00  0.00     0.158 A 
BRANCH  15  18
ATOM     18  O   UNL     1      21.639 -16.781 -26.465  1.00  0.00    -0.504 OA
ATOM     19  H   UNL     1      20.888 -16.106 -26.500  1.00  0.00     0.293 HD
ENDBRANCH  15  18
BRANCH  17  20
ATOM     20  O   UNL     1      22.162 -18.380 -28.856  1.00  0.00    -0.504 OA
ATOM     21  H   UNL     1      21.592 -18.265 -29.681  1.00  0.00     0.293 HD
ENDBRANCH  17  20
ENDBRANCH   1  12
BRANCH   6  22
ATOM     22  O   UNL     1      19.891 -27.371 -25.644  1.00  0.00    -0.507 OA
ATOM     23  H   UNL     1      20.405 -27.332 -24.772  1.00  0.00     0.293 HD
ENDBRANCH   6  22
BRANCH   8  24
ATOM     24  O   UNL     1      20.899 -27.001 -30.349  1.00  0.00    -0.508 OA
ATOM     25  H   UNL     1      21.501 -27.807 -30.470  1.00  0.00     0.293 HD
ENDBRANCH   8  24
TORSDOF 5
ENDMDL
MODEL 4
REMARK VINA RESULT:    -5.730      1.505      3.109
REMARK INTER + INTRA:          -7.006
REMARK INTER:                  -6.721
REMARK INTRA:                  -0.285
REMARK UNBOUND:                -0.271
REMARK SMILES O=c1cc(-c2ccc(O)c(O)c2)oc2cc(O)cc(O)c12
REMARK SMILES IDX 4 1 3 2 2 3 1 4 21 5 19 6 18 7 16 8 15 9 14 10 13 11 5 12
REMARK SMILES IDX 6 13 7 14 8 15 12 16 10 17 9 18 11 20 20 22 17 24
REMARK H PARENT 9 19 11 21 20 23 17 25
REMARK Flexibility Score: inf
ROOT
ATOM      1  C   UNL     1       9.856 -25.866 -25.951  1.00  0.00     0.138 A 
ATOM      2  C   UNL     1       9.142 -27.015 -26.332  1.00  0.00     0.100 A 
ATOM      3  C   UNL     1       9.148 -27.417 -27.667  1.00  0.00     0.197 A 
ATOM      4  O   UNL     1       8.506 -28.450 -27.998  1.00  0.00    -0.289 OA
ATOM      5  C   UNL     1       9.873 -26.668 -28.616  1.00  0.00     0.107 A 
ATOM      6  C   UNL     1       9.932 -27.005 -29.989  1.00  0.00     0.134 A 
ATOM      7  C   UNL     1      10.680 -26.209 -30.869  1.00  0.00     0.093 A 
ATOM      8  C   UNL     1      11.372 -25.089 -30.404  1.00  0.00     0.123 A 
ATOM      9  C   UNL     1      11.317 -24.750 -29.047  1.00  0.00     0.094 A 
ATOM     10  C   UNL     1      10.576 -25.529 -28.155  1.00  0.00     0.146 A 
ATOM     11  O   UNL     1      10.538 -25.187 -26.870  1.00  0.00    -0.456 OA
ENDROOT
BRANCH   1  12
ATOM     12  C   UNL     1       9.886 -25.392 -24.545  1.00  0.00     0.021 A 
ATOM     13  C   UNL     1      10.235 -26.247 -23.484  1.00  0.00     0.016 A 
ATOM     14  C   UNL     1      10.245 -25.775 -22.170  1.00  0.00     0.051 A 
ATOM     15  C   UNL     1       9.902 -24.450 -21.883  1.00  0.00     0.157 A 
ATOM     16  C   UNL     1       9.527 -24.065 -24.254  1.00  0.00     0.062 A 
ATOM     17  C   UNL     1       9.536 -23.584 -22.939  1.00  0.00     0.158 A 
BRANCH  15  18
ATOM     18  O   UNL     1       9.934 -24.042 -20.547  1.00  0.00    -0.504 OA
ATOM     19  H   UNL     1      10.185 -24.646 -19.779  1.00  0.00     0.293 HD
ENDBRANCH  15  18
BRANCH  17  20
ATOM     20  O   UNL     1       9.175 -22.251 -22.730  1.00  0.00    -0.504 OA
ATOM     21  H   UNL     1       9.695 -21.610 -22.148  1.00  0.00     0.293 HD
ENDBRANCH  17  20
ENDBRANCH   1  12
BRANCH   6  22
ATOM     22  O   UNL     1       9.253 -28.120 -30.483  1.00  0.00    -0.507 OA
ATOM     23  H   UNL     1       8.245 -28.130 -30.579  1.00  0.00     0.293 HD
ENDBRANCH   6  22
BRANCH   8  24
ATOM     24  O   UNL     1      12.109 -24.316 -31.298  1.00  0.00    -0.508 OA
ATOM     25  H   UNL     1      11.921 -24.333 -32.293  1.00  0.00     0.293 HD
ENDBRANCH   8  24
TORSDOF 5
ENDMDL
MODEL 5
REMARK VINA RESULT:    -5.711      9.683     11.680
REMARK INTER + INTRA:          -6.984
REMARK INTER:                  -6.718
REMARK INTRA:                  -0.265
REMARK UNBOUND:                -0.271
REMARK SMILES O=c1cc(-c2ccc(O)c(O)c2)oc2cc(O)cc(O)c12
REMARK SMILES IDX 4 1 3 2 2 3 1 4 21 5 19 6 18 7 16 8 15 9 14 10 13 11 5 12
REMARK SMILES IDX 6 13 7 14 8 15 12 16 10 17 9 18 11 20 20 22 17 24
REMARK H PARENT 9 19 11 21 20 23 17 25
REMARK Flexibility Score: inf
ROOT
ATOM      1  C   UNL     1      20.646 -22.766 -27.487  1.00  0.00     0.138 A 
ATOM      2  C   UNL     1      21.569 -23.670 -28.042  1.00  0.00     0.100 A 
ATOM      3  C   UNL     1      21.173 -24.981 -28.307  1.00  0.00     0.197 A 
ATOM      4  O   UNL     1      22.007 -25.783 -28.806  1.00  0.00    -0.289 OA
ATOM      5  C   UNL     1      19.853 -25.380 -28.017  1.00  0.00     0.107 A 
ATOM      6  C   UNL     1      19.369 -26.689 -28.254  1.00  0.00     0.134 A 
ATOM      7  C   UNL     1      18.039 -27.005 -27.943  1.00  0.00     0.093 A 
ATOM      8  C   UNL     1      17.184 -26.042 -27.404  1.00  0.00     0.123 A 
ATOM      9  C   UNL     1      17.656 -24.746 -27.168  1.00  0.00     0.094 A 
ATOM     10  C   UNL     1      18.978 -24.411 -27.469  1.00  0.00     0.146 A 
ATOM     11  O   UNL     1      19.405 -23.173 -27.235  1.00  0.00    -0.456 OA
ENDROOT
BRANCH   1  12
ATOM     12  C   UNL     1      21.012 -21.359 -27.186  1.00  0.00     0.021 A 
ATOM     13  C   UNL     1      21.043 -20.870 -25.868  1.00  0.00     0.016 A 
ATOM     14  C   UNL     1      21.382 -19.539 -25.616  1.00  0.00     0.051 A 
ATOM     15  C   UNL     1      21.687 -18.667 -26.666  1.00  0.00     0.157 A 
ATOM     16  C   UNL     1      21.305 -20.479 -28.241  1.00  0.00     0.062 A 
ATOM     17  C   UNL     1      21.646 -19.143 -27.996  1.00  0.00     0.158 A 
BRANCH  15  18
ATOM     18  O   UNL     1      22.019 -17.349 -26.345  1.00  0.00    -0.504 OA
ATOM     19  H   UNL     1      21.850 -16.928 -25.443  1.00  0.00     0.293 HD
ENDBRANCH  15  18
BRANCH  17  20
ATOM     20  O   UNL     1      21.933 -18.332 -29.097  1.00  0.00    -0.504 OA
ATOM     21  H   UNL     1      22.206 -17.363 -29.027  1.00  0.00     0.293 HD
ENDBRANCH  17  20
ENDBRANCH   1  12
BRANCH   6  22
ATOM     22  O   UNL     1      20.199 -27.673 -28.793  1.00  0.00    -0.507 OA
ATOM     23  H   UNL     1      20.942 -27.446 -29.443  1.00  0.00     0.293 HD
ENDBRANCH   6  22
BRANCH   8  24
ATOM     24  O   UNL     1      15.866 -26.382 -27.104  1.00  0.00    -0.508 OA
ATOM     25  H   UNL     1      15.452 -27.243 -27.439  1.00  0.00     0.293 HD
ENDBRANCH   8  24
TORSDOF 5
ENDMDL
MODEL 6
REMARK VINA RESULT:    -5.584      1.584      2.676
REMARK INTER + INTRA:          -6.834
REMARK INTER:                  -6.571
REMARK INTRA:                  -0.263
REMARK UNBOUND:                -0.271
REMARK SMILES O=c1cc(-c2ccc(O)c(O)c2)oc2cc(O)cc(O)c12
REMARK SMILES IDX 4 1 3 2 2 3 1 4 21 5 19 6 18 7 16 8 15 9 14 10 13 11 5 12
REMARK SMILES IDX 6 13 7 14 8 15 12 16 10 17 9 18 11 20 20 22 17 24
REMARK H PARENT 9 19 11 21 20 23 17 25
REMARK Flexibility Score: inf
ROOT
ATOM      1  C   UNL     1      10.480 -25.681 -23.396  1.00  0.00     0.138 A 
ATOM      2  C   UNL     1      11.733 -25.157 -23.759  1.00  0.00     0.100 A 
ATOM      3  C   UNL     1      12.094 -25.109 -25.105  1.00  0.00     0.197 A 
ATOM      4  O   UNL     1      13.219 -24.637 -25.420  1.00  0.00    -0.289 OA
ATOM      5  C   UNL     1      11.197 -25.583 -26.083  1.00  0.00     0.107 A 
ATOM      6  C   UNL     1      11.483 -25.571 -27.468  1.00  0.00     0.134 A 
ATOM      7  C   UNL     1      10.534 -26.057 -28.379  1.00  0.00     0.093 A 
ATOM      8  C   UNL     1       9.305 -26.549 -27.934  1.00  0.00     0.123 A 
ATOM      9  C   UNL     1       9.016 -26.563 -26.565  1.00  0.00     0.094 A 
ATOM     10  C   UNL     1       9.949 -26.086 -25.641  1.00  0.00     0.146 A 
ATOM     11  O   UNL     1       9.652 -26.110 -24.345  1.00  0.00    -0.456 OA
ENDROOT
BRANCH   1  12
ATOM     12  C   UNL     1      10.042 -25.755 -21.979  1.00  0.00     0.021 A 
ATOM     13  C   UNL     1      10.123 -26.950 -21.243  1.00  0.00     0.016 A 
ATOM     14  C   UNL     1       9.695 -26.992 -19.915  1.00  0.00     0.051 A 
ATOM     15  C   UNL     1       9.171 -25.853 -19.295  1.00  0.00     0.157 A 
ATOM     16  C   UNL     1       9.502 -24.615 -21.361  1.00  0.00     0.062 A 
ATOM     17  C   UNL     1       9.071 -24.649 -20.029  1.00  0.00     0.158 A 
BRANCH  15  18
ATOM     18  O   UNL     1       8.762 -25.963 -17.964  1.00  0.00    -0.504 OA
ATOM     19  H   UNL     1       8.841 -25.219 -17.286  1.00  0.00     0.293 HD
ENDBRANCH  15  18
BRANCH  17  20
ATOM     20  O   UNL     1       8.554 -23.473 -19.481  1.00  0.00    -0.504 OA
ATOM     21  H   UNL     1       7.631 -23.115 -19.682  1.00  0.00     0.293 HD
ENDBRANCH  17  20
ENDBRANCH   1  12
BRANCH   6  22
ATOM     22  O   UNL     1      12.702 -25.084 -27.945  1.00  0.00    -0.507 OA
ATOM     23  H   UNL     1      13.466 -25.704 -28.186  1.00  0.00     0.293 HD
ENDBRANCH   6  22
BRANCH   8  24
ATOM     24  O   UNL     1       8.379 -27.024 -28.859  1.00  0.00    -0.508 OA
ATOM     25  H   UNL     1       8.664 -27.570 -29.663  1.00  0.00     0.293 HD
ENDBRANCH   8  24
TORSDOF 5
ENDMDL
MODEL 7
REMARK VINA RESULT:    -5.549      4.215      6.658
REMARK INTER + INTRA:          -6.793
REMARK INTER:                  -6.498
REMARK INTRA:                  -0.295
REMARK UNBOUND:                -0.271
REMARK SMILES O=c1cc(-c2ccc(O)c(O)c2)oc2cc(O)cc(O)c12
REMARK SMILES IDX 4 1 3 2 2 3 1 4 21 5 19 6 18 7 16 8 15 9 14 10 13 11 5 12
REMARK SMILES IDX 6 13 7 14 8 15 12 16 10 17 9 18 11 20 20 22 17 24
REMARK H PARENT 9 19 11 21 20 23 17 25
REMARK Flexibility Score: inf
ROOT
ATOM      1  C   UNL     1      10.997 -24.606 -30.320  1.00  0.00     0.138 A 
ATOM      2  C   UNL     1      10.139 -24.800 -31.416  1.00  0.00     0.100 A 
ATOM      3  C   UNL     1      10.443 -24.206 -32.640  1.00  0.00     0.197 A 
ATOM      4  O   UNL     1       9.668 -24.387 -33.618  1.00  0.00    -0.289 OA
ATOM      5  C   UNL     1      11.608 -23.423 -32.762  1.00  0.00     0.107 A 
ATOM      6  C   UNL     1      11.991 -22.786 -33.966  1.00  0.00     0.134 A 
ATOM      7  C   UNL     1      13.169 -22.027 -34.007  1.00  0.00     0.093 A 
ATOM      8  C   UNL     1      13.972 -21.895 -32.872  1.00  0.00     0.123 A 
ATOM      9  C   UNL     1      13.599 -22.523 -31.679  1.00  0.00     0.094 A 
ATOM     10  C   UNL     1      12.429 -23.283 -31.617  1.00  0.00     0.146 A 
ATOM     11  O   UNL     1      12.094 -23.869 -30.472  1.00  0.00    -0.456 OA
ENDROOT
BRANCH   1  12
ATOM     12  C   UNL     1      10.723 -25.215 -28.993  1.00  0.00     0.021 A 
ATOM     13  C   UNL     1      11.650 -25.136 -27.939  1.00  0.00     0.016 A 
ATOM     14  C   UNL     1      11.369 -25.727 -26.706  1.00  0.00     0.051 A 
ATOM     15  C   UNL     1      10.168 -26.413 -26.497  1.00  0.00     0.157 A 
ATOM     16  C   UNL     1       9.523 -25.917 -28.788  1.00  0.00     0.062 A 
ATOM     17  C   UNL     1       9.234 -26.511 -27.554  1.00  0.00     0.158 A 
BRANCH  15  18
ATOM     18  O   UNL     1       9.949 -26.979 -25.239  1.00  0.00    -0.504 OA
ATOM     19  H   UNL     1      10.651 -27.035 -24.516  1.00  0.00     0.293 HD
ENDBRANCH  15  18
BRANCH  17  20
ATOM     20  O   UNL     1       8.017 -27.184 -27.424  1.00  0.00    -0.504 OA
ATOM     21  H   UNL     1       7.764 -28.001 -27.960  1.00  0.00     0.293 HD
ENDBRANCH  17  20
ENDBRANCH   1  12
BRANCH   6  22
ATOM     22  O   UNL     1      11.210 -22.899 -35.118  1.00  0.00    -0.507 OA
ATOM     23  H   UNL     1      11.535 -23.404 -35.934  1.00  0.00     0.293 HD
ENDBRANCH   6  22
BRANCH   8  24
ATOM     24  O   UNL     1      15.139 -21.136 -32.940  1.00  0.00    -0.508 OA
ATOM     25  H   UNL     1      15.321 -20.385 -32.286  1.00  0.00     0.293 HD
ENDBRANCH   8  24
TORSDOF 5
ENDMDL
MODEL 8
REMARK VINA RESULT:    -5.501      1.703      2.160
REMARK INTER + INTRA:          -6.737
REMARK INTER:                  -6.442
REMARK INTRA:                  -0.295
REMARK UNBOUND:                -0.271
REMARK SMILES O=c1cc(-c2ccc(O)c(O)c2)oc2cc(O)cc(O)c12
REMARK SMILES IDX 4 1 3 2 2 3 1 4 21 5 19 6 18 7 16 8 15 9 14 10 13 11 5 12
REMARK SMILES IDX 6 13 7 14 8 15 12 16 10 17 9 18 11 20 20 22 17 24
REMARK H PARENT 9 19 11 21 20 23 17 25
REMARK Flexibility Score: inf
ROOT
ATOM      1  C   UNL     1      10.348 -26.146 -25.014  1.00  0.00     0.138 A 
ATOM      2  C   UNL     1      10.999 -27.390 -24.960  1.00  0.00     0.100 A 
ATOM      3  C   UNL     1      11.311 -28.055 -26.146  1.00  0.00     0.197 A 
ATOM      4  O   UNL     1      11.897 -29.169 -26.087  1.00  0.00    -0.289 OA
ATOM      5  C   UNL     1      10.973 -27.467 -27.381  1.00  0.00     0.107 A 
ATOM      6  C   UNL     1      11.253 -28.072 -28.629  1.00  0.00     0.134 A 
ATOM      7  C   UNL     1      10.888 -27.419 -29.816  1.00  0.00     0.093 A 
ATOM      8  C   UNL     1      10.253 -26.176 -29.780  1.00  0.00     0.123 A 
ATOM      9  C   UNL     1       9.974 -25.573 -28.548  1.00  0.00     0.094 A 
ATOM     10  C   UNL     1      10.328 -26.207 -27.355  1.00  0.00     0.146 A 
ATOM     11  O   UNL     1      10.051 -25.615 -26.197  1.00  0.00    -0.456 OA
ENDROOT
BRANCH   1  12
ATOM     12  C   UNL     1       9.992 -25.394 -23.784  1.00  0.00     0.021 A 
ATOM     13  C   UNL     1       9.459 -24.094 -23.841  1.00  0.00     0.016 A 
ATOM     14  C   UNL     1       9.143 -23.408 -22.667  1.00  0.00     0.051 A 
ATOM     15  C   UNL     1       9.356 -23.994 -21.415  1.00  0.00     0.157 A 
ATOM     16  C   UNL     1      10.219 -25.978 -22.526  1.00  0.00     0.062 A 
ATOM     17  C   UNL     1       9.903 -25.296 -21.344  1.00  0.00     0.158 A 
BRANCH  15  18
ATOM     18  O   UNL     1       9.016 -23.254 -20.281  1.00  0.00    -0.504 OA
ATOM     19  H   UNL     1       8.252 -23.486 -19.664  1.00  0.00     0.293 HD
ENDBRANCH  15  18
BRANCH  17  20
ATOM     20  O   UNL     1      10.150 -25.945 -20.132  1.00  0.00    -0.504 OA
ATOM     21  H   UNL     1      10.538 -25.491 -19.318  1.00  0.00     0.293 HD
ENDBRANCH  17  20
ENDBRANCH   1  12
BRANCH   6  22
ATOM     22  O   UNL     1      11.888 -29.313 -28.699  1.00  0.00    -0.507 OA
ATOM     23  H   UNL     1      11.366 -30.172 -28.834  1.00  0.00     0.293 HD
ENDBRANCH   6  22
BRANCH   8  24
ATOM     24  O   UNL     1       9.902 -25.548 -30.973  1.00  0.00    -0.508 OA
ATOM     25  H   UNL     1      10.603 -25.238 -31.635  1.00  0.00     0.293 HD
ENDBRANCH   8  24
TORSDOF 5
ENDMDL
MODEL 9
REMARK VINA RESULT:    -5.484      9.642     12.066
REMARK INTER + INTRA:          -6.717
REMARK INTER:                  -6.399
REMARK INTRA:                  -0.318
REMARK UNBOUND:                -0.271
REMARK SMILES O=c1cc(-c2ccc(O)c(O)c2)oc2cc(O)cc(O)c12
REMARK SMILES IDX 4 1 3 2 2 3 1 4 21 5 19 6 18 7 16 8 15 9 14 10 13 11 5 12
REMARK SMILES IDX 6 13 7 14 8 15 12 16 10 17 9 18 11 20 20 22 17 24
REMARK H PARENT 9 19 11 21 20 23 17 25
REMARK Flexibility Score: inf
ROOT
ATOM      1  C   UNL     1      19.896 -22.449 -28.229  1.00  0.00     0.138 A 
ATOM      2  C   UNL     1      21.021 -21.607 -28.198  1.00  0.00     0.100 A 
ATOM      3  C   UNL     1      20.845 -20.228 -28.085  1.00  0.00     0.197 A 
ATOM      4  O   UNL     1      21.861 -19.482 -28.057  1.00  0.00    -0.289 OA
ATOM      5  C   UNL     1      19.542 -19.699 -28.001  1.00  0.00     0.107 A 
ATOM      6  C   UNL     1      19.275 -18.314 -27.885  1.00  0.00     0.134 A 
ATOM      7  C   UNL     1      17.948 -17.866 -27.800  1.00  0.00     0.093 A 
ATOM      8  C   UNL     1      16.887 -18.774 -27.826  1.00  0.00     0.123 A 
ATOM      9  C   UNL     1      17.145 -20.144 -27.940  1.00  0.00     0.094 A 
ATOM     10  C   UNL     1      18.459 -20.610 -28.027  1.00  0.00     0.146 A 
ATOM     11  O   UNL     1      18.680 -21.917 -28.136  1.00  0.00    -0.456 OA
ENDROOT
BRANCH   1  12
ATOM     12  C   UNL     1      20.024 -23.923 -28.346  1.00  0.00     0.021 A 
ATOM     13  C   UNL     1      21.277 -24.560 -28.332  1.00  0.00     0.016 A 
ATOM     14  C   UNL     1      21.365 -25.948 -28.454  1.00  0.00     0.051 A 
ATOM     15  C   UNL     1      20.215 -26.729 -28.600  1.00  0.00     0.157 A 
ATOM     16  C   UNL     1      18.868 -24.707 -28.507  1.00  0.00     0.062 A 
ATOM     17  C   UNL     1      18.949 -26.100 -28.629  1.00  0.00     0.158 A 
BRANCH  15  18
ATOM     18  O   UNL     1      20.374 -28.112 -28.715  1.00  0.00    -0.504 OA
ATOM     19  H   UNL     1      20.558 -28.726 -27.935  1.00  0.00     0.293 HD
ENDBRANCH  15  18
BRANCH  17  20
ATOM     20  O   UNL     1      17.756 -26.811 -28.777  1.00  0.00    -0.504 OA
ATOM     21  H   UNL     1      16.976 -26.742 -28.141  1.00  0.00     0.293 HD
ENDBRANCH  17  20
ENDBRANCH   1  12
BRANCH   6  22
ATOM     22  O   UNL     1      20.314 -17.382 -27.854  1.00  0.00    -0.507 OA
ATOM     23  H   UNL     1      20.434 -16.743 -27.078  1.00  0.00     0.293 HD
ENDBRANCH   6  22
BRANCH   8  24
ATOM     24  O   UNL     1      15.578 -18.304 -27.740  1.00  0.00    -0.508 OA
ATOM     25  H   UNL     1      15.360 -17.321 -27.849  1.00  0.00     0.293 HD
ENDBRANCH   8  24
TORSDOF 5
ENDMDL
