MODEL 1
REMARK VINA RESULT:    -4.192      0.000      0.000
REMARK INTER + INTRA:          -4.314
REMARK INTER:                  -4.314
REMARK INTRA:                   0.000
REMARK UNBOUND:                 0.000
REMARK SMILES Cc1ccccc1O
REMARK SMILES IDX 1 1 2 2 3 3 4 4 5 5 6 6 7 7 8 8
REMARK H PARENT 8 9
REMARK Flexibility Score: inf
ROOT
ATOM      1  C   UNL     1      30.049  16.594 -16.987  1.00  0.00     0.048 C 
ATOM      2  C   UNL     1      29.634  15.171 -16.734  1.00  0.00    -0.009 A 
ATOM      3  C   UNL     1      29.622  14.674 -15.419  1.00  0.00     0.007 A 
ATOM      4  C   UNL     1      29.241  13.355 -15.163  1.00  0.00     0.001 A 
ATOM      5  C   UNL     1      28.868  12.518 -16.215  1.00  0.00     0.004 A 
ATOM      6  C   UNL     1      28.875  12.998 -17.526  1.00  0.00     0.046 A 
ATOM      7  C   UNL     1      29.256  14.318 -17.797  1.00  0.00     0.118 A 
ENDROOT
BRANCH   7   8
ATOM      8  O   UNL     1      29.246  14.750 -19.125  1.00  0.00    -0.508 OA
ATOM      9  H   UNL     1      29.892  14.401 -19.823  1.00  0.00     0.293 HD
ENDBRANCH   7   8
TORSDOF 1
ENDMDL
MODEL 2
REMARK VINA RESULT:    -4.179     19.780     21.181
REMARK INTER + INTRA:          -4.301
REMARK INTER:                  -4.301
REMARK INTRA:                   0.000
REMARK UNBOUND:                 0.000
REMARK SMILES Cc1ccccc1O
REMARK SMILES IDX 1 1 2 2 3 3 4 4 5 5 6 6 7 7 8 8
REMARK H PARENT 8 9
REMARK Flexibility Score: inf
ROOT
ATOM      1  C   UNL     1      12.371  -0.636 -12.736  1.00  0.00     0.048 C 
ATOM      2  C   UNL     1      13.822  -0.363 -13.021  1.00  0.00    -0.009 A 
ATOM      3  C   UNL     1      14.320  -0.544 -14.323  1.00  0.00     0.007 A 
ATOM      4  C   UNL     1      15.665  -0.296 -14.608  1.00  0.00     0.001 A 
ATOM      5  C   UNL     1      16.526   0.135 -13.599  1.00  0.00     0.004 A 
ATOM      6  C   UNL     1      16.045   0.319 -12.301  1.00  0.00     0.046 A 
ATOM      7  C   UNL     1      14.700   0.074 -12.001  1.00  0.00     0.118 A 
ENDROOT
BRANCH   7   8
ATOM      8  O   UNL     1      14.267   0.274 -10.688  1.00  0.00    -0.508 OA
ATOM      9  H   UNL     1      13.392  -0.093 -10.334  1.00  0.00     0.293 HD
ENDBRANCH   7   8
TORSDOF 1
ENDMDL
MODEL 3
REMARK VINA RESULT:    -4.125      8.911      9.310
REMARK INTER + INTRA:          -4.246
REMARK INTER:                  -4.246
REMARK INTRA:                   0.000
REMARK UNBOUND:                 0.000
REMARK SMILES Cc1ccccc1O
REMARK SMILES IDX 1 1 2 2 3 3 4 4 5 5 6 6 7 7 8 8
REMARK H PARENT 8 9
REMARK Flexibility Score: inf
ROOT
ATOM      1  C   UNL     1      20.276  18.125 -11.653  1.00  0.00     0.048 C 
ATOM      2  C   UNL     1      21.199  17.720 -12.768  1.00  0.00    -0.009 A 
ATOM      3  C   UNL     1      20.881  18.068 -14.093  1.00  0.00     0.007 A 
ATOM      4  C   UNL     1      21.725  17.701 -15.144  1.00  0.00     0.001 A 
ATOM      5  C   UNL     1      22.894  16.983 -14.885  1.00  0.00     0.004 A 
ATOM      6  C   UNL     1      23.222  16.631 -13.574  1.00  0.00     0.046 A 
ATOM      7  C   UNL     1      22.385  16.992 -12.511  1.00  0.00     0.118 A 
ENDROOT
BRANCH   7   8
ATOM      8  O   UNL     1      22.756  16.617 -11.219  1.00  0.00    -0.508 OA
ATOM      9  H   UNL     1      22.885  15.652 -10.940  1.00  0.00     0.293 HD
ENDBRANCH   7   8
TORSDOF 1
ENDMDL
MODEL 4
REMARK VINA RESULT:    -4.059     18.478     18.769
REMARK INTER + INTRA:          -4.178
REMARK INTER:                  -4.178
REMARK INTRA:                   0.000
REMARK UNBOUND:                 0.000
REMARK SMILES Cc1ccccc1O
REMARK SMILES IDX 1 1 2 2 3 3 4 4 5 5 6 6 7 7 8 8
REMARK H PARENT 8 9
REMARK Flexibility Score: inf
ROOT
ATOM      1  C   UNL     1      11.097   8.879 -18.268  1.00  0.00     0.048 C 
ATOM      2  C   UNL     1      11.568   7.997 -17.144  1.00  0.00    -0.009 A 
ATOM      3  C   UNL     1      11.167   8.279 -15.826  1.00  0.00     0.007 A 
ATOM      4  C   UNL     1      11.593   7.472 -14.768  1.00  0.00     0.001 A 
ATOM      5  C   UNL     1      12.423   6.378 -15.014  1.00  0.00     0.004 A 
ATOM      6  C   UNL     1      12.829   6.087 -16.317  1.00  0.00     0.046 A 
ATOM      7  C   UNL     1      12.410   6.887 -17.387  1.00  0.00     0.118 A 
ENDROOT
BRANCH   7   8
ATOM      8  O   UNL     1      12.843   6.554 -18.672  1.00  0.00    -0.508 OA
ATOM      9  H   UNL     1      13.618   7.017 -19.130  1.00  0.00     0.293 HD
ENDBRANCH   7   8
TORSDOF 1
ENDMDL
MODEL 5
REMARK VINA RESULT:    -3.994      1.345      2.640
REMARK INTER + INTRA:          -4.111
REMARK INTER:                  -4.111
REMARK INTRA:                   0.000
REMARK UNBOUND:                 0.000
REMARK SMILES Cc1ccccc1O
REMARK SMILES IDX 1 1 2 2 3 3 4 4 5 5 6 6 7 7 8 8
REMARK H PARENT 8 9
REMARK Flexibility Score: inf
ROOT
ATOM      1  C   UNL     1      30.397  11.722 -18.627  1.00  0.00     0.048 C 
ATOM      2  C   UNL     1      30.291  12.902 -17.702  1.00  0.00    -0.009 A 
ATOM      3  C   UNL     1      30.807  12.810 -16.397  1.00  0.00     0.007 A 
ATOM      4  C   UNL     1      30.719  13.895 -15.521  1.00  0.00     0.001 A 
ATOM      5  C   UNL     1      30.116  15.082 -15.938  1.00  0.00     0.004 A 
ATOM      6  C   UNL     1      29.599  15.188 -17.231  1.00  0.00     0.046 A 
ATOM      7  C   UNL     1      29.681  14.108 -18.119  1.00  0.00     0.118 A 
ENDROOT
BRANCH   7   8
ATOM      8  O   UNL     1      29.150  14.264 -19.400  1.00  0.00    -0.508 OA
ATOM      9  H   UNL     1      29.335  15.073 -19.980  1.00  0.00     0.293 HD
ENDBRANCH   7   8
TORSDOF 1
ENDMDL
MODEL 6
REMARK VINA RESULT:    -3.910     20.270     21.666
REMARK INTER + INTRA:          -4.025
REMARK INTER:                  -4.025
REMARK INTRA:                   0.000
REMARK UNBOUND:                 0.000
REMARK SMILES Cc1ccccc1O
REMARK SMILES IDX 1 1 2 2 3 3 4 4 5 5 6 6 7 7 8 8
REMARK H PARENT 8 9
REMARK Flexibility Score: inf
ROOT
ATOM      1  C   UNL     1      16.435   0.110 -12.959  1.00  0.00     0.048 C 
ATOM      2  C   UNL     1      15.005  -0.237 -13.268  1.00  0.00    -0.009 A 
ATOM      3  C   UNL     1      14.654  -0.642 -14.568  1.00  0.00     0.007 A 
ATOM      4  C   UNL     1      13.331  -0.967 -14.876  1.00  0.00     0.001 A 
ATOM      5  C   UNL     1      12.345  -0.893 -13.891  1.00  0.00     0.004 A 
ATOM      6  C   UNL     1      12.679  -0.493 -12.596  1.00  0.00     0.046 A 
ATOM      7  C   UNL     1      14.001  -0.163 -12.274  1.00  0.00     0.118 A 
ENDROOT
BRANCH   7   8
ATOM      8  O   UNL     1      14.285   0.232 -10.965  1.00  0.00    -0.508 OA
ATOM      9  H   UNL     1      15.176   0.623 -10.687  1.00  0.00     0.293 HD
ENDBRANCH   7   8
TORSDOF 1
ENDMDL
MODEL 7
REMARK VINA RESULT:    -3.896      0.814      2.640
REMARK INTER + INTRA:          -4.010
REMARK INTER:                  -4.010
REMARK INTRA:                   0.000
REMARK UNBOUND:                 0.000
REMARK SMILES Cc1ccccc1O
REMARK SMILES IDX 1 1 2 2 3 3 4 4 5 5 6 6 7 7 8 8
REMARK H PARENT 8 9
REMARK Flexibility Score: inf
ROOT
ATOM      1  C   UNL     1      28.976  12.576 -16.888  1.00  0.00     0.048 C 
ATOM      2  C   UNL     1      29.374  13.992 -16.579  1.00  0.00    -0.009 A 
ATOM      3  C   UNL     1      29.633  14.366 -15.249  1.00  0.00     0.007 A 
ATOM      4  C   UNL     1      30.005  15.677 -14.940  1.00  0.00     0.001 A 
ATOM      5  C   UNL     1      30.122  16.628 -15.955  1.00  0.00     0.004 A 
ATOM      6  C   UNL     1      29.868  16.270 -17.281  1.00  0.00     0.046 A 
ATOM      7  C   UNL     1      29.495  14.960 -17.604  1.00  0.00     0.118 A 
ENDROOT
BRANCH   7   8
ATOM      8  O   UNL     1      29.252  14.652 -18.944  1.00  0.00    -0.508 OA
ATOM      9  H   UNL     1      29.018  13.720 -19.262  1.00  0.00     0.293 HD
ENDBRANCH   7   8
TORSDOF 1
ENDMDL
MODEL 8
REMARK VINA RESULT:    -3.885      1.902      3.230
REMARK INTER + INTRA:          -3.999
REMARK INTER:                  -3.999
REMARK INTRA:                   0.000
REMARK UNBOUND:                 0.000
REMARK SMILES Cc1ccccc1O
REMARK SMILES IDX 1 1 2 2 3 3 4 4 5 5 6 6 7 7 8 8
REMARK H PARENT 8 9
REMARK Flexibility Score: inf
ROOT
ATOM      1  C   UNL     1      29.095  13.354 -13.470  1.00  0.00     0.048 C 
ATOM      2  C   UNL     1      29.199  13.753 -14.916  1.00  0.00    -0.009 A 
ATOM      3  C   UNL     1      28.691  12.899 -15.910  1.00  0.00     0.007 A 
ATOM      4  C   UNL     1      28.778  13.251 -17.260  1.00  0.00     0.001 A 
ATOM      5  C   UNL     1      29.373  14.458 -17.630  1.00  0.00     0.004 A 
ATOM      6  C   UNL     1      29.882  15.316 -16.653  1.00  0.00     0.046 A 
ATOM      7  C   UNL     1      29.802  14.975 -15.297  1.00  0.00     0.118 A 
ENDROOT
BRANCH   7   8
ATOM      8  O   UNL     1      30.325  15.866 -14.359  1.00  0.00    -0.508 OA
ATOM      9  H   UNL     1      30.622  16.805 -14.595  1.00  0.00     0.293 HD
ENDBRANCH   7   8
TORSDOF 1
ENDMDL
MODEL 9
REMARK VINA RESULT:    -3.870      1.856      2.527
REMARK INTER + INTRA:          -3.983
REMARK INTER:                  -3.983
REMARK INTRA:                   0.000
REMARK UNBOUND:                 0.000
REMARK SMILES Cc1ccccc1O
REMARK SMILES IDX 1 1 2 2 3 3 4 4 5 5 6 6 7 7 8 8
REMARK H PARENT 8 9
REMARK Flexibility Score: inf
ROOT
ATOM      1  C   UNL     1      30.296  16.765 -16.914  1.00  0.00     0.048 C 
ATOM      2  C   UNL     1      29.771  15.403 -16.554  1.00  0.00    -0.009 A 
ATOM      3  C   UNL     1      29.348  14.530 -17.572  1.00  0.00     0.007 A 
ATOM      4  C   UNL     1      28.857  13.261 -17.258  1.00  0.00     0.001 A 
ATOM      5  C   UNL     1      28.783  12.848 -15.927  1.00  0.00     0.004 A 
ATOM      6  C   UNL     1      29.200  13.704 -14.906  1.00  0.00     0.046 A 
ATOM      7  C   UNL     1      29.694  14.980 -15.206  1.00  0.00     0.118 A 
ENDROOT
BRANCH   7   8
ATOM      8  O   UNL     1      30.098  15.799 -14.149  1.00  0.00    -0.508 OA
ATOM      9  H   UNL     1      30.328  15.441 -13.231  1.00  0.00     0.293 HD
ENDBRANCH   7   8
TORSDOF 1
ENDMDL
