MODEL 1
REMARK VINA RESULT:    -3.483      0.000      0.000
REMARK INTER + INTRA:          -4.182
REMARK INTER:                  -4.094
REMARK INTRA:                  -0.088
REMARK UNBOUND:                -0.088
REMARK SMILES CCCCC(=O)[O-]
REMARK SMILES IDX 4 1 5 2 6 3 7 4 3 5 2 6 1 7
REMARK H PARENT
REMARK Flexibility Score: inf
ROOT
ATOM      1  C   UNL     1      -5.069   8.233  -3.246  1.00  0.00     0.053 C 
ENDROOT
BRANCH   1   2
ATOM      2  C   UNL     1      -5.124   8.420  -4.732  1.00  0.00     0.041 C 
ATOM      3  O   UNL     1      -4.096   8.231  -5.435  1.00  0.00    -0.550 OA
ATOM      4  O   UNL     1      -6.320   8.775  -5.345  1.00  0.00    -0.550 OA
ENDBRANCH   1   2
BRANCH   1   5
ATOM      5  C   UNL     1      -4.779   6.777  -2.842  1.00  0.00     0.006 C 
BRANCH   5   6
ATOM      6  C   UNL     1      -5.631   5.739  -3.595  1.00  0.00    -0.003 C 
ATOM      7  C   UNL     1      -7.117   5.813  -3.247  1.00  0.00     0.004 C 
ENDBRANCH   5   6
ENDBRANCH   1   5
TORSDOF 3
ENDMDL
MODEL 2
REMARK VINA RESULT:    -3.467      1.939      2.768
REMARK INTER + INTRA:          -4.163
REMARK INTER:                  -4.104
REMARK INTRA:                  -0.059
REMARK UNBOUND:                -0.088
REMARK SMILES CCCCC(=O)[O-]
REMARK SMILES IDX 4 1 5 2 6 3 7 4 3 5 2 6 1 7
REMARK H PARENT
REMARK Flexibility Score: inf
ROOT
ATOM      1  C   UNL     1      -7.581   6.649  -3.196  1.00  0.00     0.053 C 
ENDROOT
BRANCH   1   2
ATOM      2  C   UNL     1      -7.740   7.677  -4.275  1.00  0.00     0.041 C 
ATOM      3  O   UNL     1      -8.319   7.382  -5.354  1.00  0.00    -0.550 OA
ATOM      4  O   UNL     1      -7.275   8.971  -4.077  1.00  0.00    -0.550 OA
ENDBRANCH   1   2
BRANCH   1   5
ATOM      5  C   UNL     1      -6.363   5.737  -3.422  1.00  0.00     0.006 C 
BRANCH   5   6
ATOM      6  C   UNL     1      -5.012   6.421  -3.148  1.00  0.00    -0.003 C 
ATOM      7  C   UNL     1      -3.817   5.621  -3.662  1.00  0.00     0.004 C 
ENDBRANCH   5   6
ENDBRANCH   1   5
TORSDOF 3
ENDMDL
MODEL 3
REMARK VINA RESULT:    -3.449      1.993      3.343
REMARK INTER + INTRA:          -4.142
REMARK INTER:                  -4.031
REMARK INTRA:                  -0.111
REMARK UNBOUND:                -0.088
REMARK SMILES CCCCC(=O)[O-]
REMARK SMILES IDX 4 1 5 2 6 3 7 4 3 5 2 6 1 7
REMARK H PARENT
REMARK Flexibility Score: inf
ROOT
ATOM      1  C   UNL     1      -6.066   5.866  -3.442  1.00  0.00     0.053 C 
ENDROOT
BRANCH   1   2
ATOM      2  C   UNL     1      -7.499   6.287  -3.562  1.00  0.00     0.041 C 
ATOM      3  O   UNL     1      -8.293   6.125  -2.596  1.00  0.00    -0.550 OA
ATOM      4  O   UNL     1      -7.953   6.887  -4.730  1.00  0.00    -0.550 OA
ENDBRANCH   1   2
BRANCH   1   5
ATOM      5  C   UNL     1      -5.112   7.057  -3.246  1.00  0.00     0.006 C 
BRANCH   5   6
ATOM      6  C   UNL     1      -4.427   7.526  -4.542  1.00  0.00    -0.003 C 
ATOM      7  C   UNL     1      -4.923   8.888  -5.025  1.00  0.00     0.004 C 
ENDBRANCH   5   6
ENDBRANCH   1   5
TORSDOF 3
ENDMDL
MODEL 4
REMARK VINA RESULT:    -3.427      1.682      2.461
REMARK INTER + INTRA:          -4.116
REMARK INTER:                  -4.016
REMARK INTRA:                  -0.100
REMARK UNBOUND:                -0.088
REMARK SMILES CCCCC(=O)[O-]
REMARK SMILES IDX 4 1 5 2 6 3 7 4 3 5 2 6 1 7
REMARK H PARENT
REMARK Flexibility Score: inf
ROOT
ATOM      1  C   UNL     1      -5.392   5.807  -3.502  1.00  0.00     0.053 C 
ENDROOT
BRANCH   1   2
ATOM      2  C   UNL     1      -4.726   7.149  -3.517  1.00  0.00     0.041 C 
ATOM      3  O   UNL     1      -4.596   7.807  -2.450  1.00  0.00    -0.550 OA
ATOM      4  O   UNL     1      -4.222   7.662  -4.706  1.00  0.00    -0.550 OA
ENDBRANCH   1   2
BRANCH   1   5
ATOM      5  C   UNL     1      -6.915   5.902  -3.305  1.00  0.00     0.006 C 
BRANCH   5   6
ATOM      6  C   UNL     1      -7.574   7.051  -4.089  1.00  0.00    -0.003 C 
ATOM      7  C   UNL     1      -8.282   8.064  -3.190  1.00  0.00     0.004 C 
ENDBRANCH   5   6
ENDBRANCH   1   5
TORSDOF 3
ENDMDL
MODEL 5
REMARK VINA RESULT:    -3.305      2.390      2.564
REMARK INTER + INTRA:          -3.972
REMARK INTER:                  -3.897
REMARK INTRA:                  -0.075
REMARK UNBOUND:                -0.088
REMARK SMILES CCCCC(=O)[O-]
REMARK SMILES IDX 4 1 5 2 6 3 7 4 3 5 2 6 1 7
REMARK H PARENT
REMARK Flexibility Score: inf
ROOT
ATOM      1  C   UNL     1      -5.296   8.378  -3.137  1.00  0.00     0.053 C 
ENDROOT
BRANCH   1   2
ATOM      2  C   UNL     1      -5.475   9.106  -1.839  1.00  0.00     0.041 C 
ATOM      3  O   UNL     1      -4.494   9.675  -1.289  1.00  0.00    -0.550 OA
ATOM      4  O   UNL     1      -6.731   9.183  -1.251  1.00  0.00    -0.550 OA
ENDBRANCH   1   2
BRANCH   1   5
ATOM      5  C   UNL     1      -4.681   6.980  -2.952  1.00  0.00     0.006 C 
BRANCH   5   6
ATOM      6  C   UNL     1      -5.611   5.828  -3.374  1.00  0.00    -0.003 C 
ATOM      7  C   UNL     1      -7.056   6.272  -3.597  1.00  0.00     0.004 C 
ENDBRANCH   5   6
ENDBRANCH   1   5
TORSDOF 3
ENDMDL
MODEL 6
REMARK VINA RESULT:    -3.011     17.919     18.782
REMARK INTER + INTRA:          -3.628
REMARK INTER:                  -3.599
REMARK INTRA:                  -0.029
REMARK UNBOUND:                -0.088
REMARK SMILES CCCCC(=O)[O-]
REMARK SMILES IDX 4 1 5 2 6 3 7 4 3 5 2 6 1 7
REMARK H PARENT
REMARK Flexibility Score: inf
ROOT
ATOM      1  C   UNL     1       0.221  -8.498   4.435  1.00  0.00     0.053 C 
ENDROOT
BRANCH   1   2
ATOM      2  C   UNL     1      -1.147  -7.888   4.454  1.00  0.00     0.041 C 
ATOM      3  O   UNL     1      -1.614  -7.405   5.520  1.00  0.00    -0.550 OA
ATOM      4  O   UNL     1      -1.898  -7.826   3.286  1.00  0.00    -0.550 OA
ENDBRANCH   1   2
BRANCH   1   5
ATOM      5  C   UNL     1       1.330  -7.477   4.744  1.00  0.00     0.006 C 
BRANCH   5   6
ATOM      6  C   UNL     1       2.749  -7.979   4.422  1.00  0.00    -0.003 C 
ATOM      7  C   UNL     1       2.761  -9.331   3.710  1.00  0.00     0.004 C 
ENDBRANCH   5   6
ENDBRANCH   1   5
TORSDOF 3
ENDMDL
MODEL 7
REMARK VINA RESULT:    -2.964     11.787     12.648
REMARK INTER + INTRA:          -3.572
REMARK INTER:                  -3.557
REMARK INTRA:                  -0.015
REMARK UNBOUND:                -0.088
REMARK SMILES CCCCC(=O)[O-]
REMARK SMILES IDX 4 1 5 2 6 3 7 4 3 5 2 6 1 7
REMARK H PARENT
REMARK Flexibility Score: inf
ROOT
ATOM      1  C   UNL     1      -0.289   7.771   7.619  1.00  0.00     0.053 C 
ENDROOT
BRANCH   1   2
ATOM      2  C   UNL     1      -1.501   8.250   6.880  1.00  0.00     0.041 C 
ATOM      3  O   UNL     1      -2.176   7.449   6.179  1.00  0.00    -0.550 OA
ATOM      4  O   UNL     1      -1.905   9.575   6.989  1.00  0.00    -0.550 OA
ENDBRANCH   1   2
BRANCH   1   5
ATOM      5  C   UNL     1       1.007   8.440   7.128  1.00  0.00     0.006 C 
BRANCH   5   6
ATOM      6  C   UNL     1       2.245   7.529   7.200  1.00  0.00    -0.003 C 
ATOM      7  C   UNL     1       3.317   7.886   6.172  1.00  0.00     0.004 C 
ENDBRANCH   5   6
ENDBRANCH   1   5
TORSDOF 3
ENDMDL
MODEL 8
REMARK VINA RESULT:    -2.940      2.303      3.473
REMARK INTER + INTRA:          -3.543
REMARK INTER:                  -3.479
REMARK INTRA:                  -0.064
REMARK UNBOUND:                -0.088
REMARK SMILES CCCCC(=O)[O-]
REMARK SMILES IDX 4 1 5 2 6 3 7 4 3 5 2 6 1 7
REMARK H PARENT
REMARK Flexibility Score: inf
ROOT
ATOM      1  C   UNL     1      -4.588   7.462  -4.162  1.00  0.00     0.053 C 
ENDROOT
BRANCH   1   2
ATOM      2  C   UNL     1      -4.774   6.103  -3.560  1.00  0.00     0.041 C 
ATOM      3  O   UNL     1      -5.920   5.582  -3.509  1.00  0.00    -0.550 OA
ATOM      4  O   UNL     1      -3.677   5.398  -3.081  1.00  0.00    -0.550 OA
ENDBRANCH   1   2
BRANCH   1   5
ATOM      5  C   UNL     1      -5.722   8.435  -3.794  1.00  0.00     0.006 C 
BRANCH   5   6
ATOM      6  C   UNL     1      -5.281   9.588  -2.875  1.00  0.00    -0.003 C 
ATOM      7  C   UNL     1      -5.306   9.219  -1.393  1.00  0.00     0.004 C 
ENDBRANCH   5   6
ENDBRANCH   1   5
TORSDOF 3
ENDMDL
MODEL 9
REMARK VINA RESULT:    -2.935     13.275     13.658
REMARK INTER + INTRA:          -3.537
REMARK INTER:                  -3.503
REMARK INTRA:                  -0.034
REMARK UNBOUND:                -0.088
REMARK SMILES CCCCC(=O)[O-]
REMARK SMILES IDX 4 1 5 2 6 3 7 4 3 5 2 6 1 7
REMARK H PARENT
REMARK Flexibility Score: inf
ROOT
ATOM      1  C   UNL     1       3.416   5.278   5.972  1.00  0.00     0.053 C 
ENDROOT
BRANCH   1   2
ATOM      2  C   UNL     1       3.964   4.390   4.896  1.00  0.00     0.041 C 
ATOM      3  O   UNL     1       5.137   4.558   4.470  1.00  0.00    -0.550 OA
ATOM      4  O   UNL     1       3.188   3.357   4.383  1.00  0.00    -0.550 OA
ENDBRANCH   1   2
BRANCH   1   5
ATOM      5  C   UNL     1       4.238   6.565   6.155  1.00  0.00     0.006 C 
BRANCH   5   6
ATOM      6  C   UNL     1       3.412   7.857   6.024  1.00  0.00    -0.003 C 
ATOM      7  C   UNL     1       2.224   7.911   6.983  1.00  0.00     0.004 C 
ENDBRANCH   5   6
ENDBRANCH   1   5
TORSDOF 3
ENDMDL
