MODEL 1
REMARK VINA RESULT:    -3.682      0.000      0.000
REMARK INTER + INTRA:          -8.612
REMARK INTER:                  -6.910
REMARK INTRA:                  -1.702
REMARK UNBOUND:                -1.702
REMARK SMILES O=C([O-])CCCCCCCCCCCCCCC(=O)[O-]
REMARK SMILES IDX 10 1 9 2 8 3 7 4 6 5 5 6 4 7 2 8 1 9 3 10 11 11 12 12 13 13
REMARK SMILES IDX 14 14 15 15 16 16 17 17 18 18 19 19 20 20
REMARK H PARENT
REMARK Flexibility Score: inf
ROOT
ATOM      1  C   UNL     1     -19.329  45.097 -10.681  1.00  0.00     0.000 C 
ENDROOT
BRANCH   1   2
ATOM      2  C   UNL     1     -17.985  45.846 -10.604  1.00  0.00     0.000 C 
BRANCH   2   3
ATOM      3  C   UNL     1     -16.796  44.994 -11.077  1.00  0.00     0.000 C 
BRANCH   3   4
ATOM      4  C   UNL     1     -15.457  45.481 -10.499  1.00  0.00     0.000 C 
BRANCH   4   5
ATOM      5  C   UNL     1     -15.409  47.009 -10.321  1.00  0.00     0.000 C 
BRANCH   5   6
ATOM      6  C   UNL     1     -14.299  47.459  -9.353  1.00  0.00     0.006 C 
BRANCH   6   7
ATOM      7  C   UNL     1     -14.642  47.267  -7.867  1.00  0.00     0.053 C 
BRANCH   7   8
ATOM      8  C   UNL     1     -14.642  48.566  -7.119  1.00  0.00     0.041 C 
ATOM      9  O   UNL     1     -14.890  49.644  -7.721  1.00  0.00    -0.550 OA
ATOM     10  O   UNL     1     -14.405  48.580  -5.751  1.00  0.00    -0.550 OA
ENDBRANCH   7   8
ENDBRANCH   6   7
ENDBRANCH   5   6
ENDBRANCH   4   5
ENDBRANCH   3   4
ENDBRANCH   2   3
ENDBRANCH   1   2
BRANCH   1  11
ATOM     11  C   UNL     1     -19.613  44.141  -9.508  1.00  0.00     0.000 C 
BRANCH  11  12
ATOM     12  C   UNL     1     -19.003  44.619  -8.182  1.00  0.00     0.000 C 
BRANCH  12  13
ATOM     13  C   UNL     1     -18.008  43.586  -7.633  1.00  0.00     0.000 C 
BRANCH  13  14
ATOM     14  C   UNL     1     -16.620  44.186  -7.354  1.00  0.00     0.000 C 
BRANCH  14  15
ATOM     15  C   UNL     1     -16.032  43.716  -6.012  1.00  0.00     0.000 C 
BRANCH  15  16
ATOM     16  C   UNL     1     -16.939  42.704  -5.293  1.00  0.00     0.006 C 
BRANCH  16  17
ATOM     17  C   UNL     1     -17.195  43.076  -3.827  1.00  0.00     0.053 C 
BRANCH  17  18
ATOM     18  C   UNL     1     -18.641  43.397  -3.616  1.00  0.00     0.041 C 
ATOM     19  O   UNL     1     -19.316  42.751  -2.771  1.00  0.00    -0.550 OA
ATOM     20  O   UNL     1     -19.255  44.376  -4.385  1.00  0.00    -0.550 OA
ENDBRANCH  17  18
ENDBRANCH  16  17
ENDBRANCH  15  16
ENDBRANCH  14  15
ENDBRANCH  13  14
ENDBRANCH  12  13
ENDBRANCH  11  12
ENDBRANCH   1  11
TORSDOF 15
ENDMDL
MODEL 2
REMARK VINA RESULT:    -3.655      1.338      6.308
REMARK INTER + INTRA:          -8.562
REMARK INTER:                  -6.767
REMARK INTRA:                  -1.795
REMARK UNBOUND:                -1.702
REMARK SMILES O=C([O-])CCCCCCCCCCCCCCC(=O)[O-]
REMARK SMILES IDX 10 1 9 2 8 3 7 4 6 5 5 6 4 7 2 8 1 9 3 10 11 11 12 12 13 13
REMARK SMILES IDX 14 14 15 15 16 16 17 17 18 18 19 19 20 20
REMARK H PARENT
REMARK Flexibility Score: inf
ROOT
ATOM      1  C   UNL     1     -18.604  43.149 -10.764  1.00  0.00     0.000 C 
ENDROOT
BRANCH   1   2
ATOM      2  C   UNL     1     -19.054  42.982  -9.300  1.00  0.00     0.000 C 
BRANCH   2   3
ATOM      3  C   UNL     1     -19.379  44.320  -8.617  1.00  0.00     0.000 C 
BRANCH   3   4
ATOM      4  C   UNL     1     -18.656  44.483  -7.269  1.00  0.00     0.000 C 
BRANCH   4   5
ATOM      5  C   UNL     1     -17.702  43.314  -6.963  1.00  0.00     0.000 C 
BRANCH   5   6
ATOM      6  C   UNL     1     -17.154  43.357  -5.525  1.00  0.00     0.006 C 
BRANCH   6   7
ATOM      7  C   UNL     1     -17.784  42.322  -4.579  1.00  0.00     0.053 C 
BRANCH   7   8
ATOM      8  C   UNL     1     -18.813  42.937  -3.680  1.00  0.00     0.041 C 
ATOM      9  O   UNL     1     -19.391  42.237  -2.807  1.00  0.00    -0.550 OA
ATOM     10  O   UNL     1     -19.105  44.291  -3.781  1.00  0.00    -0.550 OA
ENDBRANCH   7   8
ENDBRANCH   6   7
ENDBRANCH   5   6
ENDBRANCH   4   5
ENDBRANCH   3   4
ENDBRANCH   2   3
ENDBRANCH   1   2
BRANCH   1  11
ATOM     11  C   UNL     1     -17.491  44.188 -10.991  1.00  0.00     0.000 C 
BRANCH  11  12
ATOM     12  C   UNL     1     -16.088  43.642 -10.688  1.00  0.00     0.000 C 
BRANCH  12  13
ATOM     13  C   UNL     1     -15.286  44.633  -9.831  1.00  0.00     0.000 C 
BRANCH  13  14
ATOM     14  C   UNL     1     -16.082  45.905  -9.493  1.00  0.00     0.000 C 
BRANCH  14  15
ATOM     15  C   UNL     1     -15.582  46.589  -8.209  1.00  0.00     0.000 C 
BRANCH  15  16
ATOM     16  C   UNL     1     -14.497  47.642  -8.486  1.00  0.00     0.006 C 
BRANCH  16  17
ATOM     17  C   UNL     1     -14.587  48.849  -7.542  1.00  0.00     0.053 C 
BRANCH  17  18
ATOM     18  C   UNL     1     -14.848  50.100  -8.319  1.00  0.00     0.041 C 
ATOM     19  O   UNL     1     -15.155  51.165  -7.720  1.00  0.00    -0.550 OA
ATOM     20  O   UNL     1     -14.802  50.080  -9.707  1.00  0.00    -0.550 OA
ENDBRANCH  17  18
ENDBRANCH  16  17
ENDBRANCH  15  16
ENDBRANCH  14  15
ENDBRANCH  13  14
ENDBRANCH  12  13
ENDBRANCH  11  12
ENDBRANCH   1  11
TORSDOF 15
ENDMDL
MODEL 3
REMARK VINA RESULT:    -3.558      0.755      5.689
REMARK INTER + INTRA:          -8.381
REMARK INTER:                  -6.762
REMARK INTRA:                  -1.619
REMARK UNBOUND:                -1.702
REMARK SMILES O=C([O-])CCCCCCCCCCCCCCC(=O)[O-]
REMARK SMILES IDX 10 1 9 2 8 3 7 4 6 5 5 6 4 7 2 8 1 9 3 10 11 11 12 12 13 13
REMARK SMILES IDX 14 14 15 15 16 16 17 17 18 18 19 19 20 20
REMARK H PARENT
REMARK Flexibility Score: inf
ROOT
ATOM      1  C   UNL     1     -19.720  44.182  -9.232  1.00  0.00     0.000 C 
ENDROOT
BRANCH   1   2
ATOM      2  C   UNL     1     -18.936  44.688  -8.006  1.00  0.00     0.000 C 
BRANCH   2   3
ATOM      3  C   UNL     1     -18.064  43.599  -7.361  1.00  0.00     0.000 C 
BRANCH   3   4
ATOM      4  C   UNL     1     -16.616  44.066  -7.129  1.00  0.00     0.000 C 
BRANCH   4   5
ATOM      5  C   UNL     1     -16.057  43.609  -5.770  1.00  0.00     0.000 C 
BRANCH   5   6
ATOM      6  C   UNL     1     -16.959  42.574  -5.074  1.00  0.00     0.006 C 
BRANCH   6   7
ATOM      7  C   UNL     1     -17.348  42.942  -3.634  1.00  0.00     0.053 C 
BRANCH   7   8
ATOM      8  C   UNL     1     -18.791  43.330  -3.524  1.00  0.00     0.041 C 
ATOM      9  O   UNL     1     -19.242  44.293  -4.198  1.00  0.00    -0.550 OA
ATOM     10  O   UNL     1     -19.646  42.604  -2.704  1.00  0.00    -0.550 OA
ENDBRANCH   7   8
ENDBRANCH   6   7
ENDBRANCH   5   6
ENDBRANCH   4   5
ENDBRANCH   3   4
ENDBRANCH   2   3
ENDBRANCH   1   2
BRANCH   1  11
ATOM     11  C   UNL     1     -19.300  44.802 -10.577  1.00  0.00     0.000 C 
BRANCH  11  12
ATOM     12  C   UNL     1     -17.989  44.219 -11.125  1.00  0.00     0.000 C 
BRANCH  12  13
ATOM     13  C   UNL     1     -16.832  45.214 -10.949  1.00  0.00     0.000 C 
BRANCH  13  14
ATOM     14  C   UNL     1     -15.579  44.568 -10.333  1.00  0.00     0.000 C 
BRANCH  14  15
ATOM     15  C   UNL     1     -14.432  45.574 -10.136  1.00  0.00     0.000 C 
BRANCH  15  16
ATOM     16  C   UNL     1     -14.760  46.642  -9.081  1.00  0.00     0.006 C 
BRANCH  16  17
ATOM     17  C   UNL     1     -13.896  46.513  -7.819  1.00  0.00     0.053 C 
BRANCH  17  18
ATOM     18  C   UNL     1     -14.214  47.610  -6.854  1.00  0.00     0.041 C 
ATOM     19  O   UNL     1     -13.877  47.508  -5.645  1.00  0.00    -0.550 OA
ATOM     20  O   UNL     1     -14.926  48.725  -7.278  1.00  0.00    -0.550 OA
ENDBRANCH  17  18
ENDBRANCH  16  17
ENDBRANCH  15  16
ENDBRANCH  14  15
ENDBRANCH  13  14
ENDBRANCH  12  13
ENDBRANCH  11  12
ENDBRANCH   1  11
TORSDOF 15
ENDMDL
MODEL 4
REMARK VINA RESULT:    -3.377      1.466      2.051
REMARK INTER + INTRA:          -8.040
REMARK INTER:                  -6.271
REMARK INTRA:                  -1.769
REMARK UNBOUND:                -1.702
REMARK SMILES O=C([O-])CCCCCCCCCCCCCCC(=O)[O-]
REMARK SMILES IDX 10 1 9 2 8 3 7 4 6 5 5 6 4 7 2 8 1 9 3 10 11 11 12 12 13 13
REMARK SMILES IDX 14 14 15 15 16 16 17 17 18 18 19 19 20 20
REMARK H PARENT
REMARK Flexibility Score: inf
ROOT
ATOM      1  C   UNL     1     -17.024  43.657 -10.514  1.00  0.00     0.000 C 
ENDROOT
BRANCH   1   2
ATOM      2  C   UNL     1     -15.672  44.357 -10.279  1.00  0.00     0.000 C 
BRANCH   2   3
ATOM      3  C   UNL     1     -15.290  44.436  -8.792  1.00  0.00     0.000 C 
BRANCH   3   4
ATOM      4  C   UNL     1     -15.606  45.809  -8.175  1.00  0.00     0.000 C 
BRANCH   4   5
ATOM      5  C   UNL     1     -15.429  46.964  -9.178  1.00  0.00     0.000 C 
BRANCH   5   6
ATOM      6  C   UNL     1     -14.372  47.986  -8.725  1.00  0.00     0.006 C 
BRANCH   6   7
ATOM      7  C   UNL     1     -14.723  49.446  -9.057  1.00  0.00     0.053 C 
BRANCH   7   8
ATOM      8  C   UNL     1     -14.756  50.307  -7.831  1.00  0.00     0.041 C 
ATOM      9  O   UNL     1     -15.312  51.436  -7.865  1.00  0.00    -0.550 OA
ATOM     10  O   UNL     1     -14.205  49.847  -6.642  1.00  0.00    -0.550 OA
ENDBRANCH   7   8
ENDBRANCH   6   7
ENDBRANCH   5   6
ENDBRANCH   4   5
ENDBRANCH   3   4
ENDBRANCH   2   3
ENDBRANCH   1   2
BRANCH   1  11
ATOM     11  C   UNL     1     -18.205  44.599 -10.812  1.00  0.00     0.000 C 
BRANCH  11  12
ATOM     12  C   UNL     1     -19.452  44.284  -9.974  1.00  0.00     0.000 C 
BRANCH  12  13
ATOM     13  C   UNL     1     -19.060  43.755  -8.586  1.00  0.00     0.000 C 
BRANCH  13  14
ATOM     14  C   UNL     1     -19.088  44.847  -7.504  1.00  0.00     0.000 C 
BRANCH  14  15
ATOM     15  C   UNL     1     -18.690  44.313  -6.117  1.00  0.00     0.000 C 
BRANCH  15  16
ATOM     16  C   UNL     1     -17.597  43.236  -6.191  1.00  0.00     0.006 C 
BRANCH  16  17
ATOM     17  C   UNL     1     -17.776  42.137  -5.135  1.00  0.00     0.053 C 
BRANCH  17  18
ATOM     18  C   UNL     1     -17.789  42.730  -3.761  1.00  0.00     0.041 C 
ATOM     19  O   UNL     1     -18.820  42.642  -3.044  1.00  0.00    -0.550 OA
ATOM     20  O   UNL     1     -16.679  43.421  -3.292  1.00  0.00    -0.550 OA
ENDBRANCH  17  18
ENDBRANCH  16  17
ENDBRANCH  15  16
ENDBRANCH  14  15
ENDBRANCH  13  14
ENDBRANCH  12  13
ENDBRANCH  11  12
ENDBRANCH   1  11
TORSDOF 15
ENDMDL
MODEL 5
REMARK VINA RESULT:    -3.349      1.693      6.430
REMARK INTER + INTRA:          -7.989
REMARK INTER:                  -6.539
REMARK INTRA:                  -1.449
REMARK UNBOUND:                -1.702
REMARK SMILES O=C([O-])CCCCCCCCCCCCCCC(=O)[O-]
REMARK SMILES IDX 10 1 9 2 8 3 7 4 6 5 5 6 4 7 2 8 1 9 3 10 11 11 12 12 13 13
REMARK SMILES IDX 14 14 15 15 16 16 17 17 18 18 19 19 20 20
REMARK H PARENT
REMARK Flexibility Score: inf
ROOT
ATOM      1  C   UNL     1     -17.604  44.076 -11.011  1.00  0.00     0.000 C 
ENDROOT
BRANCH   1   2
ATOM      2  C   UNL     1     -17.953  42.701 -10.411  1.00  0.00     0.000 C 
BRANCH   2   3
ATOM      3  C   UNL     1     -18.951  42.792  -9.244  1.00  0.00     0.000 C 
BRANCH   3   4
ATOM      4  C   UNL     1     -19.442  44.230  -9.002  1.00  0.00     0.000 C 
BRANCH   4   5
ATOM      5  C   UNL     1     -18.907  44.827  -7.688  1.00  0.00     0.000 C 
BRANCH   5   6
ATOM      6  C   UNL     1     -18.054  43.827  -6.887  1.00  0.00     0.006 C 
BRANCH   6   7
ATOM      7  C   UNL     1     -18.479  43.669  -5.419  1.00  0.00     0.053 C 
BRANCH   7   8
ATOM      8  C   UNL     1     -17.532  42.799  -4.650  1.00  0.00     0.041 C 
ATOM      9  O   UNL     1     -17.525  41.553  -4.833  1.00  0.00    -0.550 OA
ATOM     10  O   UNL     1     -16.631  43.369  -3.759  1.00  0.00    -0.550 OA
ENDBRANCH   7   8
ENDBRANCH   6   7
ENDBRANCH   5   6
ENDBRANCH   4   5
ENDBRANCH   3   4
ENDBRANCH   2   3
ENDBRANCH   1   2
BRANCH   1  11
ATOM     11  C   UNL     1     -16.099  44.397 -11.077  1.00  0.00     0.000 C 
BRANCH  11  12
ATOM     12  C   UNL     1     -15.544  44.948  -9.755  1.00  0.00     0.000 C 
BRANCH  12  13
ATOM     13  C   UNL     1     -15.955  46.414  -9.557  1.00  0.00     0.000 C 
BRANCH  13  14
ATOM     14  C   UNL     1     -16.112  47.173 -10.885  1.00  0.00     0.000 C 
BRANCH  14  15
ATOM     15  C   UNL     1     -15.127  48.347 -11.015  1.00  0.00     0.000 C 
BRANCH  15  16
ATOM     16  C   UNL     1     -14.494  48.737  -9.670  1.00  0.00     0.006 C 
BRANCH  16  17
ATOM     17  C   UNL     1     -14.509  50.251  -9.424  1.00  0.00     0.053 C 
BRANCH  17  18
ATOM     18  C   UNL     1     -14.895  50.546  -8.008  1.00  0.00     0.041 C 
ATOM     19  O   UNL     1     -15.382  51.667  -7.706  1.00  0.00    -0.550 OA
ATOM     20  O   UNL     1     -14.673  49.600  -7.016  1.00  0.00    -0.550 OA
ENDBRANCH  17  18
ENDBRANCH  16  17
ENDBRANCH  15  16
ENDBRANCH  14  15
ENDBRANCH  13  14
ENDBRANCH  12  13
ENDBRANCH  11  12
ENDBRANCH   1  11
TORSDOF 15
ENDMDL
MODEL 6
REMARK VINA RESULT:    -3.182      1.562      6.072
REMARK INTER + INTRA:          -7.674
REMARK INTER:                  -5.845
REMARK INTRA:                  -1.829
REMARK UNBOUND:                -1.702
REMARK SMILES O=C([O-])CCCCCCCCCCCCCCC(=O)[O-]
REMARK SMILES IDX 10 1 9 2 8 3 7 4 6 5 5 6 4 7 2 8 1 9 3 10 11 11 12 12 13 13
REMARK SMILES IDX 14 14 15 15 16 16 17 17 18 18 19 19 20 20
REMARK H PARENT
REMARK Flexibility Score: inf
ROOT
ATOM      1  C   UNL     1     -19.882  44.530  -7.910  1.00  0.00     0.000 C 
ENDROOT
BRANCH   1   2
ATOM      2  C   UNL     1     -18.406  44.810  -7.567  1.00  0.00     0.000 C 
BRANCH   2   3
ATOM      3  C   UNL     1     -17.567  43.528  -7.438  1.00  0.00     0.000 C 
BRANCH   3   4
ATOM      4  C   UNL     1     -16.135  43.809  -6.954  1.00  0.00     0.000 C 
BRANCH   4   5
ATOM      5  C   UNL     1     -16.014  43.790  -5.419  1.00  0.00     0.000 C 
BRANCH   5   6
ATOM      6  C   UNL     1     -16.725  42.583  -4.783  1.00  0.00     0.006 C 
BRANCH   6   7
ATOM      7  C   UNL     1     -17.451  42.900  -3.466  1.00  0.00     0.053 C 
BRANCH   7   8
ATOM      8  C   UNL     1     -18.902  43.203  -3.683  1.00  0.00     0.041 C 
ATOM      9  O   UNL     1     -19.251  44.300  -4.194  1.00  0.00    -0.550 OA
ATOM     10  O   UNL     1     -19.867  42.258  -3.356  1.00  0.00    -0.550 OA
ENDBRANCH   7   8
ENDBRANCH   6   7
ENDBRANCH   5   6
ENDBRANCH   4   5
ENDBRANCH   3   4
ENDBRANCH   2   3
ENDBRANCH   1   2
BRANCH   1  11
ATOM     11  C   UNL     1     -20.205  44.473  -9.414  1.00  0.00     0.000 C 
BRANCH  11  12
ATOM     12  C   UNL     1     -19.716  43.181 -10.085  1.00  0.00     0.000 C 
BRANCH  12  13
ATOM     13  C   UNL     1     -18.626  43.482 -11.125  1.00  0.00     0.000 C 
BRANCH  13  14
ATOM     14  C   UNL     1     -17.343  42.665 -10.896  1.00  0.00     0.000 C 
BRANCH  14  15
ATOM     15  C   UNL     1     -16.073  43.532 -10.957  1.00  0.00     0.000 C 
BRANCH  15  16
ATOM     16  C   UNL     1     -16.348  45.005 -10.620  1.00  0.00     0.006 C 
BRANCH  16  17
ATOM     17  C   UNL     1     -15.159  45.919 -10.944  1.00  0.00     0.053 C 
BRANCH  17  18
ATOM     18  C   UNL     1     -14.754  46.698  -9.733  1.00  0.00     0.041 C 
ATOM     19  O   UNL     1     -15.008  47.929  -9.658  1.00  0.00    -0.550 OA
ATOM     20  O   UNL     1     -14.053  46.075  -8.708  1.00  0.00    -0.550 OA
ENDBRANCH  17  18
ENDBRANCH  16  17
ENDBRANCH  15  16
ENDBRANCH  14  15
ENDBRANCH  13  14
ENDBRANCH  12  13
ENDBRANCH  11  12
ENDBRANCH   1  11
TORSDOF 15
ENDMDL
MODEL 7
REMARK VINA RESULT:    -2.968      2.439      6.127
REMARK INTER + INTRA:          -7.272
REMARK INTER:                  -5.773
REMARK INTRA:                  -1.500
REMARK UNBOUND:                -1.702
REMARK SMILES O=C([O-])CCCCCCCCCCCCCCC(=O)[O-]
REMARK SMILES IDX 10 1 9 2 8 3 7 4 6 5 5 6 4 7 2 8 1 9 3 10 11 11 12 12 13 13
REMARK SMILES IDX 14 14 15 15 16 16 17 17 18 18 19 19 20 20
REMARK H PARENT
REMARK Flexibility Score: inf
ROOT
ATOM      1  C   UNL     1     -14.202  46.249  -8.150  1.00  0.00     0.000 C 
ENDROOT
BRANCH   1   2
ATOM      2  C   UNL     1     -15.620  46.284  -7.550  1.00  0.00     0.000 C 
BRANCH   2   3
ATOM      3  C   UNL     1     -16.381  44.960  -7.733  1.00  0.00     0.000 C 
BRANCH   3   4
ATOM      4  C   UNL     1     -15.625  43.760  -7.138  1.00  0.00     0.000 C 
BRANCH   4   5
ATOM      5  C   UNL     1     -16.093  43.413  -5.712  1.00  0.00     0.000 C 
BRANCH   5   6
ATOM      6  C   UNL     1     -17.613  43.186  -5.626  1.00  0.00     0.006 C 
BRANCH   6   7
ATOM      7  C   UNL     1     -18.047  42.249  -4.488  1.00  0.00     0.053 C 
BRANCH   7   8
ATOM      8  C   UNL     1     -18.877  42.959  -3.462  1.00  0.00     0.041 C 
ATOM      9  O   UNL     1     -19.038  44.207  -3.529  1.00  0.00    -0.550 OA
ATOM     10  O   UNL     1     -19.503  42.238  -2.453  1.00  0.00    -0.550 OA
ENDBRANCH   7   8
ENDBRANCH   6   7
ENDBRANCH   5   6
ENDBRANCH   4   5
ENDBRANCH   3   4
ENDBRANCH   2   3
ENDBRANCH   1   2
BRANCH   1  11
ATOM     11  C   UNL     1     -13.910  47.334  -9.202  1.00  0.00     0.000 C 
BRANCH  11  12
ATOM     12  C   UNL     1     -14.865  47.279 -10.403  1.00  0.00     0.000 C 
BRANCH  12  13
ATOM     13  C   UNL     1     -14.850  45.886 -11.051  1.00  0.00     0.000 C 
BRANCH  13  14
ATOM     14  C   UNL     1     -16.248  45.250 -11.125  1.00  0.00     0.000 C 
BRANCH  14  15
ATOM     15  C   UNL     1     -17.371  46.254 -10.812  1.00  0.00     0.000 C 
BRANCH  15  16
ATOM     16  C   UNL     1     -18.771  45.644 -10.979  1.00  0.00     0.006 C 
BRANCH  16  17
ATOM     17  C   UNL     1     -18.762  44.111 -10.913  1.00  0.00     0.053 C 
BRANCH  17  18
ATOM     18  C   UNL     1     -19.223  43.644  -9.568  1.00  0.00     0.041 C 
ATOM     19  O   UNL     1     -19.610  44.478  -8.707  1.00  0.00    -0.550 OA
ATOM     20  O   UNL     1     -19.179  42.294  -9.248  1.00  0.00    -0.550 OA
ENDBRANCH  17  18
ENDBRANCH  16  17
ENDBRANCH  15  16
ENDBRANCH  14  15
ENDBRANCH  13  14
ENDBRANCH  12  13
ENDBRANCH  11  12
ENDBRANCH   1  11
TORSDOF 15
ENDMDL
MODEL 8
REMARK VINA RESULT:    -2.898      2.482      4.304
REMARK INTER + INTRA:          -7.142
REMARK INTER:                  -5.831
REMARK INTRA:                  -1.311
REMARK UNBOUND:                -1.702
REMARK SMILES O=C([O-])CCCCCCCCCCCCCCC(=O)[O-]
REMARK SMILES IDX 10 1 9 2 8 3 7 4 6 5 5 6 4 7 2 8 1 9 3 10 11 11 12 12 13 13
REMARK SMILES IDX 14 14 15 15 16 16 17 17 18 18 19 19 20 20
REMARK H PARENT
REMARK Flexibility Score: inf
ROOT
ATOM      1  C   UNL     1     -14.846  47.155  -8.362  1.00  0.00     0.000 C 
ENDROOT
BRANCH   1   2
ATOM      2  C   UNL     1     -14.777  48.477  -9.148  1.00  0.00     0.000 C 
BRANCH   2   3
ATOM      3  C   UNL     1     -14.969  48.285 -10.662  1.00  0.00     0.000 C 
BRANCH   3   4
ATOM      4  C   UNL     1     -16.427  47.964 -11.033  1.00  0.00     0.000 C 
BRANCH   4   5
ATOM      5  C   UNL     1     -16.697  46.452 -11.125  1.00  0.00     0.000 C 
BRANCH   5   6
ATOM      6  C   UNL     1     -18.009  46.041 -10.433  1.00  0.00     0.006 C 
BRANCH   6   7
ATOM      7  C   UNL     1     -18.113  44.540 -10.117  1.00  0.00     0.053 C 
BRANCH   7   8
ATOM      8  C   UNL     1     -19.510  44.138  -9.754  1.00  0.00     0.041 C 
ATOM      9  O   UNL     1     -20.275  43.646 -10.625  1.00  0.00    -0.550 OA
ATOM     10  O   UNL     1     -19.954  44.272  -8.445  1.00  0.00    -0.550 OA
ENDBRANCH   7   8
ENDBRANCH   6   7
ENDBRANCH   5   6
ENDBRANCH   4   5
ENDBRANCH   3   4
ENDBRANCH   2   3
ENDBRANCH   1   2
BRANCH   1  11
ATOM     11  C   UNL     1     -14.093  45.973  -9.001  1.00  0.00     0.000 C 
BRANCH  11  12
ATOM     12  C   UNL     1     -14.514  44.612  -8.428  1.00  0.00     0.000 C 
BRANCH  12  13
ATOM     13  C   UNL     1     -15.764  44.751  -7.547  1.00  0.00     0.000 C 
BRANCH  13  14
ATOM     14  C   UNL     1     -15.845  43.672  -6.454  1.00  0.00     0.000 C 
BRANCH  14  15
ATOM     15  C   UNL     1     -17.260  43.085  -6.307  1.00  0.00     0.000 C 
BRANCH  15  16
ATOM     16  C   UNL     1     -17.421  42.247  -5.030  1.00  0.00     0.006 C 
BRANCH  16  17
ATOM     17  C   UNL     1     -17.380  43.097  -3.754  1.00  0.00     0.053 C 
BRANCH  17  18
ATOM     18  C   UNL     1     -18.768  43.393  -3.279  1.00  0.00     0.041 C 
ATOM     19  O   UNL     1     -19.194  44.578  -3.268  1.00  0.00    -0.550 OA
ATOM     20  O   UNL     1     -19.573  42.367  -2.803  1.00  0.00    -0.550 OA
ENDBRANCH  17  18
ENDBRANCH  16  17
ENDBRANCH  15  16
ENDBRANCH  14  15
ENDBRANCH  13  14
ENDBRANCH  12  13
ENDBRANCH  11  12
ENDBRANCH   1  11
TORSDOF 15
ENDMDL
MODEL 9
REMARK VINA RESULT:    -2.868      2.622      4.365
REMARK INTER + INTRA:          -7.085
REMARK INTER:                  -5.410
REMARK INTRA:                  -1.675
REMARK UNBOUND:                -1.702
REMARK SMILES O=C([O-])CCCCCCCCCCCCCCC(=O)[O-]
REMARK SMILES IDX 10 1 9 2 8 3 7 4 6 5 5 6 4 7 2 8 1 9 3 10 11 11 12 12 13 13
REMARK SMILES IDX 14 14 15 15 16 16 17 17 18 18 19 19 20 20
REMARK H PARENT
REMARK Flexibility Score: inf
ROOT
ATOM      1  C   UNL     1     -15.754  43.784  -5.680  1.00  0.00     0.000 C 
ENDROOT
BRANCH   1   2
ATOM      2  C   UNL     1     -15.719  43.929  -7.213  1.00  0.00     0.000 C 
BRANCH   2   3
ATOM      3  C   UNL     1     -15.091  45.255  -7.675  1.00  0.00     0.000 C 
BRANCH   3   4
ATOM      4  C   UNL     1     -16.034  46.071  -8.575  1.00  0.00     0.000 C 
BRANCH   4   5
ATOM      5  C   UNL     1     -15.288  46.814  -9.698  1.00  0.00     0.000 C 
BRANCH   5   6
ATOM      6  C   UNL     1     -14.165  47.721  -9.164  1.00  0.00     0.006 C 
BRANCH   6   7
ATOM      7  C   UNL     1     -14.501  49.221  -9.190  1.00  0.00     0.053 C 
BRANCH   7   8
ATOM      8  C   UNL     1     -14.792  49.755  -7.821  1.00  0.00     0.041 C 
ATOM      9  O   UNL     1     -14.657  49.016  -6.810  1.00  0.00    -0.550 OA
ATOM     10  O   UNL     1     -15.177  51.080  -7.658  1.00  0.00    -0.550 OA
ENDBRANCH   7   8
ENDBRANCH   6   7
ENDBRANCH   5   6
ENDBRANCH   4   5
ENDBRANCH   3   4
ENDBRANCH   2   3
ENDBRANCH   1   2
BRANCH   1  11
ATOM     11  C   UNL     1     -16.792  42.783  -5.142  1.00  0.00     0.000 C 
BRANCH  11  12
ATOM     12  C   UNL     1     -17.611  43.339  -3.967  1.00  0.00     0.000 C 
BRANCH  12  13
ATOM     13  C   UNL     1     -18.921  43.970  -4.463  1.00  0.00     0.000 C 
BRANCH  13  14
ATOM     14  C   UNL     1     -19.177  43.713  -5.957  1.00  0.00     0.000 C 
BRANCH  14  15
ATOM     15  C   UNL     1     -19.474  45.006  -6.736  1.00  0.00     0.000 C 
BRANCH  15  16
ATOM     16  C   UNL     1     -19.228  44.854  -8.245  1.00  0.00     0.006 C 
BRANCH  16  17
ATOM     17  C   UNL     1     -18.929  43.406  -8.655  1.00  0.00     0.053 C 
BRANCH  17  18
ATOM     18  C   UNL     1     -18.358  43.362 -10.037  1.00  0.00     0.041 C 
ATOM     19  O   UNL     1     -18.307  44.410 -10.734  1.00  0.00    -0.550 OA
ATOM     20  O   UNL     1     -17.928  42.156 -10.573  1.00  0.00    -0.550 OA
ENDBRANCH  17  18
ENDBRANCH  16  17
ENDBRANCH  15  16
ENDBRANCH  14  15
ENDBRANCH  13  14
ENDBRANCH  12  13
ENDBRANCH  11  12
ENDBRANCH   1  11
TORSDOF 15
ENDMDL
