MODEL 1
REMARK VINA RESULT:    -5.733      0.000      0.000
REMARK INTER + INTRA:         -11.677
REMARK INTER:                  -9.420
REMARK INTRA:                  -2.257
REMARK UNBOUND:                -2.257
REMARK SMILES C[C@@H]1O[C@@H](OC[C@@H]2O[C@@H](Oc3c(-c4ccc(O)c(O)c4)oc4cc(O)cc(O)c4c3=O)[C@H](O)[C@H](O)[C@@H]2O)[C@@H](O)[C@@H](O)[C@@H]1O
REMARK SMILES IDX 7 1 36 2 34 3 32 4 9 5 8 6 6 7 5 8 4 9 1 10 2 11 42 12 3 13
REMARK SMILES IDX 40 14 38 15 43 16 41 18 39 20 37 22 35 24 10 26 11 27 12 28
REMARK SMILES IDX 30 29 21 30 29 31 31 32 22 33 27 34 23 35 26 36 24 37 13 38
REMARK SMILES IDX 20 39 14 40 18 41 15 42 16 43 19 44 17 46 28 48 25 50 33 52
REMARK H PARENT 43 17 41 19 39 21 37 23 35 25 19 45 17 47 28 49 25 51 33 53
REMARK Flexibility Score: inf
ROOT
ATOM      1  C   UNL     1      29.202 170.623 167.491  1.00  0.00     0.180 C 
ATOM      2  C   UNL     1      29.459 169.108 166.850  1.00  0.00     0.177 C 
ATOM      3  C   UNL     1      31.070 168.890 166.519  1.00  0.00     0.180 C 
ATOM      4  C   UNL     1      32.085 169.343 167.681  1.00  0.00     0.214 C 
ATOM      5  C   UNL     1      31.332 170.536 168.453  1.00  0.00     0.339 C 
ATOM      6  O   UNL     1      30.475 171.327 167.631  1.00  0.00    -0.332 OA
ENDROOT
BRANCH   1   7
ATOM      7  C   UNL     1      27.976 171.494 166.769  1.00  0.00     0.198 C 
BRANCH   7   8
ATOM      8  O   UNL     1      28.307 172.456 165.722  1.00  0.00    -0.347 OA
BRANCH   8   9
ATOM      9  C   UNL     1      27.983 171.826 164.475  1.00  0.00     0.281 C 
ATOM     10  C   UNL     1      29.761 169.619 161.978  1.00  0.00     0.041 C 
ATOM     11  C   UNL     1      29.500 171.102 162.402  1.00  0.00     0.150 C 
ATOM     12  C   UNL     1      28.515 171.803 161.375  1.00  0.00     0.174 C 
ATOM     13  O   UNL     1      29.130 170.975 163.848  1.00  0.00    -0.344 OA
ATOM     14  C   UNL     1      27.688 172.961 162.003  1.00  0.00     0.179 C 
ATOM     15  C   UNL     1      27.070 172.547 163.303  1.00  0.00     0.202 C 
BRANCH  12  16
ATOM     16  O   UNL     1      27.851 170.912 160.507  1.00  0.00    -0.388 OA
ATOM     17  H   UNL     1      27.407 171.468 159.797  1.00  0.00     0.211 HD
ENDBRANCH  12  16
BRANCH  14  18
ATOM     18  O   UNL     1      28.378 174.206 162.042  1.00  0.00    -0.387 OA
ATOM     19  H   UNL     1      27.795 174.978 162.231  1.00  0.00     0.211 HD
ENDBRANCH  14  18
BRANCH  15  20
ATOM     20  O   UNL     1      26.152 173.565 163.773  1.00  0.00    -0.385 OA
ATOM     21  H   UNL     1      26.611 174.118 164.463  1.00  0.00     0.211 HD
ENDBRANCH  15  20
ENDBRANCH   8   9
ENDBRANCH   7   8
ENDBRANCH   1   7
BRANCH   2  22
ATOM     22  O   UNL     1      28.664 168.993 165.658  1.00  0.00    -0.387 OA
ATOM     23  H   UNL     1      29.099 168.414 164.924  1.00  0.00     0.211 HD
ENDBRANCH   2  22
BRANCH   3  24
ATOM     24  O   UNL     1      31.437 169.403 165.220  1.00  0.00    -0.387 OA
ATOM     25  H   UNL     1      31.277 170.375 165.085  1.00  0.00     0.211 HD
ENDBRANCH   3  24
BRANCH   5  26
ATOM     26  O   UNL     1      31.136 170.842 169.854  1.00  0.00    -0.454 OA
BRANCH  26  27
ATOM     27  C   UNL     1      31.163 172.212 170.417  1.00  0.00     0.214 A 
ATOM     28  C   UNL     1      32.463 172.849 170.787  1.00  0.00     0.180 A 
ATOM     29  C   UNL     1      29.934 173.063 170.589  1.00  0.00     0.239 A 
ATOM     30  O   UNL     1      32.438 173.968 171.562  1.00  0.00    -0.452 OA
ATOM     31  C   UNL     1      30.212 174.428 170.903  1.00  0.00     0.111 A 
ATOM     32  O   UNL     1      28.670 172.717 170.342  1.00  0.00    -0.285 OA
ATOM     33  C   UNL     1      31.345 174.718 171.695  1.00  0.00     0.146 A 
ATOM     34  C   UNL     1      30.012 175.482 169.917  1.00  0.00     0.134 A 
ATOM     35  C   UNL     1      31.569 176.072 172.069  1.00  0.00     0.094 A 
ATOM     36  C   UNL     1      30.993 176.560 169.781  1.00  0.00     0.093 A 
ATOM     37  C   UNL     1      31.735 176.900 170.912  1.00  0.00     0.123 A 
BRANCH  28  38
ATOM     38  C   UNL     1      33.830 172.152 170.666  1.00  0.00     0.025 A 
ATOM     39  C   UNL     1      34.079 170.720 170.827  1.00  0.00     0.062 A 
ATOM     40  C   UNL     1      34.983 172.970 170.793  1.00  0.00     0.016 A 
ATOM     41  C   UNL     1      35.199 170.083 170.206  1.00  0.00     0.158 A 
ATOM     42  C   UNL     1      36.214 172.428 170.228  1.00  0.00     0.051 A 
ATOM     43  C   UNL     1      36.357 171.019 170.025  1.00  0.00     0.157 A 
BRANCH  41  44
ATOM     44  O   UNL     1      35.327 168.695 170.033  1.00  0.00    -0.504 OA
ATOM     45  H   UNL     1      35.037 168.193 169.201  1.00  0.00     0.293 HD
ENDBRANCH  41  44
BRANCH  43  46
ATOM     46  O   UNL     1      37.661 170.656 169.662  1.00  0.00    -0.504 OA
ATOM     47  H   UNL     1      38.140 171.022 168.807  1.00  0.00     0.293 HD
ENDBRANCH  43  46
ENDBRANCH  28  38
BRANCH  34  48
ATOM     48  O   UNL     1      28.936 175.411 169.029  1.00  0.00    -0.507 OA
ATOM     49  H   UNL     1      28.382 174.550 169.047  1.00  0.00     0.293 HD
ENDBRANCH  34  48
BRANCH  37  50
ATOM     50  O   UNL     1      32.690 177.951 170.789  1.00  0.00    -0.508 OA
ATOM     51  H   UNL     1      33.693 177.838 170.488  1.00  0.00     0.293 HD
ENDBRANCH  37  50
ENDBRANCH  26  27
ENDBRANCH   5  26
BRANCH   4  52
ATOM     52  O   UNL     1      33.373 169.742 167.134  1.00  0.00    -0.384 OA
ATOM     53  H   UNL     1      33.729 170.567 167.510  1.00  0.00     0.211 HD
ENDBRANCH   4  52
TORSDOF 16
ENDMDL
MODEL 2
REMARK VINA RESULT:    -5.731      0.966      1.798
REMARK INTER + INTRA:         -11.673
REMARK INTER:                  -8.879
REMARK INTRA:                  -2.795
REMARK UNBOUND:                -2.257
REMARK SMILES C[C@@H]1O[C@@H](OC[C@@H]2O[C@@H](Oc3c(-c4ccc(O)c(O)c4)oc4cc(O)cc(O)c4c3=O)[C@H](O)[C@H](O)[C@@H]2O)[C@@H](O)[C@@H](O)[C@@H]1O
REMARK SMILES IDX 7 1 36 2 34 3 32 4 9 5 8 6 6 7 5 8 4 9 1 10 2 11 42 12 3 13
REMARK SMILES IDX 40 14 38 15 43 16 41 18 39 20 37 22 35 24 10 26 11 27 12 28
REMARK SMILES IDX 30 29 21 30 29 31 31 32 22 33 27 34 23 35 26 36 24 37 13 38
REMARK SMILES IDX 20 39 14 40 18 41 15 42 16 43 19 44 17 46 28 48 25 50 33 52
REMARK H PARENT 43 17 41 19 39 21 37 23 35 25 19 45 17 47 28 49 25 51 33 53
REMARK Flexibility Score: inf
ROOT
ATOM      1  C   UNL     1      29.043 170.467 167.025  1.00  0.00     0.180 C 
ATOM      2  C   UNL     1      29.329 169.003 166.287  1.00  0.00     0.177 C 
ATOM      3  C   UNL     1      30.955 168.801 166.023  1.00  0.00     0.180 C 
ATOM      4  C   UNL     1      31.910 169.161 167.266  1.00  0.00     0.214 C 
ATOM      5  C   UNL     1      31.121 170.298 168.084  1.00  0.00     0.339 C 
ATOM      6  O   UNL     1      30.308 171.152 167.281  1.00  0.00    -0.332 OA
ENDROOT
BRANCH   1   7
ATOM      7  C   UNL     1      27.857 171.396 166.307  1.00  0.00     0.198 C 
BRANCH   7   8
ATOM      8  O   UNL     1      27.913 172.849 166.438  1.00  0.00    -0.347 OA
BRANCH   8   9
ATOM      9  C   UNL     1      27.919 173.377 165.104  1.00  0.00     0.281 C 
ATOM     10  C   UNL     1      25.328 174.427 162.564  1.00  0.00     0.041 C 
ATOM     11  C   UNL     1      26.142 173.213 163.119  1.00  0.00     0.150 C 
ATOM     12  C   UNL     1      27.266 172.783 162.085  1.00  0.00     0.174 C 
ATOM     13  O   UNL     1      26.508 173.660 164.501  1.00  0.00    -0.344 OA
ATOM     14  C   UNL     1      28.494 172.101 162.754  1.00  0.00     0.179 C 
ATOM     15  C   UNL     1      28.976 172.883 163.936  1.00  0.00     0.202 C 
BRANCH  12  16
ATOM     16  O   UNL     1      27.509 173.728 161.067  1.00  0.00    -0.388 OA
ATOM     17  H   UNL     1      27.662 173.213 160.217  1.00  0.00     0.211 HD
ENDBRANCH  12  16
BRANCH  14  18
ATOM     18  O   UNL     1      28.319 170.709 162.994  1.00  0.00    -0.387 OA
ATOM     19  H   UNL     1      28.846 170.132 162.392  1.00  0.00     0.211 HD
ENDBRANCH  14  18
BRANCH  15  20
ATOM     20  O   UNL     1      30.228 172.342 164.424  1.00  0.00    -0.385 OA
ATOM     21  H   UNL     1      30.973 172.708 163.874  1.00  0.00     0.211 HD
ENDBRANCH  15  20
ENDBRANCH   8   9
ENDBRANCH   7   8
ENDBRANCH   1   7
BRANCH   2  22
ATOM     22  O   UNL     1      28.597 168.980 165.051  1.00  0.00    -0.387 OA
ATOM     23  H   UNL     1      28.471 168.034 164.661  1.00  0.00     0.211 HD
ENDBRANCH   2  22
BRANCH   3  24
ATOM     24  O   UNL     1      31.389 169.406 164.786  1.00  0.00    -0.387 OA
ATOM     25  H   UNL     1      32.006 168.855 164.235  1.00  0.00     0.211 HD
ENDBRANCH   3  24
BRANCH   5  26
ATOM     26  O   UNL     1      30.854 170.501 169.493  1.00  0.00    -0.454 OA
BRANCH  26  27
ATOM     27  C   UNL     1      30.745 171.831 170.134  1.00  0.00     0.214 A 
ATOM     28  C   UNL     1      31.971 172.537 170.616  1.00  0.00     0.180 A 
ATOM     29  C   UNL     1      29.447 172.578 170.282  1.00  0.00     0.239 A 
ATOM     30  O   UNL     1      31.819 173.602 171.452  1.00  0.00    -0.452 OA
ATOM     31  C   UNL     1      29.603 173.937 170.690  1.00  0.00     0.111 A 
ATOM     32  O   UNL     1      28.229 172.157 169.942  1.00  0.00    -0.285 OA
ATOM     33  C   UNL     1      30.665 174.259 171.563  1.00  0.00     0.146 A 
ATOM     34  C   UNL     1      29.377 175.034 169.757  1.00  0.00     0.134 A 
ATOM     35  C   UNL     1      30.765 175.601 172.028  1.00  0.00     0.094 A 
ATOM     36  C   UNL     1      30.278 176.187 169.742  1.00  0.00     0.093 A 
ATOM     37  C   UNL     1      30.929 176.509 170.932  1.00  0.00     0.123 A 
BRANCH  28  38
ATOM     38  C   UNL     1      33.392 171.951 170.537  1.00  0.00     0.025 A 
ATOM     39  C   UNL     1      33.748 170.543 170.704  1.00  0.00     0.062 A 
ATOM     40  C   UNL     1      34.472 172.857 170.699  1.00  0.00     0.016 A 
ATOM     41  C   UNL     1      34.933 169.998 170.116  1.00  0.00     0.158 A 
ATOM     42  C   UNL     1      35.759 172.416 170.171  1.00  0.00     0.051 A 
ATOM     43  C   UNL     1      36.018 171.024 169.971  1.00  0.00     0.157 A 
BRANCH  41  44
ATOM     44  O   UNL     1      35.175 168.626 169.946  1.00  0.00    -0.504 OA
ATOM     45  H   UNL     1      35.987 168.242 169.473  1.00  0.00     0.293 HD
ENDBRANCH  41  44
BRANCH  43  46
ATOM     46  O   UNL     1      37.357 170.766 169.648  1.00  0.00    -0.504 OA
ATOM     47  H   UNL     1      37.814 171.121 168.776  1.00  0.00     0.293 HD
ENDBRANCH  43  46
ENDBRANCH  28  38
BRANCH  34  48
ATOM     48  O   UNL     1      28.359 174.939 168.804  1.00  0.00    -0.507 OA
ATOM     49  H   UNL     1      27.887 174.034 168.725  1.00  0.00     0.293 HD
ENDBRANCH  34  48
BRANCH  37  50
ATOM     50  O   UNL     1      31.807 177.632 170.927  1.00  0.00    -0.508 OA
ATOM     51  H   UNL     1      31.880 178.359 171.686  1.00  0.00     0.293 HD
ENDBRANCH  37  50
ENDBRANCH  26  27
ENDBRANCH   5  26
BRANCH   4  52
ATOM     52  O   UNL     1      33.226 169.592 166.815  1.00  0.00    -0.384 OA
ATOM     53  H   UNL     1      33.734 170.086 167.483  1.00  0.00     0.211 HD
ENDBRANCH   4  52
TORSDOF 16
ENDMDL
MODEL 3
REMARK VINA RESULT:    -5.668      3.181      7.929
REMARK INTER + INTRA:         -11.569
REMARK INTER:                  -8.371
REMARK INTRA:                  -3.199
REMARK UNBOUND:                -2.257
REMARK SMILES C[C@@H]1O[C@@H](OC[C@@H]2O[C@@H](Oc3c(-c4ccc(O)c(O)c4)oc4cc(O)cc(O)c4c3=O)[C@H](O)[C@H](O)[C@@H]2O)[C@@H](O)[C@@H](O)[C@@H]1O
REMARK SMILES IDX 7 1 36 2 34 3 32 4 9 5 8 6 6 7 5 8 4 9 1 10 2 11 42 12 3 13
REMARK SMILES IDX 40 14 38 15 43 16 41 18 39 20 37 22 35 24 10 26 11 27 12 28
REMARK SMILES IDX 30 29 21 30 29 31 31 32 22 33 27 34 23 35 26 36 24 37 13 38
REMARK SMILES IDX 20 39 14 40 18 41 15 42 16 43 19 44 17 46 28 48 25 50 33 52
REMARK H PARENT 43 17 41 19 39 21 37 23 35 25 19 45 17 47 28 49 25 51 33 53
REMARK Flexibility Score: inf
ROOT
ATOM      1  C   UNL     1      30.322 172.830 171.842  1.00  0.00     0.180 C 
ATOM      2  C   UNL     1      29.900 174.176 172.725  1.00  0.00     0.177 C 
ATOM      3  C   UNL     1      30.187 175.554 171.846  1.00  0.00     0.180 C 
ATOM      4  C   UNL     1      29.673 175.523 170.322  1.00  0.00     0.214 C 
ATOM      5  C   UNL     1      29.742 173.977 169.888  1.00  0.00     0.339 C 
ATOM      6  O   UNL     1      30.784 173.230 170.514  1.00  0.00    -0.332 OA
ENDROOT
BRANCH   1   7
ATOM      7  C   UNL     1      31.300 171.741 172.642  1.00  0.00     0.198 C 
BRANCH   7   8
ATOM      8  O   UNL     1      32.689 172.096 172.915  1.00  0.00    -0.347 OA
BRANCH   8   9
ATOM      9  C   UNL     1      33.446 171.689 171.766  1.00  0.00     0.281 C 
ATOM     10  C   UNL     1      36.051 169.067 170.992  1.00  0.00     0.041 C 
ATOM     11  C   UNL     1      35.832 170.517 171.534  1.00  0.00     0.150 C 
ATOM     12  C   UNL     1      36.304 171.584 170.458  1.00  0.00     0.174 C 
ATOM     13  O   UNL     1      34.411 170.487 172.004  1.00  0.00    -0.344 OA
ATOM     14  C   UNL     1      35.561 172.946 170.570  1.00  0.00     0.179 C 
ATOM     15  C   UNL     1      34.079 172.752 170.673  1.00  0.00     0.202 C 
BRANCH  12  16
ATOM     16  O   UNL     1      36.519 171.053 169.170  1.00  0.00    -0.388 OA
ATOM     17  H   UNL     1      36.173 171.728 168.511  1.00  0.00     0.211 HD
ENDBRANCH  12  16
BRANCH  14  18
ATOM     18  O   UNL     1      36.114 173.826 171.543  1.00  0.00    -0.387 OA
ATOM     19  H   UNL     1      36.655 173.369 172.229  1.00  0.00     0.211 HD
ENDBRANCH  14  18
BRANCH  15  20
ATOM     20  O   UNL     1      33.395 174.025 170.581  1.00  0.00    -0.385 OA
ATOM     21  H   UNL     1      34.073 174.749 170.487  1.00  0.00     0.211 HD
ENDBRANCH  15  20
ENDBRANCH   8   9
ENDBRANCH   7   8
ENDBRANCH   1   7
BRANCH   2  22
ATOM     22  O   UNL     1      30.670 174.167 173.939  1.00  0.00    -0.387 OA
ATOM     23  H   UNL     1      30.442 174.941 174.581  1.00  0.00     0.211 HD
ENDBRANCH   2  22
BRANCH   3  24
ATOM     24  O   UNL     1      31.550 176.011 171.971  1.00  0.00    -0.387 OA
ATOM     25  H   UNL     1      32.227 175.475 171.478  1.00  0.00     0.211 HD
ENDBRANCH   3  24
BRANCH   5  26
ATOM     26  O   UNL     1      28.827 173.103 169.184  1.00  0.00    -0.454 OA
BRANCH  26  27
ATOM     27  C   UNL     1      28.195 171.905 169.785  1.00  0.00     0.214 A 
ATOM     28  C   UNL     1      28.736 170.543 169.496  1.00  0.00     0.180 A 
ATOM     29  C   UNL     1      27.043 171.971 170.751  1.00  0.00     0.239 A 
ATOM     30  O   UNL     1      27.972 169.461 169.815  1.00  0.00    -0.452 OA
ATOM     31  C   UNL     1      26.758 170.732 171.400  1.00  0.00     0.111 A 
ATOM     32  O   UNL     1      26.386 173.060 171.153  1.00  0.00    -0.285 OA
ATOM     33  C   UNL     1      26.963 169.534 170.681  1.00  0.00     0.146 A 
ATOM     34  C   UNL     1      27.081 170.528 172.807  1.00  0.00     0.134 A 
ATOM     35  C   UNL     1      26.601 168.308 171.308  1.00  0.00     0.094 A 
ATOM     36  C   UNL     1      27.655 169.258 173.255  1.00  0.00     0.093 A 
ATOM     37  C   UNL     1      27.343 168.117 172.517  1.00  0.00     0.123 A 
BRANCH  28  38
ATOM     38  C   UNL     1      29.920 170.267 168.552  1.00  0.00     0.025 A 
ATOM     39  C   UNL     1      31.321 170.595 168.817  1.00  0.00     0.062 A 
ATOM     40  C   UNL     1      29.615 170.038 167.186  1.00  0.00     0.016 A 
ATOM     41  C   UNL     1      32.387 169.873 168.194  1.00  0.00     0.158 A 
ATOM     42  C   UNL     1      30.634 169.334 166.414  1.00  0.00     0.051 A 
ATOM     43  C   UNL     1      31.995 169.327 166.853  1.00  0.00     0.157 A 
BRANCH  41  44
ATOM     44  O   UNL     1      33.721 169.895 168.630  1.00  0.00    -0.504 OA
ATOM     45  H   UNL     1      34.478 170.357 168.136  1.00  0.00     0.293 HD
ENDBRANCH  41  44
BRANCH  43  46
ATOM     46  O   UNL     1      32.865 168.777 165.901  1.00  0.00    -0.504 OA
ATOM     47  H   UNL     1      33.571 169.343 165.377  1.00  0.00     0.293 HD
ENDBRANCH  43  46
ENDBRANCH  28  38
BRANCH  34  48
ATOM     48  O   UNL     1      26.939 171.581 173.714  1.00  0.00    -0.507 OA
ATOM     49  H   UNL     1      27.495 171.525 174.573  1.00  0.00     0.293 HD
ENDBRANCH  34  48
BRANCH  37  50
ATOM     50  O   UNL     1      27.895 166.875 172.949  1.00  0.00    -0.508 OA
ATOM     51  H   UNL     1      27.990 166.559 173.949  1.00  0.00     0.293 HD
ENDBRANCH  37  50
ENDBRANCH  26  27
ENDBRANCH   5  26
BRANCH   4  52
ATOM     52  O   UNL     1      30.478 176.390 169.474  1.00  0.00    -0.384 OA
ATOM     53  H   UNL     1      29.976 176.839 168.770  1.00  0.00     0.211 HD
ENDBRANCH   4  52
TORSDOF 16
ENDMDL
MODEL 4
REMARK VINA RESULT:    -5.651      2.922      9.161
REMARK INTER + INTRA:         -11.541
REMARK INTER:                  -8.451
REMARK INTRA:                  -3.090
REMARK UNBOUND:                -2.257
REMARK SMILES C[C@@H]1O[C@@H](OC[C@@H]2O[C@@H](Oc3c(-c4ccc(O)c(O)c4)oc4cc(O)cc(O)c4c3=O)[C@H](O)[C@H](O)[C@@H]2O)[C@@H](O)[C@@H](O)[C@@H]1O
REMARK SMILES IDX 7 1 36 2 34 3 32 4 9 5 8 6 6 7 5 8 4 9 1 10 2 11 42 12 3 13
REMARK SMILES IDX 40 14 38 15 43 16 41 18 39 20 37 22 35 24 10 26 11 27 12 28
REMARK SMILES IDX 30 29 21 30 29 31 31 32 22 33 27 34 23 35 26 36 24 37 13 38
REMARK SMILES IDX 20 39 14 40 18 41 15 42 16 43 19 44 17 46 28 48 25 50 33 52
REMARK H PARENT 43 17 41 19 39 21 37 23 35 25 19 45 17 47 28 49 25 51 33 53
REMARK Flexibility Score: inf
ROOT
ATOM      1  C   UNL     1      30.044 174.565 172.190  1.00  0.00     0.180 C 
ATOM      2  C   UNL     1      30.706 175.936 172.862  1.00  0.00     0.177 C 
ATOM      3  C   UNL     1      31.455 176.845 171.692  1.00  0.00     0.180 C 
ATOM      4  C   UNL     1      30.614 177.061 170.338  1.00  0.00     0.214 C 
ATOM      5  C   UNL     1      29.688 175.754 170.208  1.00  0.00     0.339 C 
ATOM      6  O   UNL     1      30.261 174.563 170.745  1.00  0.00    -0.332 OA
ENDROOT
BRANCH   1   7
ATOM      7  C   UNL     1      30.424 173.142 172.973  1.00  0.00     0.198 C 
BRANCH   7   8
ATOM      8  O   UNL     1      30.147 171.869 172.315  1.00  0.00    -0.347 OA
BRANCH   8   9
ATOM      9  C   UNL     1      31.416 171.330 171.920  1.00  0.00     0.281 C 
ATOM     10  C   UNL     1      34.719 170.590 173.596  1.00  0.00     0.041 C 
ATOM     11  C   UNL     1      33.880 171.697 172.879  1.00  0.00     0.150 C 
ATOM     12  C   UNL     1      34.456 171.970 171.425  1.00  0.00     0.174 C 
ATOM     13  O   UNL     1      32.472 171.222 173.063  1.00  0.00    -0.344 OA
ATOM     14  C   UNL     1      33.387 172.498 170.425  1.00  0.00     0.179 C 
ATOM     15  C   UNL     1      32.138 171.674 170.476  1.00  0.00     0.202 C 
BRANCH  12  16
ATOM     16  O   UNL     1      35.362 170.991 170.967  1.00  0.00    -0.388 OA
ATOM     17  H   UNL     1      34.816 170.245 170.574  1.00  0.00     0.211 HD
ENDBRANCH  12  16
BRANCH  14  18
ATOM     18  O   UNL     1      33.175 173.904 170.500  1.00  0.00    -0.387 OA
ATOM     19  H   UNL     1      33.891 174.437 170.080  1.00  0.00     0.211 HD
ENDBRANCH  14  18
BRANCH  15  20
ATOM     20  O   UNL     1      31.236 172.057 169.409  1.00  0.00    -0.385 OA
ATOM     21  H   UNL     1      30.540 172.665 169.779  1.00  0.00     0.211 HD
ENDBRANCH  15  20
ENDBRANCH   8   9
ENDBRANCH   7   8
ENDBRANCH   1   7
BRANCH   2  22
ATOM     22  O   UNL     1      31.640 175.524 173.874  1.00  0.00    -0.387 OA
ATOM     23  H   UNL     1      31.723 174.501 173.972  1.00  0.00     0.211 HD
ENDBRANCH   2  22
BRANCH   3  24
ATOM     24  O   UNL     1      32.812 176.417 171.450  1.00  0.00    -0.387 OA
ATOM     25  H   UNL     1      33.144 175.694 172.047  1.00  0.00     0.211 HD
ENDBRANCH   3  24
BRANCH   5  26
ATOM     26  O   UNL     1      28.290 175.558 169.885  1.00  0.00    -0.454 OA
BRANCH  26  27
ATOM     27  C   UNL     1      27.808 174.869 168.666  1.00  0.00     0.214 A 
ATOM     28  C   UNL     1      27.228 175.655 167.536  1.00  0.00     0.180 A 
ATOM     29  C   UNL     1      27.924 173.383 168.451  1.00  0.00     0.239 A 
ATOM     30  O   UNL     1      26.534 174.988 166.572  1.00  0.00    -0.452 OA
ATOM     31  C   UNL     1      27.636 172.966 167.117  1.00  0.00     0.111 A 
ATOM     32  O   UNL     1      28.391 172.476 169.309  1.00  0.00    -0.285 OA
ATOM     33  C   UNL     1      26.656 173.675 166.387  1.00  0.00     0.146 A 
ATOM     34  C   UNL     1      28.697 172.522 166.222  1.00  0.00     0.134 A 
ATOM     35  C   UNL     1      26.319 173.202 165.087  1.00  0.00     0.094 A 
ATOM     36  C   UNL     1      28.698 172.935 164.818  1.00  0.00     0.093 A 
ATOM     37  C   UNL     1      27.465 173.213 164.229  1.00  0.00     0.123 A 
BRANCH  28  38
ATOM     38  C   UNL     1      27.043 177.183 167.553  1.00  0.00     0.025 A 
ATOM     39  C   UNL     1      27.759 178.122 168.415  1.00  0.00     0.062 A 
ATOM     40  C   UNL     1      25.845 177.693 166.990  1.00  0.00     0.016 A 
ATOM     41  C   UNL     1      27.941 179.490 168.038  1.00  0.00     0.158 A 
ATOM     42  C   UNL     1      25.877 179.095 166.586  1.00  0.00     0.051 A 
ATOM     43  C   UNL     1      26.834 179.990 167.158  1.00  0.00     0.157 A 
BRANCH  41  44
ATOM     44  O   UNL     1      28.876 180.357 168.627  1.00  0.00    -0.504 OA
ATOM     45  H   UNL     1      29.573 180.072 169.307  1.00  0.00     0.293 HD
ENDBRANCH  41  44
BRANCH  43  46
ATOM     46  O   UNL     1      26.600 181.327 166.808  1.00  0.00    -0.504 OA
ATOM     47  H   UNL     1      26.995 182.136 167.341  1.00  0.00     0.293 HD
ENDBRANCH  43  46
ENDBRANCH  28  38
BRANCH  34  48
ATOM     48  O   UNL     1      29.772 171.786 166.727  1.00  0.00    -0.507 OA
ATOM     49  H   UNL     1      29.795 170.789 166.494  1.00  0.00     0.293 HD
ENDBRANCH  34  48
BRANCH  37  50
ATOM     50  O   UNL     1      27.457 173.613 162.861  1.00  0.00    -0.508 OA
ATOM     51  H   UNL     1      28.143 173.300 162.124  1.00  0.00     0.293 HD
ENDBRANCH  37  50
ENDBRANCH  26  27
ENDBRANCH   5  26
BRANCH   4  52
ATOM     52  O   UNL     1      31.493 177.254 169.194  1.00  0.00    -0.384 OA
ATOM     53  H   UNL     1      31.062 177.666 168.424  1.00  0.00     0.211 HD
ENDBRANCH   4  52
TORSDOF 16
ENDMDL
MODEL 5
REMARK VINA RESULT:    -5.583      2.665      9.169
REMARK INTER + INTRA:         -11.430
REMARK INTER:                  -8.986
REMARK INTRA:                  -2.444
REMARK UNBOUND:                -2.257
REMARK SMILES C[C@@H]1O[C@@H](OC[C@@H]2O[C@@H](Oc3c(-c4ccc(O)c(O)c4)oc4cc(O)cc(O)c4c3=O)[C@H](O)[C@H](O)[C@@H]2O)[C@@H](O)[C@@H](O)[C@@H]1O
REMARK SMILES IDX 7 1 36 2 34 3 32 4 9 5 8 6 6 7 5 8 4 9 1 10 2 11 42 12 3 13
REMARK SMILES IDX 40 14 38 15 43 16 41 18 39 20 37 22 35 24 10 26 11 27 12 28
REMARK SMILES IDX 30 29 21 30 29 31 31 32 22 33 27 34 23 35 26 36 24 37 13 38
REMARK SMILES IDX 20 39 14 40 18 41 15 42 16 43 19 44 17 46 28 48 25 50 33 52
REMARK H PARENT 43 17 41 19 39 21 37 23 35 25 19 45 17 47 28 49 25 51 33 53
REMARK Flexibility Score: inf
ROOT
ATOM      1  C   UNL     1      30.930 176.868 172.179  1.00  0.00     0.180 C 
ATOM      2  C   UNL     1      29.482 177.670 172.005  1.00  0.00     0.177 C 
ATOM      3  C   UNL     1      28.857 177.407 170.490  1.00  0.00     0.180 C 
ATOM      4  C   UNL     1      28.880 175.880 169.986  1.00  0.00     0.214 C 
ATOM      5  C   UNL     1      30.146 175.216 170.722  1.00  0.00     0.339 C 
ATOM      6  O   UNL     1      31.229 176.111 170.965  1.00  0.00    -0.332 OA
ENDROOT
BRANCH   1   7
ATOM      7  C   UNL     1      32.182 177.797 172.772  1.00  0.00     0.198 C 
BRANCH   7   8
ATOM      8  O   UNL     1      33.550 177.496 172.361  1.00  0.00    -0.347 OA
BRANCH   8   9
ATOM      9  C   UNL     1      34.067 178.692 171.761  1.00  0.00     0.281 C 
ATOM     10  C   UNL     1      36.213 181.599 172.859  1.00  0.00     0.041 C 
ATOM     11  C   UNL     1      34.749 181.052 172.803  1.00  0.00     0.150 C 
ATOM     12  C   UNL     1      33.910 181.832 171.705  1.00  0.00     0.174 C 
ATOM     13  O   UNL     1      34.950 179.571 172.699  1.00  0.00    -0.344 OA
ATOM     14  C   UNL     1      32.744 180.995 171.105  1.00  0.00     0.179 C 
ATOM     15  C   UNL     1      33.204 179.626 170.709  1.00  0.00     0.202 C 
BRANCH  12  16
ATOM     16  O   UNL     1      34.691 182.606 170.821  1.00  0.00    -0.388 OA
ATOM     17  H   UNL     1      35.380 183.082 171.375  1.00  0.00     0.211 HD
ENDBRANCH  12  16
BRANCH  14  18
ATOM     18  O   UNL     1      31.556 181.019 171.890  1.00  0.00    -0.387 OA
ATOM     19  H   UNL     1      30.966 180.244 171.740  1.00  0.00     0.211 HD
ENDBRANCH  14  18
BRANCH  15  20
ATOM     20  O   UNL     1      32.160 178.934 169.980  1.00  0.00    -0.385 OA
ATOM     21  H   UNL     1      31.488 179.601 169.671  1.00  0.00     0.211 HD
ENDBRANCH  15  20
ENDBRANCH   8   9
ENDBRANCH   7   8
ENDBRANCH   1   7
BRANCH   2  22
ATOM     22  O   UNL     1      29.722 179.069 172.230  1.00  0.00    -0.387 OA
ATOM     23  H   UNL     1      30.081 179.283 173.172  1.00  0.00     0.211 HD
ENDBRANCH   2  22
BRANCH   3  24
ATOM     24  O   UNL     1      29.382 178.330 169.513  1.00  0.00    -0.387 OA
ATOM     25  H   UNL     1      29.902 177.917 168.772  1.00  0.00     0.211 HD
ENDBRANCH   3  24
BRANCH   5  26
ATOM     26  O   UNL     1      30.342 173.961 171.418  1.00  0.00    -0.454 OA
BRANCH  26  27
ATOM     27  C   UNL     1      31.605 173.187 171.394  1.00  0.00     0.214 A 
ATOM     28  C   UNL     1      31.838 172.159 170.335  1.00  0.00     0.180 A 
ATOM     29  C   UNL     1      32.738 173.416 172.358  1.00  0.00     0.239 A 
ATOM     30  O   UNL     1      32.857 171.272 170.506  1.00  0.00    -0.452 OA
ATOM     31  C   UNL     1      33.948 172.748 172.000  1.00  0.00     0.111 A 
ATOM     32  O   UNL     1      32.765 174.263 173.387  1.00  0.00    -0.285 OA
ATOM     33  C   UNL     1      33.858 171.494 171.355  1.00  0.00     0.146 A 
ATOM     34  C   UNL     1      35.094 173.489 171.488  1.00  0.00     0.134 A 
ATOM     35  C   UNL     1      35.069 170.799 171.075  1.00  0.00     0.094 A 
ATOM     36  C   UNL     1      35.876 172.958 170.371  1.00  0.00     0.093 A 
ATOM     37  C   UNL     1      35.912 171.573 170.214  1.00  0.00     0.123 A 
BRANCH  28  38
ATOM     38  C   UNL     1      30.812 171.793 169.247  1.00  0.00     0.025 A 
ATOM     39  C   UNL     1      29.426 172.254 169.187  1.00  0.00     0.062 A 
ATOM     40  C   UNL     1      31.085 170.640 168.466  1.00  0.00     0.016 A 
ATOM     41  C   UNL     1      28.716 172.327 167.947  1.00  0.00     0.158 A 
ATOM     42  C   UNL     1      30.401 170.565 167.180  1.00  0.00     0.051 A 
ATOM     43  C   UNL     1      29.202 171.312 166.955  1.00  0.00     0.157 A 
BRANCH  41  44
ATOM     44  O   UNL     1      27.530 173.053 167.753  1.00  0.00    -0.504 OA
ATOM     45  H   UNL     1      26.821 173.191 168.465  1.00  0.00     0.293 HD
ENDBRANCH  41  44
BRANCH  43  46
ATOM     46  O   UNL     1      28.575 170.975 165.747  1.00  0.00    -0.504 OA
ATOM     47  H   UNL     1      28.844 171.392 164.827  1.00  0.00     0.293 HD
ENDBRANCH  43  46
ENDBRANCH  28  38
BRANCH  34  48
ATOM     48  O   UNL     1      35.386 174.758 171.994  1.00  0.00    -0.507 OA
ATOM     49  H   UNL     1      34.603 175.415 172.065  1.00  0.00     0.293 HD
ENDBRANCH  34  48
BRANCH  37  50
ATOM     50  O   UNL     1      36.674 171.046 169.130  1.00  0.00    -0.508 OA
ATOM     51  H   UNL     1      37.724 171.070 169.049  1.00  0.00     0.293 HD
ENDBRANCH  37  50
ENDBRANCH  26  27
ENDBRANCH   5  26
BRANCH   4  52
ATOM     52  O   UNL     1      28.957 175.802 168.535  1.00  0.00    -0.384 OA
ATOM     53  H   UNL     1      28.101 175.650 168.097  1.00  0.00     0.211 HD
ENDBRANCH   4  52
TORSDOF 16
ENDMDL
MODEL 6
REMARK VINA RESULT:    -5.482      1.852      2.597
REMARK INTER + INTRA:         -11.264
REMARK INTER:                  -8.755
REMARK INTRA:                  -2.509
REMARK UNBOUND:                -2.257
REMARK SMILES C[C@@H]1O[C@@H](OC[C@@H]2O[C@@H](Oc3c(-c4ccc(O)c(O)c4)oc4cc(O)cc(O)c4c3=O)[C@H](O)[C@H](O)[C@@H]2O)[C@@H](O)[C@@H](O)[C@@H]1O
REMARK SMILES IDX 7 1 36 2 34 3 32 4 9 5 8 6 6 7 5 8 4 9 1 10 2 11 42 12 3 13
REMARK SMILES IDX 40 14 38 15 43 16 41 18 39 20 37 22 35 24 10 26 11 27 12 28
REMARK SMILES IDX 30 29 21 30 29 31 31 32 22 33 27 34 23 35 26 36 24 37 13 38
REMARK SMILES IDX 20 39 14 40 18 41 15 42 16 43 19 44 17 46 28 48 25 50 33 52
REMARK H PARENT 43 17 41 19 39 21 37 23 35 25 19 45 17 47 28 49 25 51 33 53
REMARK Flexibility Score: inf
ROOT
ATOM      1  C   UNL     1      29.868 170.015 166.892  1.00  0.00     0.180 C 
ATOM      2  C   UNL     1      30.540 168.502 166.727  1.00  0.00     0.177 C 
ATOM      3  C   UNL     1      32.131 168.525 167.198  1.00  0.00     0.180 C 
ATOM      4  C   UNL     1      32.432 169.281 168.586  1.00  0.00     0.214 C 
ATOM      5  C   UNL     1      31.294 170.410 168.702  1.00  0.00     0.339 C 
ATOM      6  O   UNL     1      30.851 170.939 167.453  1.00  0.00    -0.332 OA
ENDROOT
BRANCH   1   7
ATOM      7  C   UNL     1      29.048 170.571 165.549  1.00  0.00     0.198 C 
BRANCH   7   8
ATOM      8  O   UNL     1      28.145 169.670 164.841  1.00  0.00    -0.347 OA
BRANCH   8   9
ATOM      9  C   UNL     1      27.795 170.325 163.614  1.00  0.00     0.281 C 
ATOM     10  C   UNL     1      29.487 171.045 160.315  1.00  0.00     0.041 C 
ATOM     11  C   UNL     1      29.279 171.565 161.775  1.00  0.00     0.150 C 
ATOM     12  C   UNL     1      28.316 172.826 161.779  1.00  0.00     0.174 C 
ATOM     13  O   UNL     1      28.910 170.321 162.523  1.00  0.00    -0.344 OA
ATOM     14  C   UNL     1      27.531 173.001 163.111  1.00  0.00     0.179 C 
ATOM     15  C   UNL     1      26.904 171.714 163.548  1.00  0.00     0.202 C 
BRANCH  12  16
ATOM     16  O   UNL     1      27.618 173.026 160.570  1.00  0.00    -0.388 OA
ATOM     17  H   UNL     1      27.033 172.221 160.431  1.00  0.00     0.211 HD
ENDBRANCH  12  16
BRANCH  14  18
ATOM     18  O   UNL     1      28.265 173.680 164.125  1.00  0.00    -0.387 OA
ATOM     19  H   UNL     1      28.284 173.204 164.988  1.00  0.00     0.211 HD
ENDBRANCH  14  18
BRANCH  15  20
ATOM     20  O   UNL     1      26.024 171.938 164.677  1.00  0.00    -0.385 OA
ATOM     21  H   UNL     1      26.472 171.613 165.504  1.00  0.00     0.211 HD
ENDBRANCH  15  20
ENDBRANCH   8   9
ENDBRANCH   7   8
ENDBRANCH   1   7
BRANCH   2  22
ATOM     22  O   UNL     1      30.414 168.110 165.349  1.00  0.00    -0.387 OA
ATOM     23  H   UNL     1      30.485 168.896 164.686  1.00  0.00     0.211 HD
ENDBRANCH   2  22
BRANCH   3  24
ATOM     24  O   UNL     1      33.013 168.934 166.132  1.00  0.00    -0.387 OA
ATOM     25  H   UNL     1      33.399 168.195 165.590  1.00  0.00     0.211 HD
ENDBRANCH   3  24
BRANCH   5  26
ATOM     26  O   UNL     1      30.434 170.843 169.784  1.00  0.00    -0.454 OA
BRANCH  26  27
ATOM     27  C   UNL     1      29.702 172.131 169.798  1.00  0.00     0.214 A 
ATOM     28  C   UNL     1      30.382 173.379 170.259  1.00  0.00     0.180 A 
ATOM     29  C   UNL     1      28.290 172.288 169.303  1.00  0.00     0.239 A 
ATOM     30  O   UNL     1      29.615 174.469 170.538  1.00  0.00    -0.452 OA
ATOM     31  C   UNL     1      27.870 173.646 169.168  1.00  0.00     0.111 A 
ATOM     32  O   UNL     1      27.477 171.330 168.857  1.00  0.00    -0.285 OA
ATOM     33  C   UNL     1      28.370 174.599 170.083  1.00  0.00     0.146 A 
ATOM     34  C   UNL     1      27.709 174.257 167.854  1.00  0.00     0.134 A 
ATOM     35  C   UNL     1      27.885 175.933 169.990  1.00  0.00     0.094 A 
ATOM     36  C   UNL     1      28.166 175.627 167.617  1.00  0.00     0.093 A 
ATOM     37  C   UNL     1      28.184 176.496 168.707  1.00  0.00     0.123 A 
BRANCH  28  38
ATOM     38  C   UNL     1      31.829 173.430 170.783  1.00  0.00     0.025 A 
ATOM     39  C   UNL     1      32.878 172.452 170.498  1.00  0.00     0.062 A 
ATOM     40  C   UNL     1      32.074 174.247 171.916  1.00  0.00     0.016 A 
ATOM     41  C   UNL     1      34.263 172.806 170.552  1.00  0.00     0.158 A 
ATOM     42  C   UNL     1      33.459 174.661 172.116  1.00  0.00     0.051 A 
ATOM     43  C   UNL     1      34.528 173.913 171.530  1.00  0.00     0.157 A 
BRANCH  41  44
ATOM     44  O   UNL     1      35.299 172.047 169.985  1.00  0.00    -0.504 OA
ATOM     45  H   UNL     1      35.480 171.979 168.989  1.00  0.00     0.293 HD
ENDBRANCH  41  44
BRANCH  43  46
ATOM     46  O   UNL     1      35.788 174.330 171.979  1.00  0.00    -0.504 OA
ATOM     47  H   UNL     1      36.674 173.819 171.756  1.00  0.00     0.293 HD
ENDBRANCH  43  46
ENDBRANCH  28  38
BRANCH  34  48
ATOM     48  O   UNL     1      27.212 173.500 166.790  1.00  0.00    -0.507 OA
ATOM     49  H   UNL     1      27.557 173.739 165.856  1.00  0.00     0.293 HD
ENDBRANCH  34  48
BRANCH  37  50
ATOM     50  O   UNL     1      28.624 177.833 168.484  1.00  0.00    -0.508 OA
ATOM     51  H   UNL     1      29.278 178.377 169.105  1.00  0.00     0.293 HD
ENDBRANCH  37  50
ENDBRANCH  26  27
ENDBRANCH   5  26
BRANCH   4  52
ATOM     52  O   UNL     1      33.781 169.826 168.610  1.00  0.00    -0.384 OA
ATOM     53  H   UNL     1      33.822 170.784 168.783  1.00  0.00     0.211 HD
ENDBRANCH   4  52
TORSDOF 16
ENDMDL
MODEL 7
REMARK VINA RESULT:    -5.444      1.949      8.086
REMARK INTER + INTRA:         -11.202
REMARK INTER:                  -7.888
REMARK INTRA:                  -3.314
REMARK UNBOUND:                -2.257
REMARK SMILES C[C@@H]1O[C@@H](OC[C@@H]2O[C@@H](Oc3c(-c4ccc(O)c(O)c4)oc4cc(O)cc(O)c4c3=O)[C@H](O)[C@H](O)[C@@H]2O)[C@@H](O)[C@@H](O)[C@@H]1O
REMARK SMILES IDX 7 1 36 2 34 3 32 4 9 5 8 6 6 7 5 8 4 9 1 10 2 11 42 12 3 13
REMARK SMILES IDX 40 14 38 15 43 16 41 18 39 20 37 22 35 24 10 26 11 27 12 28
REMARK SMILES IDX 30 29 21 30 29 31 31 32 22 33 27 34 23 35 26 36 24 37 13 38
REMARK SMILES IDX 20 39 14 40 18 41 15 42 16 43 19 44 17 46 28 48 25 50 33 52
REMARK H PARENT 43 17 41 19 39 21 37 23 35 25 19 45 17 47 28 49 25 51 33 53
REMARK Flexibility Score: inf
ROOT
ATOM      1  C   UNL     1      28.476 174.841 171.204  1.00  0.00     0.180 C 
ATOM      2  C   UNL     1      27.126 175.691 170.730  1.00  0.00     0.177 C 
ATOM      3  C   UNL     1      27.166 175.969 169.094  1.00  0.00     0.180 C 
ATOM      4  C   UNL     1      27.554 174.700 168.185  1.00  0.00     0.214 C 
ATOM      5  C   UNL     1      28.506 173.796 169.112  1.00  0.00     0.339 C 
ATOM      6  O   UNL     1      29.303 174.530 170.040  1.00  0.00    -0.332 OA
ENDROOT
BRANCH   1   7
ATOM      7  C   UNL     1      29.290 175.485 172.510  1.00  0.00     0.198 C 
BRANCH   7   8
ATOM      8  O   UNL     1      30.645 175.030 172.801  1.00  0.00    -0.347 OA
BRANCH   8   9
ATOM      9  C   UNL     1      31.524 176.098 172.419  1.00  0.00     0.281 C 
ATOM     10  C   UNL     1      31.733 179.820 173.024  1.00  0.00     0.041 C 
ATOM     11  C   UNL     1      31.109 178.716 172.109  1.00  0.00     0.150 C 
ATOM     12  C   UNL     1      31.819 178.709 170.691  1.00  0.00     0.174 C 
ATOM     13  O   UNL     1      31.141 177.500 172.984  1.00  0.00    -0.344 OA
ATOM     14  C   UNL     1      31.782 177.322 169.986  1.00  0.00     0.179 C 
ATOM     15  C   UNL     1      32.198 176.226 170.917  1.00  0.00     0.202 C 
BRANCH  12  16
ATOM     16  O   UNL     1      33.024 179.442 170.642  1.00  0.00    -0.388 OA
ATOM     17  H   UNL     1      32.880 180.202 170.000  1.00  0.00     0.211 HD
ENDBRANCH  12  16
BRANCH  14  18
ATOM     18  O   UNL     1      30.574 177.072 169.275  1.00  0.00    -0.387 OA
ATOM     19  H   UNL     1      29.776 177.026 169.851  1.00  0.00     0.211 HD
ENDBRANCH  14  18
BRANCH  15  20
ATOM     20  O   UNL     1      32.343 174.978 170.196  1.00  0.00    -0.385 OA
ATOM     21  H   UNL     1      31.994 175.099 169.271  1.00  0.00     0.211 HD
ENDBRANCH  15  20
ENDBRANCH   8   9
ENDBRANCH   7   8
ENDBRANCH   1   7
BRANCH   2  22
ATOM     22  O   UNL     1      27.101 176.927 171.464  1.00  0.00    -0.387 OA
ATOM     23  H   UNL     1      27.579 176.877 172.376  1.00  0.00     0.211 HD
ENDBRANCH   2  22
BRANCH   3  24
ATOM     24  O   UNL     1      27.919 177.153 168.757  1.00  0.00    -0.387 OA
ATOM     25  H   UNL     1      27.894 177.417 167.799  1.00  0.00     0.211 HD
ENDBRANCH   3  24
BRANCH   5  26
ATOM     26  O   UNL     1      28.560 172.376 169.391  1.00  0.00    -0.454 OA
BRANCH  26  27
ATOM     27  C   UNL     1      29.810 171.631 169.665  1.00  0.00     0.214 A 
ATOM     28  C   UNL     1      30.563 170.986 168.547  1.00  0.00     0.180 A 
ATOM     29  C   UNL     1      30.432 171.527 171.031  1.00  0.00     0.239 A 
ATOM     30  O   UNL     1      31.527 170.075 168.856  1.00  0.00    -0.452 OA
ATOM     31  C   UNL     1      31.755 170.988 171.028  1.00  0.00     0.111 A 
ATOM     32  O   UNL     1      29.949 172.004 172.178  1.00  0.00    -0.285 OA
ATOM     33  C   UNL     1      32.076 170.003 170.067  1.00  0.00     0.146 A 
ATOM     34  C   UNL     1      32.913 171.835 171.277  1.00  0.00     0.134 A 
ATOM     35  C   UNL     1      33.371 169.415 170.122  1.00  0.00     0.094 A 
ATOM     36  C   UNL     1      34.131 171.673 170.482  1.00  0.00     0.093 A 
ATOM     37  C   UNL     1      34.389 170.408 169.955  1.00  0.00     0.123 A 
BRANCH  28  38
ATOM     38  C   UNL     1      30.104 170.997 167.078  1.00  0.00     0.025 A 
ATOM     39  C   UNL     1      29.169 171.949 166.480  1.00  0.00     0.062 A 
ATOM     40  C   UNL     1      30.279 169.799 166.339  1.00  0.00     0.016 A 
ATOM     41  C   UNL     1      29.192 172.240 165.079  1.00  0.00     0.158 A 
ATOM     42  C   UNL     1      30.292 169.941 164.887  1.00  0.00     0.051 A 
ATOM     43  C   UNL     1      29.687 171.079 164.268  1.00  0.00     0.157 A 
BRANCH  41  44
ATOM     44  O   UNL     1      28.575 173.354 164.490  1.00  0.00    -0.504 OA
ATOM     45  H   UNL     1      28.372 174.221 164.977  1.00  0.00     0.293 HD
ENDBRANCH  41  44
BRANCH  43  46
ATOM     46  O   UNL     1      29.617 170.961 162.873  1.00  0.00    -0.504 OA
ATOM     47  H   UNL     1      28.877 170.409 162.382  1.00  0.00     0.293 HD
ENDBRANCH  43  46
ENDBRANCH  28  38
BRANCH  34  48
ATOM     48  O   UNL     1      32.829 172.875 172.206  1.00  0.00    -0.507 OA
ATOM     49  H   UNL     1      32.025 173.504 172.120  1.00  0.00     0.293 HD
ENDBRANCH  34  48
BRANCH  37  50
ATOM     50  O   UNL     1      35.575 170.239 169.182  1.00  0.00    -0.508 OA
ATOM     51  H   UNL     1      36.543 170.084 169.567  1.00  0.00     0.293 HD
ENDBRANCH  37  50
ENDBRANCH  26  27
ENDBRANCH   5  26
BRANCH   4  52
ATOM     52  O   UNL     1      28.193 175.113 166.944  1.00  0.00    -0.384 OA
ATOM     53  H   UNL     1      28.555 174.378 166.417  1.00  0.00     0.211 HD
ENDBRANCH   4  52
TORSDOF 16
ENDMDL
MODEL 8
REMARK VINA RESULT:    -5.404      3.550      9.722
REMARK INTER + INTRA:         -11.136
REMARK INTER:                  -7.499
REMARK INTRA:                  -3.637
REMARK UNBOUND:                -2.257
REMARK SMILES C[C@@H]1O[C@@H](OC[C@@H]2O[C@@H](Oc3c(-c4ccc(O)c(O)c4)oc4cc(O)cc(O)c4c3=O)[C@H](O)[C@H](O)[C@@H]2O)[C@@H](O)[C@@H](O)[C@@H]1O
REMARK SMILES IDX 7 1 36 2 34 3 32 4 9 5 8 6 6 7 5 8 4 9 1 10 2 11 42 12 3 13
REMARK SMILES IDX 40 14 38 15 43 16 41 18 39 20 37 22 35 24 10 26 11 27 12 28
REMARK SMILES IDX 30 29 21 30 29 31 31 32 22 33 27 34 23 35 26 36 24 37 13 38
REMARK SMILES IDX 20 39 14 40 18 41 15 42 16 43 19 44 17 46 28 48 25 50 33 52
REMARK H PARENT 43 17 41 19 39 21 37 23 35 25 19 45 17 47 28 49 25 51 33 53
REMARK Flexibility Score: inf
ROOT
ATOM      1  C   UNL     1      29.768 178.691 172.577  1.00  0.00     0.180 C 
ATOM      2  C   UNL     1      28.489 179.446 171.826  1.00  0.00     0.177 C 
ATOM      3  C   UNL     1      28.464 179.066 170.211  1.00  0.00     0.180 C 
ATOM      4  C   UNL     1      28.665 177.509 169.862  1.00  0.00     0.214 C 
ATOM      5  C   UNL     1      29.569 176.926 171.056  1.00  0.00     0.339 C 
ATOM      6  O   UNL     1      30.490 177.861 171.615  1.00  0.00    -0.332 OA
ENDROOT
BRANCH   1   7
ATOM      7  C   UNL     1      30.718 179.687 173.520  1.00  0.00     0.198 C 
BRANCH   7   8
ATOM      8  O   UNL     1      31.933 179.150 174.125  1.00  0.00    -0.347 OA
BRANCH   8   9
ATOM      9  C   UNL     1      33.034 179.767 173.444  1.00  0.00     0.281 C 
ATOM     10  C   UNL     1      34.264 183.290 172.858  1.00  0.00     0.041 C 
ATOM     11  C   UNL     1      33.308 182.174 172.323  1.00  0.00     0.150 C 
ATOM     12  C   UNL     1      33.891 181.540 170.991  1.00  0.00     0.174 C 
ATOM     13  O   UNL     1      33.077 181.323 173.535  1.00  0.00    -0.344 OA
ATOM     14  C   UNL     1      33.439 180.070 170.755  1.00  0.00     0.179 C 
ATOM     15  C   UNL     1      33.613 179.241 171.990  1.00  0.00     0.202 C 
BRANCH  12  16
ATOM     16  O   UNL     1      35.240 181.864 170.737  1.00  0.00    -0.388 OA
ATOM     17  H   UNL     1      35.748 180.998 170.694  1.00  0.00     0.211 HD
ENDBRANCH  12  16
BRANCH  14  18
ATOM     18  O   UNL     1      32.162 179.954 170.136  1.00  0.00    -0.387 OA
ATOM     19  H   UNL     1      32.121 180.345 169.232  1.00  0.00     0.211 HD
ENDBRANCH  14  18
BRANCH  15  20
ATOM     20  O   UNL     1      33.372 177.842 171.698  1.00  0.00    -0.385 OA
ATOM     21  H   UNL     1      32.412 177.724 171.459  1.00  0.00     0.211 HD
ENDBRANCH  15  20
ENDBRANCH   8   9
ENDBRANCH   7   8
ENDBRANCH   1   7
BRANCH   2  22
ATOM     22  O   UNL     1      28.635 180.862 172.023  1.00  0.00    -0.387 OA
ATOM     23  H   UNL     1      27.846 181.416 171.656  1.00  0.00     0.211 HD
ENDBRANCH   2  22
BRANCH   3  24
ATOM     24  O   UNL     1      29.315 179.932 169.431  1.00  0.00    -0.387 OA
ATOM     25  H   UNL     1      30.079 180.335 169.923  1.00  0.00     0.211 HD
ENDBRANCH   3  24
BRANCH   5  26
ATOM     26  O   UNL     1      29.492 175.726 171.864  1.00  0.00    -0.454 OA
BRANCH  26  27
ATOM     27  C   UNL     1      30.541 174.682 171.904  1.00  0.00     0.214 A 
ATOM     28  C   UNL     1      30.415 173.455 171.061  1.00  0.00     0.180 A 
ATOM     29  C   UNL     1      31.804 174.805 172.714  1.00  0.00     0.239 A 
ATOM     30  O   UNL     1      31.227 172.396 171.333  1.00  0.00    -0.452 OA
ATOM     31  C   UNL     1      32.786 173.814 172.411  1.00  0.00     0.111 A 
ATOM     32  O   UNL     1      32.139 175.792 173.545  1.00  0.00    -0.285 OA
ATOM     33  C   UNL     1      32.348 172.523 172.043  1.00  0.00     0.146 A 
ATOM     34  C   UNL     1      33.997 174.156 171.675  1.00  0.00     0.134 A 
ATOM     35  C   UNL     1      33.334 171.521 171.821  1.00  0.00     0.094 A 
ATOM     36  C   UNL     1      34.505 173.261 170.634  1.00  0.00     0.093 A 
ATOM     37  C   UNL     1      34.217 171.902 170.759  1.00  0.00     0.123 A 
BRANCH  28  38
ATOM     38  C   UNL     1      29.211 173.153 170.150  1.00  0.00     0.025 A 
ATOM     39  C   UNL     1      28.842 173.897 168.947  1.00  0.00     0.062 A 
ATOM     40  C   UNL     1      28.170 172.363 170.700  1.00  0.00     0.016 A 
ATOM     41  C   UNL     1      28.087 173.288 167.895  1.00  0.00     0.158 A 
ATOM     42  C   UNL     1      27.295 171.702 169.736  1.00  0.00     0.051 A 
ATOM     43  C   UNL     1      27.185 172.201 168.400  1.00  0.00     0.157 A 
BRANCH  41  44
ATOM     44  O   UNL     1      27.976 173.806 166.595  1.00  0.00    -0.504 OA
ATOM     45  H   UNL     1      28.181 173.282 165.751  1.00  0.00     0.293 HD
ENDBRANCH  41  44
BRANCH  43  46
ATOM     46  O   UNL     1      26.164 171.573 167.673  1.00  0.00    -0.504 OA
ATOM     47  H   UNL     1      25.961 171.788 166.669  1.00  0.00     0.293 HD
ENDBRANCH  43  46
ENDBRANCH  28  38
BRANCH  34  48
ATOM     48  O   UNL     1      34.618 175.388 171.890  1.00  0.00    -0.507 OA
ATOM     49  H   UNL     1      35.606 175.364 172.160  1.00  0.00     0.293 HD
ENDBRANCH  34  48
BRANCH  37  50
ATOM     50  O   UNL     1      34.710 171.023 169.752  1.00  0.00    -0.508 OA
ATOM     51  H   UNL     1      34.486 169.997 169.667  1.00  0.00     0.293 HD
ENDBRANCH  37  50
ENDBRANCH  26  27
ENDBRANCH   5  26
BRANCH   4  52
ATOM     52  O   UNL     1      29.271 177.334 168.550  1.00  0.00    -0.384 OA
ATOM     53  H   UNL     1      28.871 177.880 167.850  1.00  0.00     0.211 HD
ENDBRANCH   4  52
TORSDOF 16
ENDMDL
MODEL 9
REMARK VINA RESULT:    -5.343      3.153      7.189
REMARK INTER + INTRA:         -11.035
REMARK INTER:                  -7.621
REMARK INTRA:                  -3.413
REMARK UNBOUND:                -2.257
REMARK SMILES C[C@@H]1O[C@@H](OC[C@@H]2O[C@@H](Oc3c(-c4ccc(O)c(O)c4)oc4cc(O)cc(O)c4c3=O)[C@H](O)[C@H](O)[C@@H]2O)[C@@H](O)[C@@H](O)[C@@H]1O
REMARK SMILES IDX 7 1 36 2 34 3 32 4 9 5 8 6 6 7 5 8 4 9 1 10 2 11 42 12 3 13
REMARK SMILES IDX 40 14 38 15 43 16 41 18 39 20 37 22 35 24 10 26 11 27 12 28
REMARK SMILES IDX 30 29 21 30 29 31 31 32 22 33 27 34 23 35 26 36 24 37 13 38
REMARK SMILES IDX 20 39 14 40 18 41 15 42 16 43 19 44 17 46 28 48 25 50 33 52
REMARK H PARENT 43 17 41 19 39 21 37 23 35 25 19 45 17 47 28 49 25 51 33 53
REMARK Flexibility Score: inf
ROOT
ATOM      1  C   UNL     1      29.699 169.370 171.802  1.00  0.00     0.180 C 
ATOM      2  C   UNL     1      28.886 167.932 171.599  1.00  0.00     0.177 C 
ATOM      3  C   UNL     1      27.420 167.986 172.375  1.00  0.00     0.180 C 
ATOM      4  C   UNL     1      26.557 169.322 172.134  1.00  0.00     0.214 C 
ATOM      5  C   UNL     1      27.642 170.479 171.874  1.00  0.00     0.339 C 
ATOM      6  O   UNL     1      28.876 170.304 172.567  1.00  0.00    -0.332 OA
ENDROOT
BRANCH   1   7
ATOM      7  C   UNL     1      31.279 169.219 172.317  1.00  0.00     0.198 C 
BRANCH   7   8
ATOM      8  O   UNL     1      32.246 168.540 171.460  1.00  0.00    -0.347 OA
BRANCH   8   9
ATOM      9  C   UNL     1      33.534 169.076 171.796  1.00  0.00     0.281 C 
ATOM     10  C   UNL     1      34.871 172.327 173.177  1.00  0.00     0.041 C 
ATOM     11  C   UNL     1      34.453 171.581 171.868  1.00  0.00     0.150 C 
ATOM     12  C   UNL     1      35.738 171.183 171.027  1.00  0.00     0.174 C 
ATOM     13  O   UNL     1      33.515 170.526 172.370  1.00  0.00    -0.344 OA
ATOM     14  C   UNL     1      35.528 169.930 170.129  1.00  0.00     0.179 C 
ATOM     15  C   UNL     1      34.891 168.811 170.895  1.00  0.00     0.202 C 
BRANCH  12  16
ATOM     16  O   UNL     1      36.952 171.290 171.737  1.00  0.00    -0.388 OA
ATOM     17  H   UNL     1      36.858 170.732 172.567  1.00  0.00     0.211 HD
ENDBRANCH  12  16
BRANCH  14  18
ATOM     18  O   UNL     1      34.915 170.217 168.876  1.00  0.00    -0.387 OA
ATOM     19  H   UNL     1      35.165 171.094 168.503  1.00  0.00     0.211 HD
ENDBRANCH  14  18
BRANCH  15  20
ATOM     20  O   UNL     1      34.881 167.598 170.103  1.00  0.00    -0.385 OA
ATOM     21  H   UNL     1      35.377 166.889 170.594  1.00  0.00     0.211 HD
ENDBRANCH  15  20
ENDBRANCH   8   9
ENDBRANCH   7   8
ENDBRANCH   1   7
BRANCH   2  22
ATOM     22  O   UNL     1      29.712 166.879 172.125  1.00  0.00    -0.387 OA
ATOM     23  H   UNL     1      29.825 166.081 171.484  1.00  0.00     0.211 HD
ENDBRANCH   2  22
BRANCH   3  24
ATOM     24  O   UNL     1      27.524 167.627 173.769  1.00  0.00    -0.387 OA
ATOM     25  H   UNL     1      27.842 168.349 174.373  1.00  0.00     0.211 HD
ENDBRANCH   3  24
BRANCH   5  26
ATOM     26  O   UNL     1      27.742 171.543 170.896  1.00  0.00    -0.454 OA
BRANCH  26  27
ATOM     27  C   UNL     1      28.711 172.659 170.980  1.00  0.00     0.214 A 
ATOM     28  C   UNL     1      29.876 172.718 170.046  1.00  0.00     0.180 A 
ATOM     29  C   UNL     1      28.565 173.815 171.933  1.00  0.00     0.239 A 
ATOM     30  O   UNL     1      30.894 173.576 170.333  1.00  0.00    -0.452 OA
ATOM     31  C   UNL     1      29.460 174.898 171.674  1.00  0.00     0.111 A 
ATOM     32  O   UNL     1      27.625 173.983 172.863  1.00  0.00    -0.285 OA
ATOM     33  C   UNL     1      30.746 174.601 171.171  1.00  0.00     0.146 A 
ATOM     34  C   UNL     1      28.980 176.150 171.104  1.00  0.00     0.134 A 
ATOM     35  C   UNL     1      31.658 175.679 170.991  1.00  0.00     0.094 A 
ATOM     36  C   UNL     1      29.755 176.833 170.067  1.00  0.00     0.093 A 
ATOM     37  C   UNL     1      31.136 176.639 170.064  1.00  0.00     0.123 A 
BRANCH  28  38
ATOM     38  C   UNL     1      30.188 171.645 168.987  1.00  0.00     0.025 A 
ATOM     39  C   UNL     1      31.441 170.900 168.867  1.00  0.00     0.062 A 
ATOM     40  C   UNL     1      29.383 171.640 167.819  1.00  0.00     0.016 A 
ATOM     41  C   UNL     1      31.485 169.610 168.251  1.00  0.00     0.158 A 
ATOM     42  C   UNL     1      29.358 170.389 167.068  1.00  0.00     0.051 A 
ATOM     43  C   UNL     1      30.420 169.442 167.208  1.00  0.00     0.157 A 
BRANCH  41  44
ATOM     44  O   UNL     1      32.548 168.702 168.386  1.00  0.00    -0.504 OA
ATOM     45  H   UNL     1      33.026 168.507 169.259  1.00  0.00     0.293 HD
ENDBRANCH  41  44
BRANCH  43  46
ATOM     46  O   UNL     1      30.337 168.397 166.277  1.00  0.00    -0.504 OA
ATOM     47  H   UNL     1      31.165 168.027 165.756  1.00  0.00     0.293 HD
ENDBRANCH  43  46
ENDBRANCH  28  38
BRANCH  34  48
ATOM     48  O   UNL     1      27.728 176.648 171.472  1.00  0.00    -0.507 OA
ATOM     49  H   UNL     1      27.546 176.739 172.475  1.00  0.00     0.293 HD
ENDBRANCH  34  48
BRANCH  37  50
ATOM     50  O   UNL     1      31.898 177.303 169.060  1.00  0.00    -0.508 OA
ATOM     51  H   UNL     1      32.093 178.337 169.019  1.00  0.00     0.293 HD
ENDBRANCH  37  50
ENDBRANCH  26  27
ENDBRANCH   5  26
BRANCH   4  52
ATOM     52  O   UNL     1      25.686 169.601 173.266  1.00  0.00    -0.384 OA
ATOM     53  H   UNL     1      24.895 169.035 173.310  1.00  0.00     0.211 HD
ENDBRANCH   4  52
TORSDOF 16
ENDMDL
