MODEL 1
REMARK VINA RESULT:    -5.617      0.000      0.000
REMARK INTER + INTRA:         -11.976
REMARK INTER:                 -10.542
REMARK INTRA:                  -1.434
REMARK UNBOUND:                -1.434
REMARK SMILES CCCCCCCCC=CCCCCCCCC(=O)[O-]
REMARK SMILES IDX 10 1 9 2 11 3 12 4 13 5 14 6 15 7 16 8 17 9 18 10 19 11
REMARK SMILES IDX 20 12 8 13 7 14 6 15 5 16 4 17 3 18 2 19 1 20
REMARK H PARENT
REMARK Flexibility Score: inf
ROOT
ATOM      1  C   UNL     1      19.645   1.315 -15.474  1.00  0.00    -0.031 C 
ATOM      2  C   UNL     1      20.738   0.738 -15.997  1.00  0.00    -0.031 C 
ENDROOT
BRANCH   1   3
ATOM      3  C   UNL     1      18.533   0.500 -14.875  1.00  0.00     0.027 C 
BRANCH   3   4
ATOM      4  C   UNL     1      17.217   0.712 -15.638  1.00  0.00     0.004 C 
BRANCH   4   5
ATOM      5  C   UNL     1      16.995  -0.341 -16.736  1.00  0.00     0.000 C 
BRANCH   5   6
ATOM      6  C   UNL     1      16.664   0.286 -18.099  1.00  0.00     0.000 C 
BRANCH   6   7
ATOM      7  C   UNL     1      17.895   0.284 -19.016  1.00  0.00     0.000 C 
BRANCH   7   8
ATOM      8  C   UNL     1      18.628   1.635 -19.028  1.00  0.00     0.006 C 
BRANCH   8   9
ATOM      9  C   UNL     1      19.958   1.579 -19.793  1.00  0.00     0.053 C 
BRANCH   9  10
ATOM     10  C   UNL     1      19.962   2.582 -20.904  1.00  0.00     0.041 C 
ATOM     11  O   UNL     1      19.447   2.296 -22.018  1.00  0.00    -0.550 OA
ATOM     12  O   UNL     1      20.577   3.814 -20.726  1.00  0.00    -0.550 OA
ENDBRANCH   9  10
ENDBRANCH   8   9
ENDBRANCH   7   8
ENDBRANCH   6   7
ENDBRANCH   5   6
ENDBRANCH   4   5
ENDBRANCH   3   4
ENDBRANCH   1   3
BRANCH   2  13
ATOM     13  C   UNL     1      21.850   1.556 -16.593  1.00  0.00     0.027 C 
BRANCH  13  14
ATOM     14  C   UNL     1      23.213   1.133 -16.023  1.00  0.00     0.004 C 
BRANCH  14  15
ATOM     15  C   UNL     1      23.870  -0.001 -16.828  1.00  0.00     0.000 C 
BRANCH  15  16
ATOM     16  C   UNL     1      25.097  -0.652 -16.158  1.00  0.00     0.000 C 
BRANCH  16  17
ATOM     17  C   UNL     1      25.895  -1.618 -17.053  1.00  0.00    -0.000 C 
BRANCH  17  18
ATOM     18  C   UNL     1      27.360  -1.765 -16.616  1.00  0.00    -0.000 C 
BRANCH  18  19
ATOM     19  C   UNL     1      27.733  -0.696 -15.582  1.00  0.00    -0.003 C 
ATOM     20  C   UNL     1      29.203  -0.801 -15.187  1.00  0.00     0.004 C 
ENDBRANCH  18  19
ENDBRANCH  17  18
ENDBRANCH  16  17
ENDBRANCH  15  16
ENDBRANCH  14  15
ENDBRANCH  13  14
ENDBRANCH   2  13
TORSDOF 15
ENDMDL
MODEL 2
REMARK VINA RESULT:    -5.522      7.714     10.851
REMARK INTER + INTRA:         -11.798
REMARK INTER:                  -9.817
REMARK INTRA:                  -1.981
REMARK UNBOUND:                -1.434
REMARK SMILES CCCCCCCCC=CCCCCCCCC(=O)[O-]
REMARK SMILES IDX 10 1 9 2 11 3 12 4 13 5 14 6 15 7 16 8 17 9 18 10 19 11
REMARK SMILES IDX 20 12 8 13 7 14 6 15 5 16 4 17 3 18 2 19 1 20
REMARK H PARENT
REMARK Flexibility Score: inf
ROOT
ATOM      1  C   UNL     1      20.233  -4.497 -24.412  1.00  0.00    -0.031 C 
ATOM      2  C   UNL     1      19.147  -3.776 -24.729  1.00  0.00    -0.031 C 
ENDROOT
BRANCH   1   3
ATOM      3  C   UNL     1      21.355  -3.918 -23.596  1.00  0.00     0.027 C 
BRANCH   3   4
ATOM      4  C   UNL     1      21.674  -4.806 -22.384  1.00  0.00     0.004 C 
BRANCH   4   5
ATOM      5  C   UNL     1      23.147  -5.242 -22.341  1.00  0.00     0.000 C 
BRANCH   5   6
ATOM      6  C   UNL     1      23.991  -4.586 -23.446  1.00  0.00     0.000 C 
BRANCH   6   7
ATOM      7  C   UNL     1      25.103  -3.716 -22.842  1.00  0.00     0.000 C 
BRANCH   7   8
ATOM      8  C   UNL     1      25.213  -3.868 -21.317  1.00  0.00     0.006 C 
BRANCH   8   9
ATOM      9  C   UNL     1      26.664  -4.023 -20.841  1.00  0.00     0.053 C 
BRANCH   9  10
ATOM     10  C   UNL     1      27.150  -2.748 -20.228  1.00  0.00     0.041 C 
ATOM     11  O   UNL     1      27.501  -1.786 -20.962  1.00  0.00    -0.550 OA
ATOM     12  O   UNL     1      27.263  -2.638 -18.848  1.00  0.00    -0.550 OA
ENDBRANCH   9  10
ENDBRANCH   8   9
ENDBRANCH   7   8
ENDBRANCH   6   7
ENDBRANCH   5   6
ENDBRANCH   4   5
ENDBRANCH   3   4
ENDBRANCH   1   3
BRANCH   2  13
ATOM     13  C   UNL     1      18.026  -4.359 -25.543  1.00  0.00     0.027 C 
BRANCH  13  14
ATOM     14  C   UNL     1      17.791  -3.544 -26.824  1.00  0.00     0.004 C 
BRANCH  14  15
ATOM     15  C   UNL     1      18.473  -4.161 -28.057  1.00  0.00     0.000 C 
BRANCH  15  16
ATOM     16  C   UNL     1      19.677  -3.367 -28.604  1.00  0.00     0.000 C 
BRANCH  16  17
ATOM     17  C   UNL     1      21.023  -3.667 -27.919  1.00  0.00    -0.000 C 
BRANCH  17  18
ATOM     18  C   UNL     1      21.741  -2.399 -27.433  1.00  0.00    -0.000 C 
BRANCH  18  19
ATOM     19  C   UNL     1      23.033  -2.753 -26.686  1.00  0.00    -0.003 C 
ATOM     20  C   UNL     1      23.426  -1.647 -25.712  1.00  0.00     0.004 C 
ENDBRANCH  18  19
ENDBRANCH  17  18
ENDBRANCH  16  17
ENDBRANCH  15  16
ENDBRANCH  14  15
ENDBRANCH  13  14
ENDBRANCH   2  13
TORSDOF 15
ENDMDL
MODEL 3
REMARK VINA RESULT:    -5.494      4.406      9.857
REMARK INTER + INTRA:         -11.747
REMARK INTER:                 -10.841
REMARK INTRA:                  -0.906
REMARK UNBOUND:                -1.434
REMARK SMILES CCCCCCCCC=CCCCCCCCC(=O)[O-]
REMARK SMILES IDX 10 1 9 2 11 3 12 4 13 5 14 6 15 7 16 8 17 9 18 10 19 11
REMARK SMILES IDX 20 12 8 13 7 14 6 15 5 16 4 17 3 18 2 19 1 20
REMARK H PARENT
REMARK Flexibility Score: inf
ROOT
ATOM      1  C   UNL     1      24.768  -0.545 -17.465  1.00  0.00    -0.031 C 
ATOM      2  C   UNL     1      24.461  -0.296 -16.183  1.00  0.00    -0.031 C 
ENDROOT
BRANCH   1   3
ATOM      3  C   UNL     1      25.858  -1.508 -17.842  1.00  0.00     0.027 C 
BRANCH   3   4
ATOM      4  C   UNL     1      26.642  -1.971 -16.605  1.00  0.00     0.004 C 
BRANCH   4   5
ATOM      5  C   UNL     1      28.049  -1.357 -16.533  1.00  0.00     0.000 C 
BRANCH   5   6
ATOM      6  C   UNL     1      28.255  -0.492 -15.279  1.00  0.00     0.000 C 
BRANCH   6   7
ATOM      7  C   UNL     1      29.745  -0.392 -14.921  1.00  0.00     0.000 C 
BRANCH   7   8
ATOM      8  C   UNL     1      30.604   0.112 -16.091  1.00  0.00     0.006 C 
BRANCH   8   9
ATOM      9  C   UNL     1      31.783  -0.820 -16.404  1.00  0.00     0.053 C 
BRANCH   9  10
ATOM     10  C   UNL     1      32.407  -0.450 -17.712  1.00  0.00     0.041 C 
ATOM     11  O   UNL     1      31.681  -0.134 -18.693  1.00  0.00    -0.550 OA
ATOM     12  O   UNL     1      33.786  -0.502 -17.865  1.00  0.00    -0.550 OA
ENDBRANCH   9  10
ENDBRANCH   8   9
ENDBRANCH   7   8
ENDBRANCH   6   7
ENDBRANCH   5   6
ENDBRANCH   4   5
ENDBRANCH   3   4
ENDBRANCH   1   3
BRANCH   2  13
ATOM     13  C   UNL     1      23.368   0.666 -15.808  1.00  0.00     0.027 C 
BRANCH  13  14
ATOM     14  C   UNL     1      22.311   0.762 -16.918  1.00  0.00     0.004 C 
BRANCH  14  15
ATOM     15  C   UNL     1      21.300   1.897 -16.683  1.00  0.00     0.000 C 
BRANCH  15  16
ATOM     16  C   UNL     1      20.153   1.974 -17.712  1.00  0.00     0.000 C 
BRANCH  16  17
ATOM     17  C   UNL     1      18.918   1.116 -17.380  1.00  0.00    -0.000 C 
BRANCH  17  18
ATOM     18  C   UNL     1      18.878   0.671 -15.911  1.00  0.00    -0.000 C 
BRANCH  18  19
ATOM     19  C   UNL     1      17.435   0.607 -15.397  1.00  0.00    -0.003 C 
ATOM     20  C   UNL     1      16.542  -0.174 -16.356  1.00  0.00     0.004 C 
ENDBRANCH  18  19
ENDBRANCH  17  18
ENDBRANCH  16  17
ENDBRANCH  15  16
ENDBRANCH  14  15
ENDBRANCH  13  14
ENDBRANCH   2  13
TORSDOF 15
ENDMDL
MODEL 4
REMARK VINA RESULT:    -5.493      7.779     10.777
REMARK INTER + INTRA:         -11.744
REMARK INTER:                  -9.329
REMARK INTRA:                  -2.414
REMARK UNBOUND:                -1.434
REMARK SMILES CCCCCCCCC=CCCCCCCCC(=O)[O-]
REMARK SMILES IDX 10 1 9 2 11 3 12 4 13 5 14 6 15 7 16 8 17 9 18 10 19 11
REMARK SMILES IDX 20 12 8 13 7 14 6 15 5 16 4 17 3 18 2 19 1 20
REMARK H PARENT
REMARK Flexibility Score: inf
ROOT
ATOM      1  C   UNL     1      19.818  -3.205 -24.469  1.00  0.00    -0.031 C 
ATOM      2  C   UNL     1      19.392  -4.415 -24.863  1.00  0.00    -0.031 C 
ENDROOT
BRANCH   1   3
ATOM      3  C   UNL     1      21.179  -3.007 -23.862  1.00  0.00     0.027 C 
BRANCH   3   4
ATOM      4  C   UNL     1      21.341  -1.580 -23.319  1.00  0.00     0.004 C 
BRANCH   4   5
ATOM      5  C   UNL     1      22.462  -0.802 -24.026  1.00  0.00     0.000 C 
BRANCH   5   6
ATOM      6  C   UNL     1      23.716  -0.643 -23.152  1.00  0.00     0.000 C 
BRANCH   6   7
ATOM      7  C   UNL     1      24.923  -1.343 -23.794  1.00  0.00     0.000 C 
BRANCH   7   8
ATOM      8  C   UNL     1      25.340  -2.616 -23.041  1.00  0.00     0.006 C 
BRANCH   8   9
ATOM      9  C   UNL     1      24.653  -3.876 -23.583  1.00  0.00     0.053 C 
BRANCH   9  10
ATOM     10  C   UNL     1      24.437  -4.867 -22.483  1.00  0.00     0.041 C 
ATOM     11  O   UNL     1      23.315  -5.422 -22.342  1.00  0.00    -0.550 OA
ATOM     12  O   UNL     1      25.459  -5.142 -21.584  1.00  0.00    -0.550 OA
ENDBRANCH   9  10
ENDBRANCH   8   9
ENDBRANCH   7   8
ENDBRANCH   6   7
ENDBRANCH   5   6
ENDBRANCH   4   5
ENDBRANCH   3   4
ENDBRANCH   1   3
BRANCH   2  13
ATOM     13  C   UNL     1      18.031  -4.610 -25.473  1.00  0.00     0.027 C 
BRANCH  13  14
ATOM     14  C   UNL     1      17.814  -3.655 -26.656  1.00  0.00     0.004 C 
BRANCH  14  15
ATOM     15  C   UNL     1      18.391  -4.198 -27.975  1.00  0.00     0.000 C 
BRANCH  15  16
ATOM     16  C   UNL     1      19.536  -3.361 -28.581  1.00  0.00     0.000 C 
BRANCH  16  17
ATOM     17  C   UNL     1      20.932  -3.646 -27.999  1.00  0.00    -0.000 C 
BRANCH  17  18
ATOM     18  C   UNL     1      21.645  -2.376 -27.510  1.00  0.00    -0.000 C 
BRANCH  18  19
ATOM     19  C   UNL     1      23.082  -2.688 -27.073  1.00  0.00    -0.003 C 
ATOM     20  C   UNL     1      24.026  -1.544 -27.427  1.00  0.00     0.004 C 
ENDBRANCH  18  19
ENDBRANCH  17  18
ENDBRANCH  16  17
ENDBRANCH  15  16
ENDBRANCH  14  15
ENDBRANCH  13  14
ENDBRANCH   2  13
TORSDOF 15
ENDMDL
MODEL 5
REMARK VINA RESULT:    -5.487      2.482      6.326
REMARK INTER + INTRA:         -11.733
REMARK INTER:                 -10.087
REMARK INTRA:                  -1.646
REMARK UNBOUND:                -1.434
REMARK SMILES CCCCCCCCC=CCCCCCCCC(=O)[O-]
REMARK SMILES IDX 10 1 9 2 11 3 12 4 13 5 14 6 15 7 16 8 17 9 18 10 19 11
REMARK SMILES IDX 20 12 8 13 7 14 6 15 5 16 4 17 3 18 2 19 1 20
REMARK H PARENT
REMARK Flexibility Score: inf
ROOT
ATOM      1  C   UNL     1      27.541  -0.804 -15.924  1.00  0.00    -0.031 C 
ATOM      2  C   UNL     1      28.716  -1.129 -15.364  1.00  0.00    -0.031 C 
ENDROOT
BRANCH   1   3
ATOM      3  C   UNL     1      26.566  -1.854 -16.379  1.00  0.00     0.027 C 
BRANCH   3   4
ATOM      4  C   UNL     1      25.379  -1.223 -17.122  1.00  0.00     0.004 C 
BRANCH   4   5
ATOM      5  C   UNL     1      24.487  -0.376 -16.201  1.00  0.00     0.000 C 
BRANCH   5   6
ATOM      6  C   UNL     1      23.364   0.345 -16.964  1.00  0.00     0.000 C 
BRANCH   6   7
ATOM      7  C   UNL     1      22.494   1.171 -16.005  1.00  0.00     0.000 C 
BRANCH   7   8
ATOM      8  C   UNL     1      20.991   0.908 -16.192  1.00  0.00     0.006 C 
BRANCH   8   9
ATOM      9  C   UNL     1      20.341   1.873 -17.192  1.00  0.00     0.053 C 
BRANCH   9  10
ATOM     10  C   UNL     1      18.908   1.506 -17.415  1.00  0.00     0.041 C 
ATOM     11  O   UNL     1      18.033   1.828 -16.568  1.00  0.00    -0.550 OA
ATOM     12  O   UNL     1      18.545   0.767 -18.534  1.00  0.00    -0.550 OA
ENDBRANCH   9  10
ENDBRANCH   8   9
ENDBRANCH   7   8
ENDBRANCH   6   7
ENDBRANCH   5   6
ENDBRANCH   4   5
ENDBRANCH   3   4
ENDBRANCH   1   3
BRANCH   2  13
ATOM     13  C   UNL     1      29.687  -0.077 -14.907  1.00  0.00     0.027 C 
BRANCH  13  14
ATOM     14  C   UNL     1      31.097  -0.353 -15.452  1.00  0.00     0.004 C 
BRANCH  14  15
ATOM     15  C   UNL     1      31.084  -0.901 -16.889  1.00  0.00     0.000 C 
BRANCH  15  16
ATOM     16  C   UNL     1      30.881   0.160 -17.991  1.00  0.00     0.000 C 
BRANCH  16  17
ATOM     17  C   UNL     1      29.635  -0.044 -18.872  1.00  0.00    -0.000 C 
BRANCH  17  18
ATOM     18  C   UNL     1      29.464  -1.497 -19.339  1.00  0.00    -0.000 C 
BRANCH  18  19
ATOM     19  C   UNL     1      28.013  -1.775 -19.748  1.00  0.00    -0.003 C 
ATOM     20  C   UNL     1      27.330  -0.507 -20.251  1.00  0.00     0.004 C 
ENDBRANCH  18  19
ENDBRANCH  17  18
ENDBRANCH  16  17
ENDBRANCH  15  16
ENDBRANCH  14  15
ENDBRANCH  13  14
ENDBRANCH   2  13
TORSDOF 15
ENDMDL
MODEL 6
REMARK VINA RESULT:    -5.468      2.716      5.648
REMARK INTER + INTRA:         -11.697
REMARK INTER:                 -10.437
REMARK INTRA:                  -1.261
REMARK UNBOUND:                -1.434
REMARK SMILES CCCCCCCCC=CCCCCCCCC(=O)[O-]
REMARK SMILES IDX 10 1 9 2 11 3 12 4 13 5 14 6 15 7 16 8 17 9 18 10 19 11
REMARK SMILES IDX 20 12 8 13 7 14 6 15 5 16 4 17 3 18 2 19 1 20
REMARK H PARENT
REMARK Flexibility Score: inf
ROOT
ATOM      1  C   UNL     1      25.553  -1.652 -16.951  1.00  0.00    -0.031 C 
ATOM      2  C   UNL     1      26.867  -1.676 -17.223  1.00  0.00    -0.031 C 
ENDROOT
BRANCH   1   3
ATOM      3  C   UNL     1      25.025  -1.084 -15.663  1.00  0.00     0.027 C 
BRANCH   3   4
ATOM      4  C   UNL     1      23.970   0.001 -15.926  1.00  0.00     0.004 C 
BRANCH   4   5
ATOM      5  C   UNL     1      23.631   0.146 -17.418  1.00  0.00     0.000 C 
BRANCH   5   6
ATOM      6  C   UNL     1      22.354   0.967 -17.658  1.00  0.00     0.000 C 
BRANCH   6   7
ATOM      7  C   UNL     1      21.633   1.257 -16.333  1.00  0.00     0.000 C 
BRANCH   7   8
ATOM      8  C   UNL     1      20.127   1.502 -16.519  1.00  0.00     0.006 C 
BRANCH   8   9
ATOM      9  C   UNL     1      19.273   0.742 -15.495  1.00  0.00     0.053 C 
BRANCH   9  10
ATOM     10  C   UNL     1      17.860   0.632 -15.974  1.00  0.00     0.041 C 
ATOM     11  O   UNL     1      17.259  -0.474 -15.926  1.00  0.00    -0.550 OA
ATOM     12  O   UNL     1      17.221   1.739 -16.518  1.00  0.00    -0.550 OA
ENDBRANCH   9  10
ENDBRANCH   8   9
ENDBRANCH   7   8
ENDBRANCH   6   7
ENDBRANCH   5   6
ENDBRANCH   4   5
ENDBRANCH   3   4
ENDBRANCH   1   3
BRANCH   2  13
ATOM     13  C   UNL     1      27.392  -2.242 -18.514  1.00  0.00     0.027 C 
BRANCH  13  14
ATOM     14  C   UNL     1      28.109  -1.163 -19.338  1.00  0.00     0.004 C 
BRANCH  14  15
ATOM     15  C   UNL     1      29.550  -0.908 -18.862  1.00  0.00     0.000 C 
BRANCH  15  16
ATOM     16  C   UNL     1      29.993   0.570 -18.883  1.00  0.00     0.000 C 
BRANCH  16  17
ATOM     17  C   UNL     1      30.711   1.054 -17.610  1.00  0.00    -0.000 C 
BRANCH  17  18
ATOM     18  C   UNL     1      30.864  -0.050 -16.554  1.00  0.00    -0.000 C 
BRANCH  18  19
ATOM     19  C   UNL     1      30.169   0.343 -15.245  1.00  0.00    -0.003 C 
ATOM     20  C   UNL     1      29.247  -0.770 -14.755  1.00  0.00     0.004 C 
ENDBRANCH  18  19
ENDBRANCH  17  18
ENDBRANCH  16  17
ENDBRANCH  15  16
ENDBRANCH  14  15
ENDBRANCH  13  14
ENDBRANCH   2  13
TORSDOF 15
ENDMDL
MODEL 7
REMARK VINA RESULT:    -5.435      6.290      7.757
REMARK INTER + INTRA:         -11.635
REMARK INTER:                  -9.482
REMARK INTRA:                  -2.153
REMARK UNBOUND:                -1.434
REMARK SMILES CCCCCCCCC=CCCCCCCCC(=O)[O-]
REMARK SMILES IDX 10 1 9 2 11 3 12 4 13 5 14 6 15 7 16 8 17 9 18 10 19 11
REMARK SMILES IDX 20 12 8 13 7 14 6 15 5 16 4 17 3 18 2 19 1 20
REMARK H PARENT
REMARK Flexibility Score: inf
ROOT
ATOM      1  C   UNL     1      26.136  -1.562 -17.429  1.00  0.00    -0.031 C 
ATOM      2  C   UNL     1      27.263  -1.835 -16.753  1.00  0.00    -0.031 C 
ENDROOT
BRANCH   1   3
ATOM      3  C   UNL     1      25.594  -2.501 -18.470  1.00  0.00     0.027 C 
BRANCH   3   4
ATOM      4  C   UNL     1      25.423  -1.791 -19.821  1.00  0.00     0.004 C 
BRANCH   4   5
ATOM      5  C   UNL     1      26.160  -2.508 -20.964  1.00  0.00     0.000 C 
BRANCH   5   6
ATOM      6  C   UNL     1      26.441  -3.986 -20.652  1.00  0.00     0.000 C 
BRANCH   6   7
ATOM      7  C   UNL     1      25.799  -4.900 -21.706  1.00  0.00     0.000 C 
BRANCH   7   8
ATOM      8  C   UNL     1      25.408  -4.145 -22.986  1.00  0.00     0.006 C 
BRANCH   8   9
ATOM      9  C   UNL     1      23.979  -4.462 -23.446  1.00  0.00     0.053 C 
BRANCH   9  10
ATOM     10  C   UNL     1      23.105  -4.756 -22.268  1.00  0.00     0.041 C 
ATOM     11  O   UNL     1      22.741  -5.938 -22.029  1.00  0.00    -0.550 OA
ATOM     12  O   UNL     1      22.653  -3.720 -21.461  1.00  0.00    -0.550 OA
ENDBRANCH   9  10
ENDBRANCH   8   9
ENDBRANCH   7   8
ENDBRANCH   6   7
ENDBRANCH   5   6
ENDBRANCH   4   5
ENDBRANCH   3   4
ENDBRANCH   1   3
BRANCH   2  13
ATOM     13  C   UNL     1      27.801  -0.896 -15.709  1.00  0.00     0.027 C 
BRANCH  13  14
ATOM     14  C   UNL     1      29.294  -1.149 -15.455  1.00  0.00     0.004 C 
BRANCH  14  15
ATOM     15  C   UNL     1      30.105   0.150 -15.316  1.00  0.00     0.000 C 
BRANCH  15  16
ATOM     16  C   UNL     1      31.243   0.324 -16.344  1.00  0.00     0.000 C 
BRANCH  16  17
ATOM     17  C   UNL     1      30.942  -0.224 -17.751  1.00  0.00    -0.000 C 
BRANCH  17  18
ATOM     18  C   UNL     1      30.027   0.700 -18.568  1.00  0.00    -0.000 C 
BRANCH  18  19
ATOM     19  C   UNL     1      29.020  -0.113 -19.389  1.00  0.00    -0.003 C 
ATOM     20  C   UNL     1      29.502  -1.547 -19.590  1.00  0.00     0.004 C 
ENDBRANCH  18  19
ENDBRANCH  17  18
ENDBRANCH  16  17
ENDBRANCH  15  16
ENDBRANCH  14  15
ENDBRANCH  13  14
ENDBRANCH   2  13
TORSDOF 15
ENDMDL
MODEL 8
REMARK VINA RESULT:    -5.435      3.176      5.757
REMARK INTER + INTRA:         -11.634
REMARK INTER:                  -9.365
REMARK INTRA:                  -2.270
REMARK UNBOUND:                -1.434
REMARK SMILES CCCCCCCCC=CCCCCCCCC(=O)[O-]
REMARK SMILES IDX 10 1 9 2 11 3 12 4 13 5 14 6 15 7 16 8 17 9 18 10 19 11
REMARK SMILES IDX 20 12 8 13 7 14 6 15 5 16 4 17 3 18 2 19 1 20
REMARK H PARENT
REMARK Flexibility Score: inf
ROOT
ATOM      1  C   UNL     1      18.522   1.500 -19.343  1.00  0.00    -0.031 C 
ATOM      2  C   UNL     1      17.983   0.366 -18.869  1.00  0.00    -0.031 C 
ENDROOT
BRANCH   1   3
ATOM      3  C   UNL     1      19.632   1.483 -20.356  1.00  0.00     0.027 C 
BRANCH   3   4
ATOM      4  C   UNL     1      19.340   2.447 -21.515  1.00  0.00     0.004 C 
BRANCH   4   5
ATOM      5  C   UNL     1      19.803   3.883 -21.220  1.00  0.00     0.000 C 
BRANCH   5   6
ATOM      6  C   UNL     1      21.162   3.932 -20.505  1.00  0.00     0.000 C 
BRANCH   6   7
ATOM      7  C   UNL     1      22.237   4.547 -21.414  1.00  0.00     0.000 C 
BRANCH   7   8
ATOM      8  C   UNL     1      23.435   3.610 -21.633  1.00  0.00     0.006 C 
BRANCH   8   9
ATOM      9  C   UNL     1      23.011   2.156 -21.882  1.00  0.00     0.053 C 
BRANCH   9  10
ATOM     10  C   UNL     1      22.773   1.925 -23.341  1.00  0.00     0.041 C 
ATOM     11  O   UNL     1      22.178   0.884 -23.728  1.00  0.00    -0.550 OA
ATOM     12  O   UNL     1      23.248   2.835 -24.277  1.00  0.00    -0.550 OA
ENDBRANCH   9  10
ENDBRANCH   8   9
ENDBRANCH   7   8
ENDBRANCH   6   7
ENDBRANCH   5   6
ENDBRANCH   4   5
ENDBRANCH   3   4
ENDBRANCH   1   3
BRANCH   2  13
ATOM     13  C   UNL     1      16.871   0.386 -17.858  1.00  0.00     0.027 C 
BRANCH  13  14
ATOM     14  C   UNL     1      17.197   1.337 -16.696  1.00  0.00     0.004 C 
BRANCH  14  15
ATOM     15  C   UNL     1      17.592   0.593 -15.409  1.00  0.00     0.000 C 
BRANCH  15  16
ATOM     16  C   UNL     1      19.085   0.687 -15.031  1.00  0.00     0.000 C 
BRANCH  16  17
ATOM     17  C   UNL     1      19.945   1.545 -15.977  1.00  0.00    -0.000 C 
BRANCH  17  18
ATOM     18  C   UNL     1      21.288   0.885 -16.325  1.00  0.00    -0.000 C 
BRANCH  18  19
ATOM     19  C   UNL     1      22.045   1.705 -17.377  1.00  0.00    -0.003 C 
ATOM     20  C   UNL     1      22.660   0.801 -18.441  1.00  0.00     0.004 C 
ENDBRANCH  18  19
ENDBRANCH  17  18
ENDBRANCH  16  17
ENDBRANCH  15  16
ENDBRANCH  14  15
ENDBRANCH  13  14
ENDBRANCH   2  13
TORSDOF 15
ENDMDL
MODEL 9
REMARK VINA RESULT:    -5.432      2.798      4.779
REMARK INTER + INTRA:         -11.629
REMARK INTER:                 -10.758
REMARK INTRA:                  -0.870
REMARK UNBOUND:                -1.434
REMARK SMILES CCCCCCCCC=CCCCCCCCC(=O)[O-]
REMARK SMILES IDX 10 1 9 2 11 3 12 4 13 5 14 6 15 7 16 8 17 9 18 10 19 11
REMARK SMILES IDX 20 12 8 13 7 14 6 15 5 16 4 17 3 18 2 19 1 20
REMARK H PARENT
REMARK Flexibility Score: inf
ROOT
ATOM      1  C   UNL     1      23.994   0.016 -16.585  1.00  0.00    -0.031 C 
ATOM      2  C   UNL     1      24.831  -0.828 -15.964  1.00  0.00    -0.031 C 
ENDROOT
BRANCH   1   3
ATOM      3  C   UNL     1      23.286   1.114 -15.842  1.00  0.00     0.027 C 
BRANCH   3   4
ATOM      4  C   UNL     1      21.761   0.956 -15.939  1.00  0.00     0.004 C 
BRANCH   4   5
ATOM      5  C   UNL     1      21.254   0.986 -17.389  1.00  0.00     0.000 C 
BRANCH   5   6
ATOM      6  C   UNL     1      19.929   1.749 -17.538  1.00  0.00     0.000 C 
BRANCH   6   7
ATOM      7  C   UNL     1      19.119   1.700 -16.234  1.00  0.00     0.000 C 
BRANCH   7   8
ATOM      8  C   UNL     1      17.604   1.797 -16.473  1.00  0.00     0.006 C 
BRANCH   8   9
ATOM      9  C   UNL     1      16.855   0.530 -16.039  1.00  0.00     0.053 C 
BRANCH   9  10
ATOM     10  C   UNL     1      15.378   0.724 -16.181  1.00  0.00     0.041 C 
ATOM     11  O   UNL     1      14.820   0.545 -17.296  1.00  0.00    -0.550 OA
ATOM     12  O   UNL     1      14.624   1.148 -15.094  1.00  0.00    -0.550 OA
ENDBRANCH   9  10
ENDBRANCH   8   9
ENDBRANCH   7   8
ENDBRANCH   6   7
ENDBRANCH   5   6
ENDBRANCH   4   5
ENDBRANCH   3   4
ENDBRANCH   1   3
BRANCH   2  13
ATOM     13  C   UNL     1      25.540  -1.924 -16.710  1.00  0.00     0.027 C 
BRANCH  13  14
ATOM     14  C   UNL     1      26.353  -1.357 -17.884  1.00  0.00     0.004 C 
BRANCH  14  15
ATOM     15  C   UNL     1      27.811  -1.848 -17.892  1.00  0.00     0.000 C 
BRANCH  15  16
ATOM     16  C   UNL     1      28.820  -0.909 -17.199  1.00  0.00     0.000 C 
BRANCH  16  17
ATOM     17  C   UNL     1      28.883  -1.035 -15.666  1.00  0.00    -0.000 C 
BRANCH  17  18
ATOM     18  C   UNL     1      30.034  -0.228 -15.048  1.00  0.00    -0.000 C 
BRANCH  18  19
ATOM     19  C   UNL     1      30.894   0.424 -16.137  1.00  0.00    -0.003 C 
ATOM     20  C   UNL     1      32.306  -0.153 -16.143  1.00  0.00     0.004 C 
ENDBRANCH  18  19
ENDBRANCH  17  18
ENDBRANCH  16  17
ENDBRANCH  15  16
ENDBRANCH  14  15
ENDBRANCH  13  14
ENDBRANCH   2  13
TORSDOF 15
ENDMDL
