MODEL 1
REMARK VINA RESULT:    -3.442      0.000      0.000
REMARK INTER + INTRA:          -4.122
REMARK INTER:                  -4.046
REMARK INTRA:                  -0.076
REMARK UNBOUND:                -0.076
REMARK SMILES CCCCC(=O)[O-]
REMARK SMILES IDX 4 1 5 2 6 3 7 4 3 5 2 6 1 7
REMARK H PARENT
REMARK Flexibility Score: inf
ROOT
ATOM      1  C   UNL     1       4.214  -3.784   3.030  1.00  0.00     0.053 C 
ENDROOT
BRANCH   1   2
ATOM      2  C   UNL     1       5.048  -4.296   4.162  1.00  0.00     0.041 C 
ATOM      3  O   UNL     1       5.545  -5.453   4.109  1.00  0.00    -0.550 OA
ATOM      4  O   UNL     1       5.236  -3.517   5.295  1.00  0.00    -0.550 OA
ENDBRANCH   1   2
BRANCH   1   5
ATOM      5  C   UNL     1       4.735  -4.328   1.693  1.00  0.00     0.006 C 
BRANCH   5   6
ATOM      6  C   UNL     1       3.817  -5.406   1.097  1.00  0.00    -0.003 C 
ATOM      7  C   UNL     1       2.368  -5.272   1.563  1.00  0.00     0.004 C 
ENDBRANCH   5   6
ENDBRANCH   1   5
TORSDOF 3
ENDMDL
MODEL 2
REMARK VINA RESULT:    -3.389      2.035      2.634
REMARK INTER + INTRA:          -4.059
REMARK INTER:                  -4.027
REMARK INTRA:                  -0.032
REMARK UNBOUND:                -0.076
REMARK SMILES CCCCC(=O)[O-]
REMARK SMILES IDX 4 1 5 2 6 3 7 4 3 5 2 6 1 7
REMARK H PARENT
REMARK Flexibility Score: inf
ROOT
ATOM      1  C   UNL     1       5.294  -5.267   3.264  1.00  0.00     0.053 C 
ENDROOT
BRANCH   1   2
ATOM      2  C   UNL     1       4.834  -3.994   3.901  1.00  0.00     0.041 C 
ATOM      3  O   UNL     1       4.112  -3.188   3.257  1.00  0.00    -0.550 OA
ATOM      4  O   UNL     1       5.243  -3.674   5.189  1.00  0.00    -0.550 OA
ENDBRANCH   1   2
BRANCH   1   5
ATOM      5  C   UNL     1       5.614  -5.038   1.780  1.00  0.00     0.006 C 
BRANCH   5   6
ATOM      6  C   UNL     1       6.398  -6.203   1.159  1.00  0.00    -0.003 C 
ATOM      7  C   UNL     1       7.451  -6.778   2.106  1.00  0.00     0.004 C 
ENDBRANCH   5   6
ENDBRANCH   1   5
TORSDOF 3
ENDMDL
MODEL 3
REMARK VINA RESULT:    -3.286     18.503     19.519
REMARK INTER + INTRA:          -3.938
REMARK INTER:                  -3.895
REMARK INTRA:                  -0.042
REMARK UNBOUND:                -0.076
REMARK SMILES CCCCC(=O)[O-]
REMARK SMILES IDX 4 1 5 2 6 3 7 4 3 5 2 6 1 7
REMARK H PARENT
REMARK Flexibility Score: inf
ROOT
ATOM      1  C   UNL     1      13.417 -16.127  15.837  1.00  0.00     0.053 C 
ENDROOT
BRANCH   1   2
ATOM      2  C   UNL     1      13.916 -17.484  15.452  1.00  0.00     0.041 C 
ATOM      3  O   UNL     1      15.028 -17.894  15.879  1.00  0.00    -0.550 OA
ATOM      4  O   UNL     1      13.178 -18.276  14.582  1.00  0.00    -0.550 OA
ENDBRANCH   1   2
BRANCH   1   5
ATOM      5  C   UNL     1      12.159 -15.772  15.033  1.00  0.00     0.006 C 
BRANCH   5   6
ATOM      6  C   UNL     1      11.239 -14.793  15.778  1.00  0.00    -0.003 C 
ATOM      7  C   UNL     1      11.837 -14.310  17.099  1.00  0.00     0.004 C 
ENDBRANCH   5   6
ENDBRANCH   1   5
TORSDOF 3
ENDMDL
MODEL 4
REMARK VINA RESULT:    -3.271      1.386      2.218
REMARK INTER + INTRA:          -3.920
REMARK INTER:                  -3.908
REMARK INTRA:                  -0.012
REMARK UNBOUND:                -0.076
REMARK SMILES CCCCC(=O)[O-]
REMARK SMILES IDX 4 1 5 2 6 3 7 4 3 5 2 6 1 7
REMARK H PARENT
REMARK Flexibility Score: inf
ROOT
ATOM      1  C   UNL     1       4.983  -4.228   1.912  1.00  0.00     0.053 C 
ENDROOT
BRANCH   1   2
ATOM      2  C   UNL     1       5.685  -5.387   2.545  1.00  0.00     0.041 C 
ATOM      3  O   UNL     1       5.523  -5.634   3.769  1.00  0.00    -0.550 OA
ATOM      4  O   UNL     1       6.557  -6.166   1.796  1.00  0.00    -0.550 OA
ENDBRANCH   1   2
BRANCH   1   5
ATOM      5  C   UNL     1       3.781  -3.800   2.764  1.00  0.00     0.006 C 
BRANCH   5   6
ATOM      6  C   UNL     1       2.439  -4.064   2.064  1.00  0.00    -0.003 C 
ATOM      7  C   UNL     1       2.376  -5.441   1.404  1.00  0.00     0.004 C 
ENDBRANCH   5   6
ENDBRANCH   1   5
TORSDOF 3
ENDMDL
MODEL 5
REMARK VINA RESULT:    -3.249     18.130     19.279
REMARK INTER + INTRA:          -3.895
REMARK INTER:                  -3.796
REMARK INTRA:                  -0.099
REMARK UNBOUND:                -0.076
REMARK SMILES CCCCC(=O)[O-]
REMARK SMILES IDX 4 1 5 2 6 3 7 4 3 5 2 6 1 7
REMARK H PARENT
REMARK Flexibility Score: inf
ROOT
ATOM      1  C   UNL     1      13.574 -16.422  16.206  1.00  0.00     0.053 C 
ENDROOT
BRANCH   1   2
ATOM      2  C   UNL     1      14.086 -17.497  15.301  1.00  0.00     0.041 C 
ATOM      3  O   UNL     1      13.283 -18.296  14.748  1.00  0.00    -0.550 OA
ATOM      4  O   UNL     1      15.452 -17.650  15.105  1.00  0.00    -0.550 OA
ENDBRANCH   1   2
BRANCH   1   5
ATOM      5  C   UNL     1      13.011 -15.254  15.385  1.00  0.00     0.006 C 
BRANCH   5   6
ATOM      6  C   UNL     1      11.489 -15.344  15.200  1.00  0.00    -0.003 C 
ATOM      7  C   UNL     1      11.082 -15.573  13.744  1.00  0.00     0.004 C 
ENDBRANCH   5   6
ENDBRANCH   1   5
TORSDOF 3
ENDMDL
MODEL 6
REMARK VINA RESULT:    -3.227     17.713     18.922
REMARK INTER + INTRA:          -3.869
REMARK INTER:                  -3.846
REMARK INTRA:                  -0.023
REMARK UNBOUND:                -0.076
REMARK SMILES CCCCC(=O)[O-]
REMARK SMILES IDX 4 1 5 2 6 3 7 4 3 5 2 6 1 7
REMARK H PARENT
REMARK Flexibility Score: inf
ROOT
ATOM      1  C   UNL     1      12.595 -16.638  14.122  1.00  0.00     0.053 C 
ENDROOT
BRANCH   1   2
ATOM      2  C   UNL     1      11.354 -15.818  14.275  1.00  0.00     0.041 C 
ATOM      3  O   UNL     1      10.679 -15.494  13.262  1.00  0.00    -0.550 OA
ATOM      4  O   UNL     1      10.967 -15.369  15.531  1.00  0.00    -0.550 OA
ENDBRANCH   1   2
BRANCH   1   5
ATOM      5  C   UNL     1      13.405 -16.633  15.426  1.00  0.00     0.006 C 
BRANCH   5   6
ATOM      6  C   UNL     1      14.406 -17.795  15.502  1.00  0.00    -0.003 C 
ATOM      7  C   UNL     1      15.584 -17.625  14.543  1.00  0.00     0.004 C 
ENDBRANCH   5   6
ENDBRANCH   1   5
TORSDOF 3
ENDMDL
MODEL 7
REMARK VINA RESULT:    -3.197     17.638     18.559
REMARK INTER + INTRA:          -3.834
REMARK INTER:                  -3.713
REMARK INTRA:                  -0.121
REMARK UNBOUND:                -0.076
REMARK SMILES CCCCC(=O)[O-]
REMARK SMILES IDX 4 1 5 2 6 3 7 4 3 5 2 6 1 7
REMARK H PARENT
REMARK Flexibility Score: inf
ROOT
ATOM      1  C   UNL     1      11.899 -16.635  14.055  1.00  0.00     0.053 C 
ENDROOT
BRANCH   1   2
ATOM      2  C   UNL     1      13.280 -16.737  14.619  1.00  0.00     0.041 C 
ATOM      3  O   UNL     1      14.158 -15.891  14.301  1.00  0.00    -0.550 OA
ATOM      4  O   UNL     1      13.614 -17.793  15.457  1.00  0.00    -0.550 OA
ENDBRANCH   1   2
BRANCH   1   5
ATOM      5  C   UNL     1      11.269 -15.285  14.422  1.00  0.00     0.006 C 
BRANCH   5   6
ATOM      6  C   UNL     1      11.203 -15.058  15.939  1.00  0.00    -0.003 C 
ATOM      7  C   UNL     1      11.696 -13.671  16.352  1.00  0.00     0.004 C 
ENDBRANCH   5   6
ENDBRANCH   1   5
TORSDOF 3
ENDMDL
MODEL 8
REMARK VINA RESULT:    -3.161     16.482     17.407
REMARK INTER + INTRA:          -3.791
REMARK INTER:                  -3.668
REMARK INTRA:                  -0.123
REMARK UNBOUND:                -0.076
REMARK SMILES CCCCC(=O)[O-]
REMARK SMILES IDX 4 1 5 2 6 3 7 4 3 5 2 6 1 7
REMARK H PARENT
REMARK Flexibility Score: inf
ROOT
ATOM      1  C   UNL     1      11.122 -15.083  15.810  1.00  0.00     0.053 C 
ENDROOT
BRANCH   1   2
ATOM      2  C   UNL     1      11.637 -15.451  14.455  1.00  0.00     0.041 C 
ATOM      3  O   UNL     1      12.851 -15.747  14.297  1.00  0.00    -0.550 OA
ATOM      4  O   UNL     1      10.789 -15.422  13.356  1.00  0.00    -0.550 OA
ENDBRANCH   1   2
BRANCH   1   5
ATOM      5  C   UNL     1      11.869 -13.857  16.351  1.00  0.00     0.006 C 
BRANCH   5   6
ATOM      6  C   UNL     1      11.439 -12.553  15.663  1.00  0.00    -0.003 C 
ATOM      7  C   UNL     1      12.617 -11.779  15.072  1.00  0.00     0.004 C 
ENDBRANCH   5   6
ENDBRANCH   1   5
TORSDOF 3
ENDMDL
MODEL 9
REMARK VINA RESULT:    -3.129     17.100     18.143
REMARK INTER + INTRA:          -3.754
REMARK INTER:                  -3.716
REMARK INTRA:                  -0.038
REMARK UNBOUND:                -0.076
REMARK SMILES CCCCC(=O)[O-]
REMARK SMILES IDX 4 1 5 2 6 3 7 4 3 5 2 6 1 7
REMARK H PARENT
REMARK Flexibility Score: inf
ROOT
ATOM      1  C   UNL     1      12.206 -14.641  15.366  1.00  0.00     0.053 C 
ENDROOT
BRANCH   1   2
ATOM      2  C   UNL     1      12.748 -15.174  16.655  1.00  0.00     0.041 C 
ATOM      3  O   UNL     1      12.355 -14.698  17.753  1.00  0.00    -0.550 OA
ATOM      4  O   UNL     1      13.723 -16.163  16.643  1.00  0.00    -0.550 OA
ENDBRANCH   1   2
BRANCH   1   5
ATOM      5  C   UNL     1      11.062 -15.529  14.858  1.00  0.00     0.006 C 
BRANCH   5   6
ATOM      6  C   UNL     1      11.382 -16.187  13.508  1.00  0.00    -0.003 C 
ATOM      7  C   UNL     1      10.474 -15.696  12.381  1.00  0.00     0.004 C 
ENDBRANCH   5   6
ENDBRANCH   1   5
TORSDOF 3
ENDMDL
