MODEL 1
REMARK VINA RESULT:    -8.625      0.000      0.000
REMARK INTER + INTRA:         -13.471
REMARK INTER:                 -12.658
REMARK INTRA:                  -0.813
REMARK UNBOUND:                -0.813
REMARK SMILES O=c1c(O[C@@H]2O[C@H](CO)[C@H](O)[C@@H](O)[C@H]2O)c(-c2ccc(O)c(O)c2)oc2cc(O)cc(O)c12
REMARK SMILES IDX 4 1 3 2 16 3 25 4 2 5 26 6 1 7 33 8 27 9 31 10 28 11 30 12
REMARK SMILES IDX 17 13 18 14 19 15 20 16 24 17 22 18 21 19 23 21 32 23 29 25
REMARK SMILES IDX 5 27 14 28 6 29 12 30 7 31 10 32 15 33 13 35 8 37 9 38 11 40
REMARK H PARENT 21 20 23 22 32 24 29 26 15 34 13 36 9 39 11 41
REMARK Flexibility Score: inf
ROOT
ATOM      1  O   UNL     1      30.995   3.202  20.431  1.00  0.00    -0.454 OA
ENDROOT
BRANCH   1   2
ATOM      2  C   UNL     1      30.931   4.388  19.681  1.00  0.00     0.214 A 
ATOM      3  C   UNL     1      31.279   4.397  18.321  1.00  0.00     0.180 A 
ATOM      4  O   UNL     1      31.310   5.545  17.656  1.00  0.00    -0.452 OA
ATOM      5  C   UNL     1      30.518   5.587  20.285  1.00  0.00     0.239 A 
ATOM      6  C   UNL     1      30.978   6.711  18.196  1.00  0.00     0.146 A 
ATOM      7  O   UNL     1      30.151   5.556  21.486  1.00  0.00    -0.285 OA
ATOM      8  C   UNL     1      30.529   6.793  19.541  1.00  0.00     0.111 A 
ATOM      9  C   UNL     1      31.077   7.860  17.407  1.00  0.00     0.094 A 
ATOM     10  C   UNL     1      30.153   8.074  20.053  1.00  0.00     0.134 A 
ATOM     11  C   UNL     1      30.744   9.108  17.930  1.00  0.00     0.123 A 
ATOM     12  C   UNL     1      30.289   9.208  19.243  1.00  0.00     0.093 A 
BRANCH   3  13
ATOM     13  C   UNL     1      31.642   3.163  17.596  1.00  0.00     0.025 A 
ATOM     14  C   UNL     1      30.654   2.310  17.075  1.00  0.00     0.016 A 
ATOM     15  C   UNL     1      31.017   1.139  16.404  1.00  0.00     0.051 A 
ATOM     16  C   UNL     1      32.370   0.809  16.238  1.00  0.00     0.157 A 
ATOM     17  C   UNL     1      32.995   2.843  17.406  1.00  0.00     0.062 A 
ATOM     18  C   UNL     1      33.362   1.668  16.742  1.00  0.00     0.158 A 
BRANCH  16  19
ATOM     19  O   UNL     1      32.729  -0.364  15.576  1.00  0.00    -0.504 OA
ATOM     20  H   UNL     1      33.696  -0.574  15.356  1.00  0.00     0.293 HD
ENDBRANCH  16  19
BRANCH  18  21
ATOM     21  O   UNL     1      34.715   1.366  16.596  1.00  0.00    -0.504 OA
ATOM     22  H   UNL     1      35.033   0.532  16.119  1.00  0.00     0.293 HD
ENDBRANCH  18  21
ENDBRANCH   3  13
BRANCH  10  23
ATOM     23  O   UNL     1      29.632   8.291  21.333  1.00  0.00    -0.507 OA
ATOM     24  H   UNL     1      29.487   9.188  21.768  1.00  0.00     0.293 HD
ENDBRANCH  10  23
BRANCH  11  25
ATOM     25  O   UNL     1      30.857  10.258  17.152  1.00  0.00    -0.508 OA
ATOM     26  H   UNL     1      31.619  10.913  17.281  1.00  0.00     0.293 HD
ENDBRANCH  11  25
ENDBRANCH   1   2
BRANCH   1  27
ATOM     27  C   UNL     1      29.837   2.467  20.849  1.00  0.00     0.339 C 
ATOM     28  C   UNL     1      28.551   3.107  20.248  1.00  0.00     0.214 C 
ATOM     29  O   UNL     1      30.001   1.092  20.511  1.00  0.00    -0.332 OA
ATOM     30  C   UNL     1      28.085   2.297  19.028  1.00  0.00     0.180 C 
ATOM     31  C   UNL     1      28.776   0.388  20.579  1.00  0.00     0.179 C 
ATOM     32  C   UNL     1      27.840   0.817  19.410  1.00  0.00     0.177 C 
BRANCH  28  33
ATOM     33  O   UNL     1      27.540   3.134  21.228  1.00  0.00    -0.384 OA
ATOM     34  H   UNL     1      27.707   2.372  21.842  1.00  0.00     0.211 HD
ENDBRANCH  28  33
BRANCH  30  35
ATOM     35  O   UNL     1      26.921   2.869  18.492  1.00  0.00    -0.387 OA
ATOM     36  H   UNL     1      27.009   3.852  18.603  1.00  0.00     0.211 HD
ENDBRANCH  30  35
BRANCH  31  37
ATOM     37  C   UNL     1      29.057  -1.124  20.621  1.00  0.00     0.191 C 
BRANCH  37  38
ATOM     38  O   UNL     1      30.303  -1.432  20.055  1.00  0.00    -0.394 OA
ATOM     39  H   UNL     1      30.429  -2.412  20.149  1.00  0.00     0.210 HD
ENDBRANCH  37  38
ENDBRANCH  31  37
BRANCH  32  40
ATOM     40  O   UNL     1      28.043   0.026  18.265  1.00  0.00    -0.387 OA
ATOM     41  H   UNL     1      28.892  -0.471  18.397  1.00  0.00     0.211 HD
ENDBRANCH  32  40
ENDBRANCH   1  27
TORSDOF 12
ENDMDL
MODEL 2
REMARK VINA RESULT:    -8.451      2.211      5.323
REMARK INTER + INTRA:         -13.216
REMARK INTER:                 -12.451
REMARK INTRA:                  -0.765
REMARK UNBOUND:                -0.813
REMARK SMILES O=c1c(O[C@@H]2O[C@H](CO)[C@H](O)[C@@H](O)[C@H]2O)c(-c2ccc(O)c(O)c2)oc2cc(O)cc(O)c12
REMARK SMILES IDX 4 1 3 2 16 3 25 4 2 5 26 6 1 7 33 8 27 9 31 10 28 11 30 12
REMARK SMILES IDX 17 13 18 14 19 15 20 16 24 17 22 18 21 19 23 21 32 23 29 25
REMARK SMILES IDX 5 27 14 28 6 29 12 30 7 31 10 32 15 33 13 35 8 37 9 38 11 40
REMARK H PARENT 21 20 23 22 32 24 29 26 15 34 13 36 9 39 11 41
REMARK Flexibility Score: inf
ROOT
ATOM      1  O   UNL     1      30.198   0.891  20.623  1.00  0.00    -0.454 OA
ENDROOT
BRANCH   1   2
ATOM      2  C   UNL     1      30.290   2.282  20.796  1.00  0.00     0.214 A 
ATOM      3  C   UNL     1      29.178   3.026  21.224  1.00  0.00     0.180 A 
ATOM      4  O   UNL     1      29.256   4.350  21.283  1.00  0.00    -0.452 OA
ATOM      5  C   UNL     1      31.498   2.950  20.541  1.00  0.00     0.239 A 
ATOM      6  C   UNL     1      30.360   5.031  21.003  1.00  0.00     0.146 A 
ATOM      7  O   UNL     1      32.502   2.267  20.217  1.00  0.00    -0.285 OA
ATOM      8  C   UNL     1      31.561   4.362  20.645  1.00  0.00     0.111 A 
ATOM      9  C   UNL     1      30.315   6.425  21.072  1.00  0.00     0.094 A 
ATOM     10  C   UNL     1      32.726   5.150  20.389  1.00  0.00     0.134 A 
ATOM     11  C   UNL     1      31.448   7.185  20.782  1.00  0.00     0.123 A 
ATOM     12  C   UNL     1      32.639   6.547  20.442  1.00  0.00     0.093 A 
BRANCH   3  13
ATOM     13  C   UNL     1      27.900   2.386  21.592  1.00  0.00     0.025 A 
ATOM     14  C   UNL     1      26.698   2.750  20.962  1.00  0.00     0.016 A 
ATOM     15  C   UNL     1      25.496   2.143  21.334  1.00  0.00     0.051 A 
ATOM     16  C   UNL     1      25.480   1.159  22.333  1.00  0.00     0.157 A 
ATOM     17  C   UNL     1      27.884   1.383  22.574  1.00  0.00     0.062 A 
ATOM     18  C   UNL     1      26.682   0.779  22.954  1.00  0.00     0.158 A 
BRANCH  16  19
ATOM     19  O   UNL     1      24.278   0.561  22.709  1.00  0.00    -0.504 OA
ATOM     20  H   UNL     1      23.384   0.993  22.506  1.00  0.00     0.293 HD
ENDBRANCH  16  19
BRANCH  18  21
ATOM     21  O   UNL     1      26.698  -0.193  23.954  1.00  0.00    -0.504 OA
ATOM     22  H   UNL     1      27.494  -0.802  24.100  1.00  0.00     0.293 HD
ENDBRANCH  18  21
ENDBRANCH   3  13
BRANCH  10  23
ATOM     23  O   UNL     1      33.987   4.622  20.093  1.00  0.00    -0.507 OA
ATOM     24  H   UNL     1      34.487   3.943  20.643  1.00  0.00     0.293 HD
ENDBRANCH  10  23
BRANCH  11  25
ATOM     25  O   UNL     1      31.403   8.576  20.834  1.00  0.00    -0.508 OA
ATOM     26  H   UNL     1      30.526   9.075  20.919  1.00  0.00     0.293 HD
ENDBRANCH  11  25
ENDBRANCH   1   2
BRANCH   1  27
ATOM     27  C   UNL     1      29.915   0.267  19.363  1.00  0.00     0.339 C 
ATOM     28  C   UNL     1      28.859   1.101  18.578  1.00  0.00     0.214 C 
ATOM     29  O   UNL     1      31.132   0.070  18.648  1.00  0.00    -0.332 OA
ATOM     30  C   UNL     1      29.559   1.951  17.505  1.00  0.00     0.180 C 
ATOM     31  C   UNL     1      30.895  -0.215  17.283  1.00  0.00     0.179 C 
ATOM     32  C   UNL     1      30.383   1.059  16.546  1.00  0.00     0.177 C 
BRANCH  28  33
ATOM     33  O   UNL     1      27.928   0.232  17.979  1.00  0.00    -0.384 OA
ATOM     34  H   UNL     1      28.433  -0.350  17.353  1.00  0.00     0.211 HD
ENDBRANCH  28  33
BRANCH  30  35
ATOM     35  O   UNL     1      28.606   2.696  16.792  1.00  0.00    -0.387 OA
ATOM     36  H   UNL     1      28.801   3.654  16.969  1.00  0.00     0.211 HD
ENDBRANCH  30  35
BRANCH  31  37
ATOM     37  C   UNL     1      32.165  -0.820  16.659  1.00  0.00     0.191 C 
BRANCH  37  38
ATOM     38  O   UNL     1      32.001  -1.051  15.284  1.00  0.00    -0.394 OA
ATOM     39  H   UNL     1      32.694  -1.711  15.018  1.00  0.00     0.210 HD
ENDBRANCH  37  38
ENDBRANCH  31  37
BRANCH  32  40
ATOM     40  O   UNL     1      31.445   1.825  16.033  1.00  0.00    -0.387 OA
ATOM     41  H   UNL     1      31.045   2.576  15.520  1.00  0.00     0.211 HD
ENDBRANCH  32  40
ENDBRANCH   1  27
TORSDOF 12
ENDMDL
MODEL 3
REMARK VINA RESULT:    -8.259      1.931      4.804
REMARK INTER + INTRA:         -12.935
REMARK INTER:                 -11.721
REMARK INTRA:                  -1.213
REMARK UNBOUND:                -0.813
REMARK SMILES O=c1c(O[C@@H]2O[C@H](CO)[C@H](O)[C@@H](O)[C@H]2O)c(-c2ccc(O)c(O)c2)oc2cc(O)cc(O)c12
REMARK SMILES IDX 4 1 3 2 16 3 25 4 2 5 26 6 1 7 33 8 27 9 31 10 28 11 30 12
REMARK SMILES IDX 17 13 18 14 19 15 20 16 24 17 22 18 21 19 23 21 32 23 29 25
REMARK SMILES IDX 5 27 14 28 6 29 12 30 7 31 10 32 15 33 13 35 8 37 9 38 11 40
REMARK H PARENT 21 20 23 22 32 24 29 26 15 34 13 36 9 39 11 41
REMARK Flexibility Score: inf
ROOT
ATOM      1  O   UNL     1      31.753   2.353  18.857  1.00  0.00    -0.454 OA
ENDROOT
BRANCH   1   2
ATOM      2  C   UNL     1      31.471   3.718  18.680  1.00  0.00     0.214 A 
ATOM      3  C   UNL     1      30.254   4.262  19.122  1.00  0.00     0.180 A 
ATOM      4  O   UNL     1      29.964   5.529  18.855  1.00  0.00    -0.452 OA
ATOM      5  C   UNL     1      32.405   4.560  18.055  1.00  0.00     0.239 A 
ATOM      6  C   UNL     1      30.792   6.351  18.223  1.00  0.00     0.146 A 
ATOM      7  O   UNL     1      33.515   4.076  17.719  1.00  0.00    -0.285 OA
ATOM      8  C   UNL     1      32.082   5.918  17.813  1.00  0.00     0.111 A 
ATOM      9  C   UNL     1      30.366   7.658  17.971  1.00  0.00     0.094 A 
ATOM     10  C   UNL     1      32.940   6.861  17.167  1.00  0.00     0.134 A 
ATOM     11  C   UNL     1      31.199   8.557  17.306  1.00  0.00     0.123 A 
ATOM     12  C   UNL     1      32.472   8.155  16.908  1.00  0.00     0.093 A 
BRANCH   3  13
ATOM     13  C   UNL     1      29.259   3.461  19.861  1.00  0.00     0.025 A 
ATOM     14  C   UNL     1      28.120   2.946  19.220  1.00  0.00     0.016 A 
ATOM     15  C   UNL     1      27.182   2.201  19.939  1.00  0.00     0.051 A 
ATOM     16  C   UNL     1      27.374   1.954  21.306  1.00  0.00     0.157 A 
ATOM     17  C   UNL     1      29.461   3.189  21.224  1.00  0.00     0.062 A 
ATOM     18  C   UNL     1      28.520   2.451  21.949  1.00  0.00     0.158 A 
BRANCH  16  19
ATOM     19  O   UNL     1      26.432   1.218  22.024  1.00  0.00    -0.504 OA
ATOM     20  H   UNL     1      26.346   1.304  23.030  1.00  0.00     0.293 HD
ENDBRANCH  16  19
BRANCH  18  21
ATOM     21  O   UNL     1      28.738   2.226  23.308  1.00  0.00    -0.504 OA
ATOM     22  H   UNL     1      29.376   2.792  23.852  1.00  0.00     0.293 HD
ENDBRANCH  18  21
ENDBRANCH   3  13
BRANCH  10  23
ATOM     23  O   UNL     1      34.255   6.591  16.773  1.00  0.00    -0.507 OA
ATOM     24  H   UNL     1      34.798   7.132  16.120  1.00  0.00     0.293 HD
ENDBRANCH  10  23
BRANCH  11  25
ATOM     25  O   UNL     1      30.772   9.856  17.039  1.00  0.00    -0.508 OA
ATOM     26  H   UNL     1      30.724  10.214  16.093  1.00  0.00     0.293 HD
ENDBRANCH  11  25
ENDBRANCH   1   2
BRANCH   1  27
ATOM     27  C   UNL     1      31.248   1.323  17.997  1.00  0.00     0.339 C 
ATOM     28  C   UNL     1      31.923   1.417  16.597  1.00  0.00     0.214 C 
ATOM     29  O   UNL     1      31.416   0.056  18.627  1.00  0.00    -0.332 OA
ATOM     30  C   UNL     1      33.035   0.362  16.481  1.00  0.00     0.180 C 
ATOM     31  C   UNL     1      31.262  -1.008  17.708  1.00  0.00     0.179 C 
ATOM     32  C   UNL     1      32.475  -1.059  16.731  1.00  0.00     0.177 C 
BRANCH  28  33
ATOM     33  O   UNL     1      30.954   1.212  15.596  1.00  0.00    -0.384 OA
ATOM     34  H   UNL     1      30.282   1.938  15.686  1.00  0.00     0.211 HD
ENDBRANCH  28  33
BRANCH  30  35
ATOM     35  O   UNL     1      33.637   0.441  15.215  1.00  0.00    -0.387 OA
ATOM     36  H   UNL     1      33.946   1.379  15.104  1.00  0.00     0.211 HD
ENDBRANCH  30  35
BRANCH  31  37
ATOM     37  C   UNL     1      31.036  -2.321  18.478  1.00  0.00     0.191 C 
BRANCH  37  38
ATOM     38  O   UNL     1      31.781  -2.356  19.666  1.00  0.00    -0.394 OA
ATOM     39  H   UNL     1      31.139  -2.230  20.413  1.00  0.00     0.210 HD
ENDBRANCH  37  38
ENDBRANCH  31  37
BRANCH  32  40
ATOM     40  O   UNL     1      33.515  -1.861  17.235  1.00  0.00    -0.387 OA
ATOM     41  H   UNL     1      33.850  -1.424  18.061  1.00  0.00     0.211 HD
ENDBRANCH  32  40
ENDBRANCH   1  27
TORSDOF 12
ENDMDL
MODEL 4
REMARK VINA RESULT:    -8.250      2.148      4.932
REMARK INTER + INTRA:         -12.921
REMARK INTER:                 -11.470
REMARK INTRA:                  -1.451
REMARK UNBOUND:                -0.813
REMARK SMILES O=c1c(O[C@@H]2O[C@H](CO)[C@H](O)[C@@H](O)[C@H]2O)c(-c2ccc(O)c(O)c2)oc2cc(O)cc(O)c12
REMARK SMILES IDX 4 1 3 2 16 3 25 4 2 5 26 6 1 7 33 8 27 9 31 10 28 11 30 12
REMARK SMILES IDX 17 13 18 14 19 15 20 16 24 17 22 18 21 19 23 21 32 23 29 25
REMARK SMILES IDX 5 27 14 28 6 29 12 30 7 31 10 32 15 33 13 35 8 37 9 38 11 40
REMARK H PARENT 21 20 23 22 32 24 29 26 15 34 13 36 9 39 11 41
REMARK Flexibility Score: inf
ROOT
ATOM      1  O   UNL     1      30.810   1.676  18.181  1.00  0.00    -0.454 OA
ENDROOT
BRANCH   1   2
ATOM      2  C   UNL     1      30.831   3.081  18.200  1.00  0.00     0.214 A 
ATOM      3  C   UNL     1      29.900   3.802  18.965  1.00  0.00     0.180 A 
ATOM      4  O   UNL     1      29.872   5.127  18.890  1.00  0.00    -0.452 OA
ATOM      5  C   UNL     1      31.785   3.785  17.449  1.00  0.00     0.239 A 
ATOM      6  C   UNL     1      30.720   5.836  18.155  1.00  0.00     0.146 A 
ATOM      7  O   UNL     1      32.651   3.130  16.816  1.00  0.00    -0.285 OA
ATOM      8  C   UNL     1      31.752   5.202  17.414  1.00  0.00     0.111 A 
ATOM      9  C   UNL     1      30.575   7.225  18.131  1.00  0.00     0.094 A 
ATOM     10  C   UNL     1      32.655   6.023  16.670  1.00  0.00     0.134 A 
ATOM     11  C   UNL     1      31.439   8.013  17.371  1.00  0.00     0.123 A 
ATOM     12  C   UNL     1      32.466   7.411  16.647  1.00  0.00     0.093 A 
BRANCH   3  13
ATOM     13  C   UNL     1      28.921   3.133  19.845  1.00  0.00     0.025 A 
ATOM     14  C   UNL     1      27.680   2.699  19.351  1.00  0.00     0.016 A 
ATOM     15  C   UNL     1      26.761   2.079  20.202  1.00  0.00     0.051 A 
ATOM     16  C   UNL     1      27.072   1.879  21.554  1.00  0.00     0.157 A 
ATOM     17  C   UNL     1      29.241   2.908  21.193  1.00  0.00     0.062 A 
ATOM     18  C   UNL     1      28.320   2.296  22.049  1.00  0.00     0.158 A 
BRANCH  16  19
ATOM     19  O   UNL     1      26.150   1.269  22.403  1.00  0.00    -0.504 OA
ATOM     20  H   UNL     1      26.215   1.361  23.410  1.00  0.00     0.293 HD
ENDBRANCH  16  19
BRANCH  18  21
ATOM     21  O   UNL     1      28.658   2.114  23.390  1.00  0.00    -0.504 OA
ATOM     22  H   UNL     1      29.135   2.828  23.926  1.00  0.00     0.293 HD
ENDBRANCH  18  21
ENDBRANCH   3  13
BRANCH  10  23
ATOM     23  O   UNL     1      33.754   5.540  15.952  1.00  0.00    -0.507 OA
ATOM     24  H   UNL     1      34.276   4.704  16.162  1.00  0.00     0.293 HD
ENDBRANCH  10  23
BRANCH  11  25
ATOM     25  O   UNL     1      31.288   9.397  17.331  1.00  0.00    -0.508 OA
ATOM     26  H   UNL     1      32.047  10.020  17.580  1.00  0.00     0.293 HD
ENDBRANCH  11  25
ENDBRANCH   1   2
BRANCH   1  27
ATOM     27  C   UNL     1      31.568   0.861  19.084  1.00  0.00     0.339 C 
ATOM     28  C   UNL     1      30.628  -0.138  19.821  1.00  0.00     0.214 C 
ATOM     29  O   UNL     1      32.629   0.228  18.373  1.00  0.00    -0.332 OA
ATOM     30  C   UNL     1      30.732  -1.528  19.171  1.00  0.00     0.180 C 
ATOM     31  C   UNL     1      33.191  -0.838  19.114  1.00  0.00     0.179 C 
ATOM     32  C   UNL     1      32.194  -2.034  19.181  1.00  0.00     0.177 C 
BRANCH  28  33
ATOM     33  O   UNL     1      30.993  -0.209  21.178  1.00  0.00    -0.384 OA
ATOM     34  H   UNL     1      30.926   0.710  21.548  1.00  0.00     0.211 HD
ENDBRANCH  28  33
BRANCH  30  35
ATOM     35  O   UNL     1      29.891  -2.431  19.841  1.00  0.00    -0.387 OA
ATOM     36  H   UNL     1      29.031  -1.958  19.997  1.00  0.00     0.211 HD
ENDBRANCH  30  35
BRANCH  31  37
ATOM     37  C   UNL     1      34.560  -1.209  18.520  1.00  0.00     0.191 C 
BRANCH  37  38
ATOM     38  O   UNL     1      34.555  -1.117  17.119  1.00  0.00    -0.394 OA
ATOM     39  H   UNL     1      35.163  -1.826  16.781  1.00  0.00     0.210 HD
ENDBRANCH  37  38
ENDBRANCH  31  37
BRANCH  32  40
ATOM     40  O   UNL     1      32.365  -2.914  18.097  1.00  0.00    -0.387 OA
ATOM     41  H   UNL     1      31.615  -2.753  17.466  1.00  0.00     0.211 HD
ENDBRANCH  32  40
ENDBRANCH   1  27
TORSDOF 12
ENDMDL
MODEL 5
REMARK VINA RESULT:    -8.158      2.104      4.838
REMARK INTER + INTRA:         -12.787
REMARK INTER:                 -11.724
REMARK INTRA:                  -1.063
REMARK UNBOUND:                -0.813
REMARK SMILES O=c1c(O[C@@H]2O[C@H](CO)[C@H](O)[C@@H](O)[C@H]2O)c(-c2ccc(O)c(O)c2)oc2cc(O)cc(O)c12
REMARK SMILES IDX 4 1 3 2 16 3 25 4 2 5 26 6 1 7 33 8 27 9 31 10 28 11 30 12
REMARK SMILES IDX 17 13 18 14 19 15 20 16 24 17 22 18 21 19 23 21 32 23 29 25
REMARK SMILES IDX 5 27 14 28 6 29 12 30 7 31 10 32 15 33 13 35 8 37 9 38 11 40
REMARK H PARENT 21 20 23 22 32 24 29 26 15 34 13 36 9 39 11 41
REMARK Flexibility Score: inf
ROOT
ATOM      1  O   UNL     1      29.566   2.289  17.691  1.00  0.00    -0.454 OA
ENDROOT
BRANCH   1   2
ATOM      2  C   UNL     1      29.912   3.377  18.509  1.00  0.00     0.214 A 
ATOM      3  C   UNL     1      29.196   3.644  19.688  1.00  0.00     0.180 A 
ATOM      4  O   UNL     1      29.471   4.734  20.393  1.00  0.00    -0.452 OA
ATOM      5  C   UNL     1      30.980   4.217  18.158  1.00  0.00     0.239 A 
ATOM      6  C   UNL     1      30.438   5.586  20.075  1.00  0.00     0.146 A 
ATOM      7  O   UNL     1      31.652   3.933  17.135  1.00  0.00    -0.285 OA
ATOM      8  C   UNL     1      31.274   5.356  18.949  1.00  0.00     0.111 A 
ATOM      9  C   UNL     1      30.617   6.716  20.876  1.00  0.00     0.094 A 
ATOM     10  C   UNL     1      32.320   6.292  18.679  1.00  0.00     0.134 A 
ATOM     11  C   UNL     1      31.616   7.642  20.579  1.00  0.00     0.123 A 
ATOM     12  C   UNL     1      32.455   7.427  19.488  1.00  0.00     0.093 A 
BRANCH   3  13
ATOM     13  C   UNL     1      28.115   2.760  20.167  1.00  0.00     0.025 A 
ATOM     14  C   UNL     1      26.995   2.482  19.365  1.00  0.00     0.016 A 
ATOM     15  C   UNL     1      25.976   1.653  19.841  1.00  0.00     0.051 A 
ATOM     16  C   UNL     1      26.065   1.085  21.119  1.00  0.00     0.157 A 
ATOM     17  C   UNL     1      28.214   2.169  21.436  1.00  0.00     0.062 A 
ATOM     18  C   UNL     1      27.191   1.346  21.919  1.00  0.00     0.158 A 
BRANCH  16  19
ATOM     19  O   UNL     1      25.043   0.266  21.596  1.00  0.00    -0.504 OA
ATOM     20  H   UNL     1      24.302  -0.065  20.989  1.00  0.00     0.293 HD
ENDBRANCH  16  19
BRANCH  18  21
ATOM     21  O   UNL     1      27.308   0.800  23.197  1.00  0.00    -0.504 OA
ATOM     22  H   UNL     1      28.025   0.124  23.430  1.00  0.00     0.293 HD
ENDBRANCH  18  21
ENDBRANCH   3  13
BRANCH  10  23
ATOM     23  O   UNL     1      33.256   6.155  17.648  1.00  0.00    -0.507 OA
ATOM     24  H   UNL     1      33.450   6.838  16.933  1.00  0.00     0.293 HD
ENDBRANCH  10  23
BRANCH  11  25
ATOM     25  O   UNL     1      31.788   8.778  21.366  1.00  0.00    -0.508 OA
ATOM     26  H   UNL     1      31.089   9.067  22.040  1.00  0.00     0.293 HD
ENDBRANCH  11  25
ENDBRANCH   1   2
BRANCH   1  27
ATOM     27  C   UNL     1      30.141   0.983  17.827  1.00  0.00     0.339 C 
ATOM     28  C   UNL     1      31.442   1.057  18.681  1.00  0.00     0.214 C 
ATOM     29  O   UNL     1      29.165   0.087  18.351  1.00  0.00    -0.332 OA
ATOM     30  C   UNL     1      31.149   0.599  20.119  1.00  0.00     0.180 C 
ATOM     31  C   UNL     1      29.754  -1.108  18.827  1.00  0.00     0.179 C 
ATOM     32  C   UNL     1      30.559  -0.832  20.132  1.00  0.00     0.177 C 
BRANCH  28  33
ATOM     33  O   UNL     1      32.429   0.237  18.102  1.00  0.00    -0.384 OA
ATOM     34  H   UNL     1      32.460  -0.602  18.631  1.00  0.00     0.211 HD
ENDBRANCH  28  33
BRANCH  30  35
ATOM     35  O   UNL     1      32.323   0.657  20.885  1.00  0.00    -0.387 OA
ATOM     36  H   UNL     1      32.565   1.618  20.966  1.00  0.00     0.211 HD
ENDBRANCH  30  35
BRANCH  31  37
ATOM     37  C   UNL     1      28.668  -2.186  18.988  1.00  0.00     0.191 C 
BRANCH  37  38
ATOM     38  O   UNL     1      27.451  -1.630  19.412  1.00  0.00    -0.394 OA
ATOM     39  H   UNL     1      27.345  -1.865  20.371  1.00  0.00     0.210 HD
ENDBRANCH  37  38
ENDBRANCH  31  37
BRANCH  32  40
ATOM     40  O   UNL     1      29.754  -0.967  21.277  1.00  0.00    -0.387 OA
ATOM     41  H   UNL     1      30.288  -1.456  21.957  1.00  0.00     0.211 HD
ENDBRANCH  32  40
ENDBRANCH   1  27
TORSDOF 12
ENDMDL
MODEL 6
REMARK VINA RESULT:    -8.144      2.175      6.530
REMARK INTER + INTRA:         -12.766
REMARK INTER:                 -11.538
REMARK INTRA:                  -1.228
REMARK UNBOUND:                -0.813
REMARK SMILES O=c1c(O[C@@H]2O[C@H](CO)[C@H](O)[C@@H](O)[C@H]2O)c(-c2ccc(O)c(O)c2)oc2cc(O)cc(O)c12
REMARK SMILES IDX 4 1 3 2 16 3 25 4 2 5 26 6 1 7 33 8 27 9 31 10 28 11 30 12
REMARK SMILES IDX 17 13 18 14 19 15 20 16 24 17 22 18 21 19 23 21 32 23 29 25
REMARK SMILES IDX 5 27 14 28 6 29 12 30 7 31 10 32 15 33 13 35 8 37 9 38 11 40
REMARK H PARENT 21 20 23 22 32 24 29 26 15 34 13 36 9 39 11 41
REMARK Flexibility Score: inf
ROOT
ATOM      1  O   UNL     1      31.201   1.774  20.840  1.00  0.00    -0.454 OA
ENDROOT
BRANCH   1   2
ATOM      2  C   UNL     1      29.815   1.971  20.959  1.00  0.00     0.214 A 
ATOM      3  C   UNL     1      29.266   3.263  20.894  1.00  0.00     0.180 A 
ATOM      4  O   UNL     1      27.969   3.438  21.110  1.00  0.00    -0.452 OA
ATOM      5  C   UNL     1      28.957   0.877  21.149  1.00  0.00     0.239 A 
ATOM      6  C   UNL     1      27.125   2.441  21.343  1.00  0.00     0.146 A 
ATOM      7  O   UNL     1      29.452  -0.278  21.144  1.00  0.00    -0.285 OA
ATOM      8  C   UNL     1      27.570   1.091  21.344  1.00  0.00     0.111 A 
ATOM      9  C   UNL     1      25.784   2.749  21.586  1.00  0.00     0.094 A 
ATOM     10  C   UNL     1      26.606   0.060  21.566  1.00  0.00     0.134 A 
ATOM     11  C   UNL     1      24.861   1.736  21.841  1.00  0.00     0.123 A 
ATOM     12  C   UNL     1      25.274   0.406  21.832  1.00  0.00     0.093 A 
BRANCH   3  13
ATOM     13  C   UNL     1      30.093   4.453  20.614  1.00  0.00     0.025 A 
ATOM     14  C   UNL     1      30.840   5.074  21.630  1.00  0.00     0.016 A 
ATOM     15  C   UNL     1      31.606   6.208  21.348  1.00  0.00     0.051 A 
ATOM     16  C   UNL     1      31.643   6.732  20.049  1.00  0.00     0.157 A 
ATOM     17  C   UNL     1      30.152   4.965  19.308  1.00  0.00     0.062 A 
ATOM     18  C   UNL     1      30.911   6.105  19.025  1.00  0.00     0.158 A 
BRANCH  16  19
ATOM     19  O   UNL     1      32.400   7.869  19.772  1.00  0.00    -0.504 OA
ATOM     20  H   UNL     1      33.165   7.849  19.107  1.00  0.00     0.293 HD
ENDBRANCH  16  19
BRANCH  18  21
ATOM     21  O   UNL     1      30.924   6.604  17.723  1.00  0.00    -0.504 OA
ATOM     22  H   UNL     1      31.706   6.457  17.097  1.00  0.00     0.293 HD
ENDBRANCH  18  21
ENDBRANCH   3  13
BRANCH  10  23
ATOM     23  O   UNL     1      26.890  -1.309  21.527  1.00  0.00    -0.507 OA
ATOM     24  H   UNL     1      26.253  -2.036  21.243  1.00  0.00     0.293 HD
ENDBRANCH  10  23
BRANCH  11  25
ATOM     25  O   UNL     1      23.526   2.040  22.099  1.00  0.00    -0.508 OA
ATOM     26  H   UNL     1      22.791   1.358  21.960  1.00  0.00     0.293 HD
ENDBRANCH  11  25
ENDBRANCH   1   2
BRANCH   1  27
ATOM     27  C   UNL     1      31.848   1.429  19.609  1.00  0.00     0.339 C 
ATOM     28  C   UNL     1      30.792   0.971  18.559  1.00  0.00     0.214 C 
ATOM     29  O   UNL     1      32.649   2.523  19.171  1.00  0.00    -0.332 OA
ATOM     30  C   UNL     1      30.500   2.117  17.577  1.00  0.00     0.180 C 
ATOM     31  C   UNL     1      33.030   2.382  17.816  1.00  0.00     0.179 C 
ATOM     32  C   UNL     1      31.799   2.592  16.884  1.00  0.00     0.177 C 
BRANCH  28  33
ATOM     33  O   UNL     1      31.279  -0.152  17.864  1.00  0.00    -0.384 OA
ATOM     34  H   UNL     1      31.907  -0.623  18.472  1.00  0.00     0.211 HD
ENDBRANCH  28  33
BRANCH  30  35
ATOM     35  O   UNL     1      29.555   1.701  16.627  1.00  0.00    -0.387 OA
ATOM     36  H   UNL     1      29.153   0.861  16.972  1.00  0.00     0.211 HD
ENDBRANCH  30  35
BRANCH  31  37
ATOM     37  C   UNL     1      34.203   3.331  17.512  1.00  0.00     0.191 C 
BRANCH  37  38
ATOM     38  O   UNL     1      34.026   4.580  18.128  1.00  0.00    -0.394 OA
ATOM     39  H   UNL     1      33.613   5.178  17.452  1.00  0.00     0.210 HD
ENDBRANCH  37  38
ENDBRANCH  31  37
BRANCH  32  40
ATOM     40  O   UNL     1      31.642   3.944  16.528  1.00  0.00    -0.387 OA
ATOM     41  H   UNL     1      32.478   4.229  16.076  1.00  0.00     0.211 HD
ENDBRANCH  32  40
ENDBRANCH   1  27
TORSDOF 12
ENDMDL
MODEL 7
REMARK VINA RESULT:    -8.104      2.245      5.036
REMARK INTER + INTRA:         -12.707
REMARK INTER:                 -11.532
REMARK INTRA:                  -1.175
REMARK UNBOUND:                -0.813
REMARK SMILES O=c1c(O[C@@H]2O[C@H](CO)[C@H](O)[C@@H](O)[C@H]2O)c(-c2ccc(O)c(O)c2)oc2cc(O)cc(O)c12
REMARK SMILES IDX 4 1 3 2 16 3 25 4 2 5 26 6 1 7 33 8 27 9 31 10 28 11 30 12
REMARK SMILES IDX 17 13 18 14 19 15 20 16 24 17 22 18 21 19 23 21 32 23 29 25
REMARK SMILES IDX 5 27 14 28 6 29 12 30 7 31 10 32 15 33 13 35 8 37 9 38 11 40
REMARK H PARENT 21 20 23 22 32 24 29 26 15 34 13 36 9 39 11 41
REMARK Flexibility Score: inf
ROOT
ATOM      1  O   UNL     1      30.407   1.893  18.779  1.00  0.00    -0.454 OA
ENDROOT
BRANCH   1   2
ATOM      2  C   UNL     1      30.489   3.160  19.381  1.00  0.00     0.214 A 
ATOM      3  C   UNL     1      29.507   3.587  20.290  1.00  0.00     0.180 A 
ATOM      4  O   UNL     1      29.547   4.825  20.768  1.00  0.00    -0.452 OA
ATOM      5  C   UNL     1      31.556   4.020  19.078  1.00  0.00     0.239 A 
ATOM      6  C   UNL     1      30.507   5.692  20.473  1.00  0.00     0.146 A 
ATOM      7  O   UNL     1      32.460   3.604  18.311  1.00  0.00    -0.285 OA
ATOM      8  C   UNL     1      31.591   5.325  19.631  1.00  0.00     0.111 A 
ATOM      9  C   UNL     1      30.429   6.978  21.014  1.00  0.00     0.094 A 
ATOM     10  C   UNL     1      32.612   6.293  19.379  1.00  0.00     0.134 A 
ATOM     11  C   UNL     1      31.411   7.926  20.729  1.00  0.00     0.123 A 
ATOM     12  C   UNL     1      32.489   7.581  19.916  1.00  0.00     0.093 A 
BRANCH   3  13
ATOM     13  C   UNL     1      28.402   2.709  20.721  1.00  0.00     0.025 A 
ATOM     14  C   UNL     1      27.237   2.574  19.946  1.00  0.00     0.016 A 
ATOM     15  C   UNL     1      26.196   1.749  20.378  1.00  0.00     0.051 A 
ATOM     16  C   UNL     1      26.307   1.042  21.584  1.00  0.00     0.157 A 
ATOM     17  C   UNL     1      28.521   1.980  21.914  1.00  0.00     0.062 A 
ATOM     18  C   UNL     1      27.477   1.160  22.354  1.00  0.00     0.158 A 
BRANCH  16  19
ATOM     19  O   UNL     1      25.263   0.226  22.017  1.00  0.00    -0.504 OA
ATOM     20  H   UNL     1      24.346   0.263  21.586  1.00  0.00     0.293 HD
ENDBRANCH  16  19
BRANCH  18  21
ATOM     21  O   UNL     1      27.616   0.473  23.559  1.00  0.00    -0.504 OA
ATOM     22  H   UNL     1      27.477   0.924  24.455  1.00  0.00     0.293 HD
ENDBRANCH  18  21
ENDBRANCH   3  13
BRANCH  10  23
ATOM     23  O   UNL     1      33.765   6.048  18.626  1.00  0.00    -0.507 OA
ATOM     24  H   UNL     1      34.652   6.514  18.735  1.00  0.00     0.293 HD
ENDBRANCH  10  23
BRANCH  11  25
ATOM     25  O   UNL     1      31.329   9.213  21.253  1.00  0.00    -0.508 OA
ATOM     26  H   UNL     1      30.456   9.727  21.262  1.00  0.00     0.293 HD
ENDBRANCH  11  25
ENDBRANCH   1   2
BRANCH   1  27
ATOM     27  C   UNL     1      31.344   0.837  19.028  1.00  0.00     0.339 C 
ATOM     28  C   UNL     1      30.763  -0.159  20.075  1.00  0.00     0.214 C 
ATOM     29  O   UNL     1      31.703   0.222  17.794  1.00  0.00    -0.332 OA
ATOM     30  C   UNL     1      30.214  -1.405  19.362  1.00  0.00     0.180 C 
ATOM     31  C   UNL     1      32.340  -1.025  17.997  1.00  0.00     0.179 C 
ATOM     32  C   UNL     1      31.313  -2.080  18.508  1.00  0.00     0.177 C 
BRANCH  28  33
ATOM     33  O   UNL     1      31.773  -0.525  20.984  1.00  0.00    -0.384 OA
ATOM     34  H   UNL     1      32.290   0.296  21.193  1.00  0.00     0.211 HD
ENDBRANCH  28  33
BRANCH  30  35
ATOM     35  O   UNL     1      29.698  -2.306  20.307  1.00  0.00    -0.387 OA
ATOM     36  H   UNL     1      29.818  -3.217  19.929  1.00  0.00     0.211 HD
ENDBRANCH  30  35
BRANCH  31  37
ATOM     37  C   UNL     1      33.067  -1.445  16.708  1.00  0.00     0.191 C 
BRANCH  37  38
ATOM     38  O   UNL     1      32.336  -1.086  15.565  1.00  0.00    -0.394 OA
ATOM     39  H   UNL     1      32.556  -1.751  14.862  1.00  0.00     0.210 HD
ENDBRANCH  37  38
ENDBRANCH  31  37
BRANCH  32  40
ATOM     40  O   UNL     1      30.692  -2.757  17.443  1.00  0.00    -0.387 OA
ATOM     41  H   UNL     1      31.312  -3.475  17.148  1.00  0.00     0.211 HD
ENDBRANCH  32  40
ENDBRANCH   1  27
TORSDOF 12
ENDMDL
MODEL 8
REMARK VINA RESULT:    -8.042      1.782      5.947
REMARK INTER + INTRA:         -12.616
REMARK INTER:                 -11.612
REMARK INTRA:                  -1.005
REMARK UNBOUND:                -0.813
REMARK SMILES O=c1c(O[C@@H]2O[C@H](CO)[C@H](O)[C@@H](O)[C@H]2O)c(-c2ccc(O)c(O)c2)oc2cc(O)cc(O)c12
REMARK SMILES IDX 4 1 3 2 16 3 25 4 2 5 26 6 1 7 33 8 27 9 31 10 28 11 30 12
REMARK SMILES IDX 17 13 18 14 19 15 20 16 24 17 22 18 21 19 23 21 32 23 29 25
REMARK SMILES IDX 5 27 14 28 6 29 12 30 7 31 10 32 15 33 13 35 8 37 9 38 11 40
REMARK H PARENT 21 20 23 22 32 24 29 26 15 34 13 36 9 39 11 41
REMARK Flexibility Score: inf
ROOT
ATOM      1  O   UNL     1      30.301   2.544  20.757  1.00  0.00    -0.454 OA
ENDROOT
BRANCH   1   2
ATOM      2  C   UNL     1      31.339   2.500  19.811  1.00  0.00     0.214 A 
ATOM      3  C   UNL     1      31.882   3.684  19.286  1.00  0.00     0.180 A 
ATOM      4  O   UNL     1      32.790   3.621  18.320  1.00  0.00    -0.452 OA
ATOM      5  C   UNL     1      31.849   1.267  19.375  1.00  0.00     0.239 A 
ATOM      6  C   UNL     1      33.266   2.479  17.839  1.00  0.00     0.146 A 
ATOM      7  O   UNL     1      31.399   0.216  19.897  1.00  0.00    -0.285 OA
ATOM      8  C   UNL     1      32.843   1.230  18.366  1.00  0.00     0.111 A 
ATOM      9  C   UNL     1      34.199   2.535  16.800  1.00  0.00     0.094 A 
ATOM     10  C   UNL     1      33.420   0.037  17.829  1.00  0.00     0.134 A 
ATOM     11  C   UNL     1      34.725   1.363  16.259  1.00  0.00     0.123 A 
ATOM     12  C   UNL     1      34.334   0.129  16.771  1.00  0.00     0.093 A 
BRANCH   3  13
ATOM     13  C   UNL     1      31.457   5.018  19.756  1.00  0.00     0.025 A 
ATOM     14  C   UNL     1      31.571   5.382  21.108  1.00  0.00     0.016 A 
ATOM     15  C   UNL     1      31.150   6.644  21.535  1.00  0.00     0.051 A 
ATOM     16  C   UNL     1      30.619   7.561  20.618  1.00  0.00     0.157 A 
ATOM     17  C   UNL     1      30.948   5.947  18.835  1.00  0.00     0.062 A 
ATOM     18  C   UNL     1      30.518   7.208  19.261  1.00  0.00     0.158 A 
BRANCH  16  19
ATOM     19  O   UNL     1      30.191   8.816  21.049  1.00  0.00    -0.504 OA
ATOM     20  H   UNL     1      30.512   9.668  20.602  1.00  0.00     0.293 HD
ENDBRANCH  16  19
BRANCH  18  21
ATOM     21  O   UNL     1      29.991   8.096  18.325  1.00  0.00    -0.504 OA
ATOM     22  H   UNL     1      29.013   8.361  18.325  1.00  0.00     0.293 HD
ENDBRANCH  18  21
ENDBRANCH   3  13
BRANCH  10  23
ATOM     23  O   UNL     1      33.147  -1.252  18.297  1.00  0.00    -0.507 OA
ATOM     24  H   UNL     1      32.881  -1.496  19.237  1.00  0.00     0.293 HD
ENDBRANCH  10  23
BRANCH  11  25
ATOM     25  O   UNL     1      35.644   1.414  15.213  1.00  0.00    -0.508 OA
ATOM     26  H   UNL     1      35.439   1.009  14.308  1.00  0.00     0.293 HD
ENDBRANCH  11  25
ENDBRANCH   1   2
BRANCH   1  27
ATOM     27  C   UNL     1      28.915   2.642  20.405  1.00  0.00     0.339 C 
ATOM     28  C   UNL     1      28.676   2.028  18.994  1.00  0.00     0.214 C 
ATOM     29  O   UNL     1      28.123   2.044  21.428  1.00  0.00    -0.332 OA
ATOM     30  C   UNL     1      28.090   0.614  19.132  1.00  0.00     0.180 C 
ATOM     31  C   UNL     1      26.800   1.801  20.990  1.00  0.00     0.179 C 
ATOM     32  C   UNL     1      26.779   0.637  19.954  1.00  0.00     0.177 C 
BRANCH  28  33
ATOM     33  O   UNL     1      27.792   2.851  18.270  1.00  0.00    -0.384 OA
ATOM     34  H   UNL     1      27.339   3.443  18.925  1.00  0.00     0.211 HD
ENDBRANCH  28  33
BRANCH  30  35
ATOM     35  O   UNL     1      27.867   0.064  17.859  1.00  0.00    -0.387 OA
ATOM     36  H   UNL     1      28.402   0.603  17.218  1.00  0.00     0.211 HD
ENDBRANCH  30  35
BRANCH  31  37
ATOM     37  C   UNL     1      25.894   1.557  22.209  1.00  0.00     0.191 C 
BRANCH  37  38
ATOM     38  O   UNL     1      24.579   1.256  21.820  1.00  0.00    -0.394 OA
ATOM     39  H   UNL     1      23.983   1.879  22.312  1.00  0.00     0.210 HD
ENDBRANCH  37  38
ENDBRANCH  31  37
BRANCH  32  40
ATOM     40  O   UNL     1      26.628  -0.613  20.579  1.00  0.00    -0.387 OA
ATOM     41  H   UNL     1      27.296  -1.227  20.176  1.00  0.00     0.211 HD
ENDBRANCH  32  40
ENDBRANCH   1  27
TORSDOF 12
ENDMDL
MODEL 9
REMARK VINA RESULT:    -6.745      2.533      4.422
REMARK INTER + INTRA:         -10.712
REMARK INTER:                  -9.509
REMARK INTRA:                  -1.203
REMARK UNBOUND:                -0.813
REMARK SMILES O=c1c(O[C@@H]2O[C@H](CO)[C@H](O)[C@@H](O)[C@H]2O)c(-c2ccc(O)c(O)c2)oc2cc(O)cc(O)c12
REMARK SMILES IDX 4 1 3 2 16 3 25 4 2 5 26 6 1 7 33 8 27 9 31 10 28 11 30 12
REMARK SMILES IDX 17 13 18 14 19 15 20 16 24 17 22 18 21 19 23 21 32 23 29 25
REMARK SMILES IDX 5 27 14 28 6 29 12 30 7 31 10 32 15 33 13 35 8 37 9 38 11 40
REMARK H PARENT 21 20 23 22 32 24 29 26 15 34 13 36 9 39 11 41
REMARK Flexibility Score: inf
ROOT
ATOM      1  O   UNL     1      29.233   0.391  17.835  1.00  0.00    -0.454 OA
ENDROOT
BRANCH   1   2
ATOM      2  C   UNL     1      30.398   1.154  17.654  1.00  0.00     0.214 A 
ATOM      3  C   UNL     1      31.644   0.529  17.474  1.00  0.00     0.180 A 
ATOM      4  O   UNL     1      32.746   1.266  17.407  1.00  0.00    -0.452 OA
ATOM      5  C   UNL     1      30.335   2.556  17.652  1.00  0.00     0.239 A 
ATOM      6  C   UNL     1      32.743   2.592  17.451  1.00  0.00     0.146 A 
ATOM      7  O   UNL     1      29.208   3.103  17.752  1.00  0.00    -0.285 OA
ATOM      8  C   UNL     1      31.525   3.318  17.544  1.00  0.00     0.111 A 
ATOM      9  C   UNL     1      33.969   3.261  17.401  1.00  0.00     0.094 A 
ATOM     10  C   UNL     1      31.586   4.746  17.552  1.00  0.00     0.134 A 
ATOM     11  C   UNL     1      34.017   4.653  17.449  1.00  0.00     0.123 A 
ATOM     12  C   UNL     1      32.833   5.384  17.526  1.00  0.00     0.093 A 
BRANCH   3  13
ATOM     13  C   UNL     1      31.780  -0.938  17.381  1.00  0.00     0.025 A 
ATOM     14  C   UNL     1      31.838  -1.584  16.135  1.00  0.00     0.016 A 
ATOM     15  C   UNL     1      31.953  -2.975  16.067  1.00  0.00     0.051 A 
ATOM     16  C   UNL     1      32.019  -3.737  17.242  1.00  0.00     0.157 A 
ATOM     17  C   UNL     1      31.872  -1.701  18.555  1.00  0.00     0.062 A 
ATOM     18  C   UNL     1      31.979  -3.094  18.492  1.00  0.00     0.158 A 
BRANCH  16  19
ATOM     19  O   UNL     1      32.124  -5.125  17.172  1.00  0.00    -0.504 OA
ATOM     20  H   UNL     1      31.386  -5.731  17.512  1.00  0.00     0.293 HD
ENDBRANCH  16  19
BRANCH  18  21
ATOM     21  O   UNL     1      32.038  -3.824  19.678  1.00  0.00    -0.504 OA
ATOM     22  H   UNL     1      32.499  -3.468  20.507  1.00  0.00     0.293 HD
ENDBRANCH  18  21
ENDBRANCH   3  13
BRANCH  10  23
ATOM     23  O   UNL     1      30.467   5.585  17.572  1.00  0.00    -0.507 OA
ATOM     24  H   UNL     1      30.087   6.082  16.783  1.00  0.00     0.293 HD
ENDBRANCH  10  23
BRANCH  11  25
ATOM     25  O   UNL     1      35.238   5.323  17.415  1.00  0.00    -0.508 OA
ATOM     26  H   UNL     1      36.096   4.848  17.162  1.00  0.00     0.293 HD
ENDBRANCH  11  25
ENDBRANCH   1   2
BRANCH   1  27
ATOM     27  C   UNL     1      28.842  -0.169  19.096  1.00  0.00     0.339 C 
ATOM     28  C   UNL     1      29.559   0.579  20.259  1.00  0.00     0.214 C 
ATOM     29  O   UNL     1      27.421  -0.156  19.200  1.00  0.00    -0.332 OA
ATOM     30  C   UNL     1      28.595   1.588  20.904  1.00  0.00     0.180 C 
ATOM     31  C   UNL     1      26.993  -0.367  20.531  1.00  0.00     0.179 C 
ATOM     32  C   UNL     1      27.313   0.881  21.407  1.00  0.00     0.177 C 
BRANCH  28  33
ATOM     33  O   UNL     1      29.996  -0.356  21.217  1.00  0.00    -0.384 OA
ATOM     34  H   UNL     1      30.029  -1.241  20.769  1.00  0.00     0.211 HD
ENDBRANCH  28  33
BRANCH  30  35
ATOM     35  O   UNL     1      29.239   2.255  21.957  1.00  0.00    -0.387 OA
ATOM     36  H   UNL     1      29.154   3.228  21.774  1.00  0.00     0.211 HD
ENDBRANCH  30  35
BRANCH  31  37
ATOM     37  C   UNL     1      25.504  -0.757  20.535  1.00  0.00     0.191 C 
BRANCH  37  38
ATOM     38  O   UNL     1      24.778  -0.023  19.584  1.00  0.00    -0.394 OA
ATOM     39  H   UNL     1      24.954  -0.441  18.701  1.00  0.00     0.210 HD
ENDBRANCH  37  38
ENDBRANCH  31  37
BRANCH  32  40
ATOM     40  O   UNL     1      26.259   1.812  21.389  1.00  0.00    -0.387 OA
ATOM     41  H   UNL     1      26.549   2.574  20.821  1.00  0.00     0.211 HD
ENDBRANCH  32  40
ENDBRANCH   1  27
TORSDOF 12
ENDMDL
