MODEL 1
REMARK VINA RESULT:    -4.160      0.000      0.000
REMARK INTER + INTRA:          -6.596
REMARK INTER:                  -6.106
REMARK INTRA:                  -0.490
REMARK UNBOUND:                -0.490
REMARK SMILES O=C([O-])CCCCCCCC(=O)[O-]
REMARK SMILES IDX 7 1 6 2 5 3 4 4 2 5 1 6 3 7 8 8 9 9 10 10 11 11 12 12 13 13
REMARK H PARENT
REMARK Flexibility Score: inf
ROOT
ATOM      1  C   UNL     1     191.904 195.148 191.141  1.00  0.00     0.000 C 
ENDROOT
BRANCH   1   2
ATOM      2  C   UNL     1     191.075 195.198 192.436  1.00  0.00     0.000 C 
BRANCH   2   3
ATOM      3  C   UNL     1     191.025 196.605 193.051  1.00  0.00     0.006 C 
BRANCH   3   4
ATOM      4  C   UNL     1     191.155 197.714 191.998  1.00  0.00     0.053 C 
BRANCH   4   5
ATOM      5  C   UNL     1     192.251 198.661 192.371  1.00  0.00     0.041 C 
ATOM      6  O   UNL     1     192.915 198.480 193.425  1.00  0.00    -0.550 OA
ATOM      7  O   UNL     1     192.508 199.773 191.578  1.00  0.00    -0.550 OA
ENDBRANCH   4   5
ENDBRANCH   3   4
ENDBRANCH   2   3
ENDBRANCH   1   2
BRANCH   1   8
ATOM      8  C   UNL     1     192.739 193.863 191.021  1.00  0.00     0.000 C 
BRANCH   8   9
ATOM      9  C   UNL     1     192.039 192.645 191.646  1.00  0.00     0.006 C 
BRANCH   9  10
ATOM     10  C   UNL     1     191.155 191.903 190.634  1.00  0.00     0.053 C 
BRANCH  10  11
ATOM     11  C   UNL     1     189.708 191.949 191.022  1.00  0.00     0.041 C 
ATOM     12  O   UNL     1     188.923 192.751 190.452  1.00  0.00    -0.550 OA
ATOM     13  O   UNL     1     189.222 191.084 191.993  1.00  0.00    -0.550 OA
ENDBRANCH  10  11
ENDBRANCH   9  10
ENDBRANCH   8   9
ENDBRANCH   1   8
TORSDOF 8
ENDMDL
MODEL 2
REMARK VINA RESULT:    -4.152      1.380      6.684
REMARK INTER + INTRA:          -6.584
REMARK INTER:                  -6.203
REMARK INTRA:                  -0.380
REMARK UNBOUND:                -0.490
REMARK SMILES O=C([O-])CCCCCCCC(=O)[O-]
REMARK SMILES IDX 7 1 6 2 5 3 4 4 2 5 1 6 3 7 8 8 9 9 10 10 11 11 12 12 13 13
REMARK H PARENT
REMARK Flexibility Score: inf
ROOT
ATOM      1  C   UNL     1     190.994 195.867 192.966  1.00  0.00     0.000 C 
ENDROOT
BRANCH   1   2
ATOM      2  C   UNL     1     191.528 195.577 191.552  1.00  0.00     0.000 C 
BRANCH   2   3
ATOM      3  C   UNL     1     192.718 194.605 191.558  1.00  0.00     0.006 C 
BRANCH   3   4
ATOM      4  C   UNL     1     192.459 193.349 190.715  1.00  0.00     0.053 C 
BRANCH   4   5
ATOM      5  C   UNL     1     191.511 192.434 191.421  1.00  0.00     0.041 C 
ATOM      6  O   UNL     1     191.941 191.596 192.256  1.00  0.00    -0.550 OA
ATOM      7  O   UNL     1     190.154 192.472 191.121  1.00  0.00    -0.550 OA
ENDBRANCH   4   5
ENDBRANCH   3   4
ENDBRANCH   2   3
ENDBRANCH   1   2
BRANCH   1   8
ATOM      8  C   UNL     1     190.829 197.370 193.240  1.00  0.00     0.000 C 
BRANCH   8   9
ATOM      9  C   UNL     1     191.673 198.239 192.293  1.00  0.00     0.006 C 
BRANCH   9  10
ATOM     10  C   UNL     1     192.923 198.802 192.983  1.00  0.00     0.053 C 
BRANCH  10  11
ATOM     11  C   UNL     1     193.287 200.156 192.456  1.00  0.00     0.041 C 
ATOM     12  O   UNL     1     193.686 201.057 193.240  1.00  0.00    -0.550 OA
ATOM     13  O   UNL     1     193.212 200.414 191.093  1.00  0.00    -0.550 OA
ENDBRANCH  10  11
ENDBRANCH   9  10
ENDBRANCH   8   9
ENDBRANCH   1   8
TORSDOF 8
ENDMDL
MODEL 3
REMARK VINA RESULT:    -4.121      1.142      6.486
REMARK INTER + INTRA:          -6.539
REMARK INTER:                  -6.169
REMARK INTRA:                  -0.370
REMARK UNBOUND:                -0.490
REMARK SMILES O=C([O-])CCCCCCCC(=O)[O-]
REMARK SMILES IDX 7 1 6 2 5 3 4 4 2 5 1 6 3 7 8 8 9 9 10 10 11 11 12 12 13 13
REMARK H PARENT
REMARK Flexibility Score: inf
ROOT
ATOM      1  C   UNL     1     191.554 195.532 191.394  1.00  0.00     0.000 C 
ENDROOT
BRANCH   1   2
ATOM      2  C   UNL     1     192.636 194.488 191.068  1.00  0.00     0.000 C 
BRANCH   2   3
ATOM      3  C   UNL     1     192.247 193.074 191.526  1.00  0.00     0.006 C 
BRANCH   3   4
ATOM      4  C   UNL     1     190.795 192.719 191.178  1.00  0.00     0.053 C 
BRANCH   4   5
ATOM      5  C   UNL     1     190.108 192.115 192.360  1.00  0.00     0.041 C 
ATOM      6  O   UNL     1     190.272 192.605 193.508  1.00  0.00    -0.550 OA
ATOM      7  O   UNL     1     189.324 190.978 192.203  1.00  0.00    -0.550 OA
ENDBRANCH   4   5
ENDBRANCH   3   4
ENDBRANCH   2   3
ENDBRANCH   1   2
BRANCH   1   8
ATOM      8  C   UNL     1     191.908 196.391 192.619  1.00  0.00     0.000 C 
BRANCH   8   9
ATOM      9  C   UNL     1     191.252 197.781 192.575  1.00  0.00     0.006 C 
BRANCH   9  10
ATOM     10  C   UNL     1     191.766 198.627 191.401  1.00  0.00     0.053 C 
BRANCH  10  11
ATOM     11  C   UNL     1     192.737 199.673 191.854  1.00  0.00     0.041 C 
ATOM     12  O   UNL     1     192.965 200.682 191.135  1.00  0.00    -0.550 OA
ATOM     13  O   UNL     1     193.369 199.548 193.085  1.00  0.00    -0.550 OA
ENDBRANCH  10  11
ENDBRANCH   9  10
ENDBRANCH   8   9
ENDBRANCH   1   8
TORSDOF 8
ENDMDL
MODEL 4
REMARK VINA RESULT:    -4.119      3.465      4.603
REMARK INTER + INTRA:          -6.536
REMARK INTER:                  -6.049
REMARK INTRA:                  -0.487
REMARK UNBOUND:                -0.490
REMARK SMILES O=C([O-])CCCCCCCC(=O)[O-]
REMARK SMILES IDX 7 1 6 2 5 3 4 4 2 5 1 6 3 7 8 8 9 9 10 10 11 11 12 12 13 13
REMARK H PARENT
REMARK Flexibility Score: inf
ROOT
ATOM      1  C   UNL     1     191.512 196.014 192.690  1.00  0.00     0.000 C 
ENDROOT
BRANCH   1   2
ATOM      2  C   UNL     1     191.508 196.190 191.161  1.00  0.00     0.000 C 
BRANCH   2   3
ATOM      3  C   UNL     1     191.432 197.665 190.738  1.00  0.00     0.006 C 
BRANCH   3   4
ATOM      4  C   UNL     1     191.552 198.628 191.927  1.00  0.00     0.053 C 
BRANCH   4   5
ATOM      5  C   UNL     1     192.634 199.631 191.678  1.00  0.00     0.041 C 
ATOM      6  O   UNL     1     192.934 199.960 190.501  1.00  0.00    -0.550 OA
ATOM      7  O   UNL     1     193.344 200.166 192.746  1.00  0.00    -0.550 OA
ENDBRANCH   4   5
ENDBRANCH   3   4
ENDBRANCH   2   3
ENDBRANCH   1   2
BRANCH   1   8
ATOM      8  C   UNL     1     190.417 195.052 193.178  1.00  0.00     0.000 C 
BRANCH   8   9
ATOM      9  C   UNL     1     189.755 195.525 194.483  1.00  0.00     0.006 C 
BRANCH   9  10
ATOM     10  C   UNL     1     189.721 197.056 194.592  1.00  0.00     0.053 C 
BRANCH  10  11
ATOM     11  C   UNL     1     188.612 197.525 195.483  1.00  0.00     0.041 C 
ATOM     12  O   UNL     1     187.412 197.291 195.180  1.00  0.00    -0.550 OA
ATOM     13  O   UNL     1     188.905 198.194 196.664  1.00  0.00    -0.550 OA
ENDBRANCH  10  11
ENDBRANCH   9  10
ENDBRANCH   8   9
ENDBRANCH   1   8
TORSDOF 8
ENDMDL
MODEL 5
REMARK VINA RESULT:    -4.115      1.682      2.735
REMARK INTER + INTRA:          -6.530
REMARK INTER:                  -5.944
REMARK INTRA:                  -0.586
REMARK UNBOUND:                -0.490
REMARK SMILES O=C([O-])CCCCCCCC(=O)[O-]
REMARK SMILES IDX 7 1 6 2 5 3 4 4 2 5 1 6 3 7 8 8 9 9 10 10 11 11 12 12 13 13
REMARK H PARENT
REMARK Flexibility Score: inf
ROOT
ATOM      1  C   UNL     1     191.537 192.448 190.886  1.00  0.00     0.000 C 
ENDROOT
BRANCH   1   2
ATOM      2  C   UNL     1     192.667 193.406 191.305  1.00  0.00     0.000 C 
BRANCH   2   3
ATOM      3  C   UNL     1     192.198 194.866 191.397  1.00  0.00     0.006 C 
BRANCH   3   4
ATOM      4  C   UNL     1     191.036 195.052 192.382  1.00  0.00     0.053 C 
BRANCH   4   5
ATOM      5  C   UNL     1     191.102 196.404 193.018  1.00  0.00     0.041 C 
ATOM      6  O   UNL     1     191.967 197.238 192.644  1.00  0.00    -0.550 OA
ATOM      7  O   UNL     1     190.238 196.726 194.057  1.00  0.00    -0.550 OA
ENDBRANCH   4   5
ENDBRANCH   3   4
ENDBRANCH   2   3
ENDBRANCH   1   2
BRANCH   1   8
ATOM      8  C   UNL     1     191.459 191.199 191.778  1.00  0.00     0.000 C 
BRANCH   8   9
ATOM      9  C   UNL     1     190.508 191.386 192.972  1.00  0.00     0.006 C 
BRANCH   9  10
ATOM     10  C   UNL     1     189.115 191.860 192.534  1.00  0.00     0.053 C 
BRANCH  10  11
ATOM     11  C   UNL     1     188.244 190.715 192.117  1.00  0.00     0.041 C 
ATOM     12  O   UNL     1     187.422 190.854 191.173  1.00  0.00    -0.550 OA
ATOM     13  O   UNL     1     188.361 189.485 192.752  1.00  0.00    -0.550 OA
ENDBRANCH  10  11
ENDBRANCH   9  10
ENDBRANCH   8   9
ENDBRANCH   1   8
TORSDOF 8
ENDMDL
MODEL 6
REMARK VINA RESULT:    -4.100      2.983      3.481
REMARK INTER + INTRA:          -6.507
REMARK INTER:                  -6.083
REMARK INTRA:                  -0.424
REMARK UNBOUND:                -0.490
REMARK SMILES O=C([O-])CCCCCCCC(=O)[O-]
REMARK SMILES IDX 7 1 6 2 5 3 4 4 2 5 1 6 3 7 8 8 9 9 10 10 11 11 12 12 13 13
REMARK H PARENT
REMARK Flexibility Score: inf
ROOT
ATOM      1  C   UNL     1     191.594 195.647 191.398  1.00  0.00     0.000 C 
ENDROOT
BRANCH   1   2
ATOM      2  C   UNL     1     191.228 196.569 192.575  1.00  0.00     0.000 C 
BRANCH   2   3
ATOM      3  C   UNL     1     192.200 197.749 192.725  1.00  0.00     0.006 C 
BRANCH   3   4
ATOM      4  C   UNL     1     191.768 198.977 191.913  1.00  0.00     0.053 C 
BRANCH   4   5
ATOM      5  C   UNL     1     192.922 199.908 191.720  1.00  0.00     0.041 C 
ATOM      6  O   UNL     1     193.445 200.483 192.710  1.00  0.00    -0.550 OA
ATOM      7  O   UNL     1     193.390 200.179 190.440  1.00  0.00    -0.550 OA
ENDBRANCH   4   5
ENDBRANCH   3   4
ENDBRANCH   2   3
ENDBRANCH   1   2
BRANCH   1   8
ATOM      8  C   UNL     1     191.444 194.157 191.745  1.00  0.00     0.000 C 
BRANCH   8   9
ATOM      9  C   UNL     1     192.539 193.289 191.103  1.00  0.00     0.006 C 
BRANCH   9  10
ATOM     10  C   UNL     1     193.813 194.092 190.805  1.00  0.00     0.053 C 
BRANCH  10  11
ATOM     11  C   UNL     1     194.769 194.065 191.958  1.00  0.00     0.041 C 
ATOM     12  O   UNL     1     195.618 193.141 192.057  1.00  0.00    -0.550 OA
ATOM     13  O   UNL     1     194.741 195.078 192.907  1.00  0.00    -0.550 OA
ENDBRANCH  10  11
ENDBRANCH   9  10
ENDBRANCH   8   9
ENDBRANCH   1   8
TORSDOF 8
ENDMDL
MODEL 7
REMARK VINA RESULT:    -4.047      1.757      2.693
REMARK INTER + INTRA:          -6.430
REMARK INTER:                  -5.896
REMARK INTRA:                  -0.534
REMARK UNBOUND:                -0.490
REMARK SMILES O=C([O-])CCCCCCCC(=O)[O-]
REMARK SMILES IDX 7 1 6 2 5 3 4 4 2 5 1 6 3 7 8 8 9 9 10 10 11 11 12 12 13 13
REMARK H PARENT
REMARK Flexibility Score: inf
ROOT
ATOM      1  C   UNL     1     191.482 192.142 190.816  1.00  0.00     0.000 C 
ENDROOT
BRANCH   1   2
ATOM      2  C   UNL     1     192.214 193.462 191.115  1.00  0.00     0.000 C 
BRANCH   2   3
ATOM      3  C   UNL     1     191.248 194.604 191.470  1.00  0.00     0.006 C 
BRANCH   3   4
ATOM      4  C   UNL     1     191.935 195.740 192.238  1.00  0.00     0.053 C 
BRANCH   4   5
ATOM      5  C   UNL     1     191.297 197.052 191.910  1.00  0.00     0.041 C 
ATOM      6  O   UNL     1     191.226 197.441 190.715  1.00  0.00    -0.550 OA
ATOM      7  O   UNL     1     190.823 197.869 192.929  1.00  0.00    -0.550 OA
ENDBRANCH   4   5
ENDBRANCH   3   4
ENDBRANCH   2   3
ENDBRANCH   1   2
BRANCH   1   8
ATOM      8  C   UNL     1     191.493 191.176 192.012  1.00  0.00     0.000 C 
BRANCH   8   9
ATOM      9  C   UNL     1     190.199 191.246 192.839  1.00  0.00     0.006 C 
BRANCH   9  10
ATOM     10  C   UNL     1     188.950 191.341 191.951  1.00  0.00     0.053 C 
BRANCH  10  11
ATOM     11  C   UNL     1     188.135 192.559 192.267  1.00  0.00     0.041 C 
ATOM     12  O   UNL     1     188.432 193.282 193.255  1.00  0.00    -0.550 OA
ATOM     13  O   UNL     1     187.066 192.910 191.453  1.00  0.00    -0.550 OA
ENDBRANCH  10  11
ENDBRANCH   9  10
ENDBRANCH   8   9
ENDBRANCH   1   8
TORSDOF 8
ENDMDL
MODEL 8
REMARK VINA RESULT:    -4.047      1.447      6.039
REMARK INTER + INTRA:          -6.430
REMARK INTER:                  -5.802
REMARK INTRA:                  -0.628
REMARK UNBOUND:                -0.490
REMARK SMILES O=C([O-])CCCCCCCC(=O)[O-]
REMARK SMILES IDX 7 1 6 2 5 3 4 4 2 5 1 6 3 7 8 8 9 9 10 10 11 11 12 12 13 13
REMARK H PARENT
REMARK Flexibility Score: inf
ROOT
ATOM      1  C   UNL     1     191.681 192.403 190.873  1.00  0.00     0.000 C 
ENDROOT
BRANCH   1   2
ATOM      2  C   UNL     1     191.374 191.348 191.951  1.00  0.00     0.000 C 
BRANCH   2   3
ATOM      3  C   UNL     1     190.405 191.868 193.025  1.00  0.00     0.006 C 
BRANCH   3   4
ATOM      4  C   UNL     1     189.104 192.421 192.429  1.00  0.00     0.053 C 
BRANCH   4   5
ATOM      5  C   UNL     1     188.323 191.327 191.775  1.00  0.00     0.041 C 
ATOM      6  O   UNL     1     187.999 190.301 192.428  1.00  0.00    -0.550 OA
ATOM      7  O   UNL     1     187.994 191.417 190.428  1.00  0.00    -0.550 OA
ENDBRANCH   4   5
ENDBRANCH   3   4
ENDBRANCH   2   3
ENDBRANCH   1   2
BRANCH   1   8
ATOM      8  C   UNL     1     192.536 193.563 191.406  1.00  0.00     0.000 C 
BRANCH   8   9
ATOM      9  C   UNL     1     191.907 194.937 191.125  1.00  0.00     0.006 C 
BRANCH   9  10
ATOM     10  C   UNL     1     191.368 195.599 192.402  1.00  0.00     0.053 C 
BRANCH  10  11
ATOM     11  C   UNL     1     191.375 197.094 192.298  1.00  0.00     0.041 C 
ATOM     12  O   UNL     1     191.604 197.799 193.316  1.00  0.00    -0.550 OA
ATOM     13  O   UNL     1     191.157 197.706 191.071  1.00  0.00    -0.550 OA
ENDBRANCH  10  11
ENDBRANCH   9  10
ENDBRANCH   8   9
ENDBRANCH   1   8
TORSDOF 8
ENDMDL
MODEL 9
REMARK VINA RESULT:    -3.869      2.355      2.856
REMARK INTER + INTRA:          -6.168
REMARK INTER:                  -5.825
REMARK INTRA:                  -0.343
REMARK UNBOUND:                -0.490
REMARK SMILES O=C([O-])CCCCCCCC(=O)[O-]
REMARK SMILES IDX 7 1 6 2 5 3 4 4 2 5 1 6 3 7 8 8 9 9 10 10 11 11 12 12 13 13
REMARK H PARENT
REMARK Flexibility Score: inf
ROOT
ATOM      1  C   UNL     1     191.562 195.904 191.361  1.00  0.00     0.000 C 
ENDROOT
BRANCH   1   2
ATOM      2  C   UNL     1     191.958 196.729 192.599  1.00  0.00     0.000 C 
BRANCH   2   3
ATOM      3  C   UNL     1     190.760 197.448 193.236  1.00  0.00     0.006 C 
BRANCH   3   4
ATOM      4  C   UNL     1     189.983 196.552 194.210  1.00  0.00     0.053 C 
BRANCH   4   5
ATOM      5  C   UNL     1     189.234 197.385 195.201  1.00  0.00     0.041 C 
ATOM      6  O   UNL     1     189.836 197.906 196.175  1.00  0.00    -0.550 OA
ATOM      7  O   UNL     1     187.860 197.547 195.074  1.00  0.00    -0.550 OA
ENDBRANCH   4   5
ENDBRANCH   3   4
ENDBRANCH   2   3
ENDBRANCH   1   2
BRANCH   1   8
ATOM      8  C   UNL     1     191.973 194.427 191.478  1.00  0.00     0.000 C 
BRANCH   8   9
ATOM      9  C   UNL     1     190.761 193.481 191.539  1.00  0.00     0.006 C 
BRANCH   9  10
ATOM     10  C   UNL     1     191.165 192.011 191.354  1.00  0.00     0.053 C 
BRANCH  10  11
ATOM     11  C   UNL     1     190.425 191.110 192.294  1.00  0.00     0.041 C 
ATOM     12  O   UNL     1     189.188 190.921 192.151  1.00  0.00    -0.550 OA
ATOM     13  O   UNL     1     191.107 190.455 193.311  1.00  0.00    -0.550 OA
ENDBRANCH  10  11
ENDBRANCH   9  10
ENDBRANCH   8   9
ENDBRANCH   1   8
TORSDOF 8
ENDMDL
