MODEL 1
REMARK VINA RESULT:    -6.233      0.000      0.000
REMARK INTER + INTRA:          -6.233
REMARK INTER:                  -6.233
REMARK INTRA:                   0.000
REMARK UNBOUND:                 0.000
REMARK SMILES CC1=CC(=O)[C@@H]2C[C@H]1C2(C)C
REMARK SMILES IDX 1 1 2 2 3 3 4 4 5 5 6 6 7 7 8 8 9 9 10 10 11 11
REMARK H PARENT
REMARK Flexibility Score: inf
ROOT
ATOM      1  C   UNL     1     -27.829  22.427  15.713  1.00  0.00     0.040 C 
ATOM      2  C   UNL     1     -28.305  22.979  14.407  1.00  0.00    -0.066 C 
ATOM      3  C   UNL     1     -27.430  23.314  13.419  1.00  0.00     0.047 C 
ATOM      4  C   UNL     1     -28.032  23.829  12.146  1.00  0.00     0.159 C 
ATOM      5  O   UNL     1     -27.332  24.135  11.146  1.00  0.00    -0.295 OA
ATOM      6  C   UNL     1     -29.556  23.955  12.147  1.00  0.00     0.067 C 
ATOM      7  C   UNL     1     -29.878  24.628  13.500  1.00  0.00     0.021 C 
ATOM      8  C   UNL     1     -29.803  23.215  14.122  1.00  0.00     0.022 C 
ATOM      9  C   UNL     1     -30.161  22.641  12.721  1.00  0.00    -0.019 C 
ATOM     10  C   UNL     1     -31.691  22.549  12.493  1.00  0.00     0.012 C 
ATOM     11  C   UNL     1     -29.523  21.288  12.296  1.00  0.00     0.012 C 
ENDROOT
TORSDOF 0
ENDMDL
MODEL 2
REMARK VINA RESULT:    -6.201     16.116     17.479
REMARK INTER + INTRA:          -6.201
REMARK INTER:                  -6.201
REMARK INTRA:                   0.000
REMARK UNBOUND:                 0.000
REMARK SMILES CC1=CC(=O)[C@@H]2C[C@H]1C2(C)C
REMARK SMILES IDX 1 1 2 2 3 3 4 4 5 5 6 6 7 7 8 8 9 9 10 10 11 11
REMARK H PARENT
REMARK Flexibility Score: inf
ROOT
ATOM      1  C   UNL     1     -19.812  36.400  14.881  1.00  0.00     0.040 C 
ATOM      2  C   UNL     1     -18.927  36.115  13.709  1.00  0.00    -0.066 C 
ATOM      3  C   UNL     1     -19.440  35.953  12.458  1.00  0.00     0.047 C 
ATOM      4  C   UNL     1     -18.448  35.701  11.363  1.00  0.00     0.159 C 
ATOM      5  O   UNL     1     -18.793  35.575  10.159  1.00  0.00    -0.295 OA
ATOM      6  C   UNL     1     -16.988  35.610  11.810  1.00  0.00     0.067 C 
ATOM      7  C   UNL     1     -17.032  34.701  13.058  1.00  0.00     0.021 C 
ATOM      8  C   UNL     1     -17.399  35.969  13.861  1.00  0.00     0.022 C 
ATOM      9  C   UNL     1     -16.686  36.804  12.759  1.00  0.00    -0.019 C 
ATOM     10  C   UNL     1     -15.170  36.971  13.032  1.00  0.00     0.012 C 
ATOM     11  C   UNL     1     -17.272  38.199  12.400  1.00  0.00     0.012 C 
ENDROOT
TORSDOF 0
ENDMDL
MODEL 3
REMARK VINA RESULT:    -6.131      1.243      1.413
REMARK INTER + INTRA:          -6.131
REMARK INTER:                  -6.131
REMARK INTRA:                   0.000
REMARK UNBOUND:                 0.000
REMARK SMILES CC1=CC(=O)[C@@H]2C[C@H]1C2(C)C
REMARK SMILES IDX 1 1 2 2 3 3 4 4 5 5 6 6 7 7 8 8 9 9 10 10 11 11
REMARK H PARENT
REMARK Flexibility Score: inf
ROOT
ATOM      1  C   UNL     1     -26.299  22.903  14.065  1.00  0.00     0.040 C 
ATOM      2  C   UNL     1     -27.601  23.349  13.480  1.00  0.00    -0.066 C 
ATOM      3  C   UNL     1     -27.658  24.353  12.562  1.00  0.00     0.047 C 
ATOM      4  C   UNL     1     -29.018  24.688  12.029  1.00  0.00     0.159 C 
ATOM      5  O   UNL     1     -29.197  25.569  11.147  1.00  0.00    -0.295 OA
ATOM      6  C   UNL     1     -30.172  23.884  12.629  1.00  0.00     0.067 C 
ATOM      7  C   UNL     1     -29.896  23.902  14.148  1.00  0.00     0.021 C 
ATOM      8  C   UNL     1     -28.942  22.712  13.900  1.00  0.00     0.022 C 
ATOM      9  C   UNL     1     -29.778  22.379  12.631  1.00  0.00    -0.019 C 
ATOM     10  C   UNL     1     -30.983  21.455  12.943  1.00  0.00     0.012 C 
ATOM     11  C   UNL     1     -29.035  21.809  11.390  1.00  0.00     0.012 C 
ENDROOT
TORSDOF 0
ENDMDL
MODEL 4
REMARK VINA RESULT:    -6.038      1.846      2.758
REMARK INTER + INTRA:          -6.038
REMARK INTER:                  -6.038
REMARK INTRA:                   0.000
REMARK UNBOUND:                 0.000
REMARK SMILES CC1=CC(=O)[C@@H]2C[C@H]1C2(C)C
REMARK SMILES IDX 1 1 2 2 3 3 4 4 5 5 6 6 7 7 8 8 9 9 10 10 11 11
REMARK H PARENT
REMARK Flexibility Score: inf
ROOT
ATOM      1  C   UNL     1     -26.462  23.250  15.245  1.00  0.00     0.040 C 
ATOM      2  C   UNL     1     -27.377  23.013  14.086  1.00  0.00    -0.066 C 
ATOM      3  C   UNL     1     -28.129  21.881  13.997  1.00  0.00     0.047 C 
ATOM      4  C   UNL     1     -29.028  21.775  12.803  1.00  0.00     0.159 C 
ATOM      5  O   UNL     1     -29.801  20.796  12.627  1.00  0.00    -0.295 OA
ATOM      6  C   UNL     1     -28.943  22.938  11.814  1.00  0.00     0.067 C 
ATOM      7  C   UNL     1     -27.427  23.175  11.639  1.00  0.00     0.021 C 
ATOM      8  C   UNL     1     -27.500  24.025  12.928  1.00  0.00     0.022 C 
ATOM      9  C   UNL     1     -29.003  24.272  12.612  1.00  0.00    -0.019 C 
ATOM     10  C   UNL     1     -29.220  25.500  11.692  1.00  0.00     0.012 C 
ATOM     11  C   UNL     1     -29.997  24.375  13.803  1.00  0.00     0.012 C 
ENDROOT
TORSDOF 0
ENDMDL
MODEL 5
REMARK VINA RESULT:    -5.910     16.136     17.112
REMARK INTER + INTRA:          -5.910
REMARK INTER:                  -5.910
REMARK INTRA:                   0.000
REMARK UNBOUND:                 0.000
REMARK SMILES CC1=CC(=O)[C@@H]2C[C@H]1C2(C)C
REMARK SMILES IDX 1 1 2 2 3 3 4 4 5 5 6 6 7 7 8 8 9 9 10 10 11 11
REMARK H PARENT
REMARK Flexibility Score: inf
ROOT
ATOM      1  C   UNL     1     -20.217  36.356  14.917  1.00  0.00     0.040 C 
ATOM      2  C   UNL     1     -19.255  36.518  13.784  1.00  0.00    -0.066 C 
ATOM      3  C   UNL     1     -18.292  37.480  13.804  1.00  0.00     0.047 C 
ATOM      4  C   UNL     1     -17.371  37.521  12.622  1.00  0.00     0.159 C 
ATOM      5  O   UNL     1     -16.416  38.338  12.541  1.00  0.00    -0.295 OA
ATOM      6  C   UNL     1     -17.669  36.500  11.524  1.00  0.00     0.067 C 
ATOM      7  C   UNL     1     -19.199  36.589  11.332  1.00  0.00     0.021 C 
ATOM      8  C   UNL     1     -19.318  35.620  12.530  1.00  0.00     0.022 C 
ATOM      9  C   UNL     1     -17.889  35.110  12.186  1.00  0.00    -0.019 C 
ATOM     10  C   UNL     1     -17.906  33.959  11.149  1.00  0.00     0.012 C 
ATOM     11  C   UNL     1     -16.954  34.695  13.358  1.00  0.00     0.012 C 
ENDROOT
TORSDOF 0
ENDMDL
MODEL 6
REMARK VINA RESULT:    -5.896     17.128     18.300
REMARK INTER + INTRA:          -5.896
REMARK INTER:                  -5.896
REMARK INTRA:                   0.000
REMARK UNBOUND:                 0.000
REMARK SMILES CC1=CC(=O)[C@@H]2C[C@H]1C2(C)C
REMARK SMILES IDX 1 1 2 2 3 3 4 4 5 5 6 6 7 7 8 8 9 9 10 10 11 11
REMARK H PARENT
REMARK Flexibility Score: inf
ROOT
ATOM      1  C   UNL     1     -18.703  37.082  10.404  1.00  0.00     0.040 C 
ATOM      2  C   UNL     1     -17.810  36.821  11.575  1.00  0.00    -0.066 C 
ATOM      3  C   UNL     1     -16.475  37.086  11.521  1.00  0.00     0.047 C 
ATOM      4  C   UNL     1     -15.693  36.809  12.769  1.00  0.00     0.159 C 
ATOM      5  O   UNL     1     -14.461  37.050  12.859  1.00  0.00    -0.295 OA
ATOM      6  C   UNL     1     -16.497  36.216  13.927  1.00  0.00     0.067 C 
ATOM      7  C   UNL     1     -17.346  35.107  13.268  1.00  0.00     0.021 C 
ATOM      8  C   UNL     1     -18.349  36.221  12.890  1.00  0.00     0.022 C 
ATOM      9  C   UNL     1     -17.805  37.041  14.095  1.00  0.00    -0.019 C 
ATOM     10  C   UNL     1     -18.544  36.711  15.417  1.00  0.00     0.012 C 
ATOM     11  C   UNL     1     -17.725  38.588  13.956  1.00  0.00     0.012 C 
ENDROOT
TORSDOF 0
ENDMDL
MODEL 7
REMARK VINA RESULT:    -5.896      1.996      3.348
REMARK INTER + INTRA:          -5.896
REMARK INTER:                  -5.896
REMARK INTRA:                   0.000
REMARK UNBOUND:                 0.000
REMARK SMILES CC1=CC(=O)[C@@H]2C[C@H]1C2(C)C
REMARK SMILES IDX 1 1 2 2 3 3 4 4 5 5 6 6 7 7 8 8 9 9 10 10 11 11
REMARK H PARENT
REMARK Flexibility Score: inf
ROOT
ATOM      1  C   UNL     1     -27.901  22.489  10.321  1.00  0.00     0.040 C 
ATOM      2  C   UNL     1     -28.819  22.739  11.475  1.00  0.00    -0.066 C 
ATOM      3  C   UNL     1     -30.155  22.493  11.384  1.00  0.00     0.047 C 
ATOM      4  C   UNL     1     -30.963  22.756  12.618  1.00  0.00     0.159 C 
ATOM      5  O   UNL     1     -32.200  22.530  12.673  1.00  0.00    -0.295 OA
ATOM      6  C   UNL     1     -30.180  23.316  13.807  1.00  0.00     0.067 C 
ATOM      7  C   UNL     1     -29.301  24.426  13.190  1.00  0.00     0.021 C 
ATOM      8  C   UNL     1     -28.303  23.306  12.815  1.00  0.00     0.022 C 
ATOM      9  C   UNL     1     -28.887  22.470  13.990  1.00  0.00    -0.019 C 
ATOM     10  C   UNL     1     -28.176  22.765  15.335  1.00  0.00     0.012 C 
ATOM     11  C   UNL     1     -28.984  20.928  13.818  1.00  0.00     0.012 C 
ENDROOT
TORSDOF 0
ENDMDL
MODEL 8
REMARK VINA RESULT:    -5.797      1.285      2.995
REMARK INTER + INTRA:          -5.797
REMARK INTER:                  -5.797
REMARK INTRA:                   0.000
REMARK UNBOUND:                 0.000
REMARK SMILES CC1=CC(=O)[C@@H]2C[C@H]1C2(C)C
REMARK SMILES IDX 1 1 2 2 3 3 4 4 5 5 6 6 7 7 8 8 9 9 10 10 11 11
REMARK H PARENT
REMARK Flexibility Score: inf
ROOT
ATOM      1  C   UNL     1     -29.314  26.139  12.732  1.00  0.00     0.040 C 
ATOM      2  C   UNL     1     -29.236  24.646  12.774  1.00  0.00    -0.066 C 
ATOM      3  C   UNL     1     -29.003  23.917  11.647  1.00  0.00     0.047 C 
ATOM      4  C   UNL     1     -28.918  22.431  11.826  1.00  0.00     0.159 C 
ATOM      5  O   UNL     1     -28.668  21.652  10.869  1.00  0.00    -0.295 OA
ATOM      6  C   UNL     1     -29.155  21.928  13.250  1.00  0.00     0.067 C 
ATOM      7  C   UNL     1     -30.401  22.707  13.724  1.00  0.00     0.021 C 
ATOM      8  C   UNL     1     -29.436  23.859  14.086  1.00  0.00     0.022 C 
ATOM      9  C   UNL     1     -28.310  22.794  14.228  1.00  0.00    -0.019 C 
ATOM     10  C   UNL     1     -28.249  22.186  15.652  1.00  0.00     0.012 C 
ATOM     11  C   UNL     1     -26.867  23.189  13.805  1.00  0.00     0.012 C 
ENDROOT
TORSDOF 0
ENDMDL
MODEL 9
REMARK VINA RESULT:    -5.702     16.016     17.353
REMARK INTER + INTRA:          -5.702
REMARK INTER:                  -5.702
REMARK INTRA:                   0.000
REMARK UNBOUND:                 0.000
REMARK SMILES CC1=CC(=O)[C@@H]2C[C@H]1C2(C)C
REMARK SMILES IDX 1 1 2 2 3 3 4 4 5 5 6 6 7 7 8 8 9 9 10 10 11 11
REMARK H PARENT
REMARK Flexibility Score: inf
ROOT
ATOM      1  C   UNL     1     -16.218  38.570  12.652  1.00  0.00     0.040 C 
ATOM      2  C   UNL     1     -17.078  37.390  12.977  1.00  0.00    -0.066 C 
ATOM      3  C   UNL     1     -18.109  37.487  13.862  1.00  0.00     0.047 C 
ATOM      4  C   UNL     1     -18.914  36.242  14.081  1.00  0.00     0.159 C 
ATOM      5  O   UNL     1     -19.916  36.214  14.843  1.00  0.00    -0.295 OA
ATOM      6  C   UNL     1     -18.435  35.009  13.313  1.00  0.00     0.067 C 
ATOM      7  C   UNL     1     -16.905  35.004  13.523  1.00  0.00     0.021 C 
ATOM      8  C   UNL     1     -16.828  36.004  12.347  1.00  0.00     0.022 C 
ATOM      9  C   UNL     1     -18.175  35.417  11.835  1.00  0.00    -0.019 C 
ATOM     10  C   UNL     1     -17.971  34.189  10.911  1.00  0.00     0.012 C 
ATOM     11  C   UNL     1     -19.182  36.381  11.147  1.00  0.00     0.012 C 
ENDROOT
TORSDOF 0
ENDMDL
