MODEL 1
REMARK VINA RESULT:    -4.561      0.000      0.000
REMARK INTER + INTRA:          -5.440
REMARK INTER:                  -5.760
REMARK INTRA:                   0.320
REMARK UNBOUND:                 0.320
REMARK SMILES Oc1cc(O)cc(CCc2ccccc2O)c1
REMARK SMILES IDX 9 1 10 2 12 3 13 4 11 5 14 6 15 7 16 8 8 10 7 11 6 12 17 13
REMARK SMILES IDX 4 14 2 15 3 16 5 17 1 19
REMARK H PARENT 16 9 5 18 1 20
REMARK Flexibility Score: inf
ROOT
ATOM      1  C   UNL     1      11.904 -11.747 -29.071  1.00  0.00     0.044 C 
ENDROOT
BRANCH   1   2
ATOM      2  C   UNL     1      13.075 -11.747 -28.116  1.00  0.00    -0.006 A 
ATOM      3  C   UNL     1      14.882 -12.958 -27.030  1.00  0.00     0.001 A 
ATOM      4  C   UNL     1      15.317 -11.778 -26.423  1.00  0.00     0.004 A 
ATOM      5  C   UNL     1      13.771 -12.944 -27.875  1.00  0.00     0.007 A 
ATOM      6  C   UNL     1      14.641 -10.580 -26.662  1.00  0.00     0.046 A 
ATOM      7  C   UNL     1      13.522 -10.554 -27.508  1.00  0.00     0.118 A 
BRANCH   7   8
ATOM      8  O   UNL     1      12.862  -9.350 -27.751  1.00  0.00    -0.508 OA
ATOM      9  H   UNL     1      12.888  -8.586 -27.086  1.00  0.00     0.293 HD
ENDBRANCH   7   8
ENDBRANCH   1   2
BRANCH   1  10
ATOM     10  C   UNL     1      10.657 -12.386 -28.442  1.00  0.00     0.040 C 
BRANCH  10  11
ATOM     11  C   UNL     1      10.730 -12.391 -26.936  1.00  0.00    -0.040 A 
ATOM     12  C   UNL     1      10.970 -13.588 -26.245  1.00  0.00     0.050 A 
ATOM     13  C   UNL     1      10.622 -11.189 -26.218  1.00  0.00     0.050 A 
ATOM     14  C   UNL     1      11.091 -13.586 -24.848  1.00  0.00     0.119 A 
ATOM     15  C   UNL     1      10.744 -11.185 -24.825  1.00  0.00     0.119 A 
ATOM     16  C   UNL     1      10.976 -12.385 -24.141  1.00  0.00     0.092 A 
BRANCH  14  17
ATOM     17  O   UNL     1      11.329 -14.772 -24.155  1.00  0.00    -0.508 OA
ATOM     18  H   UNL     1      10.834 -15.626 -24.382  1.00  0.00     0.293 HD
ENDBRANCH  14  17
BRANCH  15  19
ATOM     19  O   UNL     1      10.637  -9.981 -24.130  1.00  0.00    -0.508 OA
ATOM     20  H   UNL     1       9.979  -9.265 -24.411  1.00  0.00     0.293 HD
ENDBRANCH  15  19
ENDBRANCH  10  11
ENDBRANCH   1  10
TORSDOF 6
ENDMDL
MODEL 2
REMARK VINA RESULT:    -4.345      0.114      2.037
REMARK INTER + INTRA:          -5.168
REMARK INTER:                  -5.507
REMARK INTRA:                   0.339
REMARK UNBOUND:                 0.320
REMARK SMILES Oc1cc(O)cc(CCc2ccccc2O)c1
REMARK SMILES IDX 9 1 10 2 12 3 13 4 11 5 14 6 15 7 16 8 8 10 7 11 6 12 17 13
REMARK SMILES IDX 4 14 2 15 3 16 5 17 1 19
REMARK H PARENT 16 9 5 18 1 20
REMARK Flexibility Score: inf
ROOT
ATOM      1  C   UNL     1      11.902 -11.746 -29.010  1.00  0.00     0.044 C 
ENDROOT
BRANCH   1   2
ATOM      2  C   UNL     1      13.086 -11.757 -28.073  1.00  0.00    -0.006 A 
ATOM      3  C   UNL     1      14.916 -12.979 -27.037  1.00  0.00     0.001 A 
ATOM      4  C   UNL     1      15.353 -11.809 -26.412  1.00  0.00     0.004 A 
ATOM      5  C   UNL     1      13.792 -12.955 -27.866  1.00  0.00     0.007 A 
ATOM      6  C   UNL     1      14.666 -10.610 -26.618  1.00  0.00     0.046 A 
ATOM      7  C   UNL     1      13.535 -10.574 -27.447  1.00  0.00     0.118 A 
BRANCH   7   8
ATOM      8  O   UNL     1      12.865  -9.370 -27.656  1.00  0.00    -0.508 OA
ATOM      9  H   UNL     1      12.627  -9.048 -28.587  1.00  0.00     0.293 HD
ENDBRANCH   7   8
ENDBRANCH   1   2
BRANCH   1  10
ATOM     10  C   UNL     1      10.627 -12.256 -28.323  1.00  0.00     0.040 C 
BRANCH  10  11
ATOM     11  C   UNL     1      10.780 -12.304 -26.824  1.00  0.00    -0.040 A 
ATOM     12  C   UNL     1      10.649 -11.133 -26.063  1.00  0.00     0.050 A 
ATOM     13  C   UNL     1      10.990 -13.531 -26.172  1.00  0.00     0.050 A 
ATOM     14  C   UNL     1      10.737 -11.184 -24.665  1.00  0.00     0.119 A 
ATOM     15  C   UNL     1      11.076 -13.584 -24.778  1.00  0.00     0.119 A 
ATOM     16  C   UNL     1      10.952 -12.409 -24.026  1.00  0.00     0.092 A 
BRANCH  14  17
ATOM     17  O   UNL     1      10.609 -10.024 -23.903  1.00  0.00    -0.508 OA
ATOM     18  H   UNL     1       9.700  -9.659 -23.644  1.00  0.00     0.293 HD
ENDBRANCH  14  17
BRANCH  15  19
ATOM     19  O   UNL     1      11.281 -14.811 -24.149  1.00  0.00    -0.508 OA
ATOM     20  H   UNL     1      10.539 -15.273 -23.636  1.00  0.00     0.293 HD
ENDBRANCH  15  19
ENDBRANCH  10  11
ENDBRANCH   1  10
TORSDOF 6
ENDMDL
MODEL 3
REMARK VINA RESULT:    -4.246      1.738      3.714
REMARK INTER + INTRA:          -5.043
REMARK INTER:                  -5.624
REMARK INTRA:                   0.581
REMARK UNBOUND:                 0.320
REMARK SMILES Oc1cc(O)cc(CCc2ccccc2O)c1
REMARK SMILES IDX 9 1 10 2 12 3 13 4 11 5 14 6 15 7 16 8 8 10 7 11 6 12 17 13
REMARK SMILES IDX 4 14 2 15 3 16 5 17 1 19
REMARK H PARENT 16 9 5 18 1 20
REMARK Flexibility Score: inf
ROOT
ATOM      1  C   UNL     1      14.501 -11.694 -26.362  1.00  0.00     0.044 C 
ENDROOT
BRANCH   1   2
ATOM      2  C   UNL     1      13.127 -11.226 -25.945  1.00  0.00    -0.006 A 
ATOM      3  C   UNL     1      11.216 -11.429 -24.455  1.00  0.00     0.001 A 
ATOM      4  C   UNL     1      10.612 -10.331 -25.070  1.00  0.00     0.004 A 
ATOM      5  C   UNL     1      12.468 -11.873 -24.886  1.00  0.00     0.007 A 
ATOM      6  C   UNL     1      11.260  -9.672 -26.117  1.00  0.00     0.046 A 
ATOM      7  C   UNL     1      12.518 -10.110 -26.558  1.00  0.00     0.118 A 
BRANCH   7   8
ATOM      8  O   UNL     1      13.163  -9.437 -27.595  1.00  0.00    -0.508 OA
ATOM      9  H   UNL     1      13.144  -9.784 -28.547  1.00  0.00     0.293 HD
ENDBRANCH   7   8
ENDBRANCH   1   2
BRANCH   1  10
ATOM     10  C   UNL     1      14.427 -12.805 -27.420  1.00  0.00     0.040 C 
BRANCH  10  11
ATOM     11  C   UNL     1      13.014 -13.034 -27.893  1.00  0.00    -0.040 A 
ATOM     12  C   UNL     1      12.206 -13.994 -27.266  1.00  0.00     0.050 A 
ATOM     13  C   UNL     1      12.475 -12.243 -28.922  1.00  0.00     0.050 A 
ATOM     14  C   UNL     1      10.876 -14.171 -27.669  1.00  0.00     0.119 A 
ATOM     15  C   UNL     1      11.147 -12.417 -29.324  1.00  0.00     0.119 A 
ATOM     16  C   UNL     1      10.350 -13.384 -28.698  1.00  0.00     0.092 A 
BRANCH  14  17
ATOM     17  O   UNL     1      10.067 -15.124 -27.052  1.00  0.00    -0.508 OA
ATOM     18  H   UNL     1       9.648 -14.955 -26.145  1.00  0.00     0.293 HD
ENDBRANCH  14  17
BRANCH  15  19
ATOM     19  O   UNL     1      10.629 -11.621 -30.344  1.00  0.00    -0.508 OA
ATOM     20  H   UNL     1       9.693 -11.766 -30.704  1.00  0.00     0.293 HD
ENDBRANCH  15  19
ENDBRANCH  10  11
ENDBRANCH   1  10
TORSDOF 6
ENDMDL
MODEL 4
REMARK VINA RESULT:    -3.947      1.891      4.104
REMARK INTER + INTRA:          -4.665
REMARK INTER:                  -5.308
REMARK INTRA:                   0.644
REMARK UNBOUND:                 0.320
REMARK SMILES Oc1cc(O)cc(CCc2ccccc2O)c1
REMARK SMILES IDX 9 1 10 2 12 3 13 4 11 5 14 6 15 7 16 8 8 10 7 11 6 12 17 13
REMARK SMILES IDX 4 14 2 15 3 16 5 17 1 19
REMARK H PARENT 16 9 5 18 1 20
REMARK Flexibility Score: inf
ROOT
ATOM      1  C   UNL     1      12.254 -11.477 -24.776  1.00  0.00     0.044 C 
ENDROOT
BRANCH   1   2
ATOM      2  C   UNL     1      13.245 -12.246 -25.617  1.00  0.00    -0.006 A 
ATOM      3  C   UNL     1      15.156 -12.236 -27.122  1.00  0.00     0.001 A 
ATOM      4  C   UNL     1      15.170 -13.632 -27.123  1.00  0.00     0.004 A 
ATOM      5  C   UNL     1      14.202 -11.545 -26.371  1.00  0.00     0.007 A 
ATOM      6  C   UNL     1      14.231 -14.341 -26.370  1.00  0.00     0.046 A 
ATOM      7  C   UNL     1      13.268 -13.657 -25.613  1.00  0.00     0.118 A 
BRANCH   7   8
ATOM      8  O   UNL     1      12.344 -14.373 -24.854  1.00  0.00    -0.508 OA
ATOM      9  H   UNL     1      11.877 -15.194 -25.222  1.00  0.00     0.293 HD
ENDBRANCH   7   8
ENDBRANCH   1   2
BRANCH   1  10
ATOM     10  C   UNL     1      11.042 -11.019 -25.599  1.00  0.00     0.040 C 
BRANCH  10  11
ATOM     11  C   UNL     1      10.956 -11.744 -26.919  1.00  0.00    -0.040 A 
ATOM     12  C   UNL     1      11.323 -11.093 -28.107  1.00  0.00     0.050 A 
ATOM     13  C   UNL     1      10.571 -13.094 -26.962  1.00  0.00     0.050 A 
ATOM     14  C   UNL     1      11.294 -11.782 -29.328  1.00  0.00     0.119 A 
ATOM     15  C   UNL     1      10.544 -13.783 -28.178  1.00  0.00     0.119 A 
ATOM     16  C   UNL     1      10.904 -13.124 -29.361  1.00  0.00     0.092 A 
BRANCH  14  17
ATOM     17  O   UNL     1      11.656 -11.142 -30.512  1.00  0.00    -0.508 OA
ATOM     18  H   UNL     1      12.465 -10.533 -30.559  1.00  0.00     0.293 HD
ENDBRANCH  14  17
BRANCH  15  19
ATOM     19  O   UNL     1      10.162 -15.124 -28.200  1.00  0.00    -0.508 OA
ATOM     20  H   UNL     1      10.007 -15.615 -29.072  1.00  0.00     0.293 HD
ENDBRANCH  15  19
ENDBRANCH  10  11
ENDBRANCH   1  10
TORSDOF 6
ENDMDL
MODEL 5
REMARK VINA RESULT:    -3.814      1.728      4.286
REMARK INTER + INTRA:          -4.497
REMARK INTER:                  -5.211
REMARK INTRA:                   0.714
REMARK UNBOUND:                 0.320
REMARK SMILES Oc1cc(O)cc(CCc2ccccc2O)c1
REMARK SMILES IDX 9 1 10 2 12 3 13 4 11 5 14 6 15 7 16 8 8 10 7 11 6 12 17 13
REMARK SMILES IDX 4 14 2 15 3 16 5 17 1 19
REMARK H PARENT 16 9 5 18 1 20
REMARK Flexibility Score: inf
ROOT
ATOM      1  C   UNL     1      12.016 -11.623 -24.317  1.00  0.00     0.044 C 
ENDROOT
BRANCH   1   2
ATOM      2  C   UNL     1      12.907 -12.409 -25.248  1.00  0.00    -0.006 A 
ATOM      3  C   UNL     1      14.844 -12.480 -26.718  1.00  0.00     0.001 A 
ATOM      4  C   UNL     1      14.651 -13.849 -26.917  1.00  0.00     0.004 A 
ATOM      5  C   UNL     1      13.981 -11.764 -25.886  1.00  0.00     0.007 A 
ATOM      6  C   UNL     1      13.594 -14.505 -26.281  1.00  0.00     0.046 A 
ATOM      7  C   UNL     1      12.720 -13.794 -25.445  1.00  0.00     0.118 A 
BRANCH   7   8
ATOM      8  O   UNL     1      11.676 -14.461 -24.804  1.00  0.00    -0.508 OA
ATOM      9  H   UNL     1      10.992 -13.964 -24.246  1.00  0.00     0.293 HD
ENDBRANCH   7   8
ENDBRANCH   1   2
BRANCH   1  10
ATOM     10  C   UNL     1      10.917 -10.870 -25.080  1.00  0.00     0.040 C 
BRANCH  10  11
ATOM     11  C   UNL     1      11.147 -10.903 -26.570  1.00  0.00    -0.040 A 
ATOM     12  C   UNL     1      12.070 -10.027 -27.162  1.00  0.00     0.050 A 
ATOM     13  C   UNL     1      10.489 -11.854 -27.367  1.00  0.00     0.050 A 
ATOM     14  C   UNL     1      12.325 -10.093 -28.538  1.00  0.00     0.119 A 
ATOM     15  C   UNL     1      10.744 -11.922 -28.741  1.00  0.00     0.119 A 
ATOM     16  C   UNL     1      11.660 -11.039 -29.325  1.00  0.00     0.092 A 
BRANCH  14  17
ATOM     17  O   UNL     1      13.239  -9.225 -29.133  1.00  0.00    -0.508 OA
ATOM     18  H   UNL     1      13.319  -8.258 -28.840  1.00  0.00     0.293 HD
ENDBRANCH  14  17
BRANCH  15  19
ATOM     19  O   UNL     1      10.083 -12.875 -29.515  1.00  0.00    -0.508 OA
ATOM     20  H   UNL     1      10.453 -13.179 -30.408  1.00  0.00     0.293 HD
ENDBRANCH  15  19
ENDBRANCH  10  11
ENDBRANCH   1  10
TORSDOF 6
ENDMDL
MODEL 6
REMARK VINA RESULT:    -3.803      1.756      3.800
REMARK INTER + INTRA:          -4.483
REMARK INTER:                  -5.221
REMARK INTRA:                   0.739
REMARK UNBOUND:                 0.320
REMARK SMILES Oc1cc(O)cc(CCc2ccccc2O)c1
REMARK SMILES IDX 9 1 10 2 12 3 13 4 11 5 14 6 15 7 16 8 8 10 7 11 6 12 17 13
REMARK SMILES IDX 4 14 2 15 3 16 5 17 1 19
REMARK H PARENT 16 9 5 18 1 20
REMARK Flexibility Score: inf
ROOT
ATOM      1  C   UNL     1      10.726 -10.480 -25.697  1.00  0.00     0.044 C 
ENDROOT
BRANCH   1   2
ATOM      2  C   UNL     1      10.989 -10.909 -27.121  1.00  0.00    -0.006 A 
ATOM      3  C   UNL     1      10.507 -12.411 -28.972  1.00  0.00     0.001 A 
ATOM      4  C   UNL     1      11.375 -11.688 -29.793  1.00  0.00     0.004 A 
ATOM      5  C   UNL     1      10.311 -12.023 -27.644  1.00  0.00     0.007 A 
ATOM      6  C   UNL     1      12.047 -10.573 -29.288  1.00  0.00     0.046 A 
ATOM      7  C   UNL     1      11.859 -10.175 -27.956  1.00  0.00     0.118 A 
BRANCH   7   8
ATOM      8  O   UNL     1      12.525  -9.052 -27.466  1.00  0.00    -0.508 OA
ATOM      9  H   UNL     1      12.351  -8.126 -27.840  1.00  0.00     0.293 HD
ENDBRANCH   7   8
ENDBRANCH   1   2
BRANCH   1  10
ATOM     10  C   UNL     1      11.751 -11.078 -24.723  1.00  0.00     0.040 C 
BRANCH  10  11
ATOM     11  C   UNL     1      12.811 -11.873 -25.444  1.00  0.00    -0.040 A 
ATOM     12  C   UNL     1      12.512 -13.143 -25.959  1.00  0.00     0.050 A 
ATOM     13  C   UNL     1      14.084 -11.322 -25.662  1.00  0.00     0.050 A 
ATOM     14  C   UNL     1      13.479 -13.861 -26.676  1.00  0.00     0.119 A 
ATOM     15  C   UNL     1      15.050 -12.035 -26.378  1.00  0.00     0.119 A 
ATOM     16  C   UNL     1      14.746 -13.306 -26.882  1.00  0.00     0.092 A 
BRANCH  14  17
ATOM     17  O   UNL     1      13.190 -15.124 -27.190  1.00  0.00    -0.508 OA
ATOM     18  H   UNL     1      12.273 -15.348 -27.558  1.00  0.00     0.293 HD
ENDBRANCH  14  17
BRANCH  15  19
ATOM     19  O   UNL     1      16.307 -11.470 -26.587  1.00  0.00    -0.508 OA
ATOM     20  H   UNL     1      16.435 -10.466 -26.626  1.00  0.00     0.293 HD
ENDBRANCH  15  19
ENDBRANCH  10  11
ENDBRANCH   1  10
TORSDOF 6
ENDMDL
MODEL 7
REMARK VINA RESULT:    -3.792      1.749      4.126
REMARK INTER + INTRA:          -4.469
REMARK INTER:                  -4.793
REMARK INTRA:                   0.324
REMARK UNBOUND:                 0.320
REMARK SMILES Oc1cc(O)cc(CCc2ccccc2O)c1
REMARK SMILES IDX 9 1 10 2 12 3 13 4 11 5 14 6 15 7 16 8 8 10 7 11 6 12 17 13
REMARK SMILES IDX 4 14 2 15 3 16 5 17 1 19
REMARK H PARENT 16 9 5 18 1 20
REMARK Flexibility Score: inf
ROOT
ATOM      1  C   UNL     1      14.438 -11.427 -26.441  1.00  0.00     0.044 C 
ENDROOT
BRANCH   1   2
ATOM      2  C   UNL     1      13.079 -11.058 -25.896  1.00  0.00    -0.006 A 
ATOM      3  C   UNL     1      11.335 -11.395 -24.234  1.00  0.00     0.001 A 
ATOM      4  C   UNL     1      10.598 -10.346 -24.787  1.00  0.00     0.004 A 
ATOM      5  C   UNL     1      12.571 -11.748 -24.782  1.00  0.00     0.007 A 
ATOM      6  C   UNL     1      11.096  -9.645 -25.887  1.00  0.00     0.046 A 
ATOM      7  C   UNL     1      12.335  -9.992 -26.446  1.00  0.00     0.118 A 
BRANCH   7   8
ATOM      8  O   UNL     1      12.830  -9.278 -27.536  1.00  0.00    -0.508 OA
ATOM      9  H   UNL     1      12.362  -8.450 -27.886  1.00  0.00     0.293 HD
ENDBRANCH   7   8
ENDBRANCH   1   2
BRANCH   1  10
ATOM     10  C   UNL     1      14.357 -12.601 -27.427  1.00  0.00     0.040 C 
BRANCH  10  11
ATOM     11  C   UNL     1      12.941 -12.853 -27.882  1.00  0.00    -0.040 A 
ATOM     12  C   UNL     1      12.409 -12.134 -28.963  1.00  0.00     0.050 A 
ATOM     13  C   UNL     1      12.167 -13.853 -27.270  1.00  0.00     0.050 A 
ATOM     14  C   UNL     1      11.112 -12.404 -29.422  1.00  0.00     0.119 A 
ATOM     15  C   UNL     1      10.874 -14.124 -27.727  1.00  0.00     0.119 A 
ATOM     16  C   UNL     1      10.347 -13.397 -28.802  1.00  0.00     0.092 A 
BRANCH  14  17
ATOM     17  O   UNL     1      10.576 -11.693 -30.495  1.00  0.00    -0.508 OA
ATOM     18  H   UNL     1      10.647 -10.684 -30.549  1.00  0.00     0.293 HD
ENDBRANCH  14  17
BRANCH  15  19
ATOM     19  O   UNL     1      10.123 -15.123 -27.109  1.00  0.00    -0.508 OA
ATOM     20  H   UNL     1      10.143 -16.080 -27.439  1.00  0.00     0.293 HD
ENDBRANCH  15  19
ENDBRANCH  10  11
ENDBRANCH   1  10
TORSDOF 6
ENDMDL
MODEL 8
REMARK VINA RESULT:    -3.463      2.001      3.363
REMARK INTER + INTRA:          -4.053
REMARK INTER:                  -4.663
REMARK INTRA:                   0.610
REMARK UNBOUND:                 0.320
REMARK SMILES Oc1cc(O)cc(CCc2ccccc2O)c1
REMARK SMILES IDX 9 1 10 2 12 3 13 4 11 5 14 6 15 7 16 8 8 10 7 11 6 12 17 13
REMARK SMILES IDX 4 14 2 15 3 16 5 17 1 19
REMARK H PARENT 16 9 5 18 1 20
REMARK Flexibility Score: inf
ROOT
ATOM      1  C   UNL     1      12.291 -11.390 -24.797  1.00  0.00     0.044 C 
ENDROOT
BRANCH   1   2
ATOM      2  C   UNL     1      13.265 -12.255 -25.560  1.00  0.00    -0.006 A 
ATOM      3  C   UNL     1      13.980 -14.469 -26.267  1.00  0.00     0.001 A 
ATOM      4  C   UNL     1      14.995 -13.902 -27.041  1.00  0.00     0.004 A 
ATOM      5  C   UNL     1      13.117 -13.652 -25.534  1.00  0.00     0.007 A 
ATOM      6  C   UNL     1      15.147 -12.514 -27.084  1.00  0.00     0.046 A 
ATOM      7  C   UNL     1      14.286 -11.684 -26.351  1.00  0.00     0.118 A 
BRANCH   7   8
ATOM      8  O   UNL     1      14.438 -10.299 -26.412  1.00  0.00    -0.508 OA
ATOM      9  H   UNL     1      13.701  -9.670 -26.113  1.00  0.00     0.293 HD
ENDBRANCH   7   8
ENDBRANCH   1   2
BRANCH   1  10
ATOM     10  C   UNL     1      11.044 -11.065 -25.630  1.00  0.00     0.040 C 
BRANCH  10  11
ATOM     11  C   UNL     1      11.049 -11.789 -26.952  1.00  0.00    -0.040 A 
ATOM     12  C   UNL     1      10.646 -13.131 -27.024  1.00  0.00     0.050 A 
ATOM     13  C   UNL     1      11.396 -11.109 -28.132  1.00  0.00     0.050 A 
ATOM     14  C   UNL     1      10.600 -13.791 -28.260  1.00  0.00     0.119 A 
ATOM     15  C   UNL     1      11.349 -11.765 -29.366  1.00  0.00     0.119 A 
ATOM     16  C   UNL     1      10.953 -13.107 -29.427  1.00  0.00     0.092 A 
BRANCH  14  17
ATOM     17  O   UNL     1      10.201 -15.124 -28.339  1.00  0.00    -0.508 OA
ATOM     18  H   UNL     1      10.876 -15.880 -28.330  1.00  0.00     0.293 HD
ENDBRANCH  14  17
BRANCH  15  19
ATOM     19  O   UNL     1      11.694 -11.072 -30.525  1.00  0.00    -0.508 OA
ATOM     20  H   UNL     1      12.081 -10.137 -30.487  1.00  0.00     0.293 HD
ENDBRANCH  15  19
ENDBRANCH  10  11
ENDBRANCH   1  10
TORSDOF 6
ENDMDL
MODEL 9
REMARK VINA RESULT:    -3.405      3.314      6.132
REMARK INTER + INTRA:          -3.980
REMARK INTER:                  -3.532
REMARK INTRA:                  -0.448
REMARK UNBOUND:                 0.320
REMARK SMILES Oc1cc(O)cc(CCc2ccccc2O)c1
REMARK SMILES IDX 9 1 10 2 12 3 13 4 11 5 14 6 15 7 16 8 8 10 7 11 6 12 17 13
REMARK SMILES IDX 4 14 2 15 3 16 5 17 1 19
REMARK H PARENT 16 9 5 18 1 20
REMARK Flexibility Score: inf
ROOT
ATOM      1  C   UNL     1      12.172 -10.177 -28.471  1.00  0.00     0.044 C 
ENDROOT
BRANCH   1   2
ATOM      2  C   UNL     1      12.318 -11.583 -27.937  1.00  0.00    -0.006 A 
ATOM      3  C   UNL     1      13.642 -13.232 -26.738  1.00  0.00     0.001 A 
ATOM      4  C   UNL     1      12.600 -14.156 -26.844  1.00  0.00     0.004 A 
ATOM      5  C   UNL     1      13.502 -11.952 -27.277  1.00  0.00     0.007 A 
ATOM      6  C   UNL     1      11.414 -13.799 -27.489  1.00  0.00     0.046 A 
ATOM      7  C   UNL     1      11.263 -12.516 -28.035  1.00  0.00     0.118 A 
BRANCH   7   8
ATOM      8  O   UNL     1      10.070 -12.165 -28.665  1.00  0.00    -0.508 OA
ATOM      9  H   UNL     1       9.535 -11.353 -28.376  1.00  0.00     0.293 HD
ENDBRANCH   7   8
ENDBRANCH   1   2
BRANCH   1  10
ATOM     10  C   UNL     1      12.779  -9.140 -27.516  1.00  0.00     0.040 C 
BRANCH  10  11
ATOM     11  C   UNL     1      13.358  -7.964 -28.262  1.00  0.00    -0.040 A 
ATOM     12  C   UNL     1      12.798  -6.687 -28.112  1.00  0.00     0.050 A 
ATOM     13  C   UNL     1      14.502  -8.126 -29.060  1.00  0.00     0.050 A 
ATOM     14  C   UNL     1      13.367  -5.584 -28.762  1.00  0.00     0.119 A 
ATOM     15  C   UNL     1      15.073  -7.027 -29.708  1.00  0.00     0.119 A 
ATOM     16  C   UNL     1      14.503  -5.756 -29.560  1.00  0.00     0.092 A 
BRANCH  14  17
ATOM     17  O   UNL     1      12.815  -4.312 -28.619  1.00  0.00    -0.508 OA
ATOM     18  H   UNL     1      13.183  -3.648 -27.947  1.00  0.00     0.293 HD
ENDBRANCH  14  17
BRANCH  15  19
ATOM     19  O   UNL     1      16.211  -7.207 -30.494  1.00  0.00    -0.508 OA
ATOM     20  H   UNL     1      16.156  -7.624 -31.415  1.00  0.00     0.293 HD
ENDBRANCH  15  19
ENDBRANCH  10  11
ENDBRANCH   1  10
TORSDOF 6
ENDMDL
