MODEL 1
REMARK VINA RESULT:    -6.201      0.000      0.000
REMARK INTER + INTRA:          -7.564
REMARK INTER:                  -7.288
REMARK INTRA:                  -0.275
REMARK UNBOUND:                -0.275
REMARK SMILES O=c1c(O)c(-c2ccc(O)c(O)c2)oc2cc(O)ccc12
REMARK SMILES IDX 5 1 3 2 2 3 1 4 21 5 15 6 14 7 16 8 17 9 19 10 20 11 6 12
REMARK SMILES IDX 7 13 8 14 9 15 13 16 11 17 10 18 12 20 4 22 18 24
REMARK H PARENT 10 19 12 21 4 23 18 25
REMARK Flexibility Score: inf
ROOT
ATOM      1  C   UNL     1      22.196  32.682   5.332  1.00  0.00     0.180 A 
ATOM      2  C   UNL     1      21.906  31.715   4.347  1.00  0.00     0.208 A 
ATOM      3  C   UNL     1      22.528  30.459   4.428  1.00  0.00     0.235 A 
ATOM      4  O   UNL     1      22.276  29.573   3.565  1.00  0.00    -0.285 OA
ATOM      5  C   UNL     1      23.434  30.203   5.469  1.00  0.00     0.069 A 
ATOM      6  C   UNL     1      23.691  31.232   6.401  1.00  0.00     0.142 A 
ATOM      7  O   UNL     1      23.074  32.404   6.294  1.00  0.00    -0.452 OA
ATOM      8  C   UNL     1      24.595  31.020   7.447  1.00  0.00     0.094 A 
ATOM      9  C   UNL     1      25.249  29.790   7.576  1.00  0.00     0.119 A 
ATOM     10  C   UNL     1      24.997  28.766   6.653  1.00  0.00     0.047 A 
ATOM     11  C   UNL     1      24.096  28.969   5.604  1.00  0.00     0.020 A 
ENDROOT
BRANCH   1  12
ATOM     12  C   UNL     1      21.567  34.022   5.328  1.00  0.00     0.025 A 
ATOM     13  C   UNL     1      22.331  35.142   4.964  1.00  0.00     0.016 A 
ATOM     14  C   UNL     1      21.764  36.419   4.972  1.00  0.00     0.051 A 
ATOM     15  C   UNL     1      20.432  36.598   5.357  1.00  0.00     0.157 A 
ATOM     16  C   UNL     1      20.233  34.207   5.734  1.00  0.00     0.062 A 
ATOM     17  C   UNL     1      19.662  35.488   5.744  1.00  0.00     0.158 A 
BRANCH  15  18
ATOM     18  O   UNL     1      19.892  37.884   5.352  1.00  0.00    -0.504 OA
ATOM     19  H   UNL     1      19.713  38.395   6.209  1.00  0.00     0.293 HD
ENDBRANCH  15  18
BRANCH  17  20
ATOM     20  O   UNL     1      18.339  35.662   6.142  1.00  0.00    -0.504 OA
ATOM     21  H   UNL     1      17.598  35.820   5.469  1.00  0.00     0.293 HD
ENDBRANCH  17  20
ENDBRANCH   1  12
BRANCH   2  22
ATOM     22  O   UNL     1      21.037  32.014   3.296  1.00  0.00    -0.502 OA
ATOM     23  H   UNL     1      21.259  31.799   2.331  1.00  0.00     0.293 HD
ENDBRANCH   2  22
BRANCH   9  24
ATOM     24  O   UNL     1      26.146  29.596   8.624  1.00  0.00    -0.508 OA
ATOM     25  H   UNL     1      26.003  28.867   9.314  1.00  0.00     0.293 HD
ENDBRANCH   9  24
TORSDOF 5
ENDMDL
MODEL 2
REMARK VINA RESULT:    -6.136      1.738      2.560
REMARK INTER + INTRA:          -7.488
REMARK INTER:                  -7.423
REMARK INTRA:                  -0.064
REMARK UNBOUND:                -0.275
REMARK SMILES O=c1c(O)c(-c2ccc(O)c(O)c2)oc2cc(O)ccc12
REMARK SMILES IDX 5 1 3 2 2 3 1 4 21 5 15 6 14 7 16 8 17 9 19 10 20 11 6 12
REMARK SMILES IDX 7 13 8 14 9 15 13 16 11 17 10 18 12 20 4 22 18 24
REMARK H PARENT 10 19 12 21 4 23 18 25
REMARK Flexibility Score: inf
ROOT
ATOM      1  C   UNL     1      22.073  33.393   6.354  1.00  0.00     0.180 A 
ATOM      2  C   UNL     1      21.893  32.834   7.637  1.00  0.00     0.208 A 
ATOM      3  C   UNL     1      22.633  31.694   7.988  1.00  0.00     0.235 A 
ATOM      4  O   UNL     1      22.498  31.182   9.133  1.00  0.00    -0.285 OA
ATOM      5  C   UNL     1      23.514  31.128   7.053  1.00  0.00     0.069 A 
ATOM      6  C   UNL     1      23.620  31.732   5.782  1.00  0.00     0.142 A 
ATOM      7  O   UNL     1      22.909  32.816   5.492  1.00  0.00    -0.452 OA
ATOM      8  C   UNL     1      24.479  31.192   4.819  1.00  0.00     0.094 A 
ATOM      9  C   UNL     1      25.239  30.053   5.111  1.00  0.00     0.119 A 
ATOM     10  C   UNL     1      25.138  29.451   6.372  1.00  0.00     0.047 A 
ATOM     11  C   UNL     1      24.281  29.983   7.340  1.00  0.00     0.020 A 
ENDROOT
BRANCH   1  12
ATOM     12  C   UNL     1      21.345  34.605   5.915  1.00  0.00     0.025 A 
ATOM     13  C   UNL     1      22.071  35.741   5.523  1.00  0.00     0.016 A 
ATOM     14  C   UNL     1      21.405  36.903   5.125  1.00  0.00     0.051 A 
ATOM     15  C   UNL     1      20.007  36.953   5.126  1.00  0.00     0.157 A 
ATOM     16  C   UNL     1      19.940  34.663   5.935  1.00  0.00     0.062 A 
ATOM     17  C   UNL     1      19.270  35.829   5.537  1.00  0.00     0.158 A 
BRANCH  15  18
ATOM     18  O   UNL     1      19.371  38.125   4.720  1.00  0.00    -0.504 OA
ATOM     19  H   UNL     1      19.602  38.588   3.848  1.00  0.00     0.293 HD
ENDBRANCH  15  18
BRANCH  17  20
ATOM     20  O   UNL     1      17.878  35.877   5.554  1.00  0.00    -0.504 OA
ATOM     21  H   UNL     1      17.319  35.041   5.676  1.00  0.00     0.293 HD
ENDBRANCH  17  20
ENDBRANCH   1  12
BRANCH   2  22
ATOM     22  O   UNL     1      20.973  33.391   8.528  1.00  0.00    -0.502 OA
ATOM     23  H   UNL     1      21.193  34.198   9.100  1.00  0.00     0.293 HD
ENDBRANCH   2  22
BRANCH   9  24
ATOM     24  O   UNL     1      26.090  29.529   4.141  1.00  0.00    -0.508 OA
ATOM     25  H   UNL     1      25.890  28.647   3.682  1.00  0.00     0.293 HD
ENDBRANCH   9  24
TORSDOF 5
ENDMDL
MODEL 3
REMARK VINA RESULT:    -6.014      1.508      1.936
REMARK INTER + INTRA:          -7.344
REMARK INTER:                  -7.216
REMARK INTRA:                  -0.129
REMARK UNBOUND:                -0.275
REMARK SMILES O=c1c(O)c(-c2ccc(O)c(O)c2)oc2cc(O)ccc12
REMARK SMILES IDX 5 1 3 2 2 3 1 4 21 5 15 6 14 7 16 8 17 9 19 10 20 11 6 12
REMARK SMILES IDX 7 13 8 14 9 15 13 16 11 17 10 18 12 20 4 22 18 24
REMARK H PARENT 10 19 12 21 4 23 18 25
REMARK Flexibility Score: inf
ROOT
ATOM      1  C   UNL     1      22.875  32.011   6.437  1.00  0.00     0.180 A 
ATOM      2  C   UNL     1      22.405  31.095   5.472  1.00  0.00     0.208 A 
ATOM      3  C   UNL     1      23.069  29.867   5.324  1.00  0.00     0.235 A 
ATOM      4  O   UNL     1      22.661  29.028   4.476  1.00  0.00    -0.285 OA
ATOM      5  C   UNL     1      24.191  29.589   6.121  1.00  0.00     0.069 A 
ATOM      6  C   UNL     1      24.614  30.567   7.047  1.00  0.00     0.142 A 
ATOM      7  O   UNL     1      23.951  31.713   7.162  1.00  0.00    -0.452 OA
ATOM      8  C   UNL     1      25.733  30.332   7.852  1.00  0.00     0.094 A 
ATOM      9  C   UNL     1      26.438  29.128   7.746  1.00  0.00     0.119 A 
ATOM     10  C   UNL     1      26.021  28.154   6.828  1.00  0.00     0.047 A 
ATOM     11  C   UNL     1      24.904  28.381   6.019  1.00  0.00     0.020 A 
ENDROOT
BRANCH   1  12
ATOM     12  C   UNL     1      22.218  33.317   6.667  1.00  0.00     0.025 A 
ATOM     13  C   UNL     1      21.610  33.576   7.906  1.00  0.00     0.016 A 
ATOM     14  C   UNL     1      20.967  34.794   8.139  1.00  0.00     0.051 A 
ATOM     15  C   UNL     1      20.907  35.765   7.134  1.00  0.00     0.157 A 
ATOM     16  C   UNL     1      22.139  34.287   5.651  1.00  0.00     0.062 A 
ATOM     17  C   UNL     1      21.492  35.510   5.882  1.00  0.00     0.158 A 
BRANCH  15  18
ATOM     18  O   UNL     1      20.261  36.972   7.397  1.00  0.00    -0.504 OA
ATOM     19  H   UNL     1      20.207  37.714   6.708  1.00  0.00     0.293 HD
ENDBRANCH  15  18
BRANCH  17  20
ATOM     20  O   UNL     1      21.423  36.467   4.873  1.00  0.00    -0.504 OA
ATOM     21  H   UNL     1      21.330  37.455   5.082  1.00  0.00     0.293 HD
ENDBRANCH  17  20
ENDBRANCH   1  12
BRANCH   2  22
ATOM     22  O   UNL     1      21.316  31.420   4.660  1.00  0.00    -0.502 OA
ATOM     23  H   UNL     1      20.357  31.292   4.962  1.00  0.00     0.293 HD
ENDBRANCH   2  22
BRANCH   9  24
ATOM     24  O   UNL     1      27.550  28.910   8.555  1.00  0.00    -0.508 OA
ATOM     25  H   UNL     1      27.607  29.296   9.491  1.00  0.00     0.293 HD
ENDBRANCH   9  24
TORSDOF 5
ENDMDL
MODEL 4
REMARK VINA RESULT:    -5.978      1.853      2.195
REMARK INTER + INTRA:          -7.301
REMARK INTER:                  -7.112
REMARK INTRA:                  -0.189
REMARK UNBOUND:                -0.275
REMARK SMILES O=c1c(O)c(-c2ccc(O)c(O)c2)oc2cc(O)ccc12
REMARK SMILES IDX 5 1 3 2 2 3 1 4 21 5 15 6 14 7 16 8 17 9 19 10 20 11 6 12
REMARK SMILES IDX 7 13 8 14 9 15 13 16 11 17 10 18 12 20 4 22 18 24
REMARK H PARENT 10 19 12 21 4 23 18 25
REMARK Flexibility Score: inf
ROOT
ATOM      1  C   UNL     1      22.346  33.053   6.121  1.00  0.00     0.180 A 
ATOM      2  C   UNL     1      22.754  33.005   4.771  1.00  0.00     0.208 A 
ATOM      3  C   UNL     1      23.812  32.154   4.414  1.00  0.00     0.235 A 
ATOM      4  O   UNL     1      24.188  32.085   3.212  1.00  0.00    -0.285 OA
ATOM      5  C   UNL     1      24.449  31.391   5.405  1.00  0.00     0.069 A 
ATOM      6  C   UNL     1      23.998  31.514   6.738  1.00  0.00     0.142 A 
ATOM      7  O   UNL     1      22.987  32.324   7.032  1.00  0.00    -0.452 OA
ATOM      8  C   UNL     1      24.613  30.778   7.756  1.00  0.00     0.094 A 
ATOM      9  C   UNL     1      25.676  29.917   7.461  1.00  0.00     0.119 A 
ATOM     10  C   UNL     1      26.125  29.791   6.139  1.00  0.00     0.047 A 
ATOM     11  C   UNL     1      25.518  30.524   5.115  1.00  0.00     0.020 A 
ENDROOT
BRANCH   1  12
ATOM     12  C   UNL     1      21.227  33.910   6.573  1.00  0.00     0.025 A 
ATOM     13  C   UNL     1      19.920  33.620   6.148  1.00  0.00     0.016 A 
ATOM     14  C   UNL     1      18.851  34.426   6.546  1.00  0.00     0.051 A 
ATOM     15  C   UNL     1      19.072  35.541   7.362  1.00  0.00     0.157 A 
ATOM     16  C   UNL     1      21.449  35.043   7.377  1.00  0.00     0.062 A 
ATOM     17  C   UNL     1      20.377  35.855   7.776  1.00  0.00     0.158 A 
BRANCH  15  18
ATOM     18  O   UNL     1      17.985  36.325   7.746  1.00  0.00    -0.504 OA
ATOM     19  H   UNL     1      17.377  36.771   7.068  1.00  0.00     0.293 HD
ENDBRANCH  15  18
BRANCH  17  20
ATOM     20  O   UNL     1      20.605  36.972   8.576  1.00  0.00    -0.504 OA
ATOM     21  H   UNL     1      21.156  36.914   9.425  1.00  0.00     0.293 HD
ENDBRANCH  17  20
ENDBRANCH   1  12
BRANCH   2  22
ATOM     22  O   UNL     1      22.133  33.812   3.815  1.00  0.00    -0.502 OA
ATOM     23  H   UNL     1      21.194  33.632   3.481  1.00  0.00     0.293 HD
ENDBRANCH   2  22
BRANCH   9  24
ATOM     24  O   UNL     1      26.276  29.191   8.487  1.00  0.00    -0.508 OA
ATOM     25  H   UNL     1      26.805  29.650   9.220  1.00  0.00     0.293 HD
ENDBRANCH   9  24
TORSDOF 5
ENDMDL
MODEL 5
REMARK VINA RESULT:    -5.608      1.836      6.850
REMARK INTER + INTRA:          -6.866
REMARK INTER:                  -6.582
REMARK INTRA:                  -0.284
REMARK UNBOUND:                -0.275
REMARK SMILES O=c1c(O)c(-c2ccc(O)c(O)c2)oc2cc(O)ccc12
REMARK SMILES IDX 5 1 3 2 2 3 1 4 21 5 15 6 14 7 16 8 17 9 19 10 20 11 6 12
REMARK SMILES IDX 7 13 8 14 9 15 13 16 11 17 10 18 12 20 4 22 18 24
REMARK H PARENT 10 19 12 21 4 23 18 25
REMARK Flexibility Score: inf
ROOT
ATOM      1  C   UNL     1      22.282  32.916   6.446  1.00  0.00     0.180 A 
ATOM      2  C   UNL     1      22.500  33.837   5.400  1.00  0.00     0.208 A 
ATOM      3  C   UNL     1      21.718  35.002   5.350  1.00  0.00     0.235 A 
ATOM      4  O   UNL     1      21.902  35.845   4.430  1.00  0.00    -0.285 OA
ATOM      5  C   UNL     1      20.730  35.212   6.324  1.00  0.00     0.069 A 
ATOM      6  C   UNL     1      20.557  34.231   7.325  1.00  0.00     0.142 A 
ATOM      7  O   UNL     1      21.324  33.147   7.342  1.00  0.00    -0.452 OA
ATOM      8  C   UNL     1      19.576  34.399   8.308  1.00  0.00     0.094 A 
ATOM      9  C   UNL     1      18.763  35.538   8.306  1.00  0.00     0.119 A 
ATOM     10  C   UNL     1      18.932  36.514   7.314  1.00  0.00     0.047 A 
ATOM     11  C   UNL     1      19.909  36.355   6.327  1.00  0.00     0.020 A 
ENDROOT
BRANCH   1  12
ATOM     12  C   UNL     1      23.078  31.675   6.580  1.00  0.00     0.025 A 
ATOM     13  C   UNL     1      22.746  30.555   5.800  1.00  0.00     0.016 A 
ATOM     14  C   UNL     1      23.470  29.367   5.924  1.00  0.00     0.051 A 
ATOM     15  C   UNL     1      24.525  29.274   6.837  1.00  0.00     0.157 A 
ATOM     16  C   UNL     1      24.126  31.573   7.513  1.00  0.00     0.062 A 
ATOM     17  C   UNL     1      24.853  30.380   7.640  1.00  0.00     0.158 A 
BRANCH  15  18
ATOM     18  O   UNL     1      25.232  28.076   6.936  1.00  0.00    -0.504 OA
ATOM     19  H   UNL     1      24.825  27.245   7.350  1.00  0.00     0.293 HD
ENDBRANCH  15  18
BRANCH  17  20
ATOM     20  O   UNL     1      25.893  30.289   8.561  1.00  0.00    -0.504 OA
ATOM     21  H   UNL     1      26.315  31.115   8.970  1.00  0.00     0.293 HD
ENDBRANCH  17  20
ENDBRANCH   1  12
BRANCH   2  22
ATOM     22  O   UNL     1      23.458  33.577   4.417  1.00  0.00    -0.502 OA
ATOM     23  H   UNL     1      23.558  34.156   3.592  1.00  0.00     0.293 HD
ENDBRANCH   2  22
BRANCH   9  24
ATOM     24  O   UNL     1      17.791  35.689   9.292  1.00  0.00    -0.508 OA
ATOM     25  H   UNL     1      17.053  36.379   9.207  1.00  0.00     0.293 HD
ENDBRANCH   9  24
TORSDOF 5
ENDMDL
MODEL 6
REMARK VINA RESULT:    -5.463      1.796      6.787
REMARK INTER + INTRA:          -6.697
REMARK INTER:                  -6.506
REMARK INTRA:                  -0.191
REMARK UNBOUND:                -0.275
REMARK SMILES O=c1c(O)c(-c2ccc(O)c(O)c2)oc2cc(O)ccc12
REMARK SMILES IDX 5 1 3 2 2 3 1 4 21 5 15 6 14 7 16 8 17 9 19 10 20 11 6 12
REMARK SMILES IDX 7 13 8 14 9 15 13 16 11 17 10 18 12 20 4 22 18 24
REMARK H PARENT 10 19 12 21 4 23 18 25
REMARK Flexibility Score: inf
ROOT
ATOM      1  C   UNL     1      23.625  31.610   6.347  1.00  0.00     0.180 A 
ATOM      2  C   UNL     1      23.556  31.939   4.977  1.00  0.00     0.208 A 
ATOM      3  C   UNL     1      22.600  32.876   4.554  1.00  0.00     0.235 A 
ATOM      4  O   UNL     1      22.525  33.194   3.335  1.00  0.00    -0.285 OA
ATOM      5  C   UNL     1      21.728  33.446   5.495  1.00  0.00     0.069 A 
ATOM      6  C   UNL     1      21.845  33.046   6.844  1.00  0.00     0.142 A 
ATOM      7  O   UNL     1      22.769  32.163   7.205  1.00  0.00    -0.452 OA
ATOM      8  C   UNL     1      20.988  33.583   7.810  1.00  0.00     0.094 A 
ATOM      9  C   UNL     1      20.012  34.518   7.447  1.00  0.00     0.119 A 
ATOM     10  C   UNL     1      19.894  34.918   6.109  1.00  0.00     0.047 A 
ATOM     11  C   UNL     1      20.744  34.386   5.136  1.00  0.00     0.020 A 
ENDROOT
BRANCH   1  12
ATOM     12  C   UNL     1      24.618  30.647   6.875  1.00  0.00     0.025 A 
ATOM     13  C   UNL     1      25.677  31.113   7.670  1.00  0.00     0.016 A 
ATOM     14  C   UNL     1      26.637  30.224   8.162  1.00  0.00     0.051 A 
ATOM     15  C   UNL     1      26.561  28.862   7.856  1.00  0.00     0.157 A 
ATOM     16  C   UNL     1      24.555  29.279   6.552  1.00  0.00     0.062 A 
ATOM     17  C   UNL     1      25.518  28.386   7.044  1.00  0.00     0.158 A 
BRANCH  15  18
ATOM     18  O   UNL     1      27.531  27.999   8.365  1.00  0.00    -0.504 OA
ATOM     19  H   UNL     1      28.150  27.470   7.761  1.00  0.00     0.293 HD
ENDBRANCH  15  18
BRANCH  17  20
ATOM     20  O   UNL     1      25.446  27.032   6.724  1.00  0.00    -0.504 OA
ATOM     21  H   UNL     1      25.108  26.346   7.390  1.00  0.00     0.293 HD
ENDBRANCH  17  20
ENDBRANCH   1  12
BRANCH   2  22
ATOM     22  O   UNL     1      24.404  31.320   4.057  1.00  0.00    -0.502 OA
ATOM     23  H   UNL     1      24.131  30.493   3.539  1.00  0.00     0.293 HD
ENDBRANCH   2  22
BRANCH   9  24
ATOM     24  O   UNL     1      19.168  35.043   8.422  1.00  0.00    -0.508 OA
ATOM     25  H   UNL     1      19.264  34.787   9.399  1.00  0.00     0.293 HD
ENDBRANCH   9  24
TORSDOF 5
ENDMDL
MODEL 7
REMARK VINA RESULT:    -5.442      1.831      6.834
REMARK INTER + INTRA:          -6.671
REMARK INTER:                  -6.351
REMARK INTRA:                  -0.320
REMARK UNBOUND:                -0.275
REMARK SMILES O=c1c(O)c(-c2ccc(O)c(O)c2)oc2cc(O)ccc12
REMARK SMILES IDX 5 1 3 2 2 3 1 4 21 5 15 6 14 7 16 8 17 9 19 10 20 11 6 12
REMARK SMILES IDX 7 13 8 14 9 15 13 16 11 17 10 18 12 20 4 22 18 24
REMARK H PARENT 10 19 12 21 4 23 18 25
REMARK Flexibility Score: inf
ROOT
ATOM      1  C   UNL     1      23.663  31.611   6.244  1.00  0.00     0.180 A 
ATOM      2  C   UNL     1      23.548  31.965   4.883  1.00  0.00     0.208 A 
ATOM      3  C   UNL     1      22.575  32.905   4.508  1.00  0.00     0.235 A 
ATOM      4  O   UNL     1      22.460  33.245   3.299  1.00  0.00    -0.285 OA
ATOM      5  C   UNL     1      21.731  33.453   5.487  1.00  0.00     0.069 A 
ATOM      6  C   UNL     1      21.894  33.029   6.824  1.00  0.00     0.142 A 
ATOM      7  O   UNL     1      22.833  32.143   7.138  1.00  0.00    -0.452 OA
ATOM      8  C   UNL     1      21.066  33.543   7.828  1.00  0.00     0.094 A 
ATOM      9  C   UNL     1      20.075  34.480   7.513  1.00  0.00     0.119 A 
ATOM     10  C   UNL     1      19.912  34.904   6.187  1.00  0.00     0.047 A 
ATOM     11  C   UNL     1      20.733  34.395   5.178  1.00  0.00     0.020 A 
ENDROOT
BRANCH   1  12
ATOM     12  C   UNL     1      24.676  30.643   6.721  1.00  0.00     0.025 A 
ATOM     13  C   UNL     1      24.356  29.276   6.769  1.00  0.00     0.016 A 
ATOM     14  C   UNL     1      25.288  28.347   7.235  1.00  0.00     0.051 A 
ATOM     15  C   UNL     1      26.548  28.768   7.674  1.00  0.00     0.157 A 
ATOM     16  C   UNL     1      25.936  31.066   7.182  1.00  0.00     0.062 A 
ATOM     17  C   UNL     1      26.873  30.135   7.652  1.00  0.00     0.158 A 
BRANCH  15  18
ATOM     18  O   UNL     1      27.459  27.816   8.131  1.00  0.00    -0.504 OA
ATOM     19  H   UNL     1      28.340  28.078   8.558  1.00  0.00     0.293 HD
ENDBRANCH  15  18
BRANCH  17  20
ATOM     20  O   UNL     1      28.120  30.562   8.101  1.00  0.00    -0.504 OA
ATOM     21  H   UNL     1      28.298  31.533   8.332  1.00  0.00     0.293 HD
ENDBRANCH  17  20
ENDBRANCH   1  12
BRANCH   2  22
ATOM     22  O   UNL     1      24.369  31.367   3.924  1.00  0.00    -0.502 OA
ATOM     23  H   UNL     1      24.033  31.119   3.001  1.00  0.00     0.293 HD
ENDBRANCH   2  22
BRANCH   9  24
ATOM     24  O   UNL     1      19.260  34.983   8.525  1.00  0.00    -0.508 OA
ATOM     25  H   UNL     1      19.610  35.649   9.204  1.00  0.00     0.293 HD
ENDBRANCH   9  24
TORSDOF 5
ENDMDL
MODEL 8
REMARK VINA RESULT:    -5.350      2.268      6.865
REMARK INTER + INTRA:          -6.563
REMARK INTER:                  -6.246
REMARK INTRA:                  -0.317
REMARK UNBOUND:                -0.275
REMARK SMILES O=c1c(O)c(-c2ccc(O)c(O)c2)oc2cc(O)ccc12
REMARK SMILES IDX 5 1 3 2 2 3 1 4 21 5 15 6 14 7 16 8 17 9 19 10 20 11 6 12
REMARK SMILES IDX 7 13 8 14 9 15 13 16 11 17 10 18 12 20 4 22 18 24
REMARK H PARENT 10 19 12 21 4 23 18 25
REMARK Flexibility Score: inf
ROOT
ATOM      1  C   UNL     1      22.963  31.951   6.237  1.00  0.00     0.180 A 
ATOM      2  C   UNL     1      22.819  31.738   7.624  1.00  0.00     0.208 A 
ATOM      3  C   UNL     1      22.180  32.721   8.396  1.00  0.00     0.235 A 
ATOM      4  O   UNL     1      22.030  32.549   9.637  1.00  0.00    -0.285 OA
ATOM      5  C   UNL     1      21.719  33.894   7.778  1.00  0.00     0.069 A 
ATOM      6  C   UNL     1      21.923  34.043   6.388  1.00  0.00     0.142 A 
ATOM      7  O   UNL     1      22.525  33.085   5.692  1.00  0.00    -0.452 OA
ATOM      8  C   UNL     1      21.488  35.201   5.737  1.00  0.00     0.094 A 
ATOM      9  C   UNL     1      20.848  36.217   6.456  1.00  0.00     0.119 A 
ATOM     10  C   UNL     1      20.643  36.073   7.835  1.00  0.00     0.047 A 
ATOM     11  C   UNL     1      21.076  34.919   8.495  1.00  0.00     0.020 A 
ENDROOT
BRANCH   1  12
ATOM     12  C   UNL     1      23.607  30.955   5.351  1.00  0.00     0.025 A 
ATOM     13  C   UNL     1      22.825  29.952   4.757  1.00  0.00     0.016 A 
ATOM     14  C   UNL     1      23.415  28.989   3.934  1.00  0.00     0.051 A 
ATOM     15  C   UNL     1      24.794  29.005   3.704  1.00  0.00     0.157 A 
ATOM     16  C   UNL     1      24.998  30.957   5.135  1.00  0.00     0.062 A 
ATOM     17  C   UNL     1      25.592  29.990   4.311  1.00  0.00     0.158 A 
BRANCH  15  18
ATOM     18  O   UNL     1      25.354  28.033   2.876  1.00  0.00    -0.504 OA
ATOM     19  H   UNL     1      25.399  27.057   3.146  1.00  0.00     0.293 HD
ENDBRANCH  15  18
BRANCH  17  20
ATOM     20  O   UNL     1      26.968  30.002   4.097  1.00  0.00    -0.504 OA
ATOM     21  H   UNL     1      27.413  29.352   3.459  1.00  0.00     0.293 HD
ENDBRANCH  17  20
ENDBRANCH   1  12
BRANCH   2  22
ATOM     22  O   UNL     1      23.331  30.583   8.219  1.00  0.00    -0.502 OA
ATOM     23  H   UNL     1      22.757  29.960   8.774  1.00  0.00     0.293 HD
ENDBRANCH   2  22
BRANCH   9  24
ATOM     24  O   UNL     1      20.421  37.364   5.791  1.00  0.00    -0.508 OA
ATOM     25  H   UNL     1      20.067  38.168   6.297  1.00  0.00     0.293 HD
ENDBRANCH   9  24
TORSDOF 5
ENDMDL
MODEL 9
REMARK VINA RESULT:    -5.336      2.065      6.930
REMARK INTER + INTRA:          -6.547
REMARK INTER:                  -6.244
REMARK INTRA:                  -0.303
REMARK UNBOUND:                -0.275
REMARK SMILES O=c1c(O)c(-c2ccc(O)c(O)c2)oc2cc(O)ccc12
REMARK SMILES IDX 5 1 3 2 2 3 1 4 21 5 15 6 14 7 16 8 17 9 19 10 20 11 6 12
REMARK SMILES IDX 7 13 8 14 9 15 13 16 11 17 10 18 12 20 4 22 18 24
REMARK H PARENT 10 19 12 21 4 23 18 25
REMARK Flexibility Score: inf
ROOT
ATOM      1  C   UNL     1      22.666  31.109   6.147  1.00  0.00     0.180 A 
ATOM      2  C   UNL     1      22.971  31.277   7.515  1.00  0.00     0.208 A 
ATOM      3  C   UNL     1      22.307  32.282   8.237  1.00  0.00     0.235 A 
ATOM      4  O   UNL     1      22.555  32.445   9.463  1.00  0.00    -0.285 OA
ATOM      5  C   UNL     1      21.378  33.104   7.581  1.00  0.00     0.069 A 
ATOM      6  C   UNL     1      21.147  32.888   6.205  1.00  0.00     0.142 A 
ATOM      7  O   UNL     1      21.789  31.920   5.560  1.00  0.00    -0.452 OA
ATOM      8  C   UNL     1      20.235  33.693   5.513  1.00  0.00     0.094 A 
ATOM      9  C   UNL     1      19.548  34.714   6.179  1.00  0.00     0.119 A 
ATOM     10  C   UNL     1      19.774  34.930   7.546  1.00  0.00     0.047 A 
ATOM     11  C   UNL     1      20.684  34.132   8.245  1.00  0.00     0.020 A 
ENDROOT
BRANCH   1  12
ATOM     12  C   UNL     1      23.308  30.060   5.323  1.00  0.00     0.025 A 
ATOM     13  C   UNL     1      24.337  30.413   4.435  1.00  0.00     0.016 A 
ATOM     14  C   UNL     1      24.943  29.444   3.633  1.00  0.00     0.051 A 
ATOM     15  C   UNL     1      24.521  28.112   3.692  1.00  0.00     0.157 A 
ATOM     16  C   UNL     1      22.870  28.724   5.366  1.00  0.00     0.062 A 
ATOM     17  C   UNL     1      23.476  27.749   4.559  1.00  0.00     0.158 A 
BRANCH  15  18
ATOM     18  O   UNL     1      25.147  27.166   2.881  1.00  0.00    -0.504 OA
ATOM     19  H   UNL     1      25.280  26.207   3.179  1.00  0.00     0.293 HD
ENDBRANCH  15  18
BRANCH  17  20
ATOM     20  O   UNL     1      23.041  26.427   4.612  1.00  0.00    -0.504 OA
ATOM     21  H   UNL     1      22.419  26.044   3.909  1.00  0.00     0.293 HD
ENDBRANCH  17  20
ENDBRANCH   1  12
BRANCH   2  22
ATOM     22  O   UNL     1      23.936  30.476   8.128  1.00  0.00    -0.502 OA
ATOM     23  H   UNL     1      23.946  30.308   9.128  1.00  0.00     0.293 HD
ENDBRANCH   2  22
BRANCH   9  24
ATOM     24  O   UNL     1      18.644  35.505   5.475  1.00  0.00    -0.508 OA
ATOM     25  H   UNL     1      17.789  35.118   5.091  1.00  0.00     0.293 HD
ENDBRANCH   9  24
TORSDOF 5
ENDMDL
