MODEL 1
REMARK VINA RESULT:    -5.073      0.000      0.000
REMARK INTER + INTRA:          -5.772
REMARK INTER:                  -5.518
REMARK INTRA:                  -0.254
REMARK UNBOUND:                -0.254
REMARK SMILES O=C([O-])c1ccccc1O
REMARK SMILES IDX 4 1 9 2 5 3 8 4 6 5 7 6 2 7 1 8 3 9 10 10
REMARK H PARENT 10 11
REMARK Flexibility Score: inf
ROOT
ATOM      1  C   UNL     1       2.904  -9.192   3.921  1.00  0.00     0.039 A 
ATOM      2  C   UNL     1       2.379  -9.257   5.234  1.00  0.00     0.124 A 
ATOM      3  C   UNL     1       4.191  -8.649   3.732  1.00  0.00     0.014 A 
ATOM      4  C   UNL     1       3.139  -8.785   6.316  1.00  0.00     0.047 A 
ATOM      5  C   UNL     1       4.936  -8.183   4.818  1.00  0.00     0.001 A 
ATOM      6  C   UNL     1       4.411  -8.251   6.107  1.00  0.00     0.004 A 
ENDROOT
BRANCH   1   7
ATOM      7  C   UNL     1       2.136  -9.680   2.747  1.00  0.00     0.075 C 
ATOM      8  O   UNL     1       2.701 -10.374   1.860  1.00  0.00    -0.545 OA
ATOM      9  O   UNL     1       0.786  -9.384   2.599  1.00  0.00    -0.545 OA
ENDBRANCH   1   7
BRANCH   2  10
ATOM     10  O   UNL     1       1.110  -9.786   5.470  1.00  0.00    -0.507 OA
ATOM     11  H   UNL     1       0.424  -9.295   6.032  1.00  0.00     0.293 HD
ENDBRANCH   2  10
TORSDOF 2
ENDMDL
MODEL 2
REMARK VINA RESULT:    -4.853      1.541      2.707
REMARK INTER + INTRA:          -5.533
REMARK INTER:                  -5.323
REMARK INTRA:                  -0.210
REMARK UNBOUND:                -0.254
REMARK SMILES O=C([O-])c1ccccc1O
REMARK SMILES IDX 4 1 9 2 5 3 8 4 6 5 7 6 2 7 1 8 3 9 10 10
REMARK H PARENT 10 11
REMARK Flexibility Score: inf
ROOT
ATOM      1  C   UNL     1       3.584  -9.001   5.115  1.00  0.00     0.039 A 
ATOM      2  C   UNL     1       4.656  -8.272   4.545  1.00  0.00     0.124 A 
ATOM      3  C   UNL     1       3.705  -9.456   6.443  1.00  0.00     0.014 A 
ATOM      4  C   UNL     1       5.810  -8.018   5.303  1.00  0.00     0.047 A 
ATOM      5  C   UNL     1       4.859  -9.194   7.186  1.00  0.00     0.001 A 
ATOM      6  C   UNL     1       5.910  -8.477   6.616  1.00  0.00     0.004 A 
ENDROOT
BRANCH   1   7
ATOM      7  C   UNL     1       2.345  -9.294   4.350  1.00  0.00     0.075 C 
ATOM      8  O   UNL     1       1.273  -9.566   4.955  1.00  0.00    -0.545 OA
ATOM      9  O   UNL     1       2.337  -9.275   2.960  1.00  0.00    -0.545 OA
ENDBRANCH   1   7
BRANCH   2  10
ATOM     10  O   UNL     1       4.582  -7.803   3.233  1.00  0.00    -0.507 OA
ATOM     11  H   UNL     1       4.771  -6.834   3.003  1.00  0.00     0.293 HD
ENDBRANCH   2  10
TORSDOF 2
ENDMDL
MODEL 3
REMARK VINA RESULT:    -4.425      1.498      2.188
REMARK INTER + INTRA:          -5.067
REMARK INTER:                  -4.827
REMARK INTRA:                  -0.240
REMARK UNBOUND:                -0.254
REMARK SMILES O=C([O-])c1ccccc1O
REMARK SMILES IDX 4 1 9 2 5 3 8 4 6 5 7 6 2 7 1 8 3 9 10 10
REMARK H PARENT 10 11
REMARK Flexibility Score: inf
ROOT
ATOM      1  C   UNL     1       3.772  -8.409   5.060  1.00  0.00     0.039 A 
ATOM      2  C   UNL     1       3.740  -7.784   6.330  1.00  0.00     0.124 A 
ATOM      3  C   UNL     1       5.005  -8.508   4.384  1.00  0.00     0.014 A 
ATOM      4  C   UNL     1       4.923  -7.279   6.891  1.00  0.00     0.047 A 
ATOM      5  C   UNL     1       6.175  -8.001   4.955  1.00  0.00     0.001 A 
ATOM      6  C   UNL     1       6.134  -7.387   6.206  1.00  0.00     0.004 A 
ENDROOT
BRANCH   1   7
ATOM      7  C   UNL     1       2.545  -8.958   4.428  1.00  0.00     0.075 C 
ATOM      8  O   UNL     1       1.679  -9.549   5.127  1.00  0.00    -0.545 OA
ATOM      9  O   UNL     1       2.324  -8.834   3.061  1.00  0.00    -0.545 OA
ENDBRANCH   1   7
BRANCH   2  10
ATOM     10  O   UNL     1       2.543  -7.663   7.036  1.00  0.00    -0.507 OA
ATOM     11  H   UNL     1       1.981  -8.471   7.275  1.00  0.00     0.293 HD
ENDBRANCH   2  10
TORSDOF 2
ENDMDL
MODEL 4
REMARK VINA RESULT:    -4.316      3.006      4.156
REMARK INTER + INTRA:          -4.948
REMARK INTER:                  -4.741
REMARK INTRA:                  -0.208
REMARK UNBOUND:                -0.254
REMARK SMILES O=C([O-])c1ccccc1O
REMARK SMILES IDX 4 1 9 2 5 3 8 4 6 5 7 6 2 7 1 8 3 9 10 10
REMARK H PARENT 10 11
REMARK Flexibility Score: inf
ROOT
ATOM      1  C   UNL     1       4.613  -8.011   5.631  1.00  0.00     0.039 A 
ATOM      2  C   UNL     1       3.447  -8.421   6.321  1.00  0.00     0.124 A 
ATOM      3  C   UNL     1       4.743  -8.338   4.266  1.00  0.00     0.014 A 
ATOM      4  C   UNL     1       2.450  -9.139   5.643  1.00  0.00     0.047 A 
ATOM      5  C   UNL     1       3.742  -9.053   3.604  1.00  0.00     0.001 A 
ATOM      6  C   UNL     1       2.597  -9.453   4.292  1.00  0.00     0.004 A 
ENDROOT
BRANCH   1   7
ATOM      7  C   UNL     1       5.695  -7.250   6.308  1.00  0.00     0.075 C 
ATOM      8  O   UNL     1       5.495  -6.066   6.691  1.00  0.00    -0.545 OA
ATOM      9  O   UNL     1       6.943  -7.819   6.531  1.00  0.00    -0.545 OA
ENDBRANCH   1   7
BRANCH   2  10
ATOM     10  O   UNL     1       3.274  -8.121   7.672  1.00  0.00    -0.507 OA
ATOM     11  H   UNL     1       3.912  -8.467   8.380  1.00  0.00     0.293 HD
ENDBRANCH   2  10
TORSDOF 2
ENDMDL
MODEL 5
REMARK VINA RESULT:    -4.289      9.349     10.348
REMARK INTER + INTRA:          -4.920
REMARK INTER:                  -4.683
REMARK INTRA:                  -0.237
REMARK UNBOUND:                -0.254
REMARK SMILES O=C([O-])c1ccccc1O
REMARK SMILES IDX 4 1 9 2 5 3 8 4 6 5 7 6 2 7 1 8 3 9 10 10
REMARK H PARENT 10 11
REMARK Flexibility Score: inf
ROOT
ATOM      1  C   UNL     1       7.233  -0.450   5.119  1.00  0.00     0.039 A 
ATOM      2  C   UNL     1       7.510   0.566   4.173  1.00  0.00     0.124 A 
ATOM      3  C   UNL     1       8.283  -0.927   5.928  1.00  0.00     0.014 A 
ATOM      4  C   UNL     1       8.811   1.078   4.057  1.00  0.00     0.047 A 
ATOM      5  C   UNL     1       9.574  -0.408   5.802  1.00  0.00     0.001 A 
ATOM      6  C   UNL     1       9.838   0.592   4.868  1.00  0.00     0.004 A 
ENDROOT
BRANCH   1   7
ATOM      7  C   UNL     1       5.870  -1.021   5.276  1.00  0.00     0.075 C 
ATOM      8  O   UNL     1       5.310  -1.606   4.311  1.00  0.00    -0.545 OA
ATOM      9  O   UNL     1       5.185  -0.923   6.482  1.00  0.00    -0.545 OA
ENDBRANCH   1   7
BRANCH   2  10
ATOM     10  O   UNL     1       6.502   1.069   3.350  1.00  0.00    -0.507 OA
ATOM     11  H   UNL     1       5.875   1.802   3.662  1.00  0.00     0.293 HD
ENDBRANCH   2  10
TORSDOF 2
ENDMDL
MODEL 6
REMARK VINA RESULT:    -4.256     18.515     19.648
REMARK INTER + INTRA:          -4.884
REMARK INTER:                  -4.674
REMARK INTRA:                  -0.210
REMARK UNBOUND:                -0.254
REMARK SMILES O=C([O-])c1ccccc1O
REMARK SMILES IDX 4 1 9 2 5 3 8 4 6 5 7 6 2 7 1 8 3 9 10 10
REMARK H PARENT 10 11
REMARK Flexibility Score: inf
ROOT
ATOM      1  C   UNL     1      11.813   3.093  -8.296  1.00  0.00     0.039 A 
ATOM      2  C   UNL     1      10.763   2.259  -7.843  1.00  0.00     0.124 A 
ATOM      3  C   UNL     1      11.520   4.429  -8.635  1.00  0.00     0.014 A 
ATOM      4  C   UNL     1       9.459   2.769  -7.740  1.00  0.00     0.047 A 
ATOM      5  C   UNL     1      10.218   4.924  -8.526  1.00  0.00     0.001 A 
ATOM      6  C   UNL     1       9.189   4.095  -8.080  1.00  0.00     0.004 A 
ENDROOT
BRANCH   1   7
ATOM      7  C   UNL     1      13.207   2.595  -8.421  1.00  0.00     0.075 C 
ATOM      8  O   UNL     1      14.174   3.403  -8.415  1.00  0.00    -0.545 OA
ATOM      9  O   UNL     1      13.477   1.237  -8.549  1.00  0.00    -0.545 OA
ENDBRANCH   1   7
BRANCH   2  10
ATOM     10  O   UNL     1      11.005   0.929  -7.497  1.00  0.00    -0.507 OA
ATOM     11  H   UNL     1      10.732   0.163  -8.102  1.00  0.00     0.293 HD
ENDBRANCH   2  10
TORSDOF 2
ENDMDL
MODEL 7
REMARK VINA RESULT:    -4.091      8.512      9.563
REMARK INTER + INTRA:          -4.704
REMARK INTER:                  -4.506
REMARK INTRA:                  -0.198
REMARK UNBOUND:                -0.254
REMARK SMILES O=C([O-])c1ccccc1O
REMARK SMILES IDX 4 1 9 2 5 3 8 4 6 5 7 6 2 7 1 8 3 9 10 10
REMARK H PARENT 10 11
REMARK Flexibility Score: inf
ROOT
ATOM      1  C   UNL     1      -0.614 -12.230  -3.892  1.00  0.00     0.039 A 
ATOM      2  C   UNL     1      -1.090 -11.197  -3.049  1.00  0.00     0.124 A 
ATOM      3  C   UNL     1      -0.869 -13.569  -3.534  1.00  0.00     0.014 A 
ATOM      4  C   UNL     1      -1.800 -11.519  -1.881  1.00  0.00     0.047 A 
ATOM      5  C   UNL     1      -1.578 -13.874  -2.370  1.00  0.00     0.001 A 
ATOM      6  C   UNL     1      -2.042 -12.851  -1.544  1.00  0.00     0.004 A 
ENDROOT
BRANCH   1   7
ATOM      7  C   UNL     1       0.141 -11.936  -5.137  1.00  0.00     0.075 C 
ATOM      8  O   UNL     1      -0.442 -11.420  -6.128  1.00  0.00    -0.545 OA
ATOM      9  O   UNL     1       1.498 -12.220  -5.238  1.00  0.00    -0.545 OA
ENDBRANCH   1   7
BRANCH   2  10
ATOM     10  O   UNL     1      -0.862  -9.857  -3.362  1.00  0.00    -0.507 OA
ATOM     11  H   UNL     1      -1.300  -9.106  -2.841  1.00  0.00     0.293 HD
ENDBRANCH   2  10
TORSDOF 2
ENDMDL
MODEL 8
REMARK VINA RESULT:    -4.058      2.957      4.617
REMARK INTER + INTRA:          -4.668
REMARK INTER:                  -4.413
REMARK INTRA:                  -0.255
REMARK UNBOUND:                -0.254
REMARK SMILES O=C([O-])c1ccccc1O
REMARK SMILES IDX 4 1 9 2 5 3 8 4 6 5 7 6 2 7 1 8 3 9 10 10
REMARK H PARENT 10 11
REMARK Flexibility Score: inf
ROOT
ATOM      1  C   UNL     1       4.000  -8.121   6.033  1.00  0.00     0.039 A 
ATOM      2  C   UNL     1       4.741  -8.142   4.827  1.00  0.00     0.124 A 
ATOM      3  C   UNL     1       2.754  -8.778   6.075  1.00  0.00     0.014 A 
ATOM      4  C   UNL     1       4.228  -8.809   3.703  1.00  0.00     0.047 A 
ATOM      5  C   UNL     1       2.257  -9.438   4.949  1.00  0.00     0.001 A 
ATOM      6  C   UNL     1       2.992  -9.453   3.765  1.00  0.00     0.004 A 
ENDROOT
BRANCH   1   7
ATOM      7  C   UNL     1       4.504  -7.428   7.247  1.00  0.00     0.075 C 
ATOM      8  O   UNL     1       3.746  -6.666   7.906  1.00  0.00    -0.545 OA
ATOM      9  O   UNL     1       5.813  -7.600   7.682  1.00  0.00    -0.545 OA
ENDBRANCH   1   7
BRANCH   2  10
ATOM     10  O   UNL     1       5.979  -7.505   4.738  1.00  0.00    -0.507 OA
ATOM     11  H   UNL     1       6.803  -7.989   4.402  1.00  0.00     0.293 HD
ENDBRANCH   2  10
TORSDOF 2
ENDMDL
MODEL 9
REMARK VINA RESULT:    -4.047     10.230     11.494
REMARK INTER + INTRA:          -4.656
REMARK INTER:                  -4.406
REMARK INTRA:                  -0.251
REMARK UNBOUND:                -0.254
REMARK SMILES O=C([O-])c1ccccc1O
REMARK SMILES IDX 4 1 9 2 5 3 8 4 6 5 7 6 2 7 1 8 3 9 10 10
REMARK H PARENT 10 11
REMARK Flexibility Score: inf
ROOT
ATOM      1  C   UNL     1      13.174 -10.274   0.173  1.00  0.00     0.039 A 
ATOM      2  C   UNL     1      12.153 -11.194  -0.165  1.00  0.00     0.124 A 
ATOM      3  C   UNL     1      14.517 -10.690   0.084  1.00  0.00     0.014 A 
ATOM      4  C   UNL     1      12.490 -12.493  -0.579  1.00  0.00     0.047 A 
ATOM      5  C   UNL     1      14.838 -11.985  -0.330  1.00  0.00     0.001 A 
ATOM      6  C   UNL     1      13.826 -12.885  -0.660  1.00  0.00     0.004 A 
ENDROOT
BRANCH   1   7
ATOM      7  C   UNL     1      12.863  -8.890   0.616  1.00  0.00     0.075 C 
ATOM      8  O   UNL     1      12.087  -8.164  -0.062  1.00  0.00    -0.545 OA
ATOM      9  O   UNL     1      13.417  -8.367   1.778  1.00  0.00    -0.545 OA
ENDBRANCH   1   7
BRANCH   2  10
ATOM     10  O   UNL     1      10.808 -10.828  -0.092  1.00  0.00    -0.507 OA
ATOM     11  H   UNL     1      10.147 -11.082  -0.817  1.00  0.00     0.293 HD
ENDBRANCH   2  10
TORSDOF 2
ENDMDL
