MODEL 1
REMARK VINA RESULT:    -2.799      0.000      0.000
REMARK INTER + INTRA:          -3.044
REMARK INTER:                  -3.044
REMARK INTRA:                   0.000
REMARK UNBOUND:                 0.000
REMARK SMILES [NH3+]CC(=O)[O-]
REMARK SMILES IDX 2 1 1 2 3 6 4 7 5 8
REMARK H PARENT 1 3 1 4 1 5
REMARK Flexibility Score: inf
ROOT
ATOM      1  C   UNL     1     158.551 150.948 151.328  1.00  0.00     0.312 C 
ENDROOT
BRANCH   1   2
ATOM      2  N   UNL     1     159.619 150.077 151.814  1.00  0.00    -0.353 N 
ATOM      3  H   UNL     1     160.547 150.543 151.689  1.00  0.00     0.344 HD
ATOM      4  H   UNL     1     159.605 149.169 151.296  1.00  0.00     0.344 HD
ATOM      5  H   UNL     1     159.470 149.889 152.832  1.00  0.00     0.344 HD
ENDBRANCH   1   2
BRANCH   1   6
ATOM      6  C   UNL     1     157.890 150.350 150.124  1.00  0.00     0.096 C 
ATOM      7  O   UNL     1     156.707 149.924 150.197  1.00  0.00    -0.544 OA
ATOM      8  O   UNL     1     158.598 150.218 148.936  1.00  0.00    -0.544 OA
ENDBRANCH   1   6
TORSDOF 2
ENDMDL
MODEL 2
REMARK VINA RESULT:    -2.769     24.101     24.492
REMARK INTER + INTRA:          -3.012
REMARK INTER:                  -3.012
REMARK INTRA:                   0.000
REMARK UNBOUND:                 0.000
REMARK SMILES [NH3+]CC(=O)[O-]
REMARK SMILES IDX 2 1 1 2 3 6 4 7 5 8
REMARK H PARENT 1 3 1 4 1 5
REMARK Flexibility Score: inf
ROOT
ATOM      1  C   UNL     1     159.195 167.333 166.737  1.00  0.00     0.312 C 
ENDROOT
BRANCH   1   2
ATOM      2  N   UNL     1     160.535 166.956 167.184  1.00  0.00    -0.353 N 
ATOM      3  H   UNL     1     160.477 166.157 167.857  1.00  0.00     0.344 HD
ATOM      4  H   UNL     1     161.003 167.772 167.642  1.00  0.00     0.344 HD
ATOM      5  H   UNL     1     161.101 166.661 166.357  1.00  0.00     0.344 HD
ENDBRANCH   1   2
BRANCH   1   6
ATOM      6  C   UNL     1     158.348 167.748 167.900  1.00  0.00     0.096 C 
ATOM      7  O   UNL     1     158.830 167.757 169.064  1.00  0.00    -0.544 OA
ATOM      8  O   UNL     1     157.012 168.077 167.705  1.00  0.00    -0.544 OA
ENDBRANCH   1   6
TORSDOF 2
ENDMDL
MODEL 3
REMARK VINA RESULT:    -2.765     16.859     17.304
REMARK INTER + INTRA:          -3.008
REMARK INTER:                  -3.008
REMARK INTRA:                   0.000
REMARK UNBOUND:                 0.000
REMARK SMILES [NH3+]CC(=O)[O-]
REMARK SMILES IDX 2 1 1 2 3 6 4 7 5 8
REMARK H PARENT 1 3 1 4 1 5
REMARK Flexibility Score: inf
ROOT
ATOM      1  C   UNL     1     159.106 151.012 166.873  1.00  0.00     0.312 C 
ENDROOT
BRANCH   1   2
ATOM      2  N   UNL     1     158.391 150.013 166.080  1.00  0.00    -0.353 N 
ATOM      3  H   UNL     1     157.578 150.456 165.593  1.00  0.00     0.344 HD
ATOM      4  H   UNL     1     158.055 149.238 166.698  1.00  0.00     0.344 HD
ATOM      5  H   UNL     1     159.040 149.617 165.363  1.00  0.00     0.344 HD
ENDBRANCH   1   2
BRANCH   1   6
ATOM      6  C   UNL     1     159.863 150.358 167.987  1.00  0.00     0.096 C 
ATOM      7  O   UNL     1     159.335 150.235 169.124  1.00  0.00    -0.544 OA
ATOM      8  O   UNL     1     161.169 149.930 167.784  1.00  0.00    -0.544 OA
ENDBRANCH   1   6
TORSDOF 2
ENDMDL
MODEL 4
REMARK VINA RESULT:    -2.758      0.873      1.689
REMARK INTER + INTRA:          -3.000
REMARK INTER:                  -3.000
REMARK INTRA:                   0.000
REMARK UNBOUND:                 0.000
REMARK SMILES [NH3+]CC(=O)[O-]
REMARK SMILES IDX 2 1 1 2 3 6 4 7 5 8
REMARK H PARENT 1 3 1 4 1 5
REMARK Flexibility Score: inf
ROOT
ATOM      1  C   UNL     1     159.204 150.698 151.216  1.00  0.00     0.312 C 
ENDROOT
BRANCH   1   2
ATOM      2  N   UNL     1     160.543 151.058 150.753  1.00  0.00    -0.353 N 
ATOM      3  H   UNL     1     161.196 150.251 150.882  1.00  0.00     0.344 HD
ATOM      4  H   UNL     1     160.894 151.888 151.283  1.00  0.00     0.344 HD
ATOM      5  H   UNL     1     160.499 151.299 149.737  1.00  0.00     0.344 HD
ENDBRANCH   1   2
BRANCH   1   6
ATOM      6  C   UNL     1     158.340 150.284 150.064  1.00  0.00     0.096 C 
ATOM      7  O   UNL     1     158.796 150.308 148.891  1.00  0.00    -0.544 OA
ATOM      8  O   UNL     1     157.017 149.920 150.282  1.00  0.00    -0.544 OA
ENDBRANCH   1   6
TORSDOF 2
ENDMDL
MODEL 5
REMARK VINA RESULT:    -2.743     17.261     17.487
REMARK INTER + INTRA:          -2.984
REMARK INTER:                  -2.984
REMARK INTRA:                   0.000
REMARK UNBOUND:                 0.000
REMARK SMILES [NH3+]CC(=O)[O-]
REMARK SMILES IDX 2 1 1 2 3 6 4 7 5 8
REMARK H PARENT 1 3 1 4 1 5
REMARK Flexibility Score: inf
ROOT
ATOM      1  C   UNL     1     159.088 166.958 151.157  1.00  0.00     0.312 C 
ENDROOT
BRANCH   1   2
ATOM      2  N   UNL     1     158.290 167.958 151.865  1.00  0.00    -0.353 N 
ATOM      3  H   UNL     1     157.815 168.589 151.179  1.00  0.00     0.344 HD
ATOM      4  H   UNL     1     158.902 168.522 152.500  1.00  0.00     0.344 HD
ATOM      5  H   UNL     1     157.563 167.472 152.438  1.00  0.00     0.344 HD
ENDBRANCH   1   2
BRANCH   1   6
ATOM      6  C   UNL     1     159.850 167.591 150.033  1.00  0.00     0.096 C 
ATOM      7  O   UNL     1     159.352 167.635 148.877  1.00  0.00    -0.544 OA
ATOM      8  O   UNL     1     161.129 168.085 150.252  1.00  0.00    -0.544 OA
ENDBRANCH   1   6
TORSDOF 2
ENDMDL
MODEL 6
REMARK VINA RESULT:    -2.692     16.786     17.273
REMARK INTER + INTRA:          -2.928
REMARK INTER:                  -2.928
REMARK INTRA:                   0.000
REMARK UNBOUND:                 0.000
REMARK SMILES [NH3+]CC(=O)[O-]
REMARK SMILES IDX 2 1 1 2 3 6 4 7 5 8
REMARK H PARENT 1 3 1 4 1 5
REMARK Flexibility Score: inf
ROOT
ATOM      1  C   UNL     1     159.384 150.748 166.894  1.00  0.00     0.312 C 
ENDROOT
BRANCH   1   2
ATOM      2  N   UNL     1     158.343 150.067 166.126  1.00  0.00    -0.353 N 
ATOM      3  H   UNL     1     157.597 150.747 165.851  1.00  0.00     0.344 HD
ATOM      4  H   UNL     1     157.926 149.293 166.694  1.00  0.00     0.344 HD
ATOM      5  H   UNL     1     158.767 149.661 165.261  1.00  0.00     0.344 HD
ENDBRANCH   1   2
BRANCH   1   6
ATOM      6  C   UNL     1     158.775 151.640 167.932  1.00  0.00     0.096 C 
ATOM      7  O   UNL     1     157.588 152.040 167.805  1.00  0.00    -0.544 OA
ATOM      8  O   UNL     1     159.536 152.070 169.012  1.00  0.00    -0.544 OA
ENDBRANCH   1   6
TORSDOF 2
ENDMDL
MODEL 7
REMARK VINA RESULT:    -2.687     23.607     23.985
REMARK INTER + INTRA:          -2.922
REMARK INTER:                  -2.922
REMARK INTRA:                   0.000
REMARK UNBOUND:                 0.000
REMARK SMILES [NH3+]CC(=O)[O-]
REMARK SMILES IDX 2 1 1 2 3 6 4 7 5 8
REMARK H PARENT 1 3 1 4 1 5
REMARK Flexibility Score: inf
ROOT
ATOM      1  C   UNL     1     158.645 167.224 166.735  1.00  0.00     0.312 C 
ENDROOT
BRANCH   1   2
ATOM      2  N   UNL     1     159.709 167.966 166.061  1.00  0.00    -0.353 N 
ATOM      3  H   UNL     1     160.185 168.606 166.738  1.00  0.00     0.344 HD
ATOM      4  H   UNL     1     159.312 168.521 165.267  1.00  0.00     0.344 HD
ATOM      5  H   UNL     1     160.411 167.289 165.683  1.00  0.00     0.344 HD
ENDBRANCH   1   2
BRANCH   1   6
ATOM      6  C   UNL     1     159.138 166.656 168.030  1.00  0.00     0.096 C 
ATOM      7  O   UNL     1     158.656 167.058 169.122  1.00  0.00    -0.544 OA
ATOM      8  O   UNL     1     160.165 165.720 168.034  1.00  0.00    -0.544 OA
ENDBRANCH   1   6
TORSDOF 2
ENDMDL
MODEL 8
REMARK VINA RESULT:    -2.652     15.937     16.112
REMARK INTER + INTRA:          -2.884
REMARK INTER:                  -2.884
REMARK INTRA:                   0.000
REMARK UNBOUND:                 0.000
REMARK SMILES [NH3+]CC(=O)[O-]
REMARK SMILES IDX 2 1 1 2 3 6 4 7 5 8
REMARK H PARENT 1 3 1 4 1 5
REMARK Flexibility Score: inf
ROOT
ATOM      1  C   UNL     1     159.402 167.204 151.185  1.00  0.00     0.312 C 
ENDROOT
BRANCH   1   2
ATOM      2  N   UNL     1     158.371 167.958 151.897  1.00  0.00    -0.353 N 
ATOM      3  H   UNL     1     158.055 168.770 151.318  1.00  0.00     0.344 HD
ATOM      4  H   UNL     1     158.743 168.298 152.813  1.00  0.00     0.344 HD
ATOM      5  H   UNL     1     157.553 167.332 152.075  1.00  0.00     0.344 HD
ENDBRANCH   1   2
BRANCH   1   6
ATOM      6  C   UNL     1     158.873 165.873 150.745  1.00  0.00     0.096 C 
ATOM      7  O   UNL     1     157.856 165.809 150.006  1.00  0.00    -0.544 OA
ATOM      8  O   UNL     1     159.475 164.704 151.193  1.00  0.00    -0.544 OA
ENDBRANCH   1   6
TORSDOF 2
ENDMDL
MODEL 9
REMARK VINA RESULT:    -2.592      1.881      2.182
REMARK INTER + INTRA:          -2.819
REMARK INTER:                  -2.819
REMARK INTRA:                   0.000
REMARK UNBOUND:                 0.000
REMARK SMILES [NH3+]CC(=O)[O-]
REMARK SMILES IDX 2 1 1 2 3 6 4 7 5 8
REMARK H PARENT 1 3 1 4 1 5
REMARK Flexibility Score: inf
ROOT
ATOM      1  C   UNL     1     159.601 151.076 150.864  1.00  0.00     0.312 C 
ENDROOT
BRANCH   1   2
ATOM      2  N   UNL     1     159.674 150.021 151.874  1.00  0.00    -0.353 N 
ATOM      3  H   UNL     1     158.716 149.799 152.230  1.00  0.00     0.344 HD
ATOM      4  H   UNL     1     160.286 150.325 152.666  1.00  0.00     0.344 HD
ATOM      5  H   UNL     1     160.082 149.162 151.441  1.00  0.00     0.344 HD
ENDBRANCH   1   2
BRANCH   1   6
ATOM      6  C   UNL     1     158.305 151.820 150.972  1.00  0.00     0.096 C 
ATOM      7  O   UNL     1     158.285 152.994 151.427  1.00  0.00    -0.544 OA
ATOM      8  O   UNL     1     157.115 151.198 150.617  1.00  0.00    -0.544 OA
ENDBRANCH   1   6
TORSDOF 2
ENDMDL
