MODEL 1
REMARK VINA RESULT:    -4.890      0.000      0.000
REMARK INTER + INTRA:          -9.856
REMARK INTER:                  -9.178
REMARK INTRA:                  -0.678
REMARK UNBOUND:                -0.678
REMARK SMILES O=C([O-])CCCCCCCCCCCCCCC(=O)[O-]
REMARK SMILES IDX 10 1 9 2 8 3 7 4 6 5 5 6 4 7 2 8 1 9 3 10 11 11 12 12 13 13
REMARK SMILES IDX 14 14 15 15 16 16 17 17 18 18 19 19 20 20
REMARK H PARENT
REMARK Flexibility Score: inf
ROOT
ATOM      1  C   UNL     1      95.313 124.081 123.946  1.00  0.00     0.000 C 
ENDROOT
BRANCH   1   2
ATOM      2  C   UNL     1      96.527 124.652 124.692  1.00  0.00     0.000 C 
BRANCH   2   3
ATOM      3  C   UNL     1      96.962 123.716 125.830  1.00  0.00     0.000 C 
BRANCH   3   4
ATOM      4  C   UNL     1      98.200 124.232 126.582  1.00  0.00     0.000 C 
BRANCH   4   5
ATOM      5  C   UNL     1      99.378 123.244 126.526  1.00  0.00     0.000 C 
BRANCH   5   6
ATOM      6  C   UNL     1      98.918 121.778 126.510  1.00  0.00     0.006 C 
BRANCH   6   7
ATOM      7  C   UNL     1      99.982 120.816 127.056  1.00  0.00     0.053 C 
BRANCH   7   8
ATOM      8  C   UNL     1     100.655 120.090 125.933  1.00  0.00     0.041 C 
ATOM      9  O   UNL     1     100.090 119.994 124.812  1.00  0.00    -0.550 OA
ATOM     10  O   UNL     1     101.924 119.553 126.113  1.00  0.00    -0.550 OA
ENDBRANCH   7   8
ENDBRANCH   6   7
ENDBRANCH   5   6
ENDBRANCH   4   5
ENDBRANCH   3   4
ENDBRANCH   2   3
ENDBRANCH   1   2
BRANCH   1  11
ATOM     11  C   UNL     1      94.396 123.235 124.848  1.00  0.00     0.000 C 
BRANCH  11  12
ATOM     12  C   UNL     1      93.081 122.772 124.189  1.00  0.00     0.000 C 
BRANCH  12  13
ATOM     13  C   UNL     1      92.853 123.293 122.756  1.00  0.00     0.000 C 
BRANCH  13  14
ATOM     14  C   UNL     1      92.467 122.214 121.724  1.00  0.00     0.000 C 
BRANCH  14  15
ATOM     15  C   UNL     1      93.278 122.246 120.415  1.00  0.00     0.000 C 
BRANCH  15  16
ATOM     16  C   UNL     1      92.394 122.426 119.170  1.00  0.00     0.006 C 
BRANCH  16  17
ATOM     17  C   UNL     1      92.558 121.273 118.171  1.00  0.00     0.053 C 
BRANCH  17  18
ATOM     18  C   UNL     1      91.998 121.620 116.824  1.00  0.00     0.041 C 
ATOM     19  O   UNL     1      91.385 122.706 116.652  1.00  0.00    -0.550 OA
ATOM     20  O   UNL     1      92.132 120.731 115.766  1.00  0.00    -0.550 OA
ENDBRANCH  17  18
ENDBRANCH  16  17
ENDBRANCH  15  16
ENDBRANCH  14  15
ENDBRANCH  13  14
ENDBRANCH  12  13
ENDBRANCH  11  12
ENDBRANCH   1  11
TORSDOF 15
ENDMDL
MODEL 2
REMARK VINA RESULT:    -4.666     12.173     15.056
REMARK INTER + INTRA:          -9.436
REMARK INTER:                  -7.953
REMARK INTRA:                  -1.483
REMARK UNBOUND:                -0.678
REMARK SMILES O=C([O-])CCCCCCCCCCCCCCC(=O)[O-]
REMARK SMILES IDX 10 1 9 2 8 3 7 4 6 5 5 6 4 7 2 8 1 9 3 10 11 11 12 12 13 13
REMARK SMILES IDX 14 14 15 15 16 16 17 17 18 18 19 19 20 20
REMARK H PARENT
REMARK Flexibility Score: inf
ROOT
ATOM      1  C   UNL     1      84.243 124.435 126.810  1.00  0.00     0.000 C 
ENDROOT
BRANCH   1   2
ATOM      2  C   UNL     1      83.154 124.254 127.877  1.00  0.00     0.000 C 
BRANCH   2   3
ATOM      3  C   UNL     1      83.539 124.971 129.180  1.00  0.00     0.000 C 
BRANCH   3   4
ATOM      4  C   UNL     1      82.366 125.757 129.793  1.00  0.00     0.000 C 
BRANCH   4   5
ATOM      5  C   UNL     1      82.833 126.822 130.799  1.00  0.00     0.000 C 
BRANCH   5   6
ATOM      6  C   UNL     1      83.547 128.002 130.121  1.00  0.00     0.006 C 
BRANCH   6   7
ATOM      7  C   UNL     1      84.452 128.782 131.085  1.00  0.00     0.053 C 
BRANCH   7   8
ATOM      8  C   UNL     1      83.782 130.048 131.521  1.00  0.00     0.041 C 
ATOM      9  O   UNL     1      84.373 130.839 132.302  1.00  0.00    -0.550 OA
ATOM     10  O   UNL     1      82.522 130.372 131.035  1.00  0.00    -0.550 OA
ENDBRANCH   7   8
ENDBRANCH   6   7
ENDBRANCH   5   6
ENDBRANCH   4   5
ENDBRANCH   3   4
ENDBRANCH   2   3
ENDBRANCH   1   2
BRANCH   1  11
ATOM     11  C   UNL     1      83.773 124.042 125.398  1.00  0.00     0.000 C 
BRANCH  11  12
ATOM     12  C   UNL     1      84.245 122.654 124.917  1.00  0.00     0.000 C 
BRANCH  12  13
ATOM     13  C   UNL     1      83.175 121.547 124.975  1.00  0.00     0.000 C 
BRANCH  13  14
ATOM     14  C   UNL     1      83.261 120.621 126.205  1.00  0.00     0.000 C 
BRANCH  14  15
ATOM     15  C   UNL     1      84.630 120.599 126.909  1.00  0.00     0.000 C 
BRANCH  15  16
ATOM     16  C   UNL     1      84.523 120.808 128.430  1.00  0.00     0.006 C 
BRANCH  16  17
ATOM     17  C   UNL     1      85.692 121.633 128.984  1.00  0.00     0.053 C 
BRANCH  17  18
ATOM     18  C   UNL     1      86.572 120.817 129.883  1.00  0.00     0.041 C 
ATOM     19  O   UNL     1      86.285 119.616 130.133  1.00  0.00    -0.550 OA
ATOM     20  O   UNL     1      87.693 121.392 130.466  1.00  0.00    -0.550 OA
ENDBRANCH  17  18
ENDBRANCH  16  17
ENDBRANCH  15  16
ENDBRANCH  14  15
ENDBRANCH  13  14
ENDBRANCH  12  13
ENDBRANCH  11  12
ENDBRANCH   1  11
TORSDOF 15
ENDMDL
MODEL 3
REMARK VINA RESULT:    -4.630     11.855     14.975
REMARK INTER + INTRA:          -9.369
REMARK INTER:                  -7.687
REMARK INTRA:                  -1.682
REMARK UNBOUND:                -0.678
REMARK SMILES O=C([O-])CCCCCCCCCCCCCCC(=O)[O-]
REMARK SMILES IDX 10 1 9 2 8 3 7 4 6 5 5 6 4 7 2 8 1 9 3 10 11 11 12 12 13 13
REMARK SMILES IDX 14 14 15 15 16 16 17 17 18 18 19 19 20 20
REMARK H PARENT
REMARK Flexibility Score: inf
ROOT
ATOM      1  C   UNL     1      83.826 123.923 125.251  1.00  0.00     0.000 C 
ENDROOT
BRANCH   1   2
ATOM      2  C   UNL     1      83.768 124.248 126.751  1.00  0.00     0.000 C 
BRANCH   2   3
ATOM      3  C   UNL     1      82.422 123.818 127.353  1.00  0.00     0.000 C 
BRANCH   3   4
ATOM      4  C   UNL     1      82.295 124.183 128.842  1.00  0.00     0.000 C 
BRANCH   4   5
ATOM      5  C   UNL     1      83.428 125.107 129.321  1.00  0.00     0.000 C 
BRANCH   5   6
ATOM      6  C   UNL     1      83.045 125.909 130.575  1.00  0.00     0.006 C 
BRANCH   6   7
ATOM      7  C   UNL     1      82.267 127.190 130.246  1.00  0.00     0.053 C 
BRANCH   7   8
ATOM      8  C   UNL     1      83.109 128.397 130.518  1.00  0.00     0.041 C 
ATOM      9  O   UNL     1      82.856 129.136 131.505  1.00  0.00    -0.550 OA
ATOM     10  O   UNL     1      84.198 128.683 129.704  1.00  0.00    -0.550 OA
ENDBRANCH   7   8
ENDBRANCH   6   7
ENDBRANCH   5   6
ENDBRANCH   4   5
ENDBRANCH   3   4
ENDBRANCH   2   3
ENDBRANCH   1   2
BRANCH   1  11
ATOM     11  C   UNL     1      84.504 122.572 124.955  1.00  0.00     0.000 C 
BRANCH  11  12
ATOM     12  C   UNL     1      83.538 121.424 124.598  1.00  0.00     0.000 C 
BRANCH  12  13
ATOM     13  C   UNL     1      83.335 120.376 125.709  1.00  0.00     0.000 C 
BRANCH  13  14
ATOM     14  C   UNL     1      84.449 120.331 126.775  1.00  0.00     0.000 C 
BRANCH  14  15
ATOM     15  C   UNL     1      83.997 120.683 128.205  1.00  0.00     0.000 C 
BRANCH  15  16
ATOM     16  C   UNL     1      85.102 121.366 129.029  1.00  0.00     0.006 C 
BRANCH  16  17
ATOM     17  C   UNL     1      86.218 120.389 129.422  1.00  0.00     0.053 C 
BRANCH  17  18
ATOM     18  C   UNL     1      87.050 120.920 130.551  1.00  0.00     0.041 C 
ATOM     19  O   UNL     1      88.189 121.407 130.325  1.00  0.00    -0.550 OA
ATOM     20  O   UNL     1      86.576 120.854 131.854  1.00  0.00    -0.550 OA
ENDBRANCH  17  18
ENDBRANCH  16  17
ENDBRANCH  15  16
ENDBRANCH  14  15
ENDBRANCH  13  14
ENDBRANCH  12  13
ENDBRANCH  11  12
ENDBRANCH   1  11
TORSDOF 15
ENDMDL
MODEL 4
REMARK VINA RESULT:    -4.621      0.298      9.617
REMARK INTER + INTRA:          -9.350
REMARK INTER:                  -8.666
REMARK INTRA:                  -0.684
REMARK UNBOUND:                -0.678
REMARK SMILES O=C([O-])CCCCCCCCCCCCCCC(=O)[O-]
REMARK SMILES IDX 10 1 9 2 8 3 7 4 6 5 5 6 4 7 2 8 1 9 3 10 11 11 12 12 13 13
REMARK SMILES IDX 14 14 15 15 16 16 17 17 18 18 19 19 20 20
REMARK H PARENT
REMARK Flexibility Score: inf
ROOT
ATOM      1  C   UNL     1      94.142 123.156 124.864  1.00  0.00     0.000 C 
ENDROOT
BRANCH   1   2
ATOM      2  C   UNL     1      92.757 122.970 124.227  1.00  0.00     0.000 C 
BRANCH   2   3
ATOM      3  C   UNL     1      92.766 123.414 122.757  1.00  0.00     0.000 C 
BRANCH   3   4
ATOM      4  C   UNL     1      92.677 122.230 121.779  1.00  0.00     0.000 C 
BRANCH   4   5
ATOM      5  C   UNL     1      93.069 122.620 120.343  1.00  0.00     0.000 C 
BRANCH   5   6
ATOM      6  C   UNL     1      92.107 122.043 119.292  1.00  0.00     0.006 C 
BRANCH   6   7
ATOM      7  C   UNL     1      92.839 121.392 118.111  1.00  0.00     0.053 C 
BRANCH   7   8
ATOM      8  C   UNL     1      92.036 121.532 116.856  1.00  0.00     0.041 C 
ATOM      9  O   UNL     1      91.400 122.595 116.628  1.00  0.00    -0.550 OA
ATOM     10  O   UNL     1      92.022 120.506 115.920  1.00  0.00    -0.550 OA
ENDBRANCH   7   8
ENDBRANCH   6   7
ENDBRANCH   5   6
ENDBRANCH   4   5
ENDBRANCH   3   4
ENDBRANCH   2   3
ENDBRANCH   1   2
BRANCH   1  11
ATOM     11  C   UNL     1      95.043 124.121 124.072  1.00  0.00     0.000 C 
BRANCH  11  12
ATOM     12  C   UNL     1      96.524 124.132 124.504  1.00  0.00     0.000 C 
BRANCH  12  13
ATOM     13  C   UNL     1      96.775 123.752 125.977  1.00  0.00     0.000 C 
BRANCH  13  14
ATOM     14  C   UNL     1      98.053 124.353 126.597  1.00  0.00     0.000 C 
BRANCH  14  15
ATOM     15  C   UNL     1      99.264 123.403 126.640  1.00  0.00     0.000 C 
BRANCH  15  16
ATOM     16  C   UNL     1      98.883 121.937 126.371  1.00  0.00     0.006 C 
BRANCH  16  17
ATOM     17  C   UNL     1      99.835 120.955 127.066  1.00  0.00     0.053 C 
BRANCH  17  18
ATOM     18  C   UNL     1     100.667 120.193 126.079  1.00  0.00     0.041 C 
ATOM     19  O   UNL     1     101.850 119.867 126.363  1.00  0.00    -0.550 OA
ATOM     20  O   UNL     1     100.143 119.866 124.834  1.00  0.00    -0.550 OA
ENDBRANCH  17  18
ENDBRANCH  16  17
ENDBRANCH  15  16
ENDBRANCH  14  15
ENDBRANCH  13  14
ENDBRANCH  12  13
ENDBRANCH  11  12
ENDBRANCH   1  11
TORSDOF 15
ENDMDL
MODEL 5
REMARK VINA RESULT:    -4.269     12.284     15.242
REMARK INTER + INTRA:          -8.690
REMARK INTER:                  -6.803
REMARK INTRA:                  -1.886
REMARK UNBOUND:                -0.678
REMARK SMILES O=C([O-])CCCCCCCCCCCCCCC(=O)[O-]
REMARK SMILES IDX 10 1 9 2 8 3 7 4 6 5 5 6 4 7 2 8 1 9 3 10 11 11 12 12 13 13
REMARK SMILES IDX 14 14 15 15 16 16 17 17 18 18 19 19 20 20
REMARK H PARENT
REMARK Flexibility Score: inf
ROOT
ATOM      1  C   UNL     1      83.286 120.533 128.039  1.00  0.00     0.000 C 
ENDROOT
BRANCH   1   2
ATOM      2  C   UNL     1      84.326 120.259 126.942  1.00  0.00     0.000 C 
BRANCH   2   3
ATOM      3  C   UNL     1      83.727 120.495 125.548  1.00  0.00     0.000 C 
BRANCH   3   4
ATOM      4  C   UNL     1      84.361 121.696 124.825  1.00  0.00     0.000 C 
BRANCH   4   5
ATOM      5  C   UNL     1      83.355 122.834 124.579  1.00  0.00     0.000 C 
BRANCH   5   6
ATOM      6  C   UNL     1      83.684 124.098 125.390  1.00  0.00     0.006 C 
BRANCH   6   7
ATOM      7  C   UNL     1      83.068 124.078 126.796  1.00  0.00     0.053 C 
BRANCH   7   8
ATOM      8  C   UNL     1      84.109 124.385 127.827  1.00  0.00     0.041 C 
ATOM      9  O   UNL     1      85.326 124.423 127.505  1.00  0.00    -0.550 OA
ATOM     10  O   UNL     1      83.732 124.667 129.134  1.00  0.00    -0.550 OA
ENDBRANCH   7   8
ENDBRANCH   6   7
ENDBRANCH   5   6
ENDBRANCH   4   5
ENDBRANCH   3   4
ENDBRANCH   2   3
ENDBRANCH   1   2
BRANCH   1  11
ATOM     11  C   UNL     1      83.921 120.799 129.416  1.00  0.00     0.000 C 
BRANCH  11  12
ATOM     12  C   UNL     1      85.377 121.306 129.374  1.00  0.00     0.000 C 
BRANCH  12  13
ATOM     13  C   UNL     1      86.408 120.381 130.049  1.00  0.00     0.000 C 
BRANCH  13  14
ATOM     14  C   UNL     1      86.777 120.762 131.497  1.00  0.00     0.000 C 
BRANCH  14  15
ATOM     15  C   UNL     1      85.998 120.006 132.589  1.00  0.00     0.000 C 
BRANCH  15  16
ATOM     16  C   UNL     1      84.796 120.802 133.124  1.00  0.00     0.006 C 
BRANCH  16  17
ATOM     17  C   UNL     1      85.047 122.316 133.101  1.00  0.00     0.053 C 
BRANCH  17  18
ATOM     18  C   UNL     1      83.823 123.077 132.688  1.00  0.00     0.041 C 
ATOM     19  O   UNL     1      82.803 122.463 132.279  1.00  0.00    -0.550 OA
ATOM     20  O   UNL     1      83.820 124.465 132.732  1.00  0.00    -0.550 OA
ENDBRANCH  17  18
ENDBRANCH  16  17
ENDBRANCH  15  16
ENDBRANCH  14  15
ENDBRANCH  13  14
ENDBRANCH  12  13
ENDBRANCH  11  12
ENDBRANCH   1  11
TORSDOF 15
ENDMDL
MODEL 6
REMARK VINA RESULT:    -4.139     11.813     14.471
REMARK INTER + INTRA:          -8.446
REMARK INTER:                  -6.169
REMARK INTRA:                  -2.277
REMARK UNBOUND:                -0.678
REMARK SMILES O=C([O-])CCCCCCCCCCCCCCC(=O)[O-]
REMARK SMILES IDX 10 1 9 2 8 3 7 4 6 5 5 6 4 7 2 8 1 9 3 10 11 11 12 12 13 13
REMARK SMILES IDX 14 14 15 15 16 16 17 17 18 18 19 19 20 20
REMARK H PARENT
REMARK Flexibility Score: inf
ROOT
ATOM      1  C   UNL     1      84.357 123.406 125.235  1.00  0.00     0.000 C 
ENDROOT
BRANCH   1   2
ATOM      2  C   UNL     1      85.033 123.758 126.568  1.00  0.00     0.000 C 
BRANCH   2   3
ATOM      3  C   UNL     1      84.046 124.458 127.515  1.00  0.00     0.000 C 
BRANCH   3   4
ATOM      4  C   UNL     1      82.711 123.705 127.643  1.00  0.00     0.000 C 
BRANCH   4   5
ATOM      5  C   UNL     1      82.046 123.913 129.014  1.00  0.00     0.000 C 
BRANCH   5   6
ATOM      6  C   UNL     1      83.062 123.931 130.167  1.00  0.00     0.006 C 
BRANCH   6   7
ATOM      7  C   UNL     1      82.514 123.296 131.452  1.00  0.00     0.053 C 
BRANCH   7   8
ATOM      8  C   UNL     1      83.506 122.329 132.021  1.00  0.00     0.041 C 
ATOM      9  O   UNL     1      84.422 122.737 132.782  1.00  0.00    -0.550 OA
ATOM     10  O   UNL     1      83.393 120.973 131.742  1.00  0.00    -0.550 OA
ENDBRANCH   7   8
ENDBRANCH   6   7
ENDBRANCH   5   6
ENDBRANCH   4   5
ENDBRANCH   3   4
ENDBRANCH   2   3
ENDBRANCH   1   2
BRANCH   1  11
ATOM     11  C   UNL     1      84.511 121.921 124.858  1.00  0.00     0.000 C 
BRANCH  11  12
ATOM     12  C   UNL     1      83.188 121.132 124.769  1.00  0.00     0.000 C 
BRANCH  12  13
ATOM     13  C   UNL     1      83.033 120.004 125.807  1.00  0.00     0.000 C 
BRANCH  13  14
ATOM     14  C   UNL     1      84.226 119.834 126.769  1.00  0.00     0.000 C 
BRANCH  14  15
ATOM     15  C   UNL     1      83.972 120.303 128.213  1.00  0.00     0.000 C 
BRANCH  15  16
ATOM     16  C   UNL     1      85.181 121.029 128.826  1.00  0.00     0.006 C 
BRANCH  16  17
ATOM     17  C   UNL     1      86.129 120.064 129.552  1.00  0.00     0.053 C 
BRANCH  17  18
ATOM     18  C   UNL     1      87.025 120.783 130.515  1.00  0.00     0.041 C 
ATOM     19  O   UNL     1      87.989 121.473 130.089  1.00  0.00    -0.550 OA
ATOM     20  O   UNL     1      86.810 120.671 131.882  1.00  0.00    -0.550 OA
ENDBRANCH  17  18
ENDBRANCH  16  17
ENDBRANCH  15  16
ENDBRANCH  14  15
ENDBRANCH  13  14
ENDBRANCH  12  13
ENDBRANCH  11  12
ENDBRANCH   1  11
TORSDOF 15
ENDMDL
MODEL 7
REMARK VINA RESULT:    -4.086     13.031     15.422
REMARK INTER + INTRA:          -8.347
REMARK INTER:                  -6.152
REMARK INTRA:                  -2.195
REMARK UNBOUND:                -0.678
REMARK SMILES O=C([O-])CCCCCCCCCCCCCCC(=O)[O-]
REMARK SMILES IDX 10 1 9 2 8 3 7 4 6 5 5 6 4 7 2 8 1 9 3 10 11 11 12 12 13 13
REMARK SMILES IDX 14 14 15 15 16 16 17 17 18 18 19 19 20 20
REMARK H PARENT
REMARK Flexibility Score: inf
ROOT
ATOM      1  C   UNL     1      84.507 122.057 125.107  1.00  0.00     0.000 C 
ENDROOT
BRANCH   1   2
ATOM      2  C   UNL     1      84.505 123.266 126.053  1.00  0.00     0.000 C 
BRANCH   2   3
ATOM      3  C   UNL     1      83.454 124.299 125.621  1.00  0.00     0.000 C 
BRANCH   3   4
ATOM      4  C   UNL     1      82.116 124.129 126.360  1.00  0.00     0.000 C 
BRANCH   4   5
ATOM      5  C   UNL     1      82.301 123.671 127.817  1.00  0.00     0.000 C 
BRANCH   5   6
ATOM      6  C   UNL     1      82.060 124.803 128.827  1.00  0.00     0.006 C 
BRANCH   6   7
ATOM      7  C   UNL     1      83.363 125.359 129.418  1.00  0.00     0.053 C 
BRANCH   7   8
ATOM      8  C   UNL     1      83.065 126.360 130.490  1.00  0.00     0.041 C 
ATOM      9  O   UNL     1      83.497 126.183 131.659  1.00  0.00    -0.550 OA
ATOM     10  O   UNL     1      82.344 127.509 130.189  1.00  0.00    -0.550 OA
ENDBRANCH   7   8
ENDBRANCH   6   7
ENDBRANCH   5   6
ENDBRANCH   4   5
ENDBRANCH   3   4
ENDBRANCH   2   3
ENDBRANCH   1   2
BRANCH   1  11
ATOM     11  C   UNL     1      84.502 120.710 125.852  1.00  0.00     0.000 C 
BRANCH  11  12
ATOM     12  C   UNL     1      83.224 120.420 126.666  1.00  0.00     0.000 C 
BRANCH  12  13
ATOM     13  C   UNL     1      83.464 120.035 128.139  1.00  0.00     0.000 C 
BRANCH  13  14
ATOM     14  C   UNL     1      84.871 120.365 128.678  1.00  0.00     0.000 C 
BRANCH  14  15
ATOM     15  C   UNL     1      84.977 121.689 129.457  1.00  0.00     0.000 C 
BRANCH  15  16
ATOM     16  C   UNL     1      83.904 121.826 130.550  1.00  0.00     0.006 C 
BRANCH  16  17
ATOM     17  C   UNL     1      84.138 120.857 131.716  1.00  0.00     0.053 C 
BRANCH  17  18
ATOM     18  C   UNL     1      85.427 121.141 132.426  1.00  0.00     0.041 C 
ATOM     19  O   UNL     1      85.594 122.238 133.022  1.00  0.00    -0.550 OA
ATOM     20  O   UNL     1      86.453 120.206 132.407  1.00  0.00    -0.550 OA
ENDBRANCH  17  18
ENDBRANCH  16  17
ENDBRANCH  15  16
ENDBRANCH  14  15
ENDBRANCH  13  14
ENDBRANCH  12  13
ENDBRANCH  11  12
ENDBRANCH   1  11
TORSDOF 15
ENDMDL
MODEL 8
REMARK VINA RESULT:    -4.028     12.010     13.670
REMARK INTER + INTRA:          -8.237
REMARK INTER:                  -6.032
REMARK INTRA:                  -2.205
REMARK UNBOUND:                -0.678
REMARK SMILES O=C([O-])CCCCCCCCCCCCCCC(=O)[O-]
REMARK SMILES IDX 10 1 9 2 8 3 7 4 6 5 5 6 4 7 2 8 1 9 3 10 11 11 12 12 13 13
REMARK SMILES IDX 14 14 15 15 16 16 17 17 18 18 19 19 20 20
REMARK H PARENT
REMARK Flexibility Score: inf
ROOT
ATOM      1  C   UNL     1      83.177 125.292 131.413  1.00  0.00     0.000 C 
ENDROOT
BRANCH   1   2
ATOM      2  C   UNL     1      81.875 124.641 131.902  1.00  0.00     0.000 C 
BRANCH   2   3
ATOM      3  C   UNL     1      82.045 123.121 132.051  1.00  0.00     0.000 C 
BRANCH   3   4
ATOM      4  C   UNL     1      83.357 122.608 131.434  1.00  0.00     0.000 C 
BRANCH   4   5
ATOM      5  C   UNL     1      83.167 121.300 130.647  1.00  0.00     0.000 C 
BRANCH   5   6
ATOM      6  C   UNL     1      83.782 121.362 129.240  1.00  0.00     0.006 C 
BRANCH   6   7
ATOM      7  C   UNL     1      85.249 121.814 129.253  1.00  0.00     0.053 C 
BRANCH   7   8
ATOM      8  C   UNL     1      86.134 120.702 129.722  1.00  0.00     0.041 C 
ATOM      9  O   UNL     1      86.190 119.622 129.078  1.00  0.00    -0.550 OA
ATOM     10  O   UNL     1      86.928 120.874 130.849  1.00  0.00    -0.550 OA
ENDBRANCH   7   8
ENDBRANCH   6   7
ENDBRANCH   5   6
ENDBRANCH   4   5
ENDBRANCH   3   4
ENDBRANCH   2   3
ENDBRANCH   1   2
BRANCH   1  11
ATOM     11  C   UNL     1      83.018 126.009 130.059  1.00  0.00     0.000 C 
BRANCH  11  12
ATOM     12  C   UNL     1      83.404 125.165 128.827  1.00  0.00     0.000 C 
BRANCH  12  13
ATOM     13  C   UNL     1      82.225 124.469 128.119  1.00  0.00     0.000 C 
BRANCH  13  14
ATOM     14  C   UNL     1      82.533 123.944 126.702  1.00  0.00     0.000 C 
BRANCH  14  15
ATOM     15  C   UNL     1      83.997 124.098 126.254  1.00  0.00     0.000 C 
BRANCH  15  16
ATOM     16  C   UNL     1      84.407 123.067 125.189  1.00  0.00     0.006 C 
BRANCH  16  17
ATOM     17  C   UNL     1      83.805 121.682 125.461  1.00  0.00     0.053 C 
BRANCH  17  18
ATOM     18  C   UNL     1      83.021 121.176 124.289  1.00  0.00     0.041 C 
ATOM     19  O   UNL     1      82.626 121.973 123.397  1.00  0.00    -0.550 OA
ATOM     20  O   UNL     1      82.704 119.827 124.194  1.00  0.00    -0.550 OA
ENDBRANCH  17  18
ENDBRANCH  16  17
ENDBRANCH  15  16
ENDBRANCH  14  15
ENDBRANCH  13  14
ENDBRANCH  12  13
ENDBRANCH  11  12
ENDBRANCH   1  11
TORSDOF 15
ENDMDL
