MODEL 1
REMARK VINA RESULT:    -6.567      0.000      0.000
REMARK INTER + INTRA:          -7.374
REMARK INTER:                  -7.143
REMARK INTRA:                  -0.231
REMARK UNBOUND:                -0.231
REMARK SMILES O=C([O-])c1ccccc1O
REMARK SMILES IDX 4 1 9 2 5 3 8 4 6 5 7 6 2 7 1 8 3 9 10 10
REMARK H PARENT 10 11
REMARK Flexibility Score: inf
ROOT
ATOM      1  C   UNL     1      18.149  29.629  25.682  1.00  0.00     0.039 A 
ATOM      2  C   UNL     1      18.495  30.397  26.824  1.00  0.00     0.124 A 
ATOM      3  C   UNL     1      18.676  28.331  25.550  1.00  0.00     0.014 A 
ATOM      4  C   UNL     1      19.398  29.877  27.761  1.00  0.00     0.047 A 
ATOM      5  C   UNL     1      19.559  27.819  26.504  1.00  0.00     0.001 A 
ATOM      6  C   UNL     1      19.926  28.595  27.603  1.00  0.00     0.004 A 
ENDROOT
BRANCH   1   7
ATOM      7  C   UNL     1      17.284  30.156  24.604  1.00  0.00     0.075 C 
ATOM      8  O   UNL     1      17.571  31.243  24.037  1.00  0.00    -0.545 OA
ATOM      9  O   UNL     1      16.112  29.499  24.248  1.00  0.00    -0.545 OA
ENDBRANCH   1   7
BRANCH   2  10
ATOM     10  O   UNL     1      17.942  31.652  27.081  1.00  0.00    -0.507 OA
ATOM     11  H   UNL     1      18.495  32.474  27.282  1.00  0.00     0.293 HD
ENDBRANCH   2  10
TORSDOF 2
ENDMDL
MODEL 2
REMARK VINA RESULT:    -6.074      1.178      2.132
REMARK INTER + INTRA:          -6.838
REMARK INTER:                  -6.590
REMARK INTRA:                  -0.248
REMARK UNBOUND:                -0.231
REMARK SMILES O=C([O-])c1ccccc1O
REMARK SMILES IDX 4 1 9 2 5 3 8 4 6 5 7 6 2 7 1 8 3 9 10 10
REMARK H PARENT 10 11
REMARK Flexibility Score: inf
ROOT
ATOM      1  C   UNL     1      18.200  29.800  25.717  1.00  0.00     0.039 A 
ATOM      2  C   UNL     1      18.492  28.487  26.170  1.00  0.00     0.124 A 
ATOM      3  C   UNL     1      18.770  30.895  26.394  1.00  0.00     0.014 A 
ATOM      4  C   UNL     1      19.285  28.308  27.311  1.00  0.00     0.047 A 
ATOM      5  C   UNL     1      19.576  30.698  27.518  1.00  0.00     0.001 A 
ATOM      6  C   UNL     1      19.825  29.407  27.981  1.00  0.00     0.004 A 
ENDROOT
BRANCH   1   7
ATOM      7  C   UNL     1      17.288  30.064  24.583  1.00  0.00     0.075 C 
ATOM      8  O   UNL     1      17.424  31.108  23.893  1.00  0.00    -0.545 OA
ATOM      9  O   UNL     1      16.232  29.205  24.305  1.00  0.00    -0.545 OA
ENDBRANCH   1   7
BRANCH   2  10
ATOM     10  O   UNL     1      18.049  27.346  25.500  1.00  0.00    -0.507 OA
ATOM     11  H   UNL     1      18.503  26.971  24.678  1.00  0.00     0.293 HD
ENDBRANCH   2  10
TORSDOF 2
ENDMDL
MODEL 3
REMARK VINA RESULT:    -5.127      1.920      3.585
REMARK INTER + INTRA:          -5.808
REMARK INTER:                  -5.582
REMARK INTRA:                  -0.226
REMARK UNBOUND:                -0.231
REMARK SMILES O=C([O-])c1ccccc1O
REMARK SMILES IDX 4 1 9 2 5 3 8 4 6 5 7 6 2 7 1 8 3 9 10 10
REMARK H PARENT 10 11
REMARK Flexibility Score: inf
ROOT
ATOM      1  C   UNL     1      18.890  29.396  27.275  1.00  0.00     0.039 A 
ATOM      2  C   UNL     1      18.310  30.558  26.703  1.00  0.00     0.124 A 
ATOM      3  C   UNL     1      19.060  28.254  26.470  1.00  0.00     0.014 A 
ATOM      4  C   UNL     1      17.863  30.528  25.375  1.00  0.00     0.047 A 
ATOM      5  C   UNL     1      18.628  28.248  25.141  1.00  0.00     0.001 A 
ATOM      6  C   UNL     1      18.023  29.380  24.598  1.00  0.00     0.004 A 
ENDROOT
BRANCH   1   7
ATOM      7  C   UNL     1      19.288  29.325  28.698  1.00  0.00     0.075 C 
ATOM      8  O   UNL     1      18.447  29.570  29.602  1.00  0.00    -0.545 OA
ATOM      9  O   UNL     1      20.603  29.055  29.055  1.00  0.00    -0.545 OA
ENDBRANCH   1   7
BRANCH   2  10
ATOM     10  O   UNL     1      18.194  31.761  27.402  1.00  0.00    -0.507 OA
ATOM     11  H   UNL     1      18.292  31.833  28.405  1.00  0.00     0.293 HD
ENDBRANCH   2  10
TORSDOF 2
ENDMDL
MODEL 4
REMARK VINA RESULT:    -4.939      2.585      4.119
REMARK INTER + INTRA:          -5.604
REMARK INTER:                  -5.417
REMARK INTRA:                  -0.187
REMARK UNBOUND:                -0.231
REMARK SMILES O=C([O-])c1ccccc1O
REMARK SMILES IDX 4 1 9 2 5 3 8 4 6 5 7 6 2 7 1 8 3 9 10 10
REMARK H PARENT 10 11
REMARK Flexibility Score: inf
ROOT
ATOM      1  C   UNL     1      19.000  29.479  27.240  1.00  0.00     0.039 A 
ATOM      2  C   UNL     1      18.958  28.394  26.326  1.00  0.00     0.124 A 
ATOM      3  C   UNL     1      18.619  30.759  26.794  1.00  0.00     0.014 A 
ATOM      4  C   UNL     1      18.601  28.626  24.991  1.00  0.00     0.047 A 
ATOM      5  C   UNL     1      18.245  30.969  25.465  1.00  0.00     0.001 A 
ATOM      6  C   UNL     1      18.245  29.905  24.563  1.00  0.00     0.004 A 
ENDROOT
BRANCH   1   7
ATOM      7  C   UNL     1      19.467  29.325  28.635  1.00  0.00     0.075 C 
ATOM      8  O   UNL     1      20.659  28.995  28.870  1.00  0.00    -0.545 OA
ATOM      9  O   UNL     1      18.586  29.473  29.699  1.00  0.00    -0.545 OA
ENDBRANCH   1   7
BRANCH   2  10
ATOM     10  O   UNL     1      19.226  27.079  26.709  1.00  0.00    -0.507 OA
ATOM     11  H   UNL     1      19.577  26.375  26.075  1.00  0.00     0.293 HD
ENDBRANCH   2  10
TORSDOF 2
ENDMDL
MODEL 5
REMARK VINA RESULT:    -4.626      2.729      3.614
REMARK INTER + INTRA:          -5.263
REMARK INTER:                  -5.014
REMARK INTRA:                  -0.249
REMARK UNBOUND:                -0.231
REMARK SMILES O=C([O-])c1ccccc1O
REMARK SMILES IDX 4 1 9 2 5 3 8 4 6 5 7 6 2 7 1 8 3 9 10 10
REMARK H PARENT 10 11
REMARK Flexibility Score: inf
ROOT
ATOM      1  C   UNL     1      15.916  30.154  23.462  1.00  0.00     0.039 A 
ATOM      2  C   UNL     1      16.772  31.280  23.349  1.00  0.00     0.124 A 
ATOM      3  C   UNL     1      16.248  29.137  24.377  1.00  0.00     0.014 A 
ATOM      4  C   UNL     1      17.955  31.329  24.098  1.00  0.00     0.047 A 
ATOM      5  C   UNL     1      17.421  29.212  25.132  1.00  0.00     0.001 A 
ATOM      6  C   UNL     1      18.277  30.301  24.985  1.00  0.00     0.004 A 
ENDROOT
BRANCH   1   7
ATOM      7  C   UNL     1      14.706  29.989  22.627  1.00  0.00     0.075 C 
ATOM      8  O   UNL     1      13.889  30.939  22.503  1.00  0.00    -0.545 OA
ATOM      9  O   UNL     1      14.419  28.770  22.026  1.00  0.00    -0.545 OA
ENDBRANCH   1   7
BRANCH   2  10
ATOM     10  O   UNL     1      16.468  32.376  22.540  1.00  0.00    -0.507 OA
ATOM     11  H   UNL     1      17.113  32.767  21.868  1.00  0.00     0.293 HD
ENDBRANCH   2  10
TORSDOF 2
ENDMDL
MODEL 6
REMARK VINA RESULT:    -4.566      9.911     10.771
REMARK INTER + INTRA:          -5.198
REMARK INTER:                  -4.968
REMARK INTRA:                  -0.230
REMARK UNBOUND:                -0.231
REMARK SMILES O=C([O-])c1ccccc1O
REMARK SMILES IDX 4 1 9 2 5 3 8 4 6 5 7 6 2 7 1 8 3 9 10 10
REMARK H PARENT 10 11
REMARK Flexibility Score: inf
ROOT
ATOM      1  C   UNL     1       8.240  32.308  24.141  1.00  0.00     0.039 A 
ATOM      2  C   UNL     1       9.023  32.822  25.208  1.00  0.00     0.124 A 
ATOM      3  C   UNL     1       8.216  33.004  22.918  1.00  0.00     0.014 A 
ATOM      4  C   UNL     1       9.701  34.038  25.046  1.00  0.00     0.047 A 
ATOM      5  C   UNL     1       8.916  34.204  22.766  1.00  0.00     0.001 A 
ATOM      6  C   UNL     1       9.649  34.724  23.832  1.00  0.00     0.004 A 
ENDROOT
BRANCH   1   7
ATOM      7  C   UNL     1       7.417  31.087  24.278  1.00  0.00     0.075 C 
ATOM      8  O   UNL     1       7.037  30.704  25.415  1.00  0.00    -0.545 OA
ATOM      9  O   UNL     1       7.109  30.310  23.167  1.00  0.00    -0.545 OA
ENDBRANCH   1   7
BRANCH   2  10
ATOM     10  O   UNL     1       9.179  32.146  26.418  1.00  0.00    -0.507 OA
ATOM     11  H   UNL     1       9.846  31.399  26.557  1.00  0.00     0.293 HD
ENDBRANCH   2  10
TORSDOF 2
ENDMDL
MODEL 7
REMARK VINA RESULT:    -4.517      9.422     10.346
REMARK INTER + INTRA:          -5.145
REMARK INTER:                  -4.901
REMARK INTRA:                  -0.244
REMARK UNBOUND:                -0.231
REMARK SMILES O=C([O-])c1ccccc1O
REMARK SMILES IDX 4 1 9 2 5 3 8 4 6 5 7 6 2 7 1 8 3 9 10 10
REMARK H PARENT 10 11
REMARK Flexibility Score: inf
ROOT
ATOM      1  C   UNL     1       8.618  32.547  24.010  1.00  0.00     0.039 A 
ATOM      2  C   UNL     1       8.515  32.071  25.343  1.00  0.00     0.124 A 
ATOM      3  C   UNL     1       9.759  33.280  23.636  1.00  0.00     0.014 A 
ATOM      4  C   UNL     1       9.514  32.392  26.272  1.00  0.00     0.047 A 
ATOM      5  C   UNL     1      10.756  33.574  24.569  1.00  0.00     0.001 A 
ATOM      6  C   UNL     1      10.629  33.138  25.887  1.00  0.00     0.004 A 
ENDROOT
BRANCH   1   7
ATOM      7  C   UNL     1       7.552  32.333  23.006  1.00  0.00     0.075 C 
ATOM      8  O   UNL     1       7.122  31.172  22.779  1.00  0.00    -0.545 OA
ATOM      9  O   UNL     1       7.060  33.394  22.256  1.00  0.00    -0.545 OA
ENDBRANCH   1   7
BRANCH   2  10
ATOM     10  O   UNL     1       7.466  31.256  25.771  1.00  0.00    -0.507 OA
ATOM     11  H   UNL     1       7.393  30.275  25.538  1.00  0.00     0.293 HD
ENDBRANCH   2  10
TORSDOF 2
ENDMDL
MODEL 8
REMARK VINA RESULT:    -4.403      9.051     10.850
REMARK INTER + INTRA:          -5.021
REMARK INTER:                  -4.815
REMARK INTRA:                  -0.206
REMARK UNBOUND:                -0.231
REMARK SMILES O=C([O-])c1ccccc1O
REMARK SMILES IDX 4 1 9 2 5 3 8 4 6 5 7 6 2 7 1 8 3 9 10 10
REMARK H PARENT 10 11
REMARK Flexibility Score: inf
ROOT
ATOM      1  C   UNL     1       9.198  33.291  24.257  1.00  0.00     0.039 A 
ATOM      2  C   UNL     1       8.028  32.513  24.058  1.00  0.00     0.124 A 
ATOM      3  C   UNL     1       9.594  34.193  23.252  1.00  0.00     0.014 A 
ATOM      4  C   UNL     1       7.329  32.611  22.847  1.00  0.00     0.047 A 
ATOM      5  C   UNL     1       8.873  34.294  22.059  1.00  0.00     0.001 A 
ATOM      6  C   UNL     1       7.748  33.496  21.854  1.00  0.00     0.004 A 
ENDROOT
BRANCH   1   7
ATOM      7  C   UNL     1      10.041  33.163  25.466  1.00  0.00     0.075 C 
ATOM      8  O   UNL     1      11.065  33.882  25.602  1.00  0.00    -0.545 OA
ATOM      9  O   UNL     1       9.755  32.206  26.433  1.00  0.00    -0.545 OA
ENDBRANCH   1   7
BRANCH   2  10
ATOM     10  O   UNL     1       7.512  31.667  25.041  1.00  0.00    -0.507 OA
ATOM     11  H   UNL     1       7.672  30.670  25.057  1.00  0.00     0.293 HD
ENDBRANCH   2  10
TORSDOF 2
ENDMDL
MODEL 9
REMARK VINA RESULT:    -4.296      9.699     10.933
REMARK INTER + INTRA:          -4.904
REMARK INTER:                  -4.693
REMARK INTRA:                  -0.211
REMARK UNBOUND:                -0.231
REMARK SMILES O=C([O-])c1ccccc1O
REMARK SMILES IDX 4 1 9 2 5 3 8 4 6 5 7 6 2 7 1 8 3 9 10 10
REMARK H PARENT 10 11
REMARK Flexibility Score: inf
ROOT
ATOM      1  C   UNL     1       8.518  32.739  24.019  1.00  0.00     0.039 A 
ATOM      2  C   UNL     1       9.636  33.497  23.581  1.00  0.00     0.124 A 
ATOM      3  C   UNL     1       7.369  32.693  23.208  1.00  0.00     0.014 A 
ATOM      4  C   UNL     1       9.552  34.231  22.391  1.00  0.00     0.047 A 
ATOM      5  C   UNL     1       7.309  33.414  22.013  1.00  0.00     0.001 A 
ATOM      6  C   UNL     1       8.396  34.189  21.610  1.00  0.00     0.004 A 
ENDROOT
BRANCH   1   7
ATOM      7  C   UNL     1       8.501  32.025  25.314  1.00  0.00     0.075 C 
ATOM      8  O   UNL     1       9.388  32.259  26.177  1.00  0.00    -0.545 OA
ATOM      9  O   UNL     1       7.553  31.042  25.571  1.00  0.00    -0.545 OA
ENDBRANCH   1   7
BRANCH   2  10
ATOM     10  O   UNL     1      10.847  33.518  24.275  1.00  0.00    -0.507 OA
ATOM     11  H   UNL     1      11.235  34.352  24.693  1.00  0.00     0.293 HD
ENDBRANCH   2  10
TORSDOF 2
ENDMDL
