MODEL 1
REMARK VINA RESULT:    17.052      0.000      0.000
REMARK INTER + INTRA:          19.919
REMARK INTER:                  20.042
REMARK INTRA:                  -0.123
REMARK UNBOUND:                -0.123
REMARK SMILES O=C([O-])C=Cc1ccc(O)c(O)c1
REMARK SMILES IDX 6 1 13 2 7 3 11 4 8 5 9 6 5 7 4 8 2 9 1 10 3 11 12 12 10 14
REMARK H PARENT 12 13 10 15
REMARK Flexibility Score: inf
ROOT
ATOM      1  C   UNL     1      31.086  10.402  -0.922  1.00  0.00    -0.022 A 
ATOM      2  C   UNL     1      31.487  11.354   0.037  1.00  0.00     0.058 A 
ATOM      3  C   UNL     1      31.577  10.512  -2.232  1.00  0.00     0.012 A 
ATOM      4  C   UNL     1      32.378  12.378  -0.304  1.00  0.00     0.157 A 
ATOM      5  C   UNL     1      32.469  11.532  -2.575  1.00  0.00     0.051 A 
ATOM      6  C   UNL     1      32.876  12.467  -1.614  1.00  0.00     0.157 A 
ENDROOT
BRANCH   1   7
ATOM      7  C   UNL     1      30.134   9.307  -0.610  1.00  0.00     0.010 C 
ATOM      8  C   UNL     1      29.211   9.376   0.360  1.00  0.00     0.025 C 
BRANCH   8   9
ATOM      9  C   UNL     1      28.291   8.263   0.650  1.00  0.00     0.064 C 
ATOM     10  O   UNL     1      27.877   8.045   1.821  1.00  0.00    -0.545 OA
ATOM     11  O   UNL     1      27.875   7.436  -0.385  1.00  0.00    -0.545 OA
ENDBRANCH   8   9
ENDBRANCH   1   7
BRANCH   4  12
ATOM     12  O   UNL     1      32.754  13.301   0.672  1.00  0.00    -0.504 OA
ATOM     13  H   UNL     1      33.691  13.325   1.058  1.00  0.00     0.293 HD
ENDBRANCH   4  12
BRANCH   6  14
ATOM     14  O   UNL     1      33.766  13.482  -1.958  1.00  0.00    -0.504 OA
ATOM     15  H   UNL     1      33.453  14.434  -2.109  1.00  0.00     0.293 HD
ENDBRANCH   6  14
TORSDOF 4
ENDMDL
MODEL 2
REMARK VINA RESULT:    17.400      2.230      5.975
REMARK INTER + INTRA:          20.328
REMARK INTER:                  20.470
REMARK INTRA:                  -0.141
REMARK UNBOUND:                -0.123
REMARK SMILES O=C([O-])C=Cc1ccc(O)c(O)c1
REMARK SMILES IDX 6 1 13 2 7 3 11 4 8 5 9 6 5 7 4 8 2 9 1 10 3 11 12 12 10 14
REMARK H PARENT 12 13 10 15
REMARK Flexibility Score: inf
ROOT
ATOM      1  C   UNL     1      31.320  11.657  -1.372  1.00  0.00    -0.022 A 
ATOM      2  C   UNL     1      31.930  10.388  -1.298  1.00  0.00     0.058 A 
ATOM      3  C   UNL     1      30.010  11.809  -0.890  1.00  0.00     0.012 A 
ATOM      4  C   UNL     1      31.252   9.303  -0.732  1.00  0.00     0.157 A 
ATOM      5  C   UNL     1      29.332  10.727  -0.322  1.00  0.00     0.051 A 
ATOM      6  C   UNL     1      29.948   9.472  -0.237  1.00  0.00     0.157 A 
ENDROOT
BRANCH   1   7
ATOM      7  C   UNL     1      31.995  12.833  -1.976  1.00  0.00     0.010 C 
ATOM      8  C   UNL     1      31.442  13.607  -2.920  1.00  0.00     0.025 C 
BRANCH   8   9
ATOM      9  C   UNL     1      32.149  14.759  -3.505  1.00  0.00     0.064 C 
ATOM     10  O   UNL     1      33.402  14.869  -3.417  1.00  0.00    -0.545 OA
ATOM     11  O   UNL     1      31.422  15.743  -4.162  1.00  0.00    -0.545 OA
ENDBRANCH   8   9
ENDBRANCH   1   7
BRANCH   4  12
ATOM     12  O   UNL     1      31.888   8.063  -0.672  1.00  0.00    -0.504 OA
ATOM     13  H   UNL     1      32.684   7.894  -0.068  1.00  0.00     0.293 HD
ENDBRANCH   4  12
BRANCH   6  14
ATOM     14  O   UNL     1      29.269   8.396   0.332  1.00  0.00    -0.504 OA
ATOM     15  H   UNL     1      29.517   7.438   0.115  1.00  0.00     0.293 HD
ENDBRANCH   6  14
TORSDOF 4
ENDMDL
MODEL 3
REMARK VINA RESULT:    18.998      1.186      2.010
REMARK INTER + INTRA:          22.207
REMARK INTER:                  22.358
REMARK INTRA:                  -0.151
REMARK UNBOUND:                -0.123
REMARK SMILES O=C([O-])C=Cc1ccc(O)c(O)c1
REMARK SMILES IDX 6 1 13 2 7 3 11 4 8 5 9 6 5 7 4 8 2 9 1 10 3 11 12 12 10 14
REMARK H PARENT 12 13 10 15
REMARK Flexibility Score: inf
ROOT
ATOM      1  C   UNL     1      30.875  10.347  -0.972  1.00  0.00    -0.022 A 
ATOM      2  C   UNL     1      32.053  10.148  -1.721  1.00  0.00     0.058 A 
ATOM      3  C   UNL     1      30.429  11.659  -0.747  1.00  0.00     0.012 A 
ATOM      4  C   UNL     1      32.754  11.236  -2.251  1.00  0.00     0.157 A 
ATOM      5  C   UNL     1      31.126  12.748  -1.278  1.00  0.00     0.051 A 
ATOM      6  C   UNL     1      32.288  12.544  -2.034  1.00  0.00     0.157 A 
ENDROOT
BRANCH   1   7
ATOM      7  C   UNL     1      30.107   9.224  -0.380  1.00  0.00     0.010 C 
ATOM      8  C   UNL     1      28.941   9.377   0.265  1.00  0.00     0.025 C 
BRANCH   8   9
ATOM      9  C   UNL     1      28.213   8.239   0.852  1.00  0.00     0.064 C 
ATOM     10  O   UNL     1      27.875   7.248   0.149  1.00  0.00    -0.545 OA
ATOM     11  O   UNL     1      27.890   8.259   2.202  1.00  0.00    -0.545 OA
ENDBRANCH   8   9
ENDBRANCH   1   7
BRANCH   4  12
ATOM     12  O   UNL     1      33.914  11.001  -2.989  1.00  0.00    -0.504 OA
ATOM     13  H   UNL     1      34.044  10.157  -3.535  1.00  0.00     0.293 HD
ENDBRANCH   4  12
BRANCH   6  14
ATOM     14  O   UNL     1      32.979  13.631  -2.563  1.00  0.00    -0.504 OA
ATOM     15  H   UNL     1      32.846  14.570  -2.205  1.00  0.00     0.293 HD
ENDBRANCH   6  14
TORSDOF 4
ENDMDL
