MODEL 1
REMARK VINA RESULT:    -2.664      0.000      0.000
REMARK INTER + INTRA:          -4.943
REMARK INTER:                  -4.066
REMARK INTRA:                  -0.877
REMARK UNBOUND:                -0.877
REMARK SMILES CCCCCCCCCCC(=O)[O-]
REMARK SMILES IDX 7 1 8 2 9 3 10 4 11 5 12 6 13 7 6 8 5 9 4 10 3 11 2 12 1 13
REMARK H PARENT
REMARK Flexibility Score: inf
ROOT
ATOM      1  C   UNL     1      -7.799  39.484  19.417  1.00  0.00     0.000 C 
ENDROOT
BRANCH   1   2
ATOM      2  C   UNL     1      -8.402  39.903  20.767  1.00  0.00     0.000 C 
BRANCH   2   3
ATOM      3  C   UNL     1      -9.940  39.881  20.760  1.00  0.00     0.006 C 
BRANCH   3   4
ATOM      4  C   UNL     1     -10.510  38.697  19.971  1.00  0.00     0.053 C 
BRANCH   4   5
ATOM      5  C   UNL     1     -11.264  37.777  20.879  1.00  0.00     0.041 C 
ATOM      6  O   UNL     1     -10.919  37.654  22.084  1.00  0.00    -0.550 OA
ATOM      7  O   UNL     1     -12.315  37.017  20.383  1.00  0.00    -0.550 OA
ENDBRANCH   4   5
ENDBRANCH   3   4
ENDBRANCH   2   3
ENDBRANCH   1   2
BRANCH   1   8
ATOM      8  C   UNL     1      -7.115  40.671  18.730  1.00  0.00     0.000 C 
BRANCH   8   9
ATOM      9  C   UNL     1      -7.472  40.723  17.236  1.00  0.00    -0.000 C 
BRANCH   9  10
ATOM     10  C   UNL     1      -8.630  39.782  16.870  1.00  0.00    -0.000 C 
BRANCH  10  11
ATOM     11  C   UNL     1      -9.082  39.938  15.410  1.00  0.00    -0.000 C 
BRANCH  11  12
ATOM     12  C   UNL     1     -10.579  40.256  15.331  1.00  0.00    -0.003 C 
ATOM     13  C   UNL     1     -11.209  40.301  16.721  1.00  0.00     0.004 C 
ENDBRANCH  11  12
ENDBRANCH  10  11
ENDBRANCH   9  10
ENDBRANCH   8   9
ENDBRANCH   1   8
TORSDOF 9
ENDMDL
MODEL 2
REMARK VINA RESULT:    -2.643     23.713     25.023
REMARK INTER + INTRA:          -4.910
REMARK INTER:                  -3.676
REMARK INTRA:                  -1.234
REMARK UNBOUND:                -0.877
REMARK SMILES CCCCCCCCCCC(=O)[O-]
REMARK SMILES IDX 7 1 8 2 9 3 10 4 11 5 12 6 13 7 6 8 5 9 4 10 3 11 2 12 1 13
REMARK H PARENT
REMARK Flexibility Score: inf
ROOT
ATOM      1  C   UNL     1       3.730  23.659   4.021  1.00  0.00     0.000 C 
ENDROOT
BRANCH   1   2
ATOM      2  C   UNL     1       4.184  22.312   4.604  1.00  0.00     0.000 C 
BRANCH   2   3
ATOM      3  C   UNL     1       3.260  21.809   5.725  1.00  0.00     0.006 C 
BRANCH   3   4
ATOM      4  C   UNL     1       2.527  22.949   6.442  1.00  0.00     0.053 C 
BRANCH   4   5
ATOM      5  C   UNL     1       1.055  22.685   6.475  1.00  0.00     0.041 C 
ATOM      6  O   UNL     1       0.544  22.069   7.448  1.00  0.00    -0.550 OA
ATOM      7  O   UNL     1       0.255  23.073   5.409  1.00  0.00    -0.550 OA
ENDBRANCH   4   5
ENDBRANCH   3   4
ENDBRANCH   2   3
ENDBRANCH   1   2
BRANCH   1   8
ATOM      8  C   UNL     1       4.901  24.644   3.936  1.00  0.00     0.000 C 
BRANCH   8   9
ATOM      9  C   UNL     1       6.134  24.098   4.673  1.00  0.00    -0.000 C 
BRANCH   9  10
ATOM     10  C   UNL     1       6.519  24.946   5.895  1.00  0.00    -0.000 C 
BRANCH  10  11
ATOM     11  C   UNL     1       6.014  24.346   7.215  1.00  0.00    -0.000 C 
BRANCH  11  12
ATOM     12  C   UNL     1       6.905  23.182   7.664  1.00  0.00    -0.003 C 
ATOM     13  C   UNL     1       6.069  22.003   8.153  1.00  0.00     0.004 C 
ENDBRANCH  11  12
ENDBRANCH  10  11
ENDBRANCH   9  10
ENDBRANCH   8   9
ENDBRANCH   1   8
TORSDOF 9
ENDMDL
MODEL 3
REMARK VINA RESULT:    -2.636      2.629      4.902
REMARK INTER + INTRA:          -4.899
REMARK INTER:                  -3.938
REMARK INTRA:                  -0.961
REMARK UNBOUND:                -0.877
REMARK SMILES CCCCCCCCCCC(=O)[O-]
REMARK SMILES IDX 7 1 8 2 9 3 10 4 11 5 12 6 13 7 6 8 5 9 4 10 3 11 2 12 1 13
REMARK H PARENT
REMARK Flexibility Score: inf
ROOT
ATOM      1  C   UNL     1      -7.506  39.437  19.159  1.00  0.00     0.000 C 
ENDROOT
BRANCH   1   2
ATOM      2  C   UNL     1      -8.586  39.168  18.100  1.00  0.00     0.000 C 
BRANCH   2   3
ATOM      3  C   UNL     1      -8.809  40.367  17.164  1.00  0.00     0.006 C 
BRANCH   3   4
ATOM      4  C   UNL     1      -9.116  39.942  15.723  1.00  0.00     0.053 C 
BRANCH   4   5
ATOM      5  C   UNL     1     -10.530  40.279  15.369  1.00  0.00     0.041 C 
ATOM      6  O   UNL     1     -10.780  40.955  14.336  1.00  0.00    -0.550 OA
ATOM      7  O   UNL     1     -11.568  39.893  16.206  1.00  0.00    -0.550 OA
ENDBRANCH   4   5
ENDBRANCH   3   4
ENDBRANCH   2   3
ENDBRANCH   1   2
BRANCH   1   8
ATOM      8  C   UNL     1      -7.947  40.543  20.125  1.00  0.00     0.000 C 
BRANCH   8   9
ATOM      9  C   UNL     1      -8.420  39.950  21.461  1.00  0.00    -0.000 C 
BRANCH   9  10
ATOM     10  C   UNL     1      -9.949  39.972  21.612  1.00  0.00    -0.000 C 
BRANCH  10  11
ATOM     11  C   UNL     1     -10.544  38.571  21.814  1.00  0.00    -0.000 C 
BRANCH  11  12
ATOM     12  C   UNL     1     -11.198  38.062  20.524  1.00  0.00    -0.003 C 
ATOM     13  C   UNL     1     -11.839  39.206  19.742  1.00  0.00     0.004 C 
ENDBRANCH  11  12
ENDBRANCH  10  11
ENDBRANCH   9  10
ENDBRANCH   8   9
ENDBRANCH   1   8
TORSDOF 9
ENDMDL
MODEL 4
REMARK VINA RESULT:    -2.601     23.621     24.791
REMARK INTER + INTRA:          -4.847
REMARK INTER:                  -3.862
REMARK INTRA:                  -0.984
REMARK UNBOUND:                -0.877
REMARK SMILES CCCCCCCCCCC(=O)[O-]
REMARK SMILES IDX 7 1 8 2 9 3 10 4 11 5 12 6 13 7 6 8 5 9 4 10 3 11 2 12 1 13
REMARK H PARENT
REMARK Flexibility Score: inf
ROOT
ATOM      1  C   UNL     1       5.079  22.434   7.675  1.00  0.00     0.000 C 
ENDROOT
BRANCH   1   2
ATOM      2  C   UNL     1       4.728  21.630   6.414  1.00  0.00     0.000 C 
BRANCH   2   3
ATOM      3  C   UNL     1       3.213  21.552   6.164  1.00  0.00     0.006 C 
BRANCH   3   4
ATOM      4  C   UNL     1       2.485  22.847   6.540  1.00  0.00     0.053 C 
BRANCH   4   5
ATOM      5  C   UNL     1       1.003  22.643   6.502  1.00  0.00     0.041 C 
ATOM      6  O   UNL     1       0.331  23.060   5.522  1.00  0.00    -0.550 OA
ATOM      7  O   UNL     1       0.357  22.038   7.572  1.00  0.00    -0.550 OA
ENDBRANCH   4   5
ENDBRANCH   3   4
ENDBRANCH   2   3
ENDBRANCH   1   2
BRANCH   1   8
ATOM      8  C   UNL     1       6.357  23.255   7.465  1.00  0.00     0.000 C 
BRANCH   8   9
ATOM      9  C   UNL     1       6.038  24.617   6.829  1.00  0.00    -0.000 C 
BRANCH   9  10
ATOM     10  C   UNL     1       6.965  24.953   5.651  1.00  0.00    -0.000 C 
BRANCH  10  11
ATOM     11  C   UNL     1       6.357  24.573   4.292  1.00  0.00    -0.000 C 
BRANCH  11  12
ATOM     12  C   UNL     1       4.827  24.673   4.330  1.00  0.00    -0.003 C 
ATOM     13  C   UNL     1       4.264  25.055   2.963  1.00  0.00     0.004 C 
ENDBRANCH  11  12
ENDBRANCH  10  11
ENDBRANCH   9  10
ENDBRANCH   8   9
ENDBRANCH   1   8
TORSDOF 9
ENDMDL
MODEL 5
REMARK VINA RESULT:    -2.519     23.948     25.158
REMARK INTER + INTRA:          -4.721
REMARK INTER:                  -3.699
REMARK INTRA:                  -1.022
REMARK UNBOUND:                -0.877
REMARK SMILES CCCCCCCCCCC(=O)[O-]
REMARK SMILES IDX 7 1 8 2 9 3 10 4 11 5 12 6 13 7 6 8 5 9 4 10 3 11 2 12 1 13
REMARK H PARENT
REMARK Flexibility Score: inf
ROOT
ATOM      1  C   UNL     1       4.544  24.255   4.982  1.00  0.00     0.000 C 
ENDROOT
BRANCH   1   2
ATOM      2  C   UNL     1       5.975  24.481   5.493  1.00  0.00     0.000 C 
BRANCH   2   3
ATOM      3  C   UNL     1       6.063  24.473   7.028  1.00  0.00     0.006 C 
BRANCH   3   4
ATOM      4  C   UNL     1       7.018  23.398   7.559  1.00  0.00     0.053 C 
BRANCH   4   5
ATOM      5  C   UNL     1       6.354  22.057   7.550  1.00  0.00     0.041 C 
ATOM      6  O   UNL     1       6.673  21.199   6.685  1.00  0.00    -0.550 OA
ATOM      7  O   UNL     1       5.346  21.774   8.462  1.00  0.00    -0.550 OA
ENDBRANCH   4   5
ENDBRANCH   3   4
ENDBRANCH   2   3
ENDBRANCH   1   2
BRANCH   1   8
ATOM      8  C   UNL     1       4.341  22.800   4.544  1.00  0.00     0.000 C 
BRANCH   8   9
ATOM      9  C   UNL     1       3.251  22.119   5.386  1.00  0.00    -0.000 C 
BRANCH   9  10
ATOM     10  C   UNL     1       2.683  23.039   6.478  1.00  0.00    -0.000 C 
BRANCH  10  11
ATOM     11  C   UNL     1       1.193  22.782   6.753  1.00  0.00    -0.000 C 
BRANCH  11  12
ATOM     12  C   UNL     1       0.504  22.185   5.521  1.00  0.00    -0.003 C 
ATOM     13  C   UNL     1      -0.359  23.226   4.812  1.00  0.00     0.004 C 
ENDBRANCH  11  12
ENDBRANCH  10  11
ENDBRANCH   9  10
ENDBRANCH   8   9
ENDBRANCH   1   8
TORSDOF 9
ENDMDL
MODEL 6
REMARK VINA RESULT:    -2.470      2.101      4.535
REMARK INTER + INTRA:          -4.646
REMARK INTER:                  -3.812
REMARK INTRA:                  -0.834
REMARK UNBOUND:                -0.877
REMARK SMILES CCCCCCCCCCC(=O)[O-]
REMARK SMILES IDX 7 1 8 2 9 3 10 4 11 5 12 6 13 7 6 8 5 9 4 10 3 11 2 12 1 13
REMARK H PARENT
REMARK Flexibility Score: inf
ROOT
ATOM      1  C   UNL     1      -8.599  39.828  16.895  1.00  0.00     0.000 C 
ENDROOT
BRANCH   1   2
ATOM      2  C   UNL     1      -9.003  39.941  15.417  1.00  0.00     0.000 C 
BRANCH   2   3
ATOM      3  C   UNL     1     -10.208  40.871  15.202  1.00  0.00     0.006 C 
BRANCH   3   4
ATOM      4  C   UNL     1     -11.077  41.011  16.457  1.00  0.00     0.053 C 
BRANCH   4   5
ATOM      5  C   UNL     1     -12.335  40.214  16.314  1.00  0.00     0.041 C 
ATOM      6  O   UNL     1     -13.060  39.989  17.319  1.00  0.00    -0.550 OA
ATOM      7  O   UNL     1     -12.680  39.674  15.082  1.00  0.00    -0.550 OA
ENDBRANCH   4   5
ENDBRANCH   3   4
ENDBRANCH   2   3
ENDBRANCH   1   2
BRANCH   1   8
ATOM      8  C   UNL     1      -7.362  40.684  17.193  1.00  0.00     0.000 C 
BRANCH   8   9
ATOM      9  C   UNL     1      -6.970  40.588  18.675  1.00  0.00    -0.000 C 
BRANCH   9  10
ATOM     10  C   UNL     1      -7.779  39.525  19.435  1.00  0.00    -0.000 C 
BRANCH  10  11
ATOM     11  C   UNL     1      -8.479  40.091  20.679  1.00  0.00    -0.000 C 
BRANCH  11  12
ATOM     12  C   UNL     1      -9.743  39.289  21.010  1.00  0.00    -0.003 C 
ATOM     13  C   UNL     1     -10.598  39.067  19.765  1.00  0.00     0.004 C 
ENDBRANCH  11  12
ENDBRANCH  10  11
ENDBRANCH   9  10
ENDBRANCH   8   9
ENDBRANCH   1   8
TORSDOF 9
ENDMDL
MODEL 7
REMARK VINA RESULT:    -2.436     23.281     24.617
REMARK INTER + INTRA:          -4.594
REMARK INTER:                  -3.612
REMARK INTRA:                  -0.983
REMARK UNBOUND:                -0.877
REMARK SMILES CCCCCCCCCCC(=O)[O-]
REMARK SMILES IDX 7 1 8 2 9 3 10 4 11 5 12 6 13 7 6 8 5 9 4 10 3 11 2 12 1 13
REMARK H PARENT
REMARK Flexibility Score: inf
ROOT
ATOM      1  C   UNL     1       3.270  21.998   4.688  1.00  0.00     0.000 C 
ENDROOT
BRANCH   1   2
ATOM      2  C   UNL     1       2.164  22.994   4.305  1.00  0.00     0.000 C 
BRANCH   2   3
ATOM      3  C   UNL     1       0.763  22.361   4.330  1.00  0.00     0.006 C 
BRANCH   3   4
ATOM      4  C   UNL     1      -0.154  22.998   5.380  1.00  0.00     0.053 C 
BRANCH   4   5
ATOM      5  C   UNL     1      -0.452  22.022   6.475  1.00  0.00     0.041 C 
ATOM      6  O   UNL     1       0.203  22.056   7.550  1.00  0.00    -0.550 OA
ATOM      7  O   UNL     1      -1.418  21.042   6.289  1.00  0.00    -0.550 OA
ENDBRANCH   4   5
ENDBRANCH   3   4
ENDBRANCH   2   3
ENDBRANCH   1   2
BRANCH   1   8
ATOM      8  C   UNL     1       3.480  21.969   6.207  1.00  0.00     0.000 C 
BRANCH   8   9
ATOM      9  C   UNL     1       3.790  23.373   6.747  1.00  0.00    -0.000 C 
BRANCH   9  10
ATOM     10  C   UNL     1       5.254  23.530   7.188  1.00  0.00    -0.000 C 
BRANCH  10  11
ATOM     11  C   UNL     1       5.970  24.682   6.467  1.00  0.00    -0.000 C 
BRANCH  11  12
ATOM     12  C   UNL     1       6.462  24.240   5.084  1.00  0.00    -0.003 C 
ATOM     13  C   UNL     1       5.636  24.884   3.973  1.00  0.00     0.004 C 
ENDBRANCH  11  12
ENDBRANCH  10  11
ENDBRANCH   9  10
ENDBRANCH   8   9
ENDBRANCH   1   8
TORSDOF 9
ENDMDL
MODEL 8
REMARK VINA RESULT:    -2.396     23.761     24.919
REMARK INTER + INTRA:          -4.534
REMARK INTER:                  -3.754
REMARK INTRA:                  -0.779
REMARK UNBOUND:                -0.877
REMARK SMILES CCCCCCCCCCC(=O)[O-]
REMARK SMILES IDX 7 1 8 2 9 3 10 4 11 5 12 6 13 7 6 8 5 9 4 10 3 11 2 12 1 13
REMARK H PARENT
REMARK Flexibility Score: inf
ROOT
ATOM      1  C   UNL     1       3.694  23.297   6.669  1.00  0.00     0.000 C 
ENDROOT
BRANCH   1   2
ATOM      2  C   UNL     1       3.487  22.312   5.509  1.00  0.00     0.000 C 
BRANCH   2   3
ATOM      3  C   UNL     1       2.025  21.853   5.375  1.00  0.00     0.006 C 
BRANCH   3   4
ATOM      4  C   UNL     1       1.296  22.533   4.211  1.00  0.00     0.053 C 
BRANCH   4   5
ATOM      5  C   UNL     1      -0.067  22.978   4.636  1.00  0.00     0.041 C 
ATOM      6  O   UNL     1      -0.501  22.685   5.782  1.00  0.00    -0.550 OA
ATOM      7  O   UNL     1      -0.880  23.673   3.750  1.00  0.00    -0.550 OA
ENDBRANCH   4   5
ENDBRANCH   3   4
ENDBRANCH   2   3
ENDBRANCH   1   2
BRANCH   1   8
ATOM      8  C   UNL     1       4.950  22.941   7.473  1.00  0.00     0.000 C 
BRANCH   8   9
ATOM      9  C   UNL     1       5.997  24.062   7.385  1.00  0.00    -0.000 C 
BRANCH   9  10
ATOM     10  C   UNL     1       6.968  23.876   6.208  1.00  0.00    -0.000 C 
BRANCH  10  11
ATOM     11  C   UNL     1       6.961  25.069   5.241  1.00  0.00    -0.000 C 
BRANCH  11  12
ATOM     12  C   UNL     1       6.609  24.619   3.818  1.00  0.00    -0.003 C 
ATOM     13  C   UNL     1       5.148  24.915   3.490  1.00  0.00     0.004 C 
ENDBRANCH  11  12
ENDBRANCH  10  11
ENDBRANCH   9  10
ENDBRANCH   8   9
ENDBRANCH   1   8
TORSDOF 9
ENDMDL
MODEL 9
REMARK VINA RESULT:    -2.358     23.350     24.703
REMARK INTER + INTRA:          -4.476
REMARK INTER:                  -3.210
REMARK INTRA:                  -1.265
REMARK UNBOUND:                -0.877
REMARK SMILES CCCCCCCCCCC(=O)[O-]
REMARK SMILES IDX 7 1 8 2 9 3 10 4 11 5 12 6 13 7 6 8 5 9 4 10 3 11 2 12 1 13
REMARK H PARENT
REMARK Flexibility Score: inf
ROOT
ATOM      1  C   UNL     1       1.757  23.039   3.743  1.00  0.00     0.000 C 
ENDROOT
BRANCH   1   2
ATOM      2  C   UNL     1       2.347  21.665   4.097  1.00  0.00     0.000 C 
BRANCH   2   3
ATOM      3  C   UNL     1       2.770  21.565   5.572  1.00  0.00     0.006 C 
BRANCH   3   4
ATOM      4  C   UNL     1       2.802  22.928   6.272  1.00  0.00     0.053 C 
BRANCH   4   5
ATOM      5  C   UNL     1       4.212  23.399   6.436  1.00  0.00     0.041 C 
ATOM      6  O   UNL     1       4.827  23.911   5.464  1.00  0.00    -0.550 OA
ATOM      7  O   UNL     1       4.866  23.224   7.649  1.00  0.00    -0.550 OA
ENDBRANCH   4   5
ENDBRANCH   3   4
ENDBRANCH   2   3
ENDBRANCH   1   2
BRANCH   1   8
ATOM      8  C   UNL     1       0.334  22.900   3.190  1.00  0.00     0.000 C 
BRANCH   8   9
ATOM      9  C   UNL     1      -0.703  22.943   4.323  1.00  0.00    -0.000 C 
BRANCH   9  10
ATOM     10  C   UNL     1      -1.421  21.599   4.521  1.00  0.00    -0.000 C 
BRANCH  10  11
ATOM     11  C   UNL     1      -1.092  20.944   5.871  1.00  0.00    -0.000 C 
BRANCH  11  12
ATOM     12  C   UNL     1      -0.714  22.002   6.915  1.00  0.00    -0.003 C 
ATOM     13  C   UNL     1      -0.328  21.355   8.242  1.00  0.00     0.004 C 
ENDBRANCH  11  12
ENDBRANCH  10  11
ENDBRANCH   9  10
ENDBRANCH   8   9
ENDBRANCH   1   8
TORSDOF 9
ENDMDL
