MODEL 1
REMARK VINA RESULT:    -3.805      0.000      0.000
REMARK INTER + INTRA:          -4.590
REMARK INTER:                  -4.473
REMARK INTRA:                  -0.117
REMARK UNBOUND:                -0.117
REMARK SMILES O=C([O-])CCC(=O)[O-]
REMARK SMILES IDX 4 1 2 2 1 3 3 4 5 5 6 6 7 7 8 8
REMARK H PARENT
REMARK Flexibility Score: inf
ROOT
ATOM      1  C   UNL     1      -2.452  -0.128   3.721  1.00  0.00     0.059 C 
ENDROOT
BRANCH   1   2
ATOM      2  C   UNL     1      -1.213   0.338   3.017  1.00  0.00     0.042 C 
ATOM      3  O   UNL     1      -1.302   1.089   2.011  1.00  0.00    -0.550 OA
ATOM      4  O   UNL     1       0.038  -0.027   3.496  1.00  0.00    -0.550 OA
ENDBRANCH   1   2
BRANCH   1   5
ATOM      5  C   UNL     1      -3.709   0.132   2.884  1.00  0.00     0.059 C 
BRANCH   5   6
ATOM      6  C   UNL     1      -4.077  -1.060   2.054  1.00  0.00     0.042 C 
ATOM      7  O   UNL     1      -4.907  -1.901   2.487  1.00  0.00    -0.550 OA
ATOM      8  O   UNL     1      -3.534  -1.218   0.785  1.00  0.00    -0.550 OA
ENDBRANCH   5   6
ENDBRANCH   1   5
TORSDOF 3
ENDMDL
MODEL 2
REMARK VINA RESULT:    -3.802      0.041      3.788
REMARK INTER + INTRA:          -4.586
REMARK INTER:                  -4.467
REMARK INTRA:                  -0.120
REMARK UNBOUND:                -0.117
REMARK SMILES O=C([O-])CCC(=O)[O-]
REMARK SMILES IDX 4 1 2 2 1 3 3 4 5 5 6 6 7 7 8 8
REMARK H PARENT
REMARK Flexibility Score: inf
ROOT
ATOM      1  C   UNL     1      -3.711   0.139   2.853  1.00  0.00     0.059 C 
ENDROOT
BRANCH   1   2
ATOM      2  C   UNL     1      -4.092  -1.068   2.049  1.00  0.00     0.042 C 
ATOM      3  O   UNL     1      -4.903  -1.909   2.517  1.00  0.00    -0.550 OA
ATOM      4  O   UNL     1      -3.580  -1.242   0.770  1.00  0.00    -0.550 OA
ENDBRANCH   1   2
BRANCH   1   5
ATOM      5  C   UNL     1      -2.449  -0.113   3.686  1.00  0.00     0.059 C 
BRANCH   5   6
ATOM      6  C   UNL     1      -1.215   0.353   2.976  1.00  0.00     0.042 C 
ATOM      7  O   UNL     1      -1.310   1.093   1.962  1.00  0.00    -0.550 OA
ATOM      8  O   UNL     1       0.040   0.005   3.461  1.00  0.00    -0.550 OA
ENDBRANCH   5   6
ENDBRANCH   1   5
TORSDOF 3
ENDMDL
MODEL 3
REMARK VINA RESULT:    -3.694      2.178      3.052
REMARK INTER + INTRA:          -4.459
REMARK INTER:                  -4.440
REMARK INTRA:                  -0.018
REMARK UNBOUND:                -0.117
REMARK SMILES O=C([O-])CCC(=O)[O-]
REMARK SMILES IDX 4 1 2 2 1 3 3 4 5 5 6 6 7 7 8 8
REMARK H PARENT
REMARK Flexibility Score: inf
ROOT
ATOM      1  C   UNL     1      -5.000  -1.436   2.338  1.00  0.00     0.059 C 
ENDROOT
BRANCH   1   2
ATOM      2  C   UNL     1      -3.754  -0.625   2.529  1.00  0.00     0.042 C 
ATOM      3  O   UNL     1      -3.516  -0.082   3.640  1.00  0.00    -0.550 OA
ATOM      4  O   UNL     1      -2.837  -0.505   1.493  1.00  0.00    -0.550 OA
ENDBRANCH   1   2
BRANCH   1   5
ATOM      5  C   UNL     1      -4.767  -2.613   1.384  1.00  0.00     0.059 C 
BRANCH   5   6
ATOM      6  C   UNL     1      -5.158  -2.271  -0.021  1.00  0.00     0.042 C 
ATOM      7  O   UNL     1      -5.759  -1.193  -0.267  1.00  0.00    -0.550 OA
ATOM      8  O   UNL     1      -4.820  -3.125  -1.064  1.00  0.00    -0.550 OA
ENDBRANCH   5   6
ENDBRANCH   1   5
TORSDOF 3
ENDMDL
MODEL 4
REMARK VINA RESULT:    -3.618      1.320      2.066
REMARK INTER + INTRA:          -4.370
REMARK INTER:                  -4.262
REMARK INTRA:                  -0.109
REMARK UNBOUND:                -0.117
REMARK SMILES O=C([O-])CCC(=O)[O-]
REMARK SMILES IDX 4 1 2 2 1 3 3 4 5 5 6 6 7 7 8 8
REMARK H PARENT
REMARK Flexibility Score: inf
ROOT
ATOM      1  C   UNL     1      -3.740   0.138   2.273  1.00  0.00     0.059 C 
ENDROOT
BRANCH   1   2
ATOM      2  C   UNL     1      -2.425   0.171   2.993  1.00  0.00     0.042 C 
ATOM      3  O   UNL     1      -2.348  -0.220   4.187  1.00  0.00    -0.550 OA
ATOM      4  O   UNL     1      -1.281   0.597   2.332  1.00  0.00    -0.550 OA
ENDBRANCH   1   2
BRANCH   1   5
ATOM      5  C   UNL     1      -3.824  -1.047   1.305  1.00  0.00     0.059 C 
BRANCH   5   6
ATOM      6  C   UNL     1      -4.844  -2.051   1.748  1.00  0.00     0.042 C 
ATOM      7  O   UNL     1      -5.553  -2.650   0.897  1.00  0.00    -0.550 OA
ATOM      8  O   UNL     1      -4.980  -2.356   3.096  1.00  0.00    -0.550 OA
ENDBRANCH   5   6
ENDBRANCH   1   5
TORSDOF 3
ENDMDL
MODEL 5
REMARK VINA RESULT:    -3.586      2.256      4.491
REMARK INTER + INTRA:          -4.333
REMARK INTER:                  -4.418
REMARK INTRA:                   0.085
REMARK UNBOUND:                -0.117
REMARK SMILES O=C([O-])CCC(=O)[O-]
REMARK SMILES IDX 4 1 2 2 1 3 3 4 5 5 6 6 7 7 8 8
REMARK H PARENT
REMARK Flexibility Score: inf
ROOT
ATOM      1  C   UNL     1      -4.795  -2.781   1.248  1.00  0.00     0.059 C 
ENDROOT
BRANCH   1   2
ATOM      2  C   UNL     1      -5.040  -2.389  -0.178  1.00  0.00     0.042 C 
ATOM      3  O   UNL     1      -4.635  -3.125  -1.115  1.00  0.00    -0.550 OA
ATOM      4  O   UNL     1      -5.751  -1.231  -0.469  1.00  0.00    -0.550 OA
ENDBRANCH   1   2
BRANCH   1   5
ATOM      5  C   UNL     1      -5.066  -1.617   2.208  1.00  0.00     0.059 C 
BRANCH   5   6
ATOM      6  C   UNL     1      -3.853  -0.757   2.391  1.00  0.00     0.042 C 
ATOM      7  O   UNL     1      -3.060  -0.569   1.432  1.00  0.00    -0.550 OA
ATOM      8  O   UNL     1      -3.622  -0.129   3.609  1.00  0.00    -0.550 OA
ENDBRANCH   5   6
ENDBRANCH   1   5
TORSDOF 3
ENDMDL
MODEL 6
REMARK VINA RESULT:    -3.581      1.294      3.886
REMARK INTER + INTRA:          -4.326
REMARK INTER:                  -4.221
REMARK INTRA:                  -0.105
REMARK UNBOUND:                -0.117
REMARK SMILES O=C([O-])CCC(=O)[O-]
REMARK SMILES IDX 4 1 2 2 1 3 3 4 5 5 6 6 7 7 8 8
REMARK H PARENT
REMARK Flexibility Score: inf
ROOT
ATOM      1  C   UNL     1      -3.858  -0.997   1.336  1.00  0.00     0.059 C 
ENDROOT
BRANCH   1   2
ATOM      2  C   UNL     1      -4.781  -2.093   1.776  1.00  0.00     0.042 C 
ATOM      3  O   UNL     1      -5.369  -2.807   0.922  1.00  0.00    -0.550 OA
ATOM      4  O   UNL     1      -4.960  -2.351   3.130  1.00  0.00    -0.550 OA
ENDBRANCH   1   2
BRANCH   1   5
ATOM      5  C   UNL     1      -3.769   0.120   2.382  1.00  0.00     0.059 C 
BRANCH   5   6
ATOM      6  C   UNL     1      -2.416   0.170   3.023  1.00  0.00     0.042 C 
ATOM      7  O   UNL     1      -2.262  -0.225   4.208  1.00  0.00    -0.550 OA
ATOM      8  O   UNL     1      -1.318   0.614   2.297  1.00  0.00    -0.550 OA
ENDBRANCH   5   6
ENDBRANCH   1   5
TORSDOF 3
ENDMDL
