MODEL 1
REMARK VINA RESULT:    -4.344      0.000      0.000
REMARK INTER + INTRA:          -4.781
REMARK INTER:                  -4.598
REMARK INTRA:                  -0.183
REMARK UNBOUND:                -0.183
REMARK SMILES CC1=CC[C@@H](C(C)C)C=C1
REMARK SMILES IDX 1 1 2 2 3 3 4 4 5 5 9 6 10 7 6 8 7 9 8 10
REMARK H PARENT
REMARK Flexibility Score: inf
ROOT
ATOM      1  C   UNL     1     131.884 134.612 136.229  1.00  0.00     0.044 C 
ATOM      2  C   UNL     1     132.432 135.990 136.013  1.00  0.00    -0.055 C 
ATOM      3  C   UNL     1     133.350 136.495 136.851  1.00  0.00    -0.023 C 
ATOM      4  C   UNL     1     134.009 137.820 136.565  1.00  0.00     0.035 C 
ATOM      5  C   UNL     1     133.035 138.793 135.852  1.00  0.00     0.018 C 
ATOM      6  C   UNL     1     132.350 138.060 134.710  1.00  0.00    -0.023 C 
ATOM      7  C   UNL     1     132.023 136.768 134.824  1.00  0.00    -0.001 C 
ENDROOT
BRANCH   5   8
ATOM      8  C   UNL     1     133.729 140.101 135.357  1.00  0.00    -0.010 C 
ATOM      9  C   UNL     1     134.531 139.887 134.059  1.00  0.00     0.008 C 
ATOM     10  C   UNL     1     134.678 140.669 136.429  1.00  0.00     0.008 C 
ENDBRANCH   5   8
TORSDOF 1
ENDMDL
MODEL 2
REMARK VINA RESULT:    -4.343      6.620      8.190
REMARK INTER + INTRA:          -4.780
REMARK INTER:                  -4.597
REMARK INTRA:                  -0.183
REMARK UNBOUND:                -0.183
REMARK SMILES CC1=CC[C@@H](C(C)C)C=C1
REMARK SMILES IDX 1 1 2 2 3 3 4 4 5 5 9 6 10 7 6 8 7 9 8 10
REMARK H PARENT
REMARK Flexibility Score: inf
ROOT
ATOM      1  C   UNL     1     140.763 137.880 136.245  1.00  0.00     0.044 C 
ATOM      2  C   UNL     1     140.195 136.513 136.006  1.00  0.00    -0.055 C 
ATOM      3  C   UNL     1     139.296 135.994 136.854  1.00  0.00    -0.023 C 
ATOM      4  C   UNL     1     138.616 134.683 136.551  1.00  0.00     0.035 C 
ATOM      5  C   UNL     1     139.561 133.721 135.785  1.00  0.00     0.018 C 
ATOM      6  C   UNL     1     140.222 134.479 134.645  1.00  0.00    -0.023 C 
ATOM      7  C   UNL     1     140.564 135.764 134.786  1.00  0.00    -0.001 C 
ENDROOT
BRANCH   5   8
ATOM      8  C   UNL     1     138.840 132.434 135.273  1.00  0.00    -0.010 C 
ATOM      9  C   UNL     1     138.021 132.687 133.993  1.00  0.00     0.008 C 
ATOM     10  C   UNL     1     137.901 131.855 136.348  1.00  0.00     0.008 C 
ENDBRANCH   5   8
TORSDOF 1
ENDMDL
MODEL 3
REMARK VINA RESULT:    -4.340      4.057      5.684
REMARK INTER + INTRA:          -4.776
REMARK INTER:                  -4.592
REMARK INTRA:                  -0.185
REMARK UNBOUND:                -0.183
REMARK SMILES CC1=CC[C@@H](C(C)C)C=C1
REMARK SMILES IDX 1 1 2 2 3 3 4 4 5 5 9 6 10 7 6 8 7 9 8 10
REMARK H PARENT
REMARK Flexibility Score: inf
ROOT
ATOM      1  C   UNL     1     137.873 131.921 136.279  1.00  0.00     0.044 C 
ATOM      2  C   UNL     1     136.502 132.481 136.043  1.00  0.00    -0.055 C 
ATOM      3  C   UNL     1     135.974 133.366 136.902  1.00  0.00    -0.023 C 
ATOM      4  C   UNL     1     134.659 134.039 136.602  1.00  0.00     0.035 C 
ATOM      5  C   UNL     1     133.707 133.097 135.821  1.00  0.00     0.018 C 
ATOM      6  C   UNL     1     134.474 132.457 134.674  1.00  0.00    -0.023 C 
ATOM      7  C   UNL     1     135.761 132.123 134.815  1.00  0.00    -0.001 C 
ENDROOT
BRANCH   5   8
ATOM      8  C   UNL     1     132.416 133.815 135.314  1.00  0.00    -0.010 C 
ATOM      9  C   UNL     1     132.657 134.622 134.024  1.00  0.00     0.008 C 
ATOM     10  C   UNL     1     131.848 134.764 136.385  1.00  0.00     0.008 C 
ENDBRANCH   5   8
TORSDOF 1
ENDMDL
MODEL 4
REMARK VINA RESULT:    -4.332      4.170      5.841
REMARK INTER + INTRA:          -4.769
REMARK INTER:                  -4.586
REMARK INTRA:                  -0.182
REMARK UNBOUND:                -0.183
REMARK SMILES CC1=CC[C@@H](C(C)C)C=C1
REMARK SMILES IDX 1 1 2 2 3 3 4 4 5 5 9 6 10 7 6 8 7 9 8 10
REMARK H PARENT
REMARK Flexibility Score: inf
ROOT
ATOM      1  C   UNL     1     134.714 140.733 136.236  1.00  0.00     0.044 C 
ATOM      2  C   UNL     1     136.084 140.172 136.001  1.00  0.00    -0.055 C 
ATOM      3  C   UNL     1     136.600 139.265 136.844  1.00  0.00    -0.023 C 
ATOM      4  C   UNL     1     137.915 138.594 136.543  1.00  0.00     0.035 C 
ATOM      5  C   UNL     1     138.879 139.549 135.794  1.00  0.00     0.018 C 
ATOM      6  C   UNL     1     138.127 140.219 134.655  1.00  0.00    -0.023 C 
ATOM      7  C   UNL     1     136.840 140.556 134.790  1.00  0.00    -0.001 C 
ENDROOT
BRANCH   5   8
ATOM      8  C   UNL     1     140.172 138.838 135.284  1.00  0.00    -0.010 C 
ATOM      9  C   UNL     1     139.922 137.994 134.019  1.00  0.00     0.008 C 
ATOM     10  C   UNL     1     140.772 137.925 136.370  1.00  0.00     0.008 C 
ENDBRANCH   5   8
TORSDOF 1
ENDMDL
MODEL 5
REMARK VINA RESULT:    -4.093      6.458      6.981
REMARK INTER + INTRA:          -4.515
REMARK INTER:                  -4.386
REMARK INTRA:                  -0.129
REMARK UNBOUND:                -0.183
REMARK SMILES CC1=CC[C@@H](C(C)C)C=C1
REMARK SMILES IDX 1 1 2 2 3 3 4 4 5 5 9 6 10 7 6 8 7 9 8 10
REMARK H PARENT
REMARK Flexibility Score: inf
ROOT
ATOM      1  C   UNL     1     137.867 131.812 136.464  1.00  0.00     0.044 C 
ATOM      2  C   UNL     1     138.551 133.137 136.300  1.00  0.00    -0.055 C 
ATOM      3  C   UNL     1     138.269 134.153 137.129  1.00  0.00    -0.023 C 
ATOM      4  C   UNL     1     139.048 135.441 137.061  1.00  0.00     0.035 C 
ATOM      5  C   UNL     1     139.484 135.762 135.608  1.00  0.00     0.018 C 
ATOM      6  C   UNL     1     140.087 134.514 134.984  1.00  0.00    -0.023 C 
ATOM      7  C   UNL     1     139.601 133.302 135.273  1.00  0.00    -0.001 C 
ENDROOT
BRANCH   5   8
ATOM      8  C   UNL     1     140.462 136.976 135.516  1.00  0.00    -0.010 C 
ATOM      9  C   UNL     1     140.568 137.750 136.843  1.00  0.00     0.008 C 
ATOM     10  C   UNL     1     140.031 137.957 134.410  1.00  0.00     0.008 C 
ENDBRANCH   5   8
TORSDOF 1
ENDMDL
MODEL 6
REMARK VINA RESULT:    -4.085      3.896      5.675
REMARK INTER + INTRA:          -4.507
REMARK INTER:                  -4.379
REMARK INTRA:                  -0.128
REMARK UNBOUND:                -0.183
REMARK SMILES CC1=CC[C@@H](C(C)C)C=C1
REMARK SMILES IDX 1 1 2 2 3 3 4 4 5 5 9 6 10 7 6 8 7 9 8 10
REMARK H PARENT
REMARK Flexibility Score: inf
ROOT
ATOM      1  C   UNL     1     140.860 137.879 136.392  1.00  0.00     0.044 C 
ATOM      2  C   UNL     1     139.528 138.555 136.260  1.00  0.00    -0.055 C 
ATOM      3  C   UNL     1     138.518 138.230 137.080  1.00  0.00    -0.023 C 
ATOM      4  C   UNL     1     137.222 138.998 137.048  1.00  0.00     0.035 C 
ATOM      5  C   UNL     1     136.891 139.488 135.615  1.00  0.00     0.018 C 
ATOM      6  C   UNL     1     138.131 140.128 135.011  1.00  0.00    -0.023 C 
ATOM      7  C   UNL     1     139.348 139.643 135.276  1.00  0.00    -0.001 C 
ENDROOT
BRANCH   5   8
ATOM      8  C   UNL     1     135.667 140.457 135.566  1.00  0.00    -0.010 C 
ATOM      9  C   UNL     1     134.879 140.479 136.889  1.00  0.00     0.008 C 
ATOM     10  C   UNL     1     134.701 140.079 134.428  1.00  0.00     0.008 C 
ENDBRANCH   5   8
TORSDOF 1
ENDMDL
MODEL 7
REMARK VINA RESULT:    -4.079      4.094      5.929
REMARK INTER + INTRA:          -4.500
REMARK INTER:                  -4.371
REMARK INTRA:                  -0.130
REMARK UNBOUND:                -0.183
REMARK SMILES CC1=CC[C@@H](C(C)C)C=C1
REMARK SMILES IDX 1 1 2 2 3 3 4 4 5 5 9 6 10 7 6 8 7 9 8 10
REMARK H PARENT
REMARK Flexibility Score: inf
ROOT
ATOM      1  C   UNL     1     131.828 134.836 136.466  1.00  0.00     0.044 C 
ATOM      2  C   UNL     1     133.146 134.139 136.309  1.00  0.00    -0.055 C 
ATOM      3  C   UNL     1     134.186 134.471 137.088  1.00  0.00    -0.023 C 
ATOM      4  C   UNL     1     135.470 133.685 137.034  1.00  0.00     0.035 C 
ATOM      5  C   UNL     1     135.749 133.155 135.604  1.00  0.00     0.018 C 
ATOM      6  C   UNL     1     134.482 132.516 135.057  1.00  0.00    -0.023 C 
ATOM      7  C   UNL     1     133.280 133.024 135.348  1.00  0.00    -0.001 C 
ENDROOT
BRANCH   5   8
ATOM      8  C   UNL     1     136.958 132.168 135.541  1.00  0.00    -0.010 C 
ATOM      9  C   UNL     1     137.744 132.114 136.864  1.00  0.00     0.008 C 
ATOM     10  C   UNL     1     137.931 132.550 134.410  1.00  0.00     0.008 C 
ENDBRANCH   5   8
TORSDOF 1
ENDMDL
MODEL 8
REMARK VINA RESULT:    -4.073      5.674      6.892
REMARK INTER + INTRA:          -4.494
REMARK INTER:                  -4.295
REMARK INTRA:                  -0.199
REMARK UNBOUND:                -0.183
REMARK SMILES CC1=CC[C@@H](C(C)C)C=C1
REMARK SMILES IDX 1 1 2 2 3 3 4 4 5 5 9 6 10 7 6 8 7 9 8 10
REMARK H PARENT
REMARK Flexibility Score: inf
ROOT
ATOM      1  C   UNL     1     136.736 140.880 132.755  1.00  0.00     0.044 C 
ATOM      2  C   UNL     1     137.675 140.091 133.618  1.00  0.00    -0.055 C 
ATOM      3  C   UNL     1     137.896 140.457 134.889  1.00  0.00    -0.023 C 
ATOM      4  C   UNL     1     138.726 139.594 135.805  1.00  0.00     0.035 C 
ATOM      5  C   UNL     1     139.856 138.871 135.029  1.00  0.00     0.018 C 
ATOM      6  C   UNL     1     139.274 138.245 133.772  1.00  0.00    -0.023 C 
ATOM      7  C   UNL     1     138.297 138.857 133.094  1.00  0.00    -0.001 C 
ENDROOT
BRANCH   5   8
ATOM      8  C   UNL     1     140.614 137.814 135.894  1.00  0.00    -0.010 C 
ATOM      9  C   UNL     1     140.567 136.404 135.277  1.00  0.00     0.008 C 
ATOM     10  C   UNL     1     140.036 137.743 137.320  1.00  0.00     0.008 C 
ENDBRANCH   5   8
TORSDOF 1
ENDMDL
MODEL 9
REMARK VINA RESULT:    -4.047      1.037      4.318
REMARK INTER + INTRA:          -4.466
REMARK INTER:                  -4.338
REMARK INTRA:                  -0.128
REMARK UNBOUND:                -0.183
REMARK SMILES CC1=CC[C@@H](C(C)C)C=C1
REMARK SMILES IDX 1 1 2 2 3 3 4 4 5 5 9 6 10 7 6 8 7 9 8 10
REMARK H PARENT
REMARK Flexibility Score: inf
ROOT
ATOM      1  C   UNL     1     134.840 140.863 136.380  1.00  0.00     0.044 C 
ATOM      2  C   UNL     1     134.160 139.530 136.291  1.00  0.00    -0.055 C 
ATOM      3  C   UNL     1     134.498 138.538 137.128  1.00  0.00    -0.023 C 
ATOM      4  C   UNL     1     133.727 137.243 137.140  1.00  0.00     0.035 C 
ATOM      5  C   UNL     1     133.210 136.881 135.724  1.00  0.00     0.018 C 
ATOM      6  C   UNL     1     132.561 138.107 135.104  1.00  0.00    -0.023 C 
ATOM      7  C   UNL     1     133.053 139.330 135.332  1.00  0.00    -0.001 C 
ENDROOT
BRANCH   5   8
ATOM      8  C   UNL     1     132.239 135.658 135.721  1.00  0.00    -0.010 C 
ATOM      9  C   UNL     1     132.247 134.895 137.059  1.00  0.00     0.008 C 
ATOM     10  C   UNL     1     132.589 134.670 134.593  1.00  0.00     0.008 C 
ENDBRANCH   5   8
TORSDOF 1
ENDMDL
