MODEL 1
REMARK VINA RESULT:    36.244      0.000      0.000
REMARK INTER + INTRA:          50.635
REMARK INTER:                  51.075
REMARK INTRA:                  -0.440
REMARK UNBOUND:                -0.440
REMARK SMILES OCC1=C[C@@H](O)[C@@H]2C=CO[C@H](O[C@@H]3O[C@H](CO)[C@H](O)[C@@H](O)[C@@H]3O)[C@@H]12
REMARK SMILES IDX 12 1 11 2 8 3 9 4 7 5 10 6 24 7 5 8 3 9 4 10 6 11 2 13 1 14
REMARK SMILES IDX 13 16 22 17 14 18 20 19 15 20 18 21 23 22 21 24 16 26 17 27
REMARK SMILES IDX 19 29
REMARK H PARENT 6 12 1 15 23 23 21 25 17 28 19 30
REMARK Flexibility Score: inf
ROOT
ATOM      1  O   UNL     1      16.021  53.587  61.338  1.00  0.00    -0.310 OA
ENDROOT
BRANCH   1   2
ATOM      2  C   UNL     1      15.013  53.493  60.352  1.00  0.00     0.316 C 
ATOM      3  C   UNL     1      14.469  53.643  57.492  1.00  0.00     0.018 C 
ATOM      4  C   UNL     1      14.694  54.768  58.189  1.00  0.00     0.186 C 
ATOM      5  C   UNL     1      14.310  52.383  58.277  1.00  0.00     0.061 C 
ATOM      6  O   UNL     1      14.930  54.721  59.586  1.00  0.00    -0.472 OA
ATOM      7  C   UNL     1      15.357  52.357  59.380  1.00  0.00     0.096 C 
ATOM      8  C   UNL     1      14.476  51.026  57.598  1.00  0.00     0.145 C 
ATOM      9  C   UNL     1      15.305  50.924  59.798  1.00  0.00    -0.036 C 
ATOM     10  C   UNL     1      14.877  50.177  58.773  1.00  0.00     0.007 C 
BRANCH   8  11
ATOM     11  O   UNL     1      13.265  50.570  57.059  1.00  0.00    -0.388 OA
ATOM     12  H   UNL     1      12.590  51.266  57.269  1.00  0.00     0.211 HD
ENDBRANCH   8  11
BRANCH   9  13
ATOM     13  C   UNL     1      15.918  50.349  61.045  1.00  0.00     0.187 C 
BRANCH  13  14
ATOM     14  O   UNL     1      14.922  50.080  61.990  1.00  0.00    -0.392 OA
ATOM     15  H   UNL     1      15.389  49.827  62.829  1.00  0.00     0.211 HD
ENDBRANCH  13  14
ENDBRANCH   9  13
ENDBRANCH   1   2
BRANCH   1  16
ATOM     16  C   UNL     1      16.093  54.893  61.888  1.00  0.00     0.286 C 
ATOM     17  C   UNL     1      14.945  55.125  62.892  1.00  0.00     0.202 C 
ATOM     18  O   UNL     1      17.368  55.125  62.480  1.00  0.00    -0.341 OA
ATOM     19  C   UNL     1      15.123  54.246  64.136  1.00  0.00     0.179 C 
ATOM     20  C   UNL     1      17.620  54.354  63.654  1.00  0.00     0.178 C 
ATOM     21  C   UNL     1      16.513  54.510  64.729  1.00  0.00     0.177 C 
BRANCH  17  22
ATOM     22  O   UNL     1      13.694  54.913  62.286  1.00  0.00    -0.385 OA
ATOM     23  H   UNL     1      13.819  54.277  61.535  1.00  0.00     0.211 HD
ENDBRANCH  17  22
BRANCH  19  24
ATOM     24  O   UNL     1      14.130  54.572  65.075  1.00  0.00    -0.387 OA
ATOM     25  H   UNL     1      13.258  54.327  64.669  1.00  0.00     0.211 HD
ENDBRANCH  19  24
BRANCH  20  26
ATOM     26  C   UNL     1      17.990  52.888  63.343  1.00  0.00     0.191 C 
BRANCH  26  27
ATOM     27  O   UNL     1      18.624  52.810  62.097  1.00  0.00    -0.394 OA
ATOM     28  H   UNL     1      18.005  53.230  61.444  1.00  0.00     0.210 HD
ENDBRANCH  26  27
ENDBRANCH  20  26
BRANCH  21  29
ATOM     29  O   UNL     1      16.736  53.641  65.810  1.00  0.00    -0.387 OA
ATOM     30  H   UNL     1      17.717  53.625  65.967  1.00  0.00     0.211 HD
ENDBRANCH  21  29
ENDBRANCH   1  16
TORSDOF 10
ENDMDL
MODEL 2
REMARK VINA RESULT:    38.450      1.453      3.022
REMARK INTER + INTRA:          53.745
REMARK INTER:                  39.640
REMARK INTRA:                  14.105
REMARK UNBOUND:                -0.440
REMARK SMILES OCC1=C[C@@H](O)[C@@H]2C=CO[C@H](O[C@@H]3O[C@H](CO)[C@H](O)[C@@H](O)[C@@H]3O)[C@@H]12
REMARK SMILES IDX 12 1 11 2 8 3 9 4 7 5 10 6 24 7 5 8 3 9 4 10 6 11 2 13 1 14
REMARK SMILES IDX 13 16 22 17 14 18 20 19 15 20 18 21 23 22 21 24 16 26 17 27
REMARK SMILES IDX 19 29
REMARK H PARENT 6 12 1 15 23 23 21 25 17 28 19 30
REMARK Flexibility Score: inf
ROOT
ATOM      1  O   UNL     1      14.044  53.910  61.666  1.00  0.00    -0.310 OA
ENDROOT
BRANCH   1   2
ATOM      2  C   UNL     1      14.854  52.751  61.687  1.00  0.00     0.316 C 
ATOM      3  C   UNL     1      14.828  49.836  61.677  1.00  0.00     0.018 C 
ATOM      4  C   UNL     1      14.494  50.503  62.793  1.00  0.00     0.186 C 
ATOM      5  C   UNL     1      15.396  50.641  60.554  1.00  0.00     0.061 C 
ATOM      6  O   UNL     1      14.529  51.919  62.830  1.00  0.00    -0.472 OA
ATOM      7  C   UNL     1      14.596  51.928  60.419  1.00  0.00     0.096 C 
ATOM      8  C   UNL     1      15.409  50.081  59.134  1.00  0.00     0.145 C 
ATOM      9  C   UNL     1      15.032  52.402  59.072  1.00  0.00    -0.036 C 
ATOM     10  C   UNL     1      15.421  51.354  58.336  1.00  0.00     0.007 C 
BRANCH   8  11
ATOM     11  O   UNL     1      16.573  49.339  58.885  1.00  0.00    -0.388 OA
ATOM     12  H   UNL     1      17.292  49.768  59.418  1.00  0.00     0.211 HD
ENDBRANCH   8  11
BRANCH   9  13
ATOM     13  C   UNL     1      14.794  53.774  58.504  1.00  0.00     0.187 C 
BRANCH  13  14
ATOM     14  O   UNL     1      15.102  54.750  59.459  1.00  0.00    -0.392 OA
ATOM     15  H   UNL     1      14.238  55.142  59.752  1.00  0.00     0.211 HD
ENDBRANCH  13  14
ENDBRANCH   9  13
ENDBRANCH   1   2
BRANCH   1  16
ATOM     16  C   UNL     1      14.781  55.068  62.025  1.00  0.00     0.286 C 
ATOM     17  C   UNL     1      14.997  55.124  63.551  1.00  0.00     0.202 C 
ATOM     18  O   UNL     1      16.014  55.125  61.313  1.00  0.00    -0.341 OA
ATOM     19  C   UNL     1      15.931  53.999  64.012  1.00  0.00     0.179 C 
ATOM     20  C   UNL     1      16.954  54.117  61.684  1.00  0.00     0.178 C 
ATOM     21  C   UNL     1      17.235  54.083  63.209  1.00  0.00     0.177 C 
BRANCH  17  22
ATOM     22  O   UNL     1      13.770  55.089  64.237  1.00  0.00    -0.385 OA
ATOM     23  H   UNL     1      13.963  55.065  65.210  1.00  0.00     0.211 HD
ENDBRANCH  17  22
BRANCH  19  24
ATOM     24  O   UNL     1      16.199  54.156  65.382  1.00  0.00    -0.387 OA
ATOM     25  H   UNL     1      17.168  53.981  65.508  1.00  0.00     0.211 HD
ENDBRANCH  19  24
BRANCH  20  26
ATOM     26  C   UNL     1      16.625  52.736  61.076  1.00  0.00     0.191 C 
BRANCH  26  27
ATOM     27  O   UNL     1      17.808  52.022  60.848  1.00  0.00    -0.394 OA
ATOM     28  H   UNL     1      18.480  52.390  61.480  1.00  0.00     0.210 HD
ENDBRANCH  26  27
ENDBRANCH  20  26
BRANCH  21  29
ATOM     29  O   UNL     1      18.064  52.999  63.542  1.00  0.00    -0.387 OA
ATOM     30  H   UNL     1      18.991  53.353  63.594  1.00  0.00     0.211 HD
ENDBRANCH  21  29
ENDBRANCH   1  16
TORSDOF 10
ENDMDL
