MODEL 1
REMARK VINA RESULT:    -3.936      0.000      0.000
REMARK INTER + INTRA:          -4.557
REMARK INTER:                  -4.511
REMARK INTRA:                  -0.046
REMARK UNBOUND:                -0.046
REMARK SMILES CC(C)[C@H]([NH3+])C(=O)[O-]
REMARK SMILES IDX 4 1 5 2 6 6 7 7 8 8 2 9 1 10 3 11
REMARK H PARENT 5 3 5 4 5 5
REMARK Flexibility Score: inf
ROOT
ATOM      1  C   UNL     1      -7.303 -17.662 -15.574  1.00  0.00     0.230 C 
ENDROOT
BRANCH   1   2
ATOM      2  N   UNL     1      -7.269 -16.500 -14.674  1.00  0.00    -0.350 N 
ATOM      3  H   UNL     1      -6.312 -16.343 -14.285  1.00  0.00     0.345 HD
ATOM      4  H   UNL     1      -7.577 -15.640 -15.185  1.00  0.00     0.345 HD
ATOM      5  H   UNL     1      -7.930 -16.656 -13.877  1.00  0.00     0.345 HD
ENDBRANCH   1   2
BRANCH   1   6
ATOM      6  C   UNL     1      -8.642 -17.769 -16.264  1.00  0.00     0.099 C 
ATOM      7  O   UNL     1      -9.699 -17.940 -15.599  1.00  0.00    -0.544 OA
ATOM      8  O   UNL     1      -8.711 -17.710 -17.650  1.00  0.00    -0.544 OA
ENDBRANCH   1   6
BRANCH   1   9
ATOM      9  C   UNL     1      -6.896 -18.974 -14.838  1.00  0.00     0.047 C 
ATOM     10  C   UNL     1      -6.185 -18.671 -13.510  1.00  0.00     0.014 C 
ATOM     11  C   UNL     1      -6.036 -19.921 -15.691  1.00  0.00     0.014 C 
ENDBRANCH   1   9
TORSDOF 3
ENDMDL
MODEL 2
REMARK VINA RESULT:    -3.574      8.962      9.577
REMARK INTER + INTRA:          -4.142
REMARK INTER:                  -4.134
REMARK INTRA:                  -0.008
REMARK UNBOUND:                -0.046
REMARK SMILES CC(C)[C@H]([NH3+])C(=O)[O-]
REMARK SMILES IDX 4 1 5 2 6 6 7 7 8 8 2 9 1 10 3 11
REMARK H PARENT 5 3 5 4 5 5
REMARK Flexibility Score: inf
ROOT
ATOM      1  C   UNL     1      -0.623 -21.871 -11.714  1.00  0.00     0.230 C 
ENDROOT
BRANCH   1   2
ATOM      2  N   UNL     1       0.352 -22.476 -12.634  1.00  0.00    -0.350 N 
ATOM      3  H   UNL     1       0.905 -21.747 -13.139  1.00  0.00     0.345 HD
ATOM      4  H   UNL     1       1.006 -23.099 -12.105  1.00  0.00     0.345 HD
ATOM      5  H   UNL     1      -0.151 -23.062 -13.340  1.00  0.00     0.345 HD
ENDBRANCH   1   2
BRANCH   1   6
ATOM      6  C   UNL     1      -0.112 -21.903 -10.293  1.00  0.00     0.099 C 
ATOM      7  O   UNL     1      -0.010 -20.842  -9.620  1.00  0.00    -0.544 OA
ATOM      8  O   UNL     1       0.281 -23.109  -9.727  1.00  0.00    -0.544 OA
ENDBRANCH   1   6
BRANCH   1   9
ATOM      9  C   UNL     1      -2.034 -22.516 -11.863  1.00  0.00     0.047 C 
ATOM     10  C   UNL     1      -2.945 -22.140 -10.684  1.00  0.00     0.014 C 
ATOM     11  C   UNL     1      -2.001 -24.044 -12.036  1.00  0.00     0.014 C 
ENDBRANCH   1   9
TORSDOF 3
ENDMDL
MODEL 3
REMARK VINA RESULT:    -3.465      2.115      2.719
REMARK INTER + INTRA:          -4.017
REMARK INTER:                  -3.945
REMARK INTRA:                  -0.072
REMARK UNBOUND:                -0.046
REMARK SMILES CC(C)[C@H]([NH3+])C(=O)[O-]
REMARK SMILES IDX 4 1 5 2 6 6 7 7 8 8 2 9 1 10 3 11
REMARK H PARENT 5 3 5 4 5 5
REMARK Flexibility Score: inf
ROOT
ATOM      1  C   UNL     1      -7.753 -18.362 -14.835  1.00  0.00     0.230 C 
ENDROOT
BRANCH   1   2
ATOM      2  N   UNL     1      -8.154 -18.142 -16.232  1.00  0.00    -0.350 N 
ATOM      3  H   UNL     1      -9.162 -18.371 -16.382  1.00  0.00     0.345 HD
ATOM      4  H   UNL     1      -7.985 -17.145 -16.502  1.00  0.00     0.345 HD
ATOM      5  H   UNL     1      -7.578 -18.749 -16.861  1.00  0.00     0.345 HD
ENDBRANCH   1   2
BRANCH   1   6
ATOM      6  C   UNL     1      -8.013 -17.131 -14.001  1.00  0.00     0.099 C 
ATOM      7  O   UNL     1      -7.294 -16.103 -14.125  1.00  0.00    -0.544 OA
ATOM      8  O   UNL     1      -9.037 -17.137 -13.061  1.00  0.00    -0.544 OA
ENDBRANCH   1   6
BRANCH   1   9
ATOM      9  C   UNL     1      -6.281 -18.863 -14.729  1.00  0.00     0.047 C 
ATOM     10  C   UNL     1      -6.015 -20.023 -15.702  1.00  0.00     0.014 C 
ATOM     11  C   UNL     1      -5.866 -19.267 -13.304  1.00  0.00     0.014 C 
ENDBRANCH   1   9
TORSDOF 3
ENDMDL
MODEL 4
REMARK VINA RESULT:    -3.430      6.046      6.903
REMARK INTER + INTRA:          -3.977
REMARK INTER:                  -3.931
REMARK INTRA:                  -0.045
REMARK UNBOUND:                -0.046
REMARK SMILES CC(C)[C@H]([NH3+])C(=O)[O-]
REMARK SMILES IDX 4 1 5 2 6 6 7 7 8 8 2 9 1 10 3 11
REMARK H PARENT 5 3 5 4 5 5
REMARK Flexibility Score: inf
ROOT
ATOM      1  C   UNL     1      -3.751 -21.668 -10.952  1.00  0.00     0.230 C 
ENDROOT
BRANCH   1   2
ATOM      2  N   UNL     1      -4.276 -22.596  -9.939  1.00  0.00    -0.350 N 
ATOM      3  H   UNL     1      -4.753 -22.085  -9.163  1.00  0.00     0.345 HD
ATOM      4  H   UNL     1      -4.952 -23.263 -10.379  1.00  0.00     0.345 HD
ATOM      5  H   UNL     1      -3.487 -23.154  -9.536  1.00  0.00     0.345 HD
ENDBRANCH   1   2
BRANCH   1   6
ATOM      6  C   UNL     1      -4.865 -21.139 -11.824  1.00  0.00     0.099 C 
ATOM      7  O   UNL     1      -5.899 -21.827 -12.038  1.00  0.00    -0.544 OA
ATOM      8  O   UNL     1      -4.739 -19.893 -12.426  1.00  0.00    -0.544 OA
ENDBRANCH   1   6
BRANCH   1   9
ATOM      9  C   UNL     1      -2.592 -22.306 -11.775  1.00  0.00     0.047 C 
ATOM     10  C   UNL     1      -2.652 -23.841 -11.725  1.00  0.00     0.014 C 
ATOM     11  C   UNL     1      -1.194 -21.821 -11.354  1.00  0.00     0.014 C 
ENDBRANCH   1   9
TORSDOF 3
ENDMDL
MODEL 5
REMARK VINA RESULT:    -3.355     15.512     16.301
REMARK INTER + INTRA:          -3.891
REMARK INTER:                  -3.851
REMARK INTRA:                  -0.041
REMARK UNBOUND:                -0.046
REMARK SMILES CC(C)[C@H]([NH3+])C(=O)[O-]
REMARK SMILES IDX 4 1 5 2 6 6 7 7 8 8 2 9 1 10 3 11
REMARK H PARENT 5 3 5 4 5 5
REMARK Flexibility Score: inf
ROOT
ATOM      1  C   UNL     1       2.816 -29.086 -12.331  1.00  0.00     0.230 C 
ENDROOT
BRANCH   1   2
ATOM      2  N   UNL     1       2.927 -28.106 -13.422  1.00  0.00    -0.350 N 
ATOM      3  H   UNL     1       3.078 -28.574 -14.344  1.00  0.00     0.345 HD
ATOM      4  H   UNL     1       2.059 -27.524 -13.471  1.00  0.00     0.345 HD
ATOM      5  H   UNL     1       3.734 -27.467 -13.236  1.00  0.00     0.345 HD
ENDBRANCH   1   2
BRANCH   1   6
ATOM      6  C   UNL     1       3.724 -28.717 -11.183  1.00  0.00     0.099 C 
ATOM      7  O   UNL     1       3.865 -27.515 -10.832  1.00  0.00    -0.544 OA
ATOM      8  O   UNL     1       4.440 -29.708 -10.522  1.00  0.00    -0.544 OA
ENDBRANCH   1   6
BRANCH   1   9
ATOM      9  C   UNL     1       3.045 -30.542 -12.838  1.00  0.00     0.047 C 
ATOM     10  C   UNL     1       3.047 -30.604 -14.374  1.00  0.00     0.014 C 
ATOM     11  C   UNL     1       2.040 -31.560 -12.272  1.00  0.00     0.014 C 
ENDBRANCH   1   9
TORSDOF 3
ENDMDL
MODEL 6
REMARK VINA RESULT:    -3.355      7.756      8.417
REMARK INTER + INTRA:          -3.891
REMARK INTER:                  -3.844
REMARK INTRA:                  -0.047
REMARK UNBOUND:                -0.046
REMARK SMILES CC(C)[C@H]([NH3+])C(=O)[O-]
REMARK SMILES IDX 4 1 5 2 6 6 7 7 8 8 2 9 1 10 3 11
REMARK H PARENT 5 3 5 4 5 5
REMARK Flexibility Score: inf
ROOT
ATOM      1  C   UNL     1      -3.197 -22.361 -11.097  1.00  0.00     0.230 C 
ENDROOT
BRANCH   1   2
ATOM      2  N   UNL     1      -3.098 -21.096 -11.841  1.00  0.00    -0.350 N 
ATOM      3  H   UNL     1      -2.532 -21.207 -12.712  1.00  0.00     0.345 HD
ATOM      4  H   UNL     1      -4.054 -20.752 -12.093  1.00  0.00     0.345 HD
ATOM      5  H   UNL     1      -2.642 -20.371 -11.238  1.00  0.00     0.345 HD
ENDBRANCH   1   2
BRANCH   1   6
ATOM      6  C   UNL     1      -3.379 -22.103  -9.620  1.00  0.00     0.099 C 
ATOM      7  O   UNL     1      -2.386 -21.882  -8.877  1.00  0.00    -0.544 OA
ATOM      8  O   UNL     1      -4.652 -22.141  -9.064  1.00  0.00    -0.544 OA
ENDBRANCH   1   6
BRANCH   1   9
ATOM      9  C   UNL     1      -1.996 -23.305 -11.402  1.00  0.00     0.047 C 
ATOM     10  C   UNL     1      -0.830 -22.535 -12.042  1.00  0.00     0.014 C 
ATOM     11  C   UNL     1      -2.367 -24.517 -12.273  1.00  0.00     0.014 C 
ENDBRANCH   1   9
TORSDOF 3
ENDMDL
MODEL 7
REMARK VINA RESULT:    -3.281     14.643     15.548
REMARK INTER + INTRA:          -3.806
REMARK INTER:                  -3.737
REMARK INTRA:                  -0.069
REMARK UNBOUND:                -0.046
REMARK SMILES CC(C)[C@H]([NH3+])C(=O)[O-]
REMARK SMILES IDX 4 1 5 2 6 6 7 7 8 8 2 9 1 10 3 11
REMARK H PARENT 5 3 5 4 5 5
REMARK Flexibility Score: inf
ROOT
ATOM      1  C   UNL     1       2.530 -28.965 -12.457  1.00  0.00     0.230 C 
ENDROOT
BRANCH   1   2
ATOM      2  N   UNL     1       2.881 -28.557 -13.825  1.00  0.00    -0.350 N 
ATOM      3  H   UNL     1       2.299 -29.055 -14.535  1.00  0.00     0.345 HD
ATOM      4  H   UNL     1       2.750 -27.525 -13.937  1.00  0.00     0.345 HD
ATOM      5  H   UNL     1       3.888 -28.776 -14.008  1.00  0.00     0.345 HD
ENDBRANCH   1   2
BRANCH   1   6
ATOM      6  C   UNL     1       2.206 -27.762 -11.604  1.00  0.00     0.099 C 
ATOM      7  O   UNL     1       1.038 -27.574 -11.170  1.00  0.00    -0.544 OA
ATOM      8  O   UNL     1       3.197 -26.831 -11.317  1.00  0.00    -0.544 OA
ENDBRANCH   1   6
BRANCH   1   9
ATOM      9  C   UNL     1       3.627 -29.874 -11.826  1.00  0.00     0.047 C 
ATOM     10  C   UNL     1       3.804 -31.173 -12.629  1.00  0.00     0.014 C 
ATOM     11  C   UNL     1       3.382 -30.202 -10.343  1.00  0.00     0.014 C 
ENDBRANCH   1   9
TORSDOF 3
ENDMDL
MODEL 8
REMARK VINA RESULT:    -3.243      8.322      9.262
REMARK INTER + INTRA:          -3.763
REMARK INTER:                  -3.758
REMARK INTRA:                  -0.005
REMARK UNBOUND:                -0.046
REMARK SMILES CC(C)[C@H]([NH3+])C(=O)[O-]
REMARK SMILES IDX 4 1 5 2 6 6 7 7 8 8 2 9 1 10 3 11
REMARK H PARENT 5 3 5 4 5 5
REMARK Flexibility Score: inf
ROOT
ATOM      1  C   UNL     1      -0.446 -22.584 -11.298  1.00  0.00     0.230 C 
ENDROOT
BRANCH   1   2
ATOM      2  N   UNL     1       0.392 -22.248 -12.459  1.00  0.00    -0.350 N 
ATOM      3  H   UNL     1       0.245 -21.259 -12.764  1.00  0.00     0.345 HD
ATOM      4  H   UNL     1       1.402 -22.389 -12.226  1.00  0.00     0.345 HD
ATOM      5  H   UNL     1       0.153 -22.881 -13.257  1.00  0.00     0.345 HD
ENDBRANCH   1   2
BRANCH   1   6
ATOM      6  C   UNL     1      -1.872 -22.841 -11.721  1.00  0.00     0.099 C 
ATOM      7  O   UNL     1      -2.297 -24.017 -11.879  1.00  0.00    -0.544 OA
ATOM      8  O   UNL     1      -2.722 -21.771 -11.970  1.00  0.00    -0.544 OA
ENDBRANCH   1   6
BRANCH   1   9
ATOM      9  C   UNL     1      -0.333 -21.510 -10.175  1.00  0.00     0.047 C 
ATOM     10  C   UNL     1       1.119 -21.352  -9.697  1.00  0.00     0.014 C 
ATOM     11  C   UNL     1      -1.257 -21.773  -8.973  1.00  0.00     0.014 C 
ENDBRANCH   1   9
TORSDOF 3
ENDMDL
MODEL 9
REMARK VINA RESULT:    -3.230      8.118      8.952
REMARK INTER + INTRA:          -3.748
REMARK INTER:                  -3.709
REMARK INTRA:                  -0.039
REMARK UNBOUND:                -0.046
REMARK SMILES CC(C)[C@H]([NH3+])C(=O)[O-]
REMARK SMILES IDX 4 1 5 2 6 6 7 7 8 8 2 9 1 10 3 11
REMARK H PARENT 5 3 5 4 5 5
REMARK Flexibility Score: inf
ROOT
ATOM      1  C   UNL     1      -1.816 -22.272 -10.272  1.00  0.00     0.230 C 
ENDROOT
BRANCH   1   2
ATOM      2  N   UNL     1      -2.532 -21.412  -9.318  1.00  0.00    -0.350 N 
ATOM      3  H   UNL     1      -2.612 -21.864  -8.380  1.00  0.00     0.345 HD
ATOM      4  H   UNL     1      -2.035 -20.497  -9.217  1.00  0.00     0.345 HD
ATOM      5  H   UNL     1      -3.496 -21.218  -9.678  1.00  0.00     0.345 HD
ENDBRANCH   1   2
BRANCH   1   6
ATOM      6  C   UNL     1      -0.479 -21.673 -10.637  1.00  0.00     0.099 C 
ATOM      7  O   UNL     1       0.103 -20.869  -9.858  1.00  0.00    -0.544 OA
ATOM      8  O   UNL     1       0.107 -21.983 -11.858  1.00  0.00    -0.544 OA
ENDBRANCH   1   6
BRANCH   1   9
ATOM      9  C   UNL     1      -2.689 -22.603 -11.519  1.00  0.00     0.047 C 
ATOM     10  C   UNL     1      -4.134 -22.112 -11.335  1.00  0.00     0.014 C 
ATOM     11  C   UNL     1      -2.685 -24.094 -11.898  1.00  0.00     0.014 C 
ENDBRANCH   1   9
TORSDOF 3
ENDMDL
