MODEL 1
REMARK VINA RESULT:    -2.447      0.000      0.000
REMARK INTER + INTRA:          -2.447
REMARK INTER:                  -2.447
REMARK INTRA:                   0.000
REMARK UNBOUND:                 0.000
REMARK SMILES CC(=O)[O-]
REMARK SMILES IDX 1 1 2 2 3 3 4 4
REMARK H PARENT
REMARK Flexibility Score: inf
ROOT
ATOM      1  C   UNL     1       5.510 -21.135  26.352  1.00  0.00     0.063 C 
ATOM      2  C   UNL     1       6.889 -21.684  26.212  1.00  0.00     0.038 C 
ATOM      3  O   UNL     1       7.721 -21.548  27.147  1.00  0.00    -0.550 OA
ATOM      4  O   UNL     1       7.276 -22.299  25.028  1.00  0.00    -0.550 OA
ENDROOT
TORSDOF 0
ENDMDL
MODEL 2
REMARK VINA RESULT:    -2.425     17.468     17.856
REMARK INTER + INTRA:          -2.425
REMARK INTER:                  -2.425
REMARK INTRA:                   0.000
REMARK UNBOUND:                 0.000
REMARK SMILES CC(=O)[O-]
REMARK SMILES IDX 1 1 2 2 3 3 4 4
REMARK H PARENT
REMARK Flexibility Score: inf
ROOT
ATOM      1  C   UNL     1      21.894 -10.482  22.733  1.00  0.00     0.063 C 
ATOM      2  C   UNL     1      20.732 -11.099  23.435  1.00  0.00     0.038 C 
ATOM      3  O   UNL     1      19.941 -11.851  22.807  1.00  0.00    -0.550 OA
ATOM      4  O   UNL     1      20.488 -10.801  24.769  1.00  0.00    -0.550 OA
ENDROOT
TORSDOF 0
ENDMDL
MODEL 3
REMARK VINA RESULT:    -2.423     17.533     17.838
REMARK INTER + INTRA:          -2.423
REMARK INTER:                  -2.423
REMARK INTRA:                   0.000
REMARK UNBOUND:                 0.000
REMARK SMILES CC(=O)[O-]
REMARK SMILES IDX 1 1 2 2 3 3 4 4
REMARK H PARENT
REMARK Flexibility Score: inf
ROOT
ATOM      1  C   UNL     1      20.511 -10.596  24.629  1.00  0.00     0.063 C 
ATOM      2  C   UNL     1      20.824 -11.126  23.270  1.00  0.00     0.038 C 
ATOM      3  O   UNL     1      20.013 -11.894  22.690  1.00  0.00    -0.550 OA
ATOM      4  O   UNL     1      22.036 -10.818  22.666  1.00  0.00    -0.550 OA
ENDROOT
TORSDOF 0
ENDMDL
MODEL 4
REMARK VINA RESULT:    -2.361     12.829     13.085
REMARK INTER + INTRA:          -2.361
REMARK INTER:                  -2.361
REMARK INTRA:                   0.000
REMARK UNBOUND:                 0.000
REMARK SMILES CC(=O)[O-]
REMARK SMILES IDX 1 1 2 2 3 3 4 4
REMARK H PARENT
REMARK Flexibility Score: inf
ROOT
ATOM      1  C   UNL     1      14.514 -14.620  20.709  1.00  0.00     0.063 C 
ATOM      2  C   UNL     1      15.127 -13.262  20.778  1.00  0.00     0.038 C 
ATOM      3  O   UNL     1      15.542 -12.703  19.729  1.00  0.00    -0.550 OA
ATOM      4  O   UNL     1      15.290 -12.635  22.006  1.00  0.00    -0.550 OA
ENDROOT
TORSDOF 0
ENDMDL
MODEL 5
REMARK VINA RESULT:    -2.338      1.833      2.092
REMARK INTER + INTRA:          -2.338
REMARK INTER:                  -2.338
REMARK INTRA:                   0.000
REMARK UNBOUND:                 0.000
REMARK SMILES CC(=O)[O-]
REMARK SMILES IDX 1 1 2 2 3 3 4 4
REMARK H PARENT
REMARK Flexibility Score: inf
ROOT
ATOM      1  C   UNL     1       7.172 -21.624  26.500  1.00  0.00     0.063 C 
ATOM      2  C   UNL     1       5.703 -21.549  26.250  1.00  0.00     0.038 C 
ATOM      3  O   UNL     1       4.999 -20.712  26.873  1.00  0.00    -0.550 OA
ATOM      4  O   UNL     1       5.100 -22.439  25.371  1.00  0.00    -0.550 OA
ENDROOT
TORSDOF 0
ENDMDL
MODEL 6
REMARK VINA RESULT:    -2.336     13.150     13.351
REMARK INTER + INTRA:          -2.336
REMARK INTER:                  -2.336
REMARK INTRA:                   0.000
REMARK UNBOUND:                 0.000
REMARK SMILES CC(=O)[O-]
REMARK SMILES IDX 1 1 2 2 3 3 4 4
REMARK H PARENT
REMARK Flexibility Score: inf
ROOT
ATOM      1  C   UNL     1      15.486 -13.490  18.487  1.00  0.00     0.063 C 
ATOM      2  C   UNL     1      15.240 -13.552  19.957  1.00  0.00     0.038 C 
ATOM      3  O   UNL     1      15.128 -12.490  20.624  1.00  0.00    -0.550 OA
ATOM      4  O   UNL     1      15.188 -14.781  20.602  1.00  0.00    -0.550 OA
ENDROOT
TORSDOF 0
ENDMDL
MODEL 7
REMARK VINA RESULT:    -2.325     12.378     12.617
REMARK INTER + INTRA:          -2.325
REMARK INTER:                  -2.325
REMARK INTRA:                   0.000
REMARK UNBOUND:                 0.000
REMARK SMILES CC(=O)[O-]
REMARK SMILES IDX 1 1 2 2 3 3 4 4
REMARK H PARENT
REMARK Flexibility Score: inf
ROOT
ATOM      1  C   UNL     1      15.471 -13.045  21.161  1.00  0.00     0.063 C 
ATOM      2  C   UNL     1      14.777 -14.038  20.290  1.00  0.00     0.038 C 
ATOM      3  O   UNL     1      14.061 -14.937  20.804  1.00  0.00    -0.550 OA
ATOM      4  O   UNL     1      14.963 -14.006  18.914  1.00  0.00    -0.550 OA
ENDROOT
TORSDOF 0
ENDMDL
MODEL 8
REMARK VINA RESULT:    -2.265     17.960     18.231
REMARK INTER + INTRA:          -2.265
REMARK INTER:                  -2.265
REMARK INTRA:                   0.000
REMARK UNBOUND:                 0.000
REMARK SMILES CC(=O)[O-]
REMARK SMILES IDX 1 1 2 2 3 3 4 4
REMARK H PARENT
REMARK Flexibility Score: inf
ROOT
ATOM      1  C   UNL     1      21.958 -11.506  22.055  1.00  0.00     0.063 C 
ATOM      2  C   UNL     1      21.864 -12.766  21.263  1.00  0.00     0.038 C 
ATOM      3  O   UNL     1      20.792 -13.062  20.673  1.00  0.00    -0.550 OA
ATOM      4  O   UNL     1      22.940 -13.643  21.221  1.00  0.00    -0.550 OA
ENDROOT
TORSDOF 0
ENDMDL
MODEL 9
REMARK VINA RESULT:    -2.243     18.003     18.234
REMARK INTER + INTRA:          -2.243
REMARK INTER:                  -2.243
REMARK INTRA:                   0.000
REMARK UNBOUND:                 0.000
REMARK SMILES CC(=O)[O-]
REMARK SMILES IDX 1 1 2 2 3 3 4 4
REMARK H PARENT
REMARK Flexibility Score: inf
ROOT
ATOM      1  C   UNL     1      21.139 -13.073  20.884  1.00  0.00     0.063 C 
ATOM      2  C   UNL     1      22.444 -13.795  20.893  1.00  0.00     0.038 C 
ATOM      3  O   UNL     1      23.385 -13.389  21.624  1.00  0.00    -0.550 OA
ATOM      4  O   UNL     1      22.642 -14.884  20.054  1.00  0.00    -0.550 OA
ENDROOT
TORSDOF 0
ENDMDL
