MODEL 1
REMARK VINA RESULT:    29.581      0.000      0.000
REMARK INTER + INTRA:          34.504
REMARK INTER:                  34.769
REMARK INTRA:                  -0.265
REMARK UNBOUND:                -0.265
REMARK SMILES O=c1cc(-c2ccc(O)c(O)c2)oc2cc(O)cc(O)c12
REMARK SMILES IDX 4 1 3 2 2 3 1 4 21 5 19 6 18 7 16 8 15 9 14 10 13 11 5 12
REMARK SMILES IDX 6 13 7 14 8 15 12 16 10 17 9 18 11 20 20 22 17 24
REMARK H PARENT 9 19 11 21 20 23 17 25
REMARK Flexibility Score: inf
ROOT
ATOM      1  C   UNL     1      12.330   5.142  17.882  1.00  0.00     0.138 A 
ATOM      2  C   UNL     1      11.416   5.381  16.847  1.00  0.00     0.100 A 
ATOM      3  C   UNL     1      11.174   6.690  16.427  1.00  0.00     0.197 A 
ATOM      4  O   UNL     1      10.396   6.867  15.454  1.00  0.00    -0.289 OA
ATOM      5  C   UNL     1      11.827   7.766  17.073  1.00  0.00     0.107 A 
ATOM      6  C   UNL     1      11.626   9.145  16.758  1.00  0.00     0.134 A 
ATOM      7  C   UNL     1      12.416  10.117  17.384  1.00  0.00     0.093 A 
ATOM      8  C   UNL     1      13.354   9.769  18.355  1.00  0.00     0.123 A 
ATOM      9  C   UNL     1      13.521   8.429  18.710  1.00  0.00     0.094 A 
ATOM     10  C   UNL     1      12.773   7.433  18.078  1.00  0.00     0.146 A 
ATOM     11  O   UNL     1      12.971   6.167  18.434  1.00  0.00    -0.456 OA
ENDROOT
BRANCH   1  12
ATOM     12  C   UNL     1      12.624   3.770  18.367  1.00  0.00     0.021 A 
ATOM     13  C   UNL     1      12.204   3.387  19.653  1.00  0.00     0.016 A 
ATOM     14  C   UNL     1      12.461   2.099  20.130  1.00  0.00     0.051 A 
ATOM     15  C   UNL     1      13.132   1.170  19.327  1.00  0.00     0.157 A 
ATOM     16  C   UNL     1      13.287   2.825  17.560  1.00  0.00     0.062 A 
ATOM     17  C   UNL     1      13.542   1.532  18.039  1.00  0.00     0.158 A 
BRANCH  15  18
ATOM     18  O   UNL     1      13.391  -0.116  19.800  1.00  0.00    -0.504 OA
ATOM     19  H   UNL     1      12.992  -0.452  20.669  1.00  0.00     0.293 HD
ENDBRANCH  15  18
BRANCH  17  20
ATOM     20  O   UNL     1      14.201   0.601  17.238  1.00  0.00    -0.504 OA
ATOM     21  H   UNL     1      15.175   0.366  17.388  1.00  0.00     0.293 HD
ENDBRANCH  17  20
ENDBRANCH   1  12
BRANCH   6  22
ATOM     22  O   UNL     1      10.657   9.608  15.864  1.00  0.00    -0.507 OA
ATOM     23  H   UNL     1      10.454  10.580  15.686  1.00  0.00     0.293 HD
ENDBRANCH   6  22
BRANCH   8  24
ATOM     24  O   UNL     1      14.111  10.764  18.968  1.00  0.00    -0.508 OA
ATOM     25  H   UNL     1      15.087  10.906  18.738  1.00  0.00     0.293 HD
ENDBRANCH   8  24
TORSDOF 5
ENDMDL
MODEL 2
REMARK VINA RESULT:    30.129      4.609      8.014
REMARK INTER + INTRA:          35.148
REMARK INTER:                  35.412
REMARK INTRA:                  -0.264
REMARK UNBOUND:                -0.265
REMARK SMILES O=c1cc(-c2ccc(O)c(O)c2)oc2cc(O)cc(O)c12
REMARK SMILES IDX 4 1 3 2 2 3 1 4 21 5 19 6 18 7 16 8 15 9 14 10 13 11 5 12
REMARK SMILES IDX 6 13 7 14 8 15 12 16 10 17 9 18 11 20 20 22 17 24
REMARK H PARENT 9 19 11 21 20 23 17 25
REMARK Flexibility Score: inf
ROOT
ATOM      1  C   UNL     1       9.928  10.011  19.686  1.00  0.00     0.138 A 
ATOM      2  C   UNL     1      11.263  10.144  20.095  1.00  0.00     0.100 A 
ATOM      3  C   UNL     1      12.288   9.699  19.258  1.00  0.00     0.197 A 
ATOM      4  O   UNL     1      13.477   9.888  19.626  1.00  0.00    -0.289 OA
ATOM      5  C   UNL     1      11.972   9.088  18.022  1.00  0.00     0.107 A 
ATOM      6  C   UNL     1      12.932   8.560  17.108  1.00  0.00     0.134 A 
ATOM      7  C   UNL     1      12.509   8.085  15.861  1.00  0.00     0.093 A 
ATOM      8  C   UNL     1      11.157   8.062  15.519  1.00  0.00     0.123 A 
ATOM      9  C   UNL     1      10.204   8.526  16.427  1.00  0.00     0.094 A 
ATOM     10  C   UNL     1      10.598   9.039  17.665  1.00  0.00     0.146 A 
ATOM     11  O   UNL     1       9.661   9.485  18.496  1.00  0.00    -0.456 OA
ENDROOT
BRANCH   1  12
ATOM     12  C   UNL     1       8.800  10.467  20.536  1.00  0.00     0.021 A 
ATOM     13  C   UNL     1       7.992   9.514  21.183  1.00  0.00     0.016 A 
ATOM     14  C   UNL     1       6.929   9.916  21.994  1.00  0.00     0.051 A 
ATOM     15  C   UNL     1       6.661  11.277  22.183  1.00  0.00     0.157 A 
ATOM     16  C   UNL     1       8.532  11.834  20.742  1.00  0.00     0.062 A 
ATOM     17  C   UNL     1       7.465  12.238  21.559  1.00  0.00     0.158 A 
BRANCH  15  18
ATOM     18  O   UNL     1       5.600  11.683  22.992  1.00  0.00    -0.504 OA
ATOM     19  H   UNL     1       4.848  12.258  22.631  1.00  0.00     0.293 HD
ENDBRANCH  15  18
BRANCH  17  20
ATOM     20  O   UNL     1       7.202  13.592  21.757  1.00  0.00    -0.504 OA
ATOM     21  H   UNL     1       7.919  14.231  22.078  1.00  0.00     0.293 HD
ENDBRANCH  17  20
ENDBRANCH   1  12
BRANCH   6  22
ATOM     22  O   UNL     1      14.299   8.458  17.383  1.00  0.00    -0.507 OA
ATOM     23  H   UNL     1      14.987   9.158  17.153  1.00  0.00     0.293 HD
ENDBRANCH   6  22
BRANCH   8  24
ATOM     24  O   UNL     1      10.771   7.567  14.275  1.00  0.00    -0.508 OA
ATOM     25  H   UNL     1      10.514   6.595  14.148  1.00  0.00     0.293 HD
ENDBRANCH   8  24
TORSDOF 5
ENDMDL
MODEL 3
REMARK VINA RESULT:    30.280      1.079      2.618
REMARK INTER + INTRA:          35.326
REMARK INTER:                  35.590
REMARK INTRA:                  -0.265
REMARK UNBOUND:                -0.265
REMARK SMILES O=c1cc(-c2ccc(O)c(O)c2)oc2cc(O)cc(O)c12
REMARK SMILES IDX 4 1 3 2 2 3 1 4 21 5 19 6 18 7 16 8 15 9 14 10 13 11 5 12
REMARK SMILES IDX 6 13 7 14 8 15 12 16 10 17 9 18 11 20 20 22 17 24
REMARK H PARENT 9 19 11 21 20 23 17 25
REMARK Flexibility Score: inf
ROOT
ATOM      1  C   UNL     1      12.889   5.178  18.309  1.00  0.00     0.138 A 
ATOM      2  C   UNL     1      13.780   6.091  18.889  1.00  0.00     0.100 A 
ATOM      3  C   UNL     1      13.686   7.446  18.569  1.00  0.00     0.197 A 
ATOM      4  O   UNL     1      14.459   8.249  19.154  1.00  0.00    -0.289 OA
ATOM      5  C   UNL     1      12.715   7.882  17.636  1.00  0.00     0.107 A 
ATOM      6  C   UNL     1      12.554   9.232  17.202  1.00  0.00     0.134 A 
ATOM      7  C   UNL     1      11.483   9.564  16.365  1.00  0.00     0.093 A 
ATOM      8  C   UNL     1      10.603   8.588  15.897  1.00  0.00     0.123 A 
ATOM      9  C   UNL     1      10.783   7.255  16.272  1.00  0.00     0.094 A 
ATOM     10  C   UNL     1      11.822   6.898  17.134  1.00  0.00     0.146 A 
ATOM     11  O   UNL     1      11.951   5.621  17.479  1.00  0.00    -0.456 OA
ENDROOT
BRANCH   1  12
ATOM     12  C   UNL     1      12.946   3.726  18.615  1.00  0.00     0.021 A 
ATOM     13  C   UNL     1      12.407   3.252  19.824  1.00  0.00     0.016 A 
ATOM     14  C   UNL     1      12.441   1.891  20.132  1.00  0.00     0.051 A 
ATOM     15  C   UNL     1      13.004   0.977  19.233  1.00  0.00     0.157 A 
ATOM     16  C   UNL     1      13.499   2.799  17.710  1.00  0.00     0.062 A 
ATOM     17  C   UNL     1      13.531   1.431  18.019  1.00  0.00     0.158 A 
BRANCH  15  18
ATOM     18  O   UNL     1      13.041  -0.383  19.538  1.00  0.00    -0.504 OA
ATOM     19  H   UNL     1      12.449  -1.050  19.057  1.00  0.00     0.293 HD
ENDBRANCH  15  18
BRANCH  17  20
ATOM     20  O   UNL     1      14.081   0.518  17.122  1.00  0.00    -0.504 OA
ATOM     21  H   UNL     1      15.073   0.311  17.116  1.00  0.00     0.293 HD
ENDBRANCH  17  20
ENDBRANCH   1  12
BRANCH   6  22
ATOM     22  O   UNL     1      13.426  10.271  17.543  1.00  0.00    -0.507 OA
ATOM     23  H   UNL     1      14.245  10.170  18.123  1.00  0.00     0.293 HD
ENDBRANCH   6  22
BRANCH   8  24
ATOM     24  O   UNL     1       9.558   8.953  15.052  1.00  0.00    -0.508 OA
ATOM     25  H   UNL     1       8.641   9.188  15.413  1.00  0.00     0.293 HD
ENDBRANCH   8  24
TORSDOF 5
ENDMDL
MODEL 4
REMARK VINA RESULT:    30.958      4.789      7.647
REMARK INTER + INTRA:          36.123
REMARK INTER:                  36.388
REMARK INTRA:                  -0.265
REMARK UNBOUND:                -0.265
REMARK SMILES O=c1cc(-c2ccc(O)c(O)c2)oc2cc(O)cc(O)c12
REMARK SMILES IDX 4 1 3 2 2 3 1 4 21 5 19 6 18 7 16 8 15 9 14 10 13 11 5 12
REMARK SMILES IDX 6 13 7 14 8 15 12 16 10 17 9 18 11 20 20 22 17 24
REMARK H PARENT 9 19 11 21 20 23 17 25
REMARK Flexibility Score: inf
ROOT
ATOM      1  C   UNL     1       9.364   9.948  19.315  1.00  0.00     0.138 A 
ATOM      2  C   UNL     1       8.890   9.480  18.082  1.00  0.00     0.100 A 
ATOM      3  C   UNL     1       9.795   9.009  17.129  1.00  0.00     0.197 A 
ATOM      4  O   UNL     1       9.335   8.538  16.056  1.00  0.00    -0.289 OA
ATOM      5  C   UNL     1      11.183   9.039  17.402  1.00  0.00     0.107 A 
ATOM      6  C   UNL     1      12.200   8.623  16.490  1.00  0.00     0.134 A 
ATOM      7  C   UNL     1      13.533   8.588  16.914  1.00  0.00     0.093 A 
ATOM      8  C   UNL     1      13.895   9.008  18.193  1.00  0.00     0.123 A 
ATOM      9  C   UNL     1      12.916   9.467  19.076  1.00  0.00     0.094 A 
ATOM     10  C   UNL     1      11.572   9.483  18.694  1.00  0.00     0.146 A 
ATOM     11  O   UNL     1      10.668   9.913  19.567  1.00  0.00    -0.456 OA
ENDROOT
BRANCH   1  12
ATOM     12  C   UNL     1       8.446  10.460  20.363  1.00  0.00     0.021 A 
ATOM     13  C   UNL     1       7.708   9.550  21.141  1.00  0.00     0.016 A 
ATOM     14  C   UNL     1       6.843  10.005  22.139  1.00  0.00     0.051 A 
ATOM     15  C   UNL     1       6.707  11.377  22.383  1.00  0.00     0.157 A 
ATOM     16  C   UNL     1       8.314  11.838  20.624  1.00  0.00     0.062 A 
ATOM     17  C   UNL     1       7.446  12.295  21.628  1.00  0.00     0.158 A 
BRANCH  15  18
ATOM     18  O   UNL     1       5.844  11.835  23.378  1.00  0.00    -0.504 OA
ATOM     19  H   UNL     1       5.935  12.765  23.771  1.00  0.00     0.293 HD
ENDBRANCH  15  18
BRANCH  17  20
ATOM     20  O   UNL     1       7.317  13.659  21.881  1.00  0.00    -0.504 OA
ATOM     21  H   UNL     1       8.117  14.280  21.867  1.00  0.00     0.293 HD
ENDBRANCH  17  20
ENDBRANCH   1  12
BRANCH   6  22
ATOM     22  O   UNL     1      11.957   8.263  15.161  1.00  0.00    -0.507 OA
ATOM     23  H   UNL     1      11.129   8.507  14.640  1.00  0.00     0.293 HD
ENDBRANCH   6  22
BRANCH   8  24
ATOM     24  O   UNL     1      15.234   8.974  18.576  1.00  0.00    -0.508 OA
ATOM     25  H   UNL     1      15.697   9.788  18.962  1.00  0.00     0.293 HD
ENDBRANCH   8  24
TORSDOF 5
ENDMDL
