MODEL 1
REMARK VINA RESULT:    -4.758      0.000      0.000
REMARK INTER + INTRA:          -8.457
REMARK INTER:                  -7.539
REMARK INTRA:                  -0.918
REMARK UNBOUND:                -0.918
REMARK SMILES CCCCCCCCCCCC(=O)[O-]
REMARK SMILES IDX 7 1 8 2 9 3 10 4 11 5 12 6 13 7 14 8 6 9 5 10 4 11 3 12 2 13
REMARK SMILES IDX 1 14
REMARK H PARENT
REMARK Flexibility Score: inf
ROOT
ATOM      1  C   UNL     1      21.590   5.755  -9.787  1.00  0.00     0.000 C 
ENDROOT
BRANCH   1   2
ATOM      2  C   UNL     1      20.148   5.724  -9.266  1.00  0.00     0.000 C 
BRANCH   2   3
ATOM      3  C   UNL     1      19.293   6.805  -9.946  1.00  0.00     0.000 C 
BRANCH   3   4
ATOM      4  C   UNL     1      18.434   6.258 -11.100  1.00  0.00     0.006 C 
BRANCH   4   5
ATOM      5  C   UNL     1      18.392   4.722 -11.174  1.00  0.00     0.053 C 
BRANCH   5   6
ATOM      6  C   UNL     1      17.060   4.159 -10.782  1.00  0.00     0.041 C 
ATOM      7  O   UNL     1      16.741   2.987 -11.118  1.00  0.00    -0.550 OA
ATOM      8  O   UNL     1      16.156   4.938 -10.072  1.00  0.00    -0.550 OA
ENDBRANCH   5   6
ENDBRANCH   4   5
ENDBRANCH   3   4
ENDBRANCH   2   3
ENDBRANCH   1   2
BRANCH   1   9
ATOM      9  C   UNL     1      21.931   7.125 -10.383  1.00  0.00     0.000 C 
BRANCH   9  10
ATOM     10  C   UNL     1      22.261   7.008 -11.879  1.00  0.00    -0.000 C 
BRANCH  10  11
ATOM     11  C   UNL     1      21.796   5.676 -12.487  1.00  0.00    -0.000 C 
BRANCH  11  12
ATOM     12  C   UNL     1      22.962   4.819 -13.001  1.00  0.00    -0.000 C 
BRANCH  12  13
ATOM     13  C   UNL     1      24.028   5.692 -13.674  1.00  0.00    -0.003 C 
ATOM     14  C   UNL     1      25.238   4.861 -14.092  1.00  0.00     0.004 C 
ENDBRANCH  12  13
ENDBRANCH  11  12
ENDBRANCH  10  11
ENDBRANCH   9  10
ENDBRANCH   1   9
TORSDOF 10
ENDMDL
MODEL 2
REMARK VINA RESULT:    -4.569      1.069      1.897
REMARK INTER + INTRA:          -8.158
REMARK INTER:                  -7.010
REMARK INTRA:                  -1.148
REMARK UNBOUND:                -0.918
REMARK SMILES CCCCCCCCCCCC(=O)[O-]
REMARK SMILES IDX 7 1 8 2 9 3 10 4 11 5 12 6 13 7 14 8 6 9 5 10 4 11 3 12 2 13
REMARK SMILES IDX 1 14
REMARK H PARENT
REMARK Flexibility Score: inf
ROOT
ATOM      1  C   UNL     1      21.636   5.886  -9.905  1.00  0.00     0.000 C 
ENDROOT
BRANCH   1   2
ATOM      2  C   UNL     1      20.260   5.980  -9.233  1.00  0.00     0.000 C 
BRANCH   2   3
ATOM      3  C   UNL     1      19.336   6.937 -10.001  1.00  0.00     0.000 C 
BRANCH   3   4
ATOM      4  C   UNL     1      18.244   6.207 -10.804  1.00  0.00     0.006 C 
BRANCH   4   5
ATOM      5  C   UNL     1      18.254   4.679 -10.628  1.00  0.00     0.053 C 
BRANCH   5   6
ATOM      6  C   UNL     1      16.882   4.080 -10.686  1.00  0.00     0.041 C 
ATOM      7  O   UNL     1      16.705   2.942 -11.197  1.00  0.00    -0.550 OA
ATOM      8  O   UNL     1      15.790   4.792 -10.204  1.00  0.00    -0.550 OA
ENDBRANCH   5   6
ENDBRANCH   4   5
ENDBRANCH   3   4
ENDBRANCH   2   3
ENDBRANCH   1   2
BRANCH   1   9
ATOM      9  C   UNL     1      21.914   7.125 -10.764  1.00  0.00     0.000 C 
BRANCH   9  10
ATOM     10  C   UNL     1      21.973   6.758 -12.255  1.00  0.00    -0.000 C 
BRANCH  10  11
ATOM     11  C   UNL     1      22.722   5.442 -12.514  1.00  0.00    -0.000 C 
BRANCH  11  12
ATOM     12  C   UNL     1      21.964   4.507 -13.468  1.00  0.00    -0.000 C 
BRANCH  12  13
ATOM     13  C   UNL     1      20.452   4.746 -13.384  1.00  0.00    -0.003 C 
ATOM     14  C   UNL     1      19.674   3.457 -13.635  1.00  0.00     0.004 C 
ENDBRANCH  12  13
ENDBRANCH  11  12
ENDBRANCH  10  11
ENDBRANCH   9  10
ENDBRANCH   1   9
TORSDOF 10
ENDMDL
MODEL 3
REMARK VINA RESULT:    -4.218      3.883      6.504
REMARK INTER + INTRA:          -7.602
REMARK INTER:                  -6.854
REMARK INTRA:                  -0.748
REMARK UNBOUND:                -0.918
REMARK SMILES CCCCCCCCCCCC(=O)[O-]
REMARK SMILES IDX 7 1 8 2 9 3 10 4 11 5 12 6 13 7 14 8 6 9 5 10 4 11 3 12 2 13
REMARK SMILES IDX 1 14
REMARK H PARENT
REMARK Flexibility Score: inf
ROOT
ATOM      1  C   UNL     1      21.450   6.636  -9.675  1.00  0.00     0.000 C 
ENDROOT
BRANCH   1   2
ATOM      2  C   UNL     1      21.644   7.047 -11.140  1.00  0.00     0.000 C 
BRANCH   2   3
ATOM      3  C   UNL     1      21.978   5.829 -12.014  1.00  0.00     0.000 C 
BRANCH   3   4
ATOM      4  C   UNL     1      23.115   6.100 -13.017  1.00  0.00     0.006 C 
BRANCH   4   5
ATOM      5  C   UNL     1      23.827   4.831 -13.513  1.00  0.00     0.053 C 
BRANCH   5   6
ATOM      6  C   UNL     1      25.155   5.120 -14.145  1.00  0.00     0.041 C 
ATOM      7  O   UNL     1      25.422   6.279 -14.562  1.00  0.00    -0.550 OA
ATOM      8  O   UNL     1      26.088   4.103 -14.302  1.00  0.00    -0.550 OA
ENDBRANCH   5   6
ENDBRANCH   4   5
ENDBRANCH   3   4
ENDBRANCH   2   3
ENDBRANCH   1   2
BRANCH   1   9
ATOM      9  C   UNL     1      20.097   5.944  -9.472  1.00  0.00     0.000 C 
BRANCH   9  10
ATOM     10  C   UNL     1      18.951   6.799 -10.036  1.00  0.00    -0.000 C 
BRANCH  10  11
ATOM     11  C   UNL     1      18.085   6.035 -11.049  1.00  0.00    -0.000 C 
BRANCH  11  12
ATOM     12  C   UNL     1      18.423   4.538 -11.109  1.00  0.00    -0.000 C 
BRANCH  12  13
ATOM     13  C   UNL     1      17.190   3.684 -10.793  1.00  0.00    -0.003 C 
ATOM     14  C   UNL     1      15.947   4.553 -10.619  1.00  0.00     0.004 C 
ENDBRANCH  12  13
ENDBRANCH  11  12
ENDBRANCH  10  11
ENDBRANCH   9  10
ENDBRANCH   1   9
TORSDOF 10
ENDMDL
MODEL 4
REMARK VINA RESULT:    -4.184      2.199      5.107
REMARK INTER + INTRA:          -7.548
REMARK INTER:                  -6.714
REMARK INTRA:                  -0.834
REMARK UNBOUND:                -0.918
REMARK SMILES CCCCCCCCCCCC(=O)[O-]
REMARK SMILES IDX 7 1 8 2 9 3 10 4 11 5 12 6 13 7 14 8 6 9 5 10 4 11 3 12 2 13
REMARK SMILES IDX 1 14
REMARK H PARENT
REMARK Flexibility Score: inf
ROOT
ATOM      1  C   UNL     1      20.620   6.013  -9.377  1.00  0.00     0.000 C 
ENDROOT
BRANCH   1   2
ATOM      2  C   UNL     1      22.000   6.033 -10.046  1.00  0.00     0.000 C 
BRANCH   2   3
ATOM      3  C   UNL     1      22.058   7.091 -11.158  1.00  0.00     0.000 C 
BRANCH   3   4
ATOM      4  C   UNL     1      22.387   6.497 -12.540  1.00  0.00     0.006 C 
BRANCH   4   5
ATOM      5  C   UNL     1      21.919   5.044 -12.724  1.00  0.00     0.053 C 
BRANCH   5   6
ATOM      6  C   UNL     1      20.551   4.947 -13.327  1.00  0.00     0.041 C 
ATOM      7  O   UNL     1      19.863   5.986 -13.512  1.00  0.00    -0.550 OA
ATOM      8  O   UNL     1      20.022   3.706 -13.657  1.00  0.00    -0.550 OA
ENDBRANCH   5   6
ENDBRANCH   4   5
ENDBRANCH   3   4
ENDBRANCH   2   3
ENDBRANCH   1   2
BRANCH   1   9
ATOM      9  C   UNL     1      19.689   7.056 -10.005  1.00  0.00     0.000 C 
BRANCH   9  10
ATOM     10  C   UNL     1      18.222   6.605  -9.924  1.00  0.00    -0.000 C 
BRANCH  10  11
ATOM     11  C   UNL     1      17.823   5.676 -11.081  1.00  0.00    -0.000 C 
BRANCH  11  12
ATOM     12  C   UNL     1      18.022   4.191 -10.744  1.00  0.00    -0.000 C 
BRANCH  12  13
ATOM     13  C   UNL     1      16.732   3.398 -10.979  1.00  0.00    -0.003 C 
ATOM     14  C   UNL     1      15.501   4.284 -10.810  1.00  0.00     0.004 C 
ENDBRANCH  12  13
ENDBRANCH  11  12
ENDBRANCH  10  11
ENDBRANCH   9  10
ENDBRANCH   1   9
TORSDOF 10
ENDMDL
MODEL 5
REMARK VINA RESULT:    -3.812      1.291      2.350
REMARK INTER + INTRA:          -6.958
REMARK INTER:                  -6.676
REMARK INTRA:                  -0.282
REMARK UNBOUND:                -0.918
REMARK SMILES CCCCCCCCCCCC(=O)[O-]
REMARK SMILES IDX 7 1 8 2 9 3 10 4 11 5 12 6 13 7 14 8 6 9 5 10 4 11 3 12 2 13
REMARK SMILES IDX 1 14
REMARK H PARENT
REMARK Flexibility Score: inf
ROOT
ATOM      1  C   UNL     1      22.087   6.519 -11.866  1.00  0.00     0.000 C 
ENDROOT
BRANCH   1   2
ATOM      2  C   UNL     1      20.794   6.103 -11.153  1.00  0.00     0.000 C 
BRANCH   2   3
ATOM      3  C   UNL     1      19.600   6.932 -11.650  1.00  0.00     0.000 C 
BRANCH   3   4
ATOM      4  C   UNL     1      18.240   6.291 -11.316  1.00  0.00     0.006 C 
BRANCH   4   5
ATOM      5  C   UNL     1      18.343   4.862 -10.754  1.00  0.00     0.053 C 
BRANCH   5   6
ATOM      6  C   UNL     1      17.022   4.158 -10.716  1.00  0.00     0.041 C 
ATOM      7  O   UNL     1      16.899   3.007 -11.213  1.00  0.00    -0.550 OA
ATOM      8  O   UNL     1      15.914   4.785 -10.157  1.00  0.00    -0.550 OA
ENDBRANCH   5   6
ENDBRANCH   4   5
ENDBRANCH   3   4
ENDBRANCH   2   3
ENDBRANCH   1   2
BRANCH   1   9
ATOM      9  C   UNL     1      22.577   5.413 -12.807  1.00  0.00     0.000 C 
BRANCH   9  10
ATOM     10  C   UNL     1      23.894   5.814 -13.489  1.00  0.00    -0.000 C 
BRANCH  10  11
ATOM     11  C   UNL     1      24.774   4.604 -13.836  1.00  0.00    -0.000 C 
BRANCH  11  12
ATOM     12  C   UNL     1      26.003   4.985 -14.675  1.00  0.00    -0.000 C 
BRANCH  12  13
ATOM     13  C   UNL     1      27.123   3.952 -14.509  1.00  0.00    -0.003 C 
ATOM     14  C   UNL     1      28.397   4.400 -15.219  1.00  0.00     0.004 C 
ENDBRANCH  12  13
ENDBRANCH  11  12
ENDBRANCH  10  11
ENDBRANCH   9  10
ENDBRANCH   1   9
TORSDOF 10
ENDMDL
MODEL 6
REMARK VINA RESULT:    -3.394      2.172      4.749
REMARK INTER + INTRA:          -6.295
REMARK INTER:                  -5.710
REMARK INTRA:                  -0.585
REMARK UNBOUND:                -0.918
REMARK SMILES CCCCCCCCCCCC(=O)[O-]
REMARK SMILES IDX 7 1 8 2 9 3 10 4 11 5 12 6 13 7 14 8 6 9 5 10 4 11 3 12 2 13
REMARK SMILES IDX 1 14
REMARK H PARENT
REMARK Flexibility Score: inf
ROOT
ATOM      1  C   UNL     1      21.870   7.016 -11.391  1.00  0.00     0.000 C 
ENDROOT
BRANCH   1   2
ATOM      2  C   UNL     1      21.999   5.687 -12.145  1.00  0.00     0.000 C 
BRANCH   2   3
ATOM      3  C   UNL     1      20.812   5.477 -13.098  1.00  0.00     0.000 C 
BRANCH   3   4
ATOM      4  C   UNL     1      20.106   4.124 -12.893  1.00  0.00     0.006 C 
BRANCH   4   5
ATOM      5  C   UNL     1      19.871   3.338 -14.194  1.00  0.00     0.053 C 
BRANCH   5   6
ATOM      6  C   UNL     1      18.945   2.174 -14.008  1.00  0.00     0.041 C 
ATOM      7  O   UNL     1      18.507   1.886 -12.863  1.00  0.00    -0.550 OA
ATOM      8  O   UNL     1      18.589   1.387 -15.097  1.00  0.00    -0.550 OA
ENDBRANCH   5   6
ENDBRANCH   4   5
ENDBRANCH   3   4
ENDBRANCH   2   3
ENDBRANCH   1   2
BRANCH   1   9
ATOM      9  C   UNL     1      21.565   6.781  -9.908  1.00  0.00     0.000 C 
BRANCH   9  10
ATOM     10  C   UNL     1      20.255   5.997  -9.733  1.00  0.00    -0.000 C 
BRANCH  10  11
ATOM     11  C   UNL     1      19.015   6.819 -10.119  1.00  0.00    -0.000 C 
BRANCH  11  12
ATOM     12  C   UNL     1      18.084   6.070 -11.082  1.00  0.00    -0.000 C 
BRANCH  12  13
ATOM     13  C   UNL     1      17.050   5.240 -10.312  1.00  0.00    -0.003 C 
ATOM     14  C   UNL     1      17.075   3.779 -10.753  1.00  0.00     0.004 C 
ENDBRANCH  12  13
ENDBRANCH  11  12
ENDBRANCH  10  11
ENDBRANCH   9  10
ENDBRANCH   1   9
TORSDOF 10
ENDMDL
MODEL 7
REMARK VINA RESULT:    -3.388      4.928      8.016
REMARK INTER + INTRA:          -6.286
REMARK INTER:                  -6.008
REMARK INTRA:                  -0.278
REMARK UNBOUND:                -0.918
REMARK SMILES CCCCCCCCCCCC(=O)[O-]
REMARK SMILES IDX 7 1 8 2 9 3 10 4 11 5 12 6 13 7 14 8 6 9 5 10 4 11 3 12 2 13
REMARK SMILES IDX 1 14
REMARK H PARENT
REMARK Flexibility Score: inf
ROOT
ATOM      1  C   UNL     1      22.813   6.286 -12.581  1.00  0.00     0.000 C 
ENDROOT
BRANCH   1   2
ATOM      2  C   UNL     1      23.474   5.074 -13.250  1.00  0.00     0.000 C 
BRANCH   2   3
ATOM      3  C   UNL     1      24.618   5.513 -14.177  1.00  0.00     0.000 C 
BRANCH   3   4
ATOM      4  C   UNL     1      25.798   4.524 -14.188  1.00  0.00     0.006 C 
BRANCH   4   5
ATOM      5  C   UNL     1      27.030   5.030 -14.958  1.00  0.00     0.053 C 
BRANCH   5   6
ATOM      6  C   UNL     1      28.171   4.060 -14.928  1.00  0.00     0.041 C 
ATOM      7  O   UNL     1      28.412   3.393 -13.887  1.00  0.00    -0.550 OA
ATOM      8  O   UNL     1      28.990   3.913 -16.041  1.00  0.00    -0.550 OA
ENDBRANCH   5   6
ENDBRANCH   4   5
ENDBRANCH   3   4
ENDBRANCH   2   3
ENDBRANCH   1   2
BRANCH   1   9
ATOM      9  C   UNL     1      21.359   5.982 -12.205  1.00  0.00     0.000 C 
BRANCH   9  10
ATOM     10  C   UNL     1      21.181   5.944 -10.679  1.00  0.00    -0.000 C 
BRANCH  10  11
ATOM     11  C   UNL     1      19.705   5.971 -10.253  1.00  0.00    -0.000 C 
BRANCH  11  12
ATOM     12  C   UNL     1      18.776   5.336 -11.298  1.00  0.00    -0.000 C 
BRANCH  12  13
ATOM     13  C   UNL     1      17.375   5.105 -10.717  1.00  0.00    -0.003 C 
ATOM     14  C   UNL     1      17.003   3.625 -10.747  1.00  0.00     0.004 C 
ENDBRANCH  12  13
ENDBRANCH  11  12
ENDBRANCH  10  11
ENDBRANCH   9  10
ENDBRANCH   1   9
TORSDOF 10
ENDMDL
MODEL 8
REMARK VINA RESULT:    -3.157      3.692      5.767
REMARK INTER + INTRA:          -5.920
REMARK INTER:                  -4.978
REMARK INTRA:                  -0.942
REMARK UNBOUND:                -0.918
REMARK SMILES CCCCCCCCCCCC(=O)[O-]
REMARK SMILES IDX 7 1 8 2 9 3 10 4 11 5 12 6 13 7 14 8 6 9 5 10 4 11 3 12 2 13
REMARK SMILES IDX 1 14
REMARK H PARENT
REMARK Flexibility Score: inf
ROOT
ATOM      1  C   UNL     1      21.021   4.581 -13.267  1.00  0.00     0.000 C 
ENDROOT
BRANCH   1   2
ATOM      2  C   UNL     1      19.741   4.132 -13.983  1.00  0.00     0.000 C 
BRANCH   2   3
ATOM      3  C   UNL     1      19.345   2.709 -13.561  1.00  0.00     0.000 C 
BRANCH   3   4
ATOM      4  C   UNL     1      18.922   1.824 -14.748  1.00  0.00     0.006 C 
BRANCH   4   5
ATOM      5  C   UNL     1      17.967   0.680 -14.366  1.00  0.00     0.053 C 
BRANCH   5   6
ATOM      6  C   UNL     1      17.362   0.008 -15.561  1.00  0.00     0.041 C 
ATOM      7  O   UNL     1      17.034   0.682 -16.573  1.00  0.00    -0.550 OA
ATOM      8  O   UNL     1      17.131  -1.362 -15.546  1.00  0.00    -0.550 OA
ENDBRANCH   5   6
ENDBRANCH   4   5
ENDBRANCH   3   4
ENDBRANCH   2   3
ENDBRANCH   1   2
BRANCH   1   9
ATOM      9  C   UNL     1      20.719   5.661 -12.223  1.00  0.00     0.000 C 
BRANCH   9  10
ATOM     10  C   UNL     1      19.587   6.585 -12.697  1.00  0.00    -0.000 C 
BRANCH  10  11
ATOM     11  C   UNL     1      18.609   6.952 -11.570  1.00  0.00    -0.000 C 
BRANCH  11  12
ATOM     12  C   UNL     1      18.380   5.796 -10.585  1.00  0.00    -0.000 C 
BRANCH  12  13
ATOM     13  C   UNL     1      17.017   5.135 -10.822  1.00  0.00    -0.003 C 
ATOM     14  C   UNL     1      17.131   3.613 -10.800  1.00  0.00     0.004 C 
ENDBRANCH  12  13
ENDBRANCH  11  12
ENDBRANCH  10  11
ENDBRANCH   9  10
ENDBRANCH   1   9
TORSDOF 10
ENDMDL
MODEL 9
REMARK VINA RESULT:    -2.970      3.631      5.778
REMARK INTER + INTRA:          -5.624
REMARK INTER:                  -4.928
REMARK INTRA:                  -0.696
REMARK UNBOUND:                -0.918
REMARK SMILES CCCCCCCCCCCC(=O)[O-]
REMARK SMILES IDX 7 1 8 2 9 3 10 4 11 5 12 6 13 7 14 8 6 9 5 10 4 11 3 12 2 13
REMARK SMILES IDX 1 14
REMARK H PARENT
REMARK Flexibility Score: inf
ROOT
ATOM      1  C   UNL     1      19.714   6.978 -11.538  1.00  0.00     0.000 C 
ENDROOT
BRANCH   1   2
ATOM      2  C   UNL     1      20.467   6.214 -10.442  1.00  0.00     0.000 C 
BRANCH   2   3
ATOM      3  C   UNL     1      21.960   6.093 -10.781  1.00  0.00     0.000 C 
BRANCH   3   4
ATOM      4  C   UNL     1      22.259   6.311 -12.275  1.00  0.00     0.006 C 
BRANCH   4   5
ATOM      5  C   UNL     1      22.929   5.108 -12.961  1.00  0.00     0.053 C 
BRANCH   5   6
ATOM      6  C   UNL     1      24.219   5.469 -13.633  1.00  0.00     0.041 C 
ATOM      7  O   UNL     1      24.993   4.566 -14.049  1.00  0.00    -0.550 OA
ATOM      8  O   UNL     1      24.583   6.802 -13.772  1.00  0.00    -0.550 OA
ENDBRANCH   5   6
ENDBRANCH   4   5
ENDBRANCH   3   4
ENDBRANCH   2   3
ENDBRANCH   1   2
BRANCH   1   9
ATOM      9  C   UNL     1      18.203   6.744 -11.434  1.00  0.00     0.000 C 
BRANCH   9  10
ATOM     10  C   UNL     1      17.885   5.647 -10.407  1.00  0.00    -0.000 C 
BRANCH  10  11
ATOM     11  C   UNL     1      16.884   4.609 -10.938  1.00  0.00    -0.000 C 
BRANCH  11  12
ATOM     12  C   UNL     1      17.565   3.310 -11.394  1.00  0.00    -0.000 C 
BRANCH  12  13
ATOM     13  C   UNL     1      18.700   3.602 -12.381  1.00  0.00    -0.003 C 
ATOM     14  C   UNL     1      18.905   2.438 -13.347  1.00  0.00     0.004 C 
ENDBRANCH  12  13
ENDBRANCH  11  12
ENDBRANCH  10  11
ENDBRANCH   9  10
ENDBRANCH   1   9
TORSDOF 10
ENDMDL
