MODEL 1
REMARK VINA RESULT:    -7.870      0.000      0.000
REMARK INTER + INTRA:         -22.519
REMARK INTER:                 -20.753
REMARK INTRA:                  -1.766
REMARK UNBOUND:                -1.766
REMARK SMILES CCCCCCCCCCCCCCCCCCCCCCCCCCCCCC(=O)[O-]
REMARK SMILES IDX 16 1 17 2 18 3 19 4 20 5 21 6 22 7 23 8 24 9 25 10 26 11
REMARK SMILES IDX 27 12 28 13 29 14 30 15 31 16 32 17 15 18 14 19 13 20 12 21
REMARK SMILES IDX 11 22 10 23 9 24 8 25 7 26 6 27 5 28 4 29 3 30 2 31 1 32
REMARK H PARENT
REMARK Flexibility Score: inf
ROOT
ATOM      1  C   UNL     1      -3.179   0.255 -17.447  1.00  0.00     0.000 C 
ENDROOT
BRANCH   1   2
ATOM      2  C   UNL     1      -3.957  -0.055 -18.739  1.00  0.00     0.000 C 
BRANCH   2   3
ATOM      3  C   UNL     1      -5.203  -0.951 -18.564  1.00  0.00     0.000 C 
BRANCH   3   4
ATOM      4  C   UNL     1      -6.550  -0.275 -18.880  1.00  0.00     0.000 C 
BRANCH   4   5
ATOM      5  C   UNL     1      -7.479  -1.151 -19.738  1.00  0.00     0.000 C 
BRANCH   5   6
ATOM      6  C   UNL     1      -6.728  -1.878 -20.867  1.00  0.00     0.000 C 
BRANCH   6   7
ATOM      7  C   UNL     1      -7.424  -3.175 -21.318  1.00  0.00     0.000 C 
BRANCH   7   8
ATOM      8  C   UNL     1      -6.715  -4.432 -20.789  1.00  0.00     0.000 C 
BRANCH   8   9
ATOM      9  C   UNL     1      -6.493  -4.393 -19.266  1.00  0.00     0.000 C 
BRANCH   9  10
ATOM     10  C   UNL     1      -7.541  -5.208 -18.491  1.00  0.00     0.000 C 
BRANCH  10  11
ATOM     11  C   UNL     1      -8.893  -5.273 -19.223  1.00  0.00     0.000 C 
BRANCH  11  12
ATOM     12  C   UNL     1      -9.159  -6.643 -19.877  1.00  0.00     0.000 C 
BRANCH  12  13
ATOM     13  C   UNL     1      -8.039  -7.684 -19.693  1.00  0.00     0.006 C 
BRANCH  13  14
ATOM     14  C   UNL     1      -8.569  -9.112 -19.509  1.00  0.00     0.053 C 
BRANCH  14  15
ATOM     15  C   UNL     1      -8.081 -10.005 -20.605  1.00  0.00     0.041 C 
ATOM     16  O   UNL     1      -7.414 -11.036 -20.334  1.00  0.00    -0.550 OA
ATOM     17  O   UNL     1      -8.381  -9.707 -21.928  1.00  0.00    -0.550 OA
ENDBRANCH  14  15
ENDBRANCH  13  14
ENDBRANCH  12  13
ENDBRANCH  11  12
ENDBRANCH  10  11
ENDBRANCH   9  10
ENDBRANCH   8   9
ENDBRANCH   7   8
ENDBRANCH   6   7
ENDBRANCH   5   6
ENDBRANCH   4   5
ENDBRANCH   3   4
ENDBRANCH   2   3
ENDBRANCH   1   2
BRANCH   1  18
ATOM     18  C   UNL     1      -2.194   1.436 -17.544  1.00  0.00     0.000 C 
BRANCH  18  19
ATOM     19  C   UNL     1      -2.877   2.805 -17.761  1.00  0.00     0.000 C 
BRANCH  19  20
ATOM     20  C   UNL     1      -2.062   3.974 -17.179  1.00  0.00     0.000 C 
BRANCH  20  21
ATOM     21  C   UNL     1      -2.852   5.293 -17.154  1.00  0.00     0.000 C 
BRANCH  21  22
ATOM     22  C   UNL     1      -4.263   5.204 -16.533  1.00  0.00     0.000 C 
BRANCH  22  23
ATOM     23  C   UNL     1      -4.863   6.537 -16.036  1.00  0.00     0.000 C 
BRANCH  23  24
ATOM     24  C   UNL     1      -4.826   6.734 -14.504  1.00  0.00    -0.000 C 
BRANCH  24  25
ATOM     25  C   UNL     1      -3.730   7.702 -14.023  1.00  0.00    -0.000 C 
BRANCH  25  26
ATOM     26  C   UNL     1      -3.226   7.378 -12.606  1.00  0.00    -0.000 C 
BRANCH  26  27
ATOM     27  C   UNL     1      -4.036   6.263 -11.924  1.00  0.00    -0.000 C 
BRANCH  27  28
ATOM     28  C   UNL     1      -4.238   6.510 -10.417  1.00  0.00    -0.000 C 
BRANCH  28  29
ATOM     29  C   UNL     1      -5.719   6.728 -10.065  1.00  0.00    -0.000 C 
BRANCH  29  30
ATOM     30  C   UNL     1      -6.681   6.249 -11.176  1.00  0.00    -0.000 C 
BRANCH  30  31
ATOM     31  C   UNL     1      -8.153   6.603 -10.906  1.00  0.00    -0.003 C 
ATOM     32  C   UNL     1      -9.014   5.375 -10.614  1.00  0.00     0.004 C 
ENDBRANCH  30  31
ENDBRANCH  29  30
ENDBRANCH  28  29
ENDBRANCH  27  28
ENDBRANCH  26  27
ENDBRANCH  25  26
ENDBRANCH  24  25
ENDBRANCH  23  24
ENDBRANCH  22  23
ENDBRANCH  21  22
ENDBRANCH  20  21
ENDBRANCH  19  20
ENDBRANCH  18  19
ENDBRANCH   1  18
TORSDOF 28
ENDMDL
MODEL 2
REMARK VINA RESULT:    -7.476      4.827     13.484
REMARK INTER + INTRA:         -21.479
REMARK INTER:                 -20.084
REMARK INTRA:                  -1.395
REMARK UNBOUND:                -1.766
REMARK SMILES CCCCCCCCCCCCCCCCCCCCCCCCCCCCCC(=O)[O-]
REMARK SMILES IDX 16 1 17 2 18 3 19 4 20 5 21 6 22 7 23 8 24 9 25 10 26 11
REMARK SMILES IDX 27 12 28 13 29 14 30 15 31 16 32 17 15 18 14 19 13 20 12 21
REMARK SMILES IDX 11 22 10 23 9 24 8 25 7 26 6 27 5 28 4 29 3 30 2 31 1 32
REMARK H PARENT
REMARK Flexibility Score: inf
ROOT
ATOM      1  C   UNL     1      -2.821   0.809 -18.595  1.00  0.00     0.000 C 
ENDROOT
BRANCH   1   2
ATOM      2  C   UNL     1      -2.236   1.842 -17.614  1.00  0.00     0.000 C 
BRANCH   2   3
ATOM      3  C   UNL     1      -3.040   3.153 -17.476  1.00  0.00     0.000 C 
BRANCH   3   4
ATOM      4  C   UNL     1      -2.219   4.448 -17.623  1.00  0.00     0.000 C 
BRANCH   4   5
ATOM      5  C   UNL     1      -2.762   5.608 -16.771  1.00  0.00     0.000 C 
BRANCH   5   6
ATOM      6  C   UNL     1      -4.296   5.706 -16.817  1.00  0.00     0.000 C 
BRANCH   6   7
ATOM      7  C   UNL     1      -4.911   6.189 -15.491  1.00  0.00     0.000 C 
BRANCH   7   8
ATOM      8  C   UNL     1      -4.241   7.471 -14.969  1.00  0.00     0.000 C 
BRANCH   8   9
ATOM      9  C   UNL     1      -3.570   7.274 -13.597  1.00  0.00     0.000 C 
BRANCH   9  10
ATOM     10  C   UNL     1      -4.178   6.108 -12.801  1.00  0.00     0.000 C 
BRANCH  10  11
ATOM     11  C   UNL     1      -3.753   6.122 -11.322  1.00  0.00     0.000 C 
BRANCH  11  12
ATOM     12  C   UNL     1      -4.372   7.289 -10.529  1.00  0.00     0.000 C 
BRANCH  12  13
ATOM     13  C   UNL     1      -5.780   7.022  -9.965  1.00  0.00     0.006 C 
BRANCH  13  14
ATOM     14  C   UNL     1      -6.884   7.771 -10.724  1.00  0.00     0.053 C 
BRANCH  14  15
ATOM     15  C   UNL     1      -7.542   6.874 -11.724  1.00  0.00     0.041 C 
ATOM     16  O   UNL     1      -8.177   5.857 -11.344  1.00  0.00    -0.550 OA
ATOM     17  O   UNL     1      -7.471   7.175 -13.079  1.00  0.00    -0.550 OA
ENDBRANCH  14  15
ENDBRANCH  13  14
ENDBRANCH  12  13
ENDBRANCH  11  12
ENDBRANCH  10  11
ENDBRANCH   9  10
ENDBRANCH   8   9
ENDBRANCH   7   8
ENDBRANCH   6   7
ENDBRANCH   5   6
ENDBRANCH   4   5
ENDBRANCH   3   4
ENDBRANCH   2   3
ENDBRANCH   1   2
BRANCH   1  18
ATOM     18  C   UNL     1      -2.670  -0.662 -18.162  1.00  0.00     0.000 C 
BRANCH  18  19
ATOM     19  C   UNL     1      -3.802  -1.583 -18.669  1.00  0.00     0.000 C 
BRANCH  19  20
ATOM     20  C   UNL     1      -4.915  -0.808 -19.397  1.00  0.00     0.000 C 
BRANCH  20  21
ATOM     21  C   UNL     1      -6.324  -1.239 -18.953  1.00  0.00     0.000 C 
BRANCH  21  22
ATOM     22  C   UNL     1      -7.307  -1.560 -20.099  1.00  0.00     0.000 C 
BRANCH  22  23
ATOM     23  C   UNL     1      -6.985  -2.824 -20.925  1.00  0.00     0.000 C 
BRANCH  23  24
ATOM     24  C   UNL     1      -6.363  -3.987 -20.118  1.00  0.00    -0.000 C 
BRANCH  24  25
ATOM     25  C   UNL     1      -6.696  -3.956 -18.616  1.00  0.00    -0.000 C 
BRANCH  25  26
ATOM     26  C   UNL     1      -7.702  -5.045 -18.204  1.00  0.00    -0.000 C 
BRANCH  26  27
ATOM     27  C   UNL     1      -9.014  -4.979 -19.002  1.00  0.00    -0.000 C 
BRANCH  27  28
ATOM     28  C   UNL     1      -9.316  -6.285 -19.762  1.00  0.00    -0.000 C 
BRANCH  28  29
ATOM     29  C   UNL     1      -8.286  -7.383 -19.446  1.00  0.00    -0.000 C 
BRANCH  29  30
ATOM     30  C   UNL     1      -8.267  -8.515 -20.498  1.00  0.00    -0.000 C 
BRANCH  30  31
ATOM     31  C   UNL     1      -8.330  -9.924 -19.884  1.00  0.00    -0.003 C 
ATOM     32  C   UNL     1      -7.683 -10.986 -20.770  1.00  0.00     0.004 C 
ENDBRANCH  30  31
ENDBRANCH  29  30
ENDBRANCH  28  29
ENDBRANCH  27  28
ENDBRANCH  26  27
ENDBRANCH  25  26
ENDBRANCH  24  25
ENDBRANCH  23  24
ENDBRANCH  22  23
ENDBRANCH  21  22
ENDBRANCH  20  21
ENDBRANCH  19  20
ENDBRANCH  18  19
ENDBRANCH   1  18
TORSDOF 28
ENDMDL
MODEL 3
REMARK VINA RESULT:    -7.284      5.156     13.327
REMARK INTER + INTRA:         -20.973
REMARK INTER:                 -18.910
REMARK INTRA:                  -2.064
REMARK UNBOUND:                -1.766
REMARK SMILES CCCCCCCCCCCCCCCCCCCCCCCCCCCCCC(=O)[O-]
REMARK SMILES IDX 16 1 17 2 18 3 19 4 20 5 21 6 22 7 23 8 24 9 25 10 26 11
REMARK SMILES IDX 27 12 28 13 29 14 30 15 31 16 32 17 15 18 14 19 13 20 12 21
REMARK SMILES IDX 11 22 10 23 9 24 8 25 7 26 6 27 5 28 4 29 3 30 2 31 1 32
REMARK H PARENT
REMARK Flexibility Score: inf
ROOT
ATOM      1  C   UNL     1      -4.335  -0.340 -17.503  1.00  0.00     0.000 C 
ENDROOT
BRANCH   1   2
ATOM      2  C   UNL     1      -3.384  -0.019 -18.671  1.00  0.00     0.000 C 
BRANCH   2   3
ATOM      3  C   UNL     1      -1.956   0.406 -18.265  1.00  0.00     0.000 C 
BRANCH   3   4
ATOM      4  C   UNL     1      -1.875   1.446 -17.132  1.00  0.00     0.000 C 
BRANCH   4   5
ATOM      5  C   UNL     1      -2.738   2.693 -17.394  1.00  0.00     0.000 C 
BRANCH   5   6
ATOM      6  C   UNL     1      -1.894   3.932 -17.740  1.00  0.00     0.000 C 
BRANCH   6   7
ATOM      7  C   UNL     1      -2.466   5.235 -17.153  1.00  0.00     0.000 C 
BRANCH   7   8
ATOM      8  C   UNL     1      -3.752   5.682 -17.868  1.00  0.00     0.000 C 
BRANCH   8   9
ATOM      9  C   UNL     1      -4.877   6.060 -16.888  1.00  0.00     0.000 C 
BRANCH   9  10
ATOM     10  C   UNL     1      -4.390   6.152 -15.432  1.00  0.00     0.000 C 
BRANCH  10  11
ATOM     11  C   UNL     1      -5.413   6.842 -14.513  1.00  0.00     0.000 C 
BRANCH  11  12
ATOM     12  C   UNL     1      -5.652   6.077 -13.196  1.00  0.00     0.000 C 
BRANCH  12  13
ATOM     13  C   UNL     1      -4.582   6.295 -12.111  1.00  0.00     0.006 C 
BRANCH  13  14
ATOM     14  C   UNL     1      -4.990   7.340 -11.064  1.00  0.00     0.053 C 
BRANCH  14  15
ATOM     15  C   UNL     1      -6.435   7.197 -10.706  1.00  0.00     0.041 C 
ATOM     16  O   UNL     1      -7.156   8.216 -10.555  1.00  0.00    -0.550 OA
ATOM     17  O   UNL     1      -6.991   5.932 -10.560  1.00  0.00    -0.550 OA
ENDBRANCH  14  15
ENDBRANCH  13  14
ENDBRANCH  12  13
ENDBRANCH  11  12
ENDBRANCH  10  11
ENDBRANCH   9  10
ENDBRANCH   8   9
ENDBRANCH   7   8
ENDBRANCH   6   7
ENDBRANCH   5   6
ENDBRANCH   4   5
ENDBRANCH   3   4
ENDBRANCH   2   3
ENDBRANCH   1   2
BRANCH   1  18
ATOM     18  C   UNL     1      -5.832  -0.362 -17.867  1.00  0.00     0.000 C 
BRANCH  18  19
ATOM     19  C   UNL     1      -6.108  -0.294 -19.385  1.00  0.00     0.000 C 
BRANCH  19  20
ATOM     20  C   UNL     1      -7.528  -0.765 -19.752  1.00  0.00     0.000 C 
BRANCH  20  21
ATOM     21  C   UNL     1      -7.532  -1.815 -20.876  1.00  0.00     0.000 C 
BRANCH  21  22
ATOM     22  C   UNL     1      -6.188  -2.537 -21.109  1.00  0.00     0.000 C 
BRANCH  22  23
ATOM     23  C   UNL     1      -6.092  -3.974 -20.552  1.00  0.00     0.000 C 
BRANCH  23  24
ATOM     24  C   UNL     1      -5.782  -4.065 -19.040  1.00  0.00    -0.000 C 
BRANCH  24  25
ATOM     25  C   UNL     1      -7.007  -4.390 -18.168  1.00  0.00    -0.000 C 
BRANCH  25  26
ATOM     26  C   UNL     1      -8.317  -4.442 -18.972  1.00  0.00    -0.000 C 
BRANCH  26  27
ATOM     27  C   UNL     1      -9.071  -5.771 -18.800  1.00  0.00    -0.000 C 
BRANCH  27  28
ATOM     28  C   UNL     1      -9.029  -6.648 -20.066  1.00  0.00    -0.000 C 
BRANCH  28  29
ATOM     29  C   UNL     1      -7.996  -7.781 -19.945  1.00  0.00    -0.000 C 
BRANCH  29  30
ATOM     30  C   UNL     1      -8.585  -9.073 -19.334  1.00  0.00    -0.000 C 
BRANCH  30  31
ATOM     31  C   UNL     1      -8.237 -10.341 -20.131  1.00  0.00    -0.003 C 
ATOM     32  C   UNL     1      -7.633 -10.034 -21.501  1.00  0.00     0.004 C 
ENDBRANCH  30  31
ENDBRANCH  29  30
ENDBRANCH  28  29
ENDBRANCH  27  28
ENDBRANCH  26  27
ENDBRANCH  25  26
ENDBRANCH  24  25
ENDBRANCH  23  24
ENDBRANCH  22  23
ENDBRANCH  21  22
ENDBRANCH  20  21
ENDBRANCH  19  20
ENDBRANCH  18  19
ENDBRANCH   1  18
TORSDOF 28
ENDMDL
MODEL 4
REMARK VINA RESULT:    -7.253      4.903     13.166
REMARK INTER + INTRA:         -20.892
REMARK INTER:                 -18.915
REMARK INTRA:                  -1.977
REMARK UNBOUND:                -1.766
REMARK SMILES CCCCCCCCCCCCCCCCCCCCCCCCCCCCCC(=O)[O-]
REMARK SMILES IDX 16 1 17 2 18 3 19 4 20 5 21 6 22 7 23 8 24 9 25 10 26 11
REMARK SMILES IDX 27 12 28 13 29 14 30 15 31 16 32 17 15 18 14 19 13 20 12 21
REMARK SMILES IDX 11 22 10 23 9 24 8 25 7 26 6 27 5 28 4 29 3 30 2 31 1 32
REMARK H PARENT
REMARK Flexibility Score: inf
ROOT
ATOM      1  C   UNL     1      -3.848   5.365 -16.807  1.00  0.00     0.000 C 
ENDROOT
BRANCH   1   2
ATOM      2  C   UNL     1      -4.280   6.607 -16.005  1.00  0.00     0.000 C 
BRANCH   2   3
ATOM      3  C   UNL     1      -3.159   7.297 -15.198  1.00  0.00     0.000 C 
BRANCH   3   4
ATOM      4  C   UNL     1      -3.638   8.288 -14.121  1.00  0.00     0.000 C 
BRANCH   4   5
ATOM      5  C   UNL     1      -3.253   7.862 -12.694  1.00  0.00     0.000 C 
BRANCH   5   6
ATOM      6  C   UNL     1      -3.879   6.515 -12.292  1.00  0.00     0.000 C 
BRANCH   6   7
ATOM      7  C   UNL     1      -3.677   6.175 -10.803  1.00  0.00     0.000 C 
BRANCH   7   8
ATOM      8  C   UNL     1      -3.677   7.429  -9.914  1.00  0.00     0.000 C 
BRANCH   8   9
ATOM      9  C   UNL     1      -5.071   7.760  -9.352  1.00  0.00     0.000 C 
BRANCH   9  10
ATOM     10  C   UNL     1      -5.795   8.848 -10.162  1.00  0.00     0.000 C 
BRANCH  10  11
ATOM     11  C   UNL     1      -7.317   8.627 -10.213  1.00  0.00     0.000 C 
BRANCH  11  12
ATOM     12  C   UNL     1      -7.813   8.160 -11.595  1.00  0.00     0.000 C 
BRANCH  12  13
ATOM     13  C   UNL     1      -7.544   6.679 -11.920  1.00  0.00     0.006 C 
BRANCH  13  14
ATOM     14  C   UNL     1      -8.745   5.771 -11.625  1.00  0.00     0.053 C 
BRANCH  14  15
ATOM     15  C   UNL     1      -8.644   5.187 -10.252  1.00  0.00     0.041 C 
ATOM     16  O   UNL     1      -7.520   5.020  -9.713  1.00  0.00    -0.550 OA
ATOM     17  O   UNL     1      -9.798   4.846  -9.556  1.00  0.00    -0.550 OA
ENDBRANCH  14  15
ENDBRANCH  13  14
ENDBRANCH  12  13
ENDBRANCH  11  12
ENDBRANCH  10  11
ENDBRANCH   9  10
ENDBRANCH   8   9
ENDBRANCH   7   8
ENDBRANCH   6   7
ENDBRANCH   5   6
ENDBRANCH   4   5
ENDBRANCH   3   4
ENDBRANCH   2   3
ENDBRANCH   1   2
BRANCH   1  18
ATOM     18  C   UNL     1      -2.348   5.300 -17.154  1.00  0.00     0.000 C 
BRANCH  18  19
ATOM     19  C   UNL     1      -1.875   3.907 -17.624  1.00  0.00     0.000 C 
BRANCH  19  20
ATOM     20  C   UNL     1      -3.007   2.863 -17.622  1.00  0.00     0.000 C 
BRANCH  20  21
ATOM     21  C   UNL     1      -2.506   1.445 -17.946  1.00  0.00     0.000 C 
BRANCH  21  22
ATOM     22  C   UNL     1      -3.562   0.496 -18.553  1.00  0.00     0.000 C 
BRANCH  22  23
ATOM     23  C   UNL     1      -3.199  -1.004 -18.545  1.00  0.00     0.000 C 
BRANCH  23  24
ATOM     24  C   UNL     1      -4.396  -1.963 -18.737  1.00  0.00    -0.000 C 
BRANCH  24  25
ATOM     25  C   UNL     1      -5.742  -1.388 -18.260  1.00  0.00    -0.000 C 
BRANCH  25  26
ATOM     26  C   UNL     1      -6.650  -0.948 -19.421  1.00  0.00    -0.000 C 
BRANCH  26  27
ATOM     27  C   UNL     1      -7.110  -2.124 -20.298  1.00  0.00    -0.000 C 
BRANCH  27  28
ATOM     28  C   UNL     1      -7.310  -3.423 -19.495  1.00  0.00    -0.000 C 
BRANCH  28  29
ATOM     29  C   UNL     1      -7.864  -4.559 -20.372  1.00  0.00    -0.000 C 
BRANCH  29  30
ATOM     30  C   UNL     1      -7.606  -5.963 -19.777  1.00  0.00    -0.000 C 
BRANCH  30  31
ATOM     31  C   UNL     1      -8.783  -6.934 -19.967  1.00  0.00    -0.003 C 
ATOM     32  C   UNL     1      -8.486  -8.337 -19.439  1.00  0.00     0.004 C 
ENDBRANCH  30  31
ENDBRANCH  29  30
ENDBRANCH  28  29
ENDBRANCH  27  28
ENDBRANCH  26  27
ENDBRANCH  25  26
ENDBRANCH  24  25
ENDBRANCH  23  24
ENDBRANCH  22  23
ENDBRANCH  21  22
ENDBRANCH  20  21
ENDBRANCH  19  20
ENDBRANCH  18  19
ENDBRANCH   1  18
TORSDOF 28
ENDMDL
MODEL 5
REMARK VINA RESULT:    -7.165      1.358      2.913
REMARK INTER + INTRA:         -20.660
REMARK INTER:                 -18.579
REMARK INTRA:                  -2.081
REMARK UNBOUND:                -1.766
REMARK SMILES CCCCCCCCCCCCCCCCCCCCCCCCCCCCCC(=O)[O-]
REMARK SMILES IDX 16 1 17 2 18 3 19 4 20 5 21 6 22 7 23 8 24 9 25 10 26 11
REMARK SMILES IDX 27 12 28 13 29 14 30 15 31 16 32 17 15 18 14 19 13 20 12 21
REMARK SMILES IDX 11 22 10 23 9 24 8 25 7 26 6 27 5 28 4 29 3 30 2 31 1 32
REMARK H PARENT
REMARK Flexibility Score: inf
ROOT
ATOM      1  C   UNL     1      -3.070   3.223 -17.620  1.00  0.00     0.000 C 
ENDROOT
BRANCH   1   2
ATOM      2  C   UNL     1      -2.126   2.014 -17.482  1.00  0.00     0.000 C 
BRANCH   2   3
ATOM      3  C   UNL     1      -2.325   0.896 -18.529  1.00  0.00     0.000 C 
BRANCH   3   4
ATOM      4  C   UNL     1      -2.880  -0.431 -17.978  1.00  0.00     0.000 C 
BRANCH   4   5
ATOM      5  C   UNL     1      -3.822  -1.147 -18.961  1.00  0.00     0.000 C 
BRANCH   5   6
ATOM      6  C   UNL     1      -5.278  -0.663 -18.842  1.00  0.00     0.000 C 
BRANCH   6   7
ATOM      7  C   UNL     1      -6.281  -1.814 -18.641  1.00  0.00     0.000 C 
BRANCH   7   8
ATOM      8  C   UNL     1      -7.501  -1.693 -19.569  1.00  0.00     0.000 C 
BRANCH   8   9
ATOM      9  C   UNL     1      -7.139  -1.875 -21.054  1.00  0.00     0.000 C 
BRANCH   9  10
ATOM     10  C   UNL     1      -6.993  -3.353 -21.453  1.00  0.00     0.000 C 
BRANCH  10  11
ATOM     11  C   UNL     1      -7.901  -4.278 -20.623  1.00  0.00     0.000 C 
BRANCH  11  12
ATOM     12  C   UNL     1      -7.112  -5.254 -19.730  1.00  0.00     0.000 C 
BRANCH  12  13
ATOM     13  C   UNL     1      -7.950  -6.375 -19.087  1.00  0.00     0.006 C 
BRANCH  13  14
ATOM     14  C   UNL     1      -8.700  -7.232 -20.116  1.00  0.00     0.053 C 
BRANCH  14  15
ATOM     15  C   UNL     1      -8.368  -8.680 -19.942  1.00  0.00     0.041 C 
ATOM     16  O   UNL     1      -7.749  -9.302 -20.843  1.00  0.00    -0.550 OA
ATOM     17  O   UNL     1      -8.728  -9.338 -18.772  1.00  0.00    -0.550 OA
ENDBRANCH  14  15
ENDBRANCH  13  14
ENDBRANCH  12  13
ENDBRANCH  11  12
ENDBRANCH  10  11
ENDBRANCH   9  10
ENDBRANCH   8   9
ENDBRANCH   7   8
ENDBRANCH   6   7
ENDBRANCH   5   6
ENDBRANCH   4   5
ENDBRANCH   3   4
ENDBRANCH   2   3
ENDBRANCH   1   2
BRANCH   1  18
ATOM     18  C   UNL     1      -2.396   4.600 -17.464  1.00  0.00     0.000 C 
BRANCH  18  19
ATOM     19  C   UNL     1      -3.208   5.766 -18.070  1.00  0.00     0.000 C 
BRANCH  19  20
ATOM     20  C   UNL     1      -2.824   7.131 -17.470  1.00  0.00     0.000 C 
BRANCH  20  21
ATOM     21  C   UNL     1      -1.877   7.004 -16.265  1.00  0.00     0.000 C 
BRANCH  21  22
ATOM     22  C   UNL     1      -2.171   7.962 -15.091  1.00  0.00     0.000 C 
BRANCH  22  23
ATOM     23  C   UNL     1      -1.887   7.403 -13.680  1.00  0.00     0.000 C 
BRANCH  23  24
ATOM     24  C   UNL     1      -3.075   7.491 -12.695  1.00  0.00    -0.000 C 
BRANCH  24  25
ATOM     25  C   UNL     1      -4.455   7.474 -13.375  1.00  0.00    -0.000 C 
BRANCH  25  26
ATOM     26  C   UNL     1      -4.827   6.092 -13.940  1.00  0.00    -0.000 C 
BRANCH  26  27
ATOM     27  C   UNL     1      -6.341   5.829 -13.927  1.00  0.00    -0.000 C 
BRANCH  27  28
ATOM     28  C   UNL     1      -7.125   6.899 -13.144  1.00  0.00    -0.000 C 
BRANCH  28  29
ATOM     29  C   UNL     1      -7.638   6.362 -11.797  1.00  0.00    -0.000 C 
BRANCH  29  30
ATOM     30  C   UNL     1      -6.719   6.731 -10.609  1.00  0.00    -0.000 C 
BRANCH  30  31
ATOM     31  C   UNL     1      -6.440   8.239 -10.498  1.00  0.00    -0.003 C 
ATOM     32  C   UNL     1      -7.684   9.048 -10.137  1.00  0.00     0.004 C 
ENDBRANCH  30  31
ENDBRANCH  29  30
ENDBRANCH  28  29
ENDBRANCH  27  28
ENDBRANCH  26  27
ENDBRANCH  25  26
ENDBRANCH  24  25
ENDBRANCH  23  24
ENDBRANCH  22  23
ENDBRANCH  21  22
ENDBRANCH  20  21
ENDBRANCH  19  20
ENDBRANCH  18  19
ENDBRANCH   1  18
TORSDOF 28
ENDMDL
MODEL 6
REMARK VINA RESULT:    -7.113      1.319      2.883
REMARK INTER + INTRA:         -20.523
REMARK INTER:                 -18.428
REMARK INTRA:                  -2.094
REMARK UNBOUND:                -1.766
REMARK SMILES CCCCCCCCCCCCCCCCCCCCCCCCCCCCCC(=O)[O-]
REMARK SMILES IDX 16 1 17 2 18 3 19 4 20 5 21 6 22 7 23 8 24 9 25 10 26 11
REMARK SMILES IDX 27 12 28 13 29 14 30 15 31 16 32 17 15 18 14 19 13 20 12 21
REMARK SMILES IDX 11 22 10 23 9 24 8 25 7 26 6 27 5 28 4 29 3 30 2 31 1 32
REMARK H PARENT
REMARK Flexibility Score: inf
ROOT
ATOM      1  C   UNL     1      -6.670   0.101 -18.619  1.00  0.00     0.000 C 
ENDROOT
BRANCH   1   2
ATOM      2  C   UNL     1      -7.546  -0.946 -19.330  1.00  0.00     0.000 C 
BRANCH   2   3
ATOM      3  C   UNL     1      -7.260  -1.137 -20.836  1.00  0.00     0.000 C 
BRANCH   3   4
ATOM      4  C   UNL     1      -7.236  -2.598 -21.322  1.00  0.00     0.000 C 
BRANCH   4   5
ATOM      5  C   UNL     1      -5.829  -3.082 -21.712  1.00  0.00     0.000 C 
BRANCH   5   6
ATOM      6  C   UNL     1      -4.730  -2.480 -20.819  1.00  0.00     0.000 C 
BRANCH   6   7
ATOM      7  C   UNL     1      -4.333  -3.398 -19.648  1.00  0.00     0.000 C 
BRANCH   7   8
ATOM      8  C   UNL     1      -5.237  -3.202 -18.420  1.00  0.00     0.000 C 
BRANCH   8   9
ATOM      9  C   UNL     1      -5.950  -4.499 -17.995  1.00  0.00     0.000 C 
BRANCH   9  10
ATOM     10  C   UNL     1      -6.798  -5.108 -19.123  1.00  0.00     0.000 C 
BRANCH  10  11
ATOM     11  C   UNL     1      -8.304  -5.083 -18.805  1.00  0.00     0.000 C 
BRANCH  11  12
ATOM     12  C   UNL     1      -9.061  -6.297 -19.378  1.00  0.00     0.000 C 
BRANCH  12  13
ATOM     13  C   UNL     1      -8.171  -7.387 -20.002  1.00  0.00     0.006 C 
BRANCH  13  14
ATOM     14  C   UNL     1      -8.568  -8.806 -19.574  1.00  0.00     0.053 C 
BRANCH  14  15
ATOM     15  C   UNL     1      -8.084  -9.815 -20.566  1.00  0.00     0.041 C 
ATOM     16  O   UNL     1      -8.155  -9.578 -21.799  1.00  0.00    -0.550 OA
ATOM     17  O   UNL     1      -7.534 -11.013 -20.125  1.00  0.00    -0.550 OA
ENDBRANCH  14  15
ENDBRANCH  13  14
ENDBRANCH  12  13
ENDBRANCH  11  12
ENDBRANCH  10  11
ENDBRANCH   9  10
ENDBRANCH   8   9
ENDBRANCH   7   8
ENDBRANCH   6   7
ENDBRANCH   5   6
ENDBRANCH   4   5
ENDBRANCH   3   4
ENDBRANCH   2   3
ENDBRANCH   1   2
BRANCH   1  18
ATOM     18  C   UNL     1      -5.186   0.103 -19.034  1.00  0.00     0.000 C 
BRANCH  18  19
ATOM     19  C   UNL     1      -4.203   0.042 -17.844  1.00  0.00     0.000 C 
BRANCH  19  20
ATOM     20  C   UNL     1      -2.732  -0.039 -18.293  1.00  0.00     0.000 C 
BRANCH  20  21
ATOM     21  C   UNL     1      -1.970   1.277 -18.062  1.00  0.00     0.000 C 
BRANCH  21  22
ATOM     22  C   UNL     1      -2.770   2.386 -17.348  1.00  0.00     0.000 C 
BRANCH  22  23
ATOM     23  C   UNL     1      -2.322   3.834 -17.643  1.00  0.00     0.000 C 
BRANCH  23  24
ATOM     24  C   UNL     1      -3.379   4.918 -17.332  1.00  0.00    -0.000 C 
BRANCH  24  25
ATOM     25  C   UNL     1      -2.811   6.166 -16.634  1.00  0.00    -0.000 C 
BRANCH  25  26
ATOM     26  C   UNL     1      -3.681   6.642 -15.458  1.00  0.00    -0.000 C 
BRANCH  26  27
ATOM     27  C   UNL     1      -5.155   6.228 -15.600  1.00  0.00    -0.000 C 
BRANCH  27  28
ATOM     28  C   UNL     1      -5.676   5.454 -14.374  1.00  0.00    -0.000 C 
BRANCH  28  29
ATOM     29  C   UNL     1      -6.209   6.399 -13.284  1.00  0.00    -0.000 C 
BRANCH  29  30
ATOM     30  C   UNL     1      -7.649   6.056 -12.838  1.00  0.00    -0.000 C 
BRANCH  30  31
ATOM     31  C   UNL     1      -7.951   6.453 -11.383  1.00  0.00    -0.003 C 
ATOM     32  C   UNL     1      -8.392   5.269 -10.524  1.00  0.00     0.004 C 
ENDBRANCH  30  31
ENDBRANCH  29  30
ENDBRANCH  28  29
ENDBRANCH  27  28
ENDBRANCH  26  27
ENDBRANCH  25  26
ENDBRANCH  24  25
ENDBRANCH  23  24
ENDBRANCH  22  23
ENDBRANCH  21  22
ENDBRANCH  20  21
ENDBRANCH  19  20
ENDBRANCH  18  19
ENDBRANCH   1  18
TORSDOF 28
ENDMDL
MODEL 7
REMARK VINA RESULT:    -7.003      1.138      3.034
REMARK INTER + INTRA:         -20.231
REMARK INTER:                 -18.187
REMARK INTRA:                  -2.044
REMARK UNBOUND:                -1.766
REMARK SMILES CCCCCCCCCCCCCCCCCCCCCCCCCCCCCC(=O)[O-]
REMARK SMILES IDX 16 1 17 2 18 3 19 4 20 5 21 6 22 7 23 8 24 9 25 10 26 11
REMARK SMILES IDX 27 12 28 13 29 14 30 15 31 16 32 17 15 18 14 19 13 20 12 21
REMARK SMILES IDX 11 22 10 23 9 24 8 25 7 26 6 27 5 28 4 29 3 30 2 31 1 32
REMARK H PARENT
REMARK Flexibility Score: inf
ROOT
ATOM      1  C   UNL     1      -2.072   3.989 -17.144  1.00  0.00     0.000 C 
ENDROOT
BRANCH   1   2
ATOM      2  C   UNL     1      -2.357   2.695 -17.929  1.00  0.00     0.000 C 
BRANCH   2   3
ATOM      3  C   UNL     1      -3.056   1.575 -17.128  1.00  0.00     0.000 C 
BRANCH   3   4
ATOM      4  C   UNL     1      -2.526   0.152 -17.385  1.00  0.00     0.000 C 
BRANCH   4   5
ATOM      5  C   UNL     1      -3.124  -0.496 -18.645  1.00  0.00     0.000 C 
BRANCH   5   6
ATOM      6  C   UNL     1      -4.384  -1.324 -18.341  1.00  0.00     0.000 C 
BRANCH   6   7
ATOM      7  C   UNL     1      -5.676  -0.487 -18.361  1.00  0.00     0.000 C 
BRANCH   7   8
ATOM      8  C   UNL     1      -6.668  -0.969 -19.432  1.00  0.00     0.000 C 
BRANCH   8   9
ATOM      9  C   UNL     1      -6.122  -2.147 -20.260  1.00  0.00     0.000 C 
BRANCH   9  10
ATOM     10  C   UNL     1      -7.186  -2.772 -21.177  1.00  0.00     0.000 C 
BRANCH  10  11
ATOM     11  C   UNL     1      -7.556  -4.205 -20.756  1.00  0.00     0.000 C 
BRANCH  11  12
ATOM     12  C   UNL     1      -7.754  -4.354 -19.235  1.00  0.00     0.000 C 
BRANCH  12  13
ATOM     13  C   UNL     1      -8.213  -5.748 -18.769  1.00  0.00     0.006 C 
BRANCH  13  14
ATOM     14  C   UNL     1      -8.971  -6.526 -19.854  1.00  0.00     0.053 C 
BRANCH  14  15
ATOM     15  C   UNL     1      -8.537  -7.957 -19.881  1.00  0.00     0.041 C 
ATOM     16  O   UNL     1      -8.372  -8.591 -18.808  1.00  0.00    -0.550 OA
ATOM     17  O   UNL     1      -8.335  -8.598 -21.098  1.00  0.00    -0.550 OA
ENDBRANCH  14  15
ENDBRANCH  13  14
ENDBRANCH  12  13
ENDBRANCH  11  12
ENDBRANCH  10  11
ENDBRANCH   9  10
ENDBRANCH   8   9
ENDBRANCH   7   8
ENDBRANCH   6   7
ENDBRANCH   5   6
ENDBRANCH   4   5
ENDBRANCH   3   4
ENDBRANCH   2   3
ENDBRANCH   1   2
BRANCH   1  18
ATOM     18  C   UNL     1      -2.551   5.286 -17.825  1.00  0.00     0.000 C 
BRANCH  18  19
ATOM     19  C   UNL     1      -4.027   5.636 -17.535  1.00  0.00     0.000 C 
BRANCH  19  20
ATOM     20  C   UNL     1      -4.422   5.379 -16.070  1.00  0.00     0.000 C 
BRANCH  20  21
ATOM     21  C   UNL     1      -4.659   6.679 -15.283  1.00  0.00     0.000 C 
BRANCH  21  22
ATOM     22  C   UNL     1      -3.393   7.512 -14.989  1.00  0.00     0.000 C 
BRANCH  22  23
ATOM     23  C   UNL     1      -3.301   8.117 -13.572  1.00  0.00     0.000 C 
BRANCH  23  24
ATOM     24  C   UNL     1      -2.878   7.122 -12.467  1.00  0.00    -0.000 C 
BRANCH  24  25
ATOM     25  C   UNL     1      -4.059   6.496 -11.703  1.00  0.00    -0.000 C 
BRANCH  25  26
ATOM     26  C   UNL     1      -4.375   7.229 -10.388  1.00  0.00    -0.000 C 
BRANCH  26  27
ATOM     27  C   UNL     1      -5.110   8.560 -10.608  1.00  0.00    -0.000 C 
BRANCH  27  28
ATOM     28  C   UNL     1      -6.311   8.742  -9.660  1.00  0.00    -0.000 C 
BRANCH  28  29
ATOM     29  C   UNL     1      -7.612   8.192 -10.270  1.00  0.00    -0.000 C 
BRANCH  29  30
ATOM     30  C   UNL     1      -7.446   7.740 -11.739  1.00  0.00    -0.000 C 
BRANCH  30  31
ATOM     31  C   UNL     1      -7.775   6.255 -11.964  1.00  0.00    -0.003 C 
ATOM     32  C   UNL     1      -8.533   5.631 -10.794  1.00  0.00     0.004 C 
ENDBRANCH  30  31
ENDBRANCH  29  30
ENDBRANCH  28  29
ENDBRANCH  27  28
ENDBRANCH  26  27
ENDBRANCH  25  26
ENDBRANCH  24  25
ENDBRANCH  23  24
ENDBRANCH  22  23
ENDBRANCH  21  22
ENDBRANCH  20  21
ENDBRANCH  19  20
ENDBRANCH  18  19
ENDBRANCH   1  18
TORSDOF 28
ENDMDL
MODEL 8
REMARK VINA RESULT:    -6.960      1.655      4.501
REMARK INTER + INTRA:         -20.119
REMARK INTER:                 -17.828
REMARK INTRA:                  -2.291
REMARK UNBOUND:                -1.766
REMARK SMILES CCCCCCCCCCCCCCCCCCCCCCCCCCCCCC(=O)[O-]
REMARK SMILES IDX 16 1 17 2 18 3 19 4 20 5 21 6 22 7 23 8 24 9 25 10 26 11
REMARK SMILES IDX 27 12 28 13 29 14 30 15 31 16 32 17 15 18 14 19 13 20 12 21
REMARK SMILES IDX 11 22 10 23 9 24 8 25 7 26 6 27 5 28 4 29 3 30 2 31 1 32
REMARK H PARENT
REMARK Flexibility Score: inf
ROOT
ATOM      1  C   UNL     1      -3.094   6.513 -17.594  1.00  0.00     0.000 C 
ENDROOT
BRANCH   1   2
ATOM      2  C   UNL     1      -2.283   5.217 -17.416  1.00  0.00     0.000 C 
BRANCH   2   3
ATOM      3  C   UNL     1      -3.104   3.910 -17.457  1.00  0.00     0.000 C 
BRANCH   3   4
ATOM      4  C   UNL     1      -2.305   2.639 -17.801  1.00  0.00     0.000 C 
BRANCH   4   5
ATOM      5  C   UNL     1      -2.963   1.352 -17.276  1.00  0.00     0.000 C 
BRANCH   5   6
ATOM      6  C   UNL     1      -2.646   0.128 -18.154  1.00  0.00     0.000 C 
BRANCH   6   7
ATOM      7  C   UNL     1      -3.415  -1.136 -17.727  1.00  0.00     0.000 C 
BRANCH   7   8
ATOM      8  C   UNL     1      -3.653  -2.099 -18.901  1.00  0.00     0.000 C 
BRANCH   8   9
ATOM      9  C   UNL     1      -4.686  -1.563 -19.909  1.00  0.00     0.000 C 
BRANCH   9  10
ATOM     10  C   UNL     1      -5.964  -1.043 -19.230  1.00  0.00     0.000 C 
BRANCH  10  11
ATOM     11  C   UNL     1      -7.240  -1.657 -19.831  1.00  0.00     0.000 C 
BRANCH  11  12
ATOM     12  C   UNL     1      -7.471  -3.116 -19.391  1.00  0.00     0.000 C 
BRANCH  12  13
ATOM     13  C   UNL     1      -7.473  -4.150 -20.532  1.00  0.00     0.006 C 
BRANCH  13  14
ATOM     14  C   UNL     1      -7.090  -5.562 -20.066  1.00  0.00     0.053 C 
BRANCH  14  15
ATOM     15  C   UNL     1      -8.291  -6.300 -19.568  1.00  0.00     0.041 C 
ATOM     16  O   UNL     1      -9.341  -5.676 -19.267  1.00  0.00    -0.550 OA
ATOM     17  O   UNL     1      -8.257  -7.685 -19.455  1.00  0.00    -0.550 OA
ENDBRANCH  14  15
ENDBRANCH  13  14
ENDBRANCH  12  13
ENDBRANCH  11  12
ENDBRANCH  10  11
ENDBRANCH   9  10
ENDBRANCH   8   9
ENDBRANCH   7   8
ENDBRANCH   6   7
ENDBRANCH   5   6
ENDBRANCH   4   5
ENDBRANCH   3   4
ENDBRANCH   2   3
ENDBRANCH   1   2
BRANCH   1  18
ATOM     18  C   UNL     1      -4.285   6.676 -16.630  1.00  0.00     0.000 C 
BRANCH  18  19
ATOM     19  C   UNL     1      -4.054   7.727 -15.522  1.00  0.00     0.000 C 
BRANCH  19  20
ATOM     20  C   UNL     1      -2.573   8.123 -15.378  1.00  0.00     0.000 C 
BRANCH  20  21
ATOM     21  C   UNL     1      -1.949   7.615 -14.067  1.00  0.00     0.000 C 
BRANCH  21  22
ATOM     22  C   UNL     1      -2.870   7.678 -12.830  1.00  0.00     0.000 C 
BRANCH  22  23
ATOM     23  C   UNL     1      -2.457   6.787 -11.639  1.00  0.00     0.000 C 
BRANCH  23  24
ATOM     24  C   UNL     1      -3.087   7.181 -10.284  1.00  0.00    -0.000 C 
BRANCH  24  25
ATOM     25  C   UNL     1      -4.501   6.617 -10.062  1.00  0.00    -0.000 C 
BRANCH  25  26
ATOM     26  C   UNL     1      -5.514   7.692  -9.632  1.00  0.00    -0.000 C 
BRANCH  26  27
ATOM     27  C   UNL     1      -6.017   8.544 -10.809  1.00  0.00    -0.000 C 
BRANCH  27  28
ATOM     28  C   UNL     1      -7.481   8.240 -11.180  1.00  0.00    -0.000 C 
BRANCH  28  29
ATOM     29  C   UNL     1      -7.872   6.793 -10.835  1.00  0.00    -0.000 C 
BRANCH  29  30
ATOM     30  C   UNL     1      -7.996   5.887 -12.082  1.00  0.00    -0.000 C 
BRANCH  30  31
ATOM     31  C   UNL     1      -7.184   6.390 -13.287  1.00  0.00    -0.003 C 
ATOM     32  C   UNL     1      -5.834   5.688 -13.427  1.00  0.00     0.004 C 
ENDBRANCH  30  31
ENDBRANCH  29  30
ENDBRANCH  28  29
ENDBRANCH  27  28
ENDBRANCH  26  27
ENDBRANCH  25  26
ENDBRANCH  24  25
ENDBRANCH  23  24
ENDBRANCH  22  23
ENDBRANCH  21  22
ENDBRANCH  20  21
ENDBRANCH  19  20
ENDBRANCH  18  19
ENDBRANCH   1  18
TORSDOF 28
ENDMDL
MODEL 9
REMARK VINA RESULT:    -6.906      2.611      5.487
REMARK INTER + INTRA:         -19.976
REMARK INTER:                 -17.336
REMARK INTRA:                  -2.640
REMARK UNBOUND:                -1.766
REMARK SMILES CCCCCCCCCCCCCCCCCCCCCCCCCCCCCC(=O)[O-]
REMARK SMILES IDX 16 1 17 2 18 3 19 4 20 5 21 6 22 7 23 8 24 9 25 10 26 11
REMARK SMILES IDX 27 12 28 13 29 14 30 15 31 16 32 17 15 18 14 19 13 20 12 21
REMARK SMILES IDX 11 22 10 23 9 24 8 25 7 26 6 27 5 28 4 29 3 30 2 31 1 32
REMARK H PARENT
REMARK Flexibility Score: inf
ROOT
ATOM      1  C   UNL     1      -2.146   7.745 -17.897  1.00  0.00     0.000 C 
ENDROOT
BRANCH   1   2
ATOM      2  C   UNL     1      -2.979   6.454 -17.779  1.00  0.00     0.000 C 
BRANCH   2   3
ATOM      3  C   UNL     1      -2.205   5.208 -17.297  1.00  0.00     0.000 C 
BRANCH   3   4
ATOM      4  C   UNL     1      -2.911   3.861 -17.537  1.00  0.00     0.000 C 
BRANCH   4   5
ATOM      5  C   UNL     1      -1.968   2.653 -17.402  1.00  0.00     0.000 C 
BRANCH   5   6
ATOM      6  C   UNL     1      -2.412   1.459 -18.266  1.00  0.00     0.000 C 
BRANCH   6   7
ATOM      7  C   UNL     1      -2.828   0.233 -17.434  1.00  0.00     0.000 C 
BRANCH   7   8
ATOM      8  C   UNL     1      -3.980  -0.551 -18.083  1.00  0.00     0.000 C 
BRANCH   8   9
ATOM      9  C   UNL     1      -3.578  -1.984 -18.473  1.00  0.00     0.000 C 
BRANCH   9  10
ATOM     10  C   UNL     1      -4.756  -2.800 -19.032  1.00  0.00     0.000 C 
BRANCH  10  11
ATOM     11  C   UNL     1      -5.283  -3.837 -18.024  1.00  0.00     0.000 C 
BRANCH  11  12
ATOM     12  C   UNL     1      -6.692  -4.354 -18.373  1.00  0.00     0.000 C 
BRANCH  12  13
ATOM     13  C   UNL     1      -6.820  -5.017 -19.757  1.00  0.00     0.006 C 
BRANCH  13  14
ATOM     14  C   UNL     1      -7.806  -4.291 -20.683  1.00  0.00     0.053 C 
BRANCH  14  15
ATOM     15  C   UNL     1      -7.117  -3.205 -21.445  1.00  0.00     0.041 C 
ATOM     16  O   UNL     1      -7.485  -2.009 -21.320  1.00  0.00    -0.550 OA
ATOM     17  O   UNL     1      -6.051  -3.514 -22.281  1.00  0.00    -0.550 OA
ENDBRANCH  14  15
ENDBRANCH  13  14
ENDBRANCH  12  13
ENDBRANCH  11  12
ENDBRANCH  10  11
ENDBRANCH   9  10
ENDBRANCH   8   9
ENDBRANCH   7   8
ENDBRANCH   6   7
ENDBRANCH   5   6
ENDBRANCH   4   5
ENDBRANCH   3   4
ENDBRANCH   2   3
ENDBRANCH   1   2
BRANCH   1  18
ATOM     18  C   UNL     1      -2.829   9.015 -17.353  1.00  0.00     0.000 C 
BRANCH  18  19
ATOM     19  C   UNL     1      -3.333   8.881 -15.900  1.00  0.00     0.000 C 
BRANCH  19  20
ATOM     20  C   UNL     1      -2.186   8.722 -14.885  1.00  0.00     0.000 C 
BRANCH  20  21
ATOM     21  C   UNL     1      -2.419   7.562 -13.903  1.00  0.00     0.000 C 
BRANCH  21  22
ATOM     22  C   UNL     1      -2.900   7.975 -12.496  1.00  0.00     0.000 C 
BRANCH  22  23
ATOM     23  C   UNL     1      -3.230   6.815 -11.532  1.00  0.00     0.000 C 
BRANCH  23  24
ATOM     24  C   UNL     1      -3.323   7.216 -10.042  1.00  0.00    -0.000 C 
BRANCH  24  25
ATOM     25  C   UNL     1      -4.696   6.940  -9.404  1.00  0.00    -0.000 C 
BRANCH  25  26
ATOM     26  C   UNL     1      -5.702   6.325 -10.392  1.00  0.00    -0.000 C 
BRANCH  26  27
ATOM     27  C   UNL     1      -7.050   7.064 -10.409  1.00  0.00    -0.000 C 
BRANCH  27  28
ATOM     28  C   UNL     1      -7.936   6.660 -11.603  1.00  0.00    -0.000 C 
BRANCH  28  29
ATOM     29  C   UNL     1      -7.436   7.274 -12.922  1.00  0.00    -0.000 C 
BRANCH  29  30
ATOM     30  C   UNL     1      -7.245   6.226 -14.042  1.00  0.00    -0.000 C 
BRANCH  30  31
ATOM     31  C   UNL     1      -5.940   6.408 -14.835  1.00  0.00    -0.003 C 
ATOM     32  C   UNL     1      -5.098   5.135 -14.893  1.00  0.00     0.004 C 
ENDBRANCH  30  31
ENDBRANCH  29  30
ENDBRANCH  28  29
ENDBRANCH  27  28
ENDBRANCH  26  27
ENDBRANCH  25  26
ENDBRANCH  24  25
ENDBRANCH  23  24
ENDBRANCH  22  23
ENDBRANCH  21  22
ENDBRANCH  20  21
ENDBRANCH  19  20
ENDBRANCH  18  19
ENDBRANCH   1  18
TORSDOF 28
ENDMDL
