MODEL 1
REMARK VINA RESULT:    -5.299      0.000      0.000
REMARK INTER + INTRA:         -11.612
REMARK INTER:                  -9.946
REMARK INTRA:                  -1.667
REMARK UNBOUND:                -1.667
REMARK SMILES O=C([O-])CCCCCCCCCCCCCCC(=O)[O-]
REMARK SMILES IDX 10 1 9 2 8 3 7 4 6 5 5 6 4 7 2 8 1 9 3 10 11 11 12 12 13 13
REMARK SMILES IDX 14 14 15 15 16 16 17 17 18 18 19 19 20 20
REMARK H PARENT
REMARK Flexibility Score: inf
ROOT
ATOM      1  C   UNL     1      20.398  23.238  10.288  1.00  0.00     0.000 C 
ENDROOT
BRANCH   1   2
ATOM      2  C   UNL     1      21.597  23.110   9.335  1.00  0.00     0.000 C 
BRANCH   2   3
ATOM      3  C   UNL     1      21.326  22.148   8.167  1.00  0.00     0.000 C 
BRANCH   3   4
ATOM      4  C   UNL     1      20.728  22.856   6.940  1.00  0.00     0.000 C 
BRANCH   4   5
ATOM      5  C   UNL     1      20.383  21.865   5.805  1.00  0.00     0.000 C 
BRANCH   5   6
ATOM      6  C   UNL     1      21.620  21.182   5.192  1.00  0.00     0.006 C 
BRANCH   6   7
ATOM      7  C   UNL     1      21.710  19.676   5.483  1.00  0.00     0.053 C 
BRANCH   7   8
ATOM      8  C   UNL     1      23.059  19.290   6.008  1.00  0.00     0.041 C 
ATOM      9  O   UNL     1      23.374  19.557   7.198  1.00  0.00    -0.550 OA
ATOM     10  O   UNL     1      23.964  18.623   5.192  1.00  0.00    -0.550 OA
ENDBRANCH   7   8
ENDBRANCH   6   7
ENDBRANCH   5   6
ENDBRANCH   4   5
ENDBRANCH   3   4
ENDBRANCH   2   3
ENDBRANCH   1   2
BRANCH   1  11
ATOM     11  C   UNL     1      19.492  22.004  10.198  1.00  0.00     0.000 C 
BRANCH  11  12
ATOM     12  C   UNL     1      18.207  22.205  11.015  1.00  0.00     0.000 C 
BRANCH  12  13
ATOM     13  C   UNL     1      16.989  22.521  10.132  1.00  0.00     0.000 C 
BRANCH  13  14
ATOM     14  C   UNL     1      17.323  22.486   8.631  1.00  0.00     0.000 C 
BRANCH  14  15
ATOM     15  C   UNL     1      16.877  23.759   7.889  1.00  0.00     0.000 C 
BRANCH  15  16
ATOM     16  C   UNL     1      17.773  24.989   8.119  1.00  0.00     0.006 C 
BRANCH  16  17
ATOM     17  C   UNL     1      17.319  25.848   9.306  1.00  0.00     0.053 C 
BRANCH  17  18
ATOM     18  C   UNL     1      17.792  27.257   9.142  1.00  0.00     0.041 C 
ATOM     19  O   UNL     1      16.963  28.187   8.954  1.00  0.00    -0.550 OA
ATOM     20  O   UNL     1      19.152  27.539   9.147  1.00  0.00    -0.550 OA
ENDBRANCH  17  18
ENDBRANCH  16  17
ENDBRANCH  15  16
ENDBRANCH  14  15
ENDBRANCH  13  14
ENDBRANCH  12  13
ENDBRANCH  11  12
ENDBRANCH   1  11
TORSDOF 15
ENDMDL
MODEL 2
REMARK VINA RESULT:    -5.280      0.862      7.604
REMARK INTER + INTRA:         -11.576
REMARK INTER:                 -10.023
REMARK INTRA:                  -1.554
REMARK UNBOUND:                -1.667
REMARK SMILES O=C([O-])CCCCCCCCCCCCCCC(=O)[O-]
REMARK SMILES IDX 10 1 9 2 8 3 7 4 6 5 5 6 4 7 2 8 1 9 3 10 11 11 12 12 13 13
REMARK SMILES IDX 14 14 15 15 16 16 17 17 18 18 19 19 20 20
REMARK H PARENT
REMARK Flexibility Score: inf
ROOT
ATOM      1  C   UNL     1      21.303  23.023   9.507  1.00  0.00     0.000 C 
ENDROOT
BRANCH   1   2
ATOM      2  C   UNL     1      20.246  23.123  10.618  1.00  0.00     0.000 C 
BRANCH   2   3
ATOM      3  C   UNL     1      19.081  22.142  10.418  1.00  0.00     0.000 C 
BRANCH   3   4
ATOM      4  C   UNL     1      17.718  22.849  10.321  1.00  0.00     0.000 C 
BRANCH   4   5
ATOM      5  C   UNL     1      17.242  23.000   8.859  1.00  0.00     0.000 C 
BRANCH   5   6
ATOM      6  C   UNL     1      17.083  24.466   8.414  1.00  0.00     0.006 C 
BRANCH   6   7
ATOM      7  C   UNL     1      17.284  25.487   9.544  1.00  0.00     0.053 C 
BRANCH   7   8
ATOM      8  C   UNL     1      17.895  26.759   9.045  1.00  0.00     0.041 C 
ATOM      9  O   UNL     1      19.093  26.776   8.656  1.00  0.00    -0.550 OA
ATOM     10  O   UNL     1      17.142  27.925   8.993  1.00  0.00    -0.550 OA
ENDBRANCH   7   8
ENDBRANCH   6   7
ENDBRANCH   5   6
ENDBRANCH   4   5
ENDBRANCH   3   4
ENDBRANCH   2   3
ENDBRANCH   1   2
BRANCH   1  11
ATOM     11  C   UNL     1      20.784  23.632   8.199  1.00  0.00     0.000 C 
BRANCH  11  12
ATOM     12  C   UNL     1      21.068  22.702   7.010  1.00  0.00     0.000 C 
BRANCH  12  13
ATOM     13  C   UNL     1      19.797  22.356   6.216  1.00  0.00     0.000 C 
BRANCH  13  14
ATOM     14  C   UNL     1      20.104  21.608   4.908  1.00  0.00     0.000 C 
BRANCH  14  15
ATOM     15  C   UNL     1      21.565  21.131   4.820  1.00  0.00     0.000 C 
BRANCH  15  16
ATOM     16  C   UNL     1      21.769  19.625   5.061  1.00  0.00     0.006 C 
BRANCH  16  17
ATOM     17  C   UNL     1      23.055  19.085   4.422  1.00  0.00     0.053 C 
BRANCH  17  18
ATOM     18  C   UNL     1      24.059  18.743   5.477  1.00  0.00     0.041 C 
ATOM     19  O   UNL     1      23.973  19.255   6.624  1.00  0.00    -0.550 OA
ATOM     20  O   UNL     1      25.121  17.899   5.178  1.00  0.00    -0.550 OA
ENDBRANCH  17  18
ENDBRANCH  16  17
ENDBRANCH  15  16
ENDBRANCH  14  15
ENDBRANCH  13  14
ENDBRANCH  12  13
ENDBRANCH  11  12
ENDBRANCH   1  11
TORSDOF 15
ENDMDL
MODEL 3
REMARK VINA RESULT:    -5.231      2.410      6.471
REMARK INTER + INTRA:         -11.485
REMARK INTER:                  -9.551
REMARK INTRA:                  -1.934
REMARK UNBOUND:                -1.667
REMARK SMILES O=C([O-])CCCCCCCCCCCCCCC(=O)[O-]
REMARK SMILES IDX 10 1 9 2 8 3 7 4 6 5 5 6 4 7 2 8 1 9 3 10 11 11 12 12 13 13
REMARK SMILES IDX 14 14 15 15 16 16 17 17 18 18 19 19 20 20
REMARK H PARENT
REMARK Flexibility Score: inf
ROOT
ATOM      1  C   UNL     1      21.702  23.034   9.552  1.00  0.00     0.000 C 
ENDROOT
BRANCH   1   2
ATOM      2  C   UNL     1      20.543  23.162  10.553  1.00  0.00     0.000 C 
BRANCH   2   3
ATOM      3  C   UNL     1      19.337  22.285  10.179  1.00  0.00     0.000 C 
BRANCH   3   4
ATOM      4  C   UNL     1      18.459  21.935  11.392  1.00  0.00     0.000 C 
BRANCH   4   5
ATOM      5  C   UNL     1      17.151  22.758  11.422  1.00  0.00     0.000 C 
BRANCH   5   6
ATOM      6  C   UNL     1      16.902  23.562  10.132  1.00  0.00     0.006 C 
BRANCH   6   7
ATOM      7  C   UNL     1      16.899  25.084  10.336  1.00  0.00     0.053 C 
BRANCH   7   8
ATOM      8  C   UNL     1      17.877  25.770   9.432  1.00  0.00     0.041 C 
ATOM      9  O   UNL     1      17.616  25.911   8.208  1.00  0.00    -0.550 OA
ATOM     10  O   UNL     1      19.071  26.267   9.941  1.00  0.00    -0.550 OA
ENDBRANCH   7   8
ENDBRANCH   6   7
ENDBRANCH   5   6
ENDBRANCH   4   5
ENDBRANCH   3   4
ENDBRANCH   2   3
ENDBRANCH   1   2
BRANCH   1  11
ATOM     11  C   UNL     1      21.275  23.505   8.156  1.00  0.00     0.000 C 
BRANCH  11  12
ATOM     12  C   UNL     1      21.356  22.356   7.140  1.00  0.00     0.000 C 
BRANCH  12  13
ATOM     13  C   UNL     1      20.211  22.394   6.115  1.00  0.00     0.000 C 
BRANCH  13  14
ATOM     14  C   UNL     1      18.980  23.158   6.631  1.00  0.00     0.000 C 
BRANCH  14  15
ATOM     15  C   UNL     1      17.666  22.682   5.986  1.00  0.00     0.000 C 
BRANCH  15  16
ATOM     16  C   UNL     1      16.875  21.653   6.813  1.00  0.00     0.006 C 
BRANCH  16  17
ATOM     17  C   UNL     1      16.951  20.234   6.235  1.00  0.00     0.053 C 
BRANCH  17  18
ATOM     18  C   UNL     1      17.690  19.328   7.168  1.00  0.00     0.041 C 
ATOM     19  O   UNL     1      18.545  19.798   7.964  1.00  0.00    -0.550 OA
ATOM     20  O   UNL     1      17.470  17.958   7.125  1.00  0.00    -0.550 OA
ENDBRANCH  17  18
ENDBRANCH  16  17
ENDBRANCH  15  16
ENDBRANCH  14  15
ENDBRANCH  13  14
ENDBRANCH  12  13
ENDBRANCH  11  12
ENDBRANCH   1  11
TORSDOF 15
ENDMDL
MODEL 4
REMARK VINA RESULT:    -5.170      1.865      3.005
REMARK INTER + INTRA:         -11.371
REMARK INTER:                  -9.436
REMARK INTRA:                  -1.935
REMARK UNBOUND:                -1.667
REMARK SMILES O=C([O-])CCCCCCCCCCCCCCC(=O)[O-]
REMARK SMILES IDX 10 1 9 2 8 3 7 4 6 5 5 6 4 7 2 8 1 9 3 10 11 11 12 12 13 13
REMARK SMILES IDX 14 14 15 15 16 16 17 17 18 18 19 19 20 20
REMARK H PARENT
REMARK Flexibility Score: inf
ROOT
ATOM      1  C   UNL     1      17.083  21.966   7.638  1.00  0.00     0.000 C 
ENDROOT
BRANCH   1   2
ATOM      2  C   UNL     1      17.324  22.226   6.143  1.00  0.00     0.000 C 
BRANCH   2   3
ATOM      3  C   UNL     1      18.744  22.738   5.852  1.00  0.00     0.000 C 
BRANCH   3   4
ATOM      4  C   UNL     1      19.468  21.908   4.779  1.00  0.00     0.000 C 
BRANCH   4   5
ATOM      5  C   UNL     1      20.773  21.275   5.313  1.00  0.00     0.000 C 
BRANCH   5   6
ATOM      6  C   UNL     1      21.342  21.995   6.551  1.00  0.00     0.006 C 
BRANCH   6   7
ATOM      7  C   UNL     1      21.861  21.046   7.641  1.00  0.00     0.053 C 
BRANCH   7   8
ATOM      8  C   UNL     1      22.369  21.794   8.835  1.00  0.00     0.041 C 
ATOM      9  O   UNL     1      21.642  22.653   9.400  1.00  0.00    -0.550 OA
ATOM     10  O   UNL     1      23.639  21.534   9.337  1.00  0.00    -0.550 OA
ENDBRANCH   7   8
ENDBRANCH   6   7
ENDBRANCH   5   6
ENDBRANCH   4   5
ENDBRANCH   3   4
ENDBRANCH   2   3
ENDBRANCH   1   2
BRANCH   1  11
ATOM     11  C   UNL     1      18.224  21.139   8.243  1.00  0.00     0.000 C 
BRANCH  11  12
ATOM     12  C   UNL     1      17.978  20.871   9.734  1.00  0.00     0.000 C 
BRANCH  12  13
ATOM     13  C   UNL     1      18.406  22.049  10.624  1.00  0.00     0.000 C 
BRANCH  13  14
ATOM     14  C   UNL     1      17.207  22.802  11.226  1.00  0.00     0.000 C 
BRANCH  14  15
ATOM     15  C   UNL     1      17.008  24.199  10.609  1.00  0.00     0.000 C 
BRANCH  15  16
ATOM     16  C   UNL     1      18.308  24.969  10.319  1.00  0.00     0.006 C 
BRANCH  16  17
ATOM     17  C   UNL     1      18.428  25.411   8.855  1.00  0.00     0.053 C 
BRANCH  17  18
ATOM     18  C   UNL     1      18.414  26.904   8.757  1.00  0.00     0.041 C 
ATOM     19  O   UNL     1      19.444  27.524   8.381  1.00  0.00    -0.550 OA
ATOM     20  O   UNL     1      17.280  27.615   9.127  1.00  0.00    -0.550 OA
ENDBRANCH  17  18
ENDBRANCH  16  17
ENDBRANCH  15  16
ENDBRANCH  14  15
ENDBRANCH  13  14
ENDBRANCH  12  13
ENDBRANCH  11  12
ENDBRANCH   1  11
TORSDOF 15
ENDMDL
MODEL 5
REMARK VINA RESULT:    -5.063      1.958      2.300
REMARK INTER + INTRA:         -11.169
REMARK INTER:                  -8.851
REMARK INTRA:                  -2.318
REMARK UNBOUND:                -1.667
REMARK SMILES O=C([O-])CCCCCCCCCCCCCCC(=O)[O-]
REMARK SMILES IDX 10 1 9 2 8 3 7 4 6 5 5 6 4 7 2 8 1 9 3 10 11 11 12 12 13 13
REMARK SMILES IDX 14 14 15 15 16 16 17 17 18 18 19 19 20 20
REMARK H PARENT
REMARK Flexibility Score: inf
ROOT
ATOM      1  C   UNL     1      20.561  23.098  10.253  1.00  0.00     0.000 C 
ENDROOT
BRANCH   1   2
ATOM      2  C   UNL     1      21.363  23.115   8.942  1.00  0.00     0.000 C 
BRANCH   2   3
ATOM      3  C   UNL     1      20.859  22.079   7.925  1.00  0.00     0.000 C 
BRANCH   3   4
ATOM      4  C   UNL     1      21.445  22.291   6.519  1.00  0.00     0.000 C 
BRANCH   4   5
ATOM      5  C   UNL     1      20.614  21.581   5.427  1.00  0.00     0.000 C 
BRANCH   5   6
ATOM      6  C   UNL     1      19.117  21.941   5.464  1.00  0.00     0.006 C 
BRANCH   6   7
ATOM      7  C   UNL     1      18.184  20.770   5.119  1.00  0.00     0.053 C 
BRANCH   7   8
ATOM      8  C   UNL     1      18.567  19.519   5.848  1.00  0.00     0.041 C 
ATOM      9  O   UNL     1      18.420  19.444   7.097  1.00  0.00    -0.550 OA
ATOM     10  O   UNL     1      19.072  18.429   5.151  1.00  0.00    -0.550 OA
ENDBRANCH   7   8
ENDBRANCH   6   7
ENDBRANCH   5   6
ENDBRANCH   4   5
ENDBRANCH   3   4
ENDBRANCH   2   3
ENDBRANCH   1   2
BRANCH   1  11
ATOM     11  C   UNL     1      19.497  21.994  10.230  1.00  0.00     0.000 C 
BRANCH  11  12
ATOM     12  C   UNL     1      18.256  22.411  11.033  1.00  0.00     0.000 C 
BRANCH  12  13
ATOM     13  C   UNL     1      16.962  22.321  10.208  1.00  0.00     0.000 C 
BRANCH  13  14
ATOM     14  C   UNL     1      17.227  22.286   8.694  1.00  0.00     0.000 C 
BRANCH  14  15
ATOM     15  C   UNL     1      16.886  23.615   7.996  1.00  0.00     0.000 C 
BRANCH  15  16
ATOM     16  C   UNL     1      18.062  24.601   7.872  1.00  0.00     0.006 C 
BRANCH  16  17
ATOM     17  C   UNL     1      17.709  26.017   8.344  1.00  0.00     0.053 C 
BRANCH  17  18
ATOM     18  C   UNL     1      18.714  26.502   9.341  1.00  0.00     0.041 C 
ATOM     19  O   UNL     1      18.918  25.855  10.402  1.00  0.00    -0.550 OA
ATOM     20  O   UNL     1      19.390  27.695   9.122  1.00  0.00    -0.550 OA
ENDBRANCH  17  18
ENDBRANCH  16  17
ENDBRANCH  15  16
ENDBRANCH  14  15
ENDBRANCH  13  14
ENDBRANCH  12  13
ENDBRANCH  11  12
ENDBRANCH   1  11
TORSDOF 15
ENDMDL
MODEL 6
REMARK VINA RESULT:    -5.059      2.814      3.739
REMARK INTER + INTRA:         -11.161
REMARK INTER:                  -8.797
REMARK INTRA:                  -2.364
REMARK UNBOUND:                -1.667
REMARK SMILES O=C([O-])CCCCCCCCCCCCCCC(=O)[O-]
REMARK SMILES IDX 10 1 9 2 8 3 7 4 6 5 5 6 4 7 2 8 1 9 3 10 11 11 12 12 13 13
REMARK SMILES IDX 14 14 15 15 16 16 17 17 18 18 19 19 20 20
REMARK H PARENT
REMARK Flexibility Score: inf
ROOT
ATOM      1  C   UNL     1      19.162  22.192  10.069  1.00  0.00     0.000 C 
ENDROOT
BRANCH   1   2
ATOM      2  C   UNL     1      20.380  23.049  10.450  1.00  0.00     0.000 C 
BRANCH   2   3
ATOM      3  C   UNL     1      21.449  23.083   9.346  1.00  0.00     0.000 C 
BRANCH   3   4
ATOM      4  C   UNL     1      20.855  23.346   7.952  1.00  0.00     0.000 C 
BRANCH   4   5
ATOM      5  C   UNL     1      21.392  22.356   6.893  1.00  0.00     0.000 C 
BRANCH   5   6
ATOM      6  C   UNL     1      21.341  20.885   7.348  1.00  0.00     0.006 C 
BRANCH   6   7
ATOM      7  C   UNL     1      22.402  19.991   6.690  1.00  0.00     0.053 C 
BRANCH   7   8
ATOM      8  C   UNL     1      21.787  18.974   5.778  1.00  0.00     0.041 C 
ATOM      9  O   UNL     1      21.649  17.783   6.161  1.00  0.00    -0.550 OA
ATOM     10  O   UNL     1      21.353  19.342   4.510  1.00  0.00    -0.550 OA
ENDBRANCH   7   8
ENDBRANCH   6   7
ENDBRANCH   5   6
ENDBRANCH   4   5
ENDBRANCH   3   4
ENDBRANCH   2   3
ENDBRANCH   1   2
BRANCH   1  11
ATOM     11  C   UNL     1      17.924  22.612  10.872  1.00  0.00     0.000 C 
BRANCH  11  12
ATOM     12  C   UNL     1      16.894  23.306   9.969  1.00  0.00     0.000 C 
BRANCH  12  13
ATOM     13  C   UNL     1      17.234  24.784   9.714  1.00  0.00     0.000 C 
BRANCH  13  14
ATOM     14  C   UNL     1      17.691  25.044   8.268  1.00  0.00     0.000 C 
BRANCH  14  15
ATOM     15  C   UNL     1      16.880  24.246   7.232  1.00  0.00     0.000 C 
BRANCH  15  16
ATOM     16  C   UNL     1      17.720  23.357   6.298  1.00  0.00     0.006 C 
BRANCH  16  17
ATOM     17  C   UNL     1      17.522  21.858   6.560  1.00  0.00     0.053 C 
BRANCH  17  18
ATOM     18  C   UNL     1      18.178  21.049   5.487  1.00  0.00     0.041 C 
ATOM     19  O   UNL     1      18.884  21.613   4.609  1.00  0.00    -0.550 OA
ATOM     20  O   UNL     1      17.970  19.677   5.425  1.00  0.00    -0.550 OA
ENDBRANCH  17  18
ENDBRANCH  16  17
ENDBRANCH  15  16
ENDBRANCH  14  15
ENDBRANCH  13  14
ENDBRANCH  12  13
ENDBRANCH  11  12
ENDBRANCH   1  11
TORSDOF 15
ENDMDL
MODEL 7
REMARK VINA RESULT:    -5.001      1.164      2.581
REMARK INTER + INTRA:         -11.054
REMARK INTER:                  -9.278
REMARK INTRA:                  -1.776
REMARK UNBOUND:                -1.667
REMARK SMILES O=C([O-])CCCCCCCCCCCCCCC(=O)[O-]
REMARK SMILES IDX 10 1 9 2 8 3 7 4 6 5 5 6 4 7 2 8 1 9 3 10 11 11 12 12 13 13
REMARK SMILES IDX 14 14 15 15 16 16 17 17 18 18 19 19 20 20
REMARK H PARENT
REMARK Flexibility Score: inf
ROOT
ATOM      1  C   UNL     1      21.205  22.469   7.086  1.00  0.00     0.000 C 
ENDROOT
BRANCH   1   2
ATOM      2  C   UNL     1      19.795  23.044   6.880  1.00  0.00     0.000 C 
BRANCH   2   3
ATOM      3  C   UNL     1      19.034  22.354   5.737  1.00  0.00     0.000 C 
BRANCH   3   4
ATOM      4  C   UNL     1      19.968  21.623   4.757  1.00  0.00     0.000 C 
BRANCH   4   5
ATOM      5  C   UNL     1      19.662  20.110   4.678  1.00  0.00     0.000 C 
BRANCH   5   6
ATOM      6  C   UNL     1      20.820  19.224   5.173  1.00  0.00     0.006 C 
BRANCH   6   7
ATOM      7  C   UNL     1      22.214  19.805   4.896  1.00  0.00     0.053 C 
BRANCH   7   8
ATOM      8  C   UNL     1      23.259  19.193   5.777  1.00  0.00     0.041 C 
ATOM      9  O   UNL     1      24.092  18.378   5.298  1.00  0.00    -0.550 OA
ATOM     10  O   UNL     1      23.327  19.530   7.123  1.00  0.00    -0.550 OA
ENDBRANCH   7   8
ENDBRANCH   6   7
ENDBRANCH   5   6
ENDBRANCH   4   5
ENDBRANCH   3   4
ENDBRANCH   2   3
ENDBRANCH   1   2
BRANCH   1  11
ATOM     11  C   UNL     1      21.416  22.042   8.544  1.00  0.00     0.000 C 
BRANCH  11  12
ATOM     12  C   UNL     1      21.357  23.255   9.484  1.00  0.00     0.000 C 
BRANCH  12  13
ATOM     13  C   UNL     1      20.355  23.061  10.634  1.00  0.00     0.000 C 
BRANCH  13  14
ATOM     14  C   UNL     1      19.297  21.989  10.322  1.00  0.00     0.000 C 
BRANCH  14  15
ATOM     15  C   UNL     1      17.873  22.421  10.715  1.00  0.00     0.000 C 
BRANCH  15  16
ATOM     16  C   UNL     1      17.207  23.414   9.746  1.00  0.00     0.006 C 
BRANCH  16  17
ATOM     17  C   UNL     1      17.208  24.855  10.270  1.00  0.00     0.053 C 
BRANCH  17  18
ATOM     18  C   UNL     1      18.104  25.714   9.435  1.00  0.00     0.041 C 
ATOM     19  O   UNL     1      19.052  26.349   9.969  1.00  0.00    -0.550 OA
ATOM     20  O   UNL     1      17.862  25.855   8.075  1.00  0.00    -0.550 OA
ENDBRANCH  17  18
ENDBRANCH  16  17
ENDBRANCH  15  16
ENDBRANCH  14  15
ENDBRANCH  13  14
ENDBRANCH  12  13
ENDBRANCH  11  12
ENDBRANCH   1  11
TORSDOF 15
ENDMDL
MODEL 8
REMARK VINA RESULT:    -4.984      1.458      2.135
REMARK INTER + INTRA:         -11.020
REMARK INTER:                  -9.359
REMARK INTRA:                  -1.661
REMARK UNBOUND:                -1.667
REMARK SMILES O=C([O-])CCCCCCCCCCCCCCC(=O)[O-]
REMARK SMILES IDX 10 1 9 2 8 3 7 4 6 5 5 6 4 7 2 8 1 9 3 10 11 11 12 12 13 13
REMARK SMILES IDX 14 14 15 15 16 16 17 17 18 18 19 19 20 20
REMARK H PARENT
REMARK Flexibility Score: inf
ROOT
ATOM      1  C   UNL     1      21.015  22.033   8.629  1.00  0.00     0.000 C 
ENDROOT
BRANCH   1   2
ATOM      2  C   UNL     1      20.933  22.841   7.325  1.00  0.00     0.000 C 
BRANCH   2   3
ATOM      3  C   UNL     1      19.703  22.478   6.479  1.00  0.00     0.000 C 
BRANCH   3   4
ATOM      4  C   UNL     1      20.066  21.688   5.210  1.00  0.00     0.000 C 
BRANCH   4   5
ATOM      5  C   UNL     1      21.572  21.346   5.147  1.00  0.00     0.000 C 
BRANCH   5   6
ATOM      6  C   UNL     1      21.896  19.916   5.620  1.00  0.00     0.006 C 
BRANCH   6   7
ATOM      7  C   UNL     1      20.668  18.998   5.720  1.00  0.00     0.053 C 
BRANCH   7   8
ATOM      8  C   UNL     1      21.055  17.576   5.987  1.00  0.00     0.041 C 
ATOM      9  O   UNL     1      22.239  17.195   5.787  1.00  0.00    -0.550 OA
ATOM     10  O   UNL     1      20.116  16.673   6.469  1.00  0.00    -0.550 OA
ENDBRANCH   7   8
ENDBRANCH   6   7
ENDBRANCH   5   6
ENDBRANCH   4   5
ENDBRANCH   3   4
ENDBRANCH   2   3
ENDBRANCH   1   2
BRANCH   1  11
ATOM     11  C   UNL     1      19.617  21.787   9.211  1.00  0.00     0.000 C 
BRANCH  11  12
ATOM     12  C   UNL     1      19.493  22.391  10.617  1.00  0.00     0.000 C 
BRANCH  12  13
ATOM     13  C   UNL     1      18.123  22.117  11.258  1.00  0.00     0.000 C 
BRANCH  13  14
ATOM     14  C   UNL     1      16.963  22.734  10.460  1.00  0.00     0.000 C 
BRANCH  14  15
ATOM     15  C   UNL     1      17.043  24.269  10.379  1.00  0.00     0.000 C 
BRANCH  15  16
ATOM     16  C   UNL     1      17.194  24.835   8.955  1.00  0.00     0.006 C 
BRANCH  16  17
ATOM     17  C   UNL     1      18.572  25.460   8.703  1.00  0.00     0.053 C 
BRANCH  17  18
ATOM     18  C   UNL     1      18.495  26.951   8.796  1.00  0.00     0.041 C 
ATOM     19  O   UNL     1      19.537  27.648   8.677  1.00  0.00    -0.550 OA
ATOM     20  O   UNL     1      17.280  27.569   9.062  1.00  0.00    -0.550 OA
ENDBRANCH  17  18
ENDBRANCH  16  17
ENDBRANCH  15  16
ENDBRANCH  14  15
ENDBRANCH  13  14
ENDBRANCH  12  13
ENDBRANCH  11  12
ENDBRANCH   1  11
TORSDOF 15
ENDMDL
MODEL 9
REMARK VINA RESULT:    -4.978      2.865      6.251
REMARK INTER + INTRA:         -11.010
REMARK INTER:                  -9.232
REMARK INTRA:                  -1.777
REMARK UNBOUND:                -1.667
REMARK SMILES O=C([O-])CCCCCCCCCCCCCCC(=O)[O-]
REMARK SMILES IDX 10 1 9 2 8 3 7 4 6 5 5 6 4 7 2 8 1 9 3 10 11 11 12 12 13 13
REMARK SMILES IDX 14 14 15 15 16 16 17 17 18 18 19 19 20 20
REMARK H PARENT
REMARK Flexibility Score: inf
ROOT
ATOM      1  C   UNL     1      20.408  20.891   3.972  1.00  0.00     0.000 C 
ENDROOT
BRANCH   1   2
ATOM      2  C   UNL     1      19.104  21.049   4.770  1.00  0.00     0.000 C 
BRANCH   2   3
ATOM      3  C   UNL     1      18.895  22.481   5.287  1.00  0.00     0.000 C 
BRANCH   3   4
ATOM      4  C   UNL     1      17.896  22.552   6.454  1.00  0.00     0.000 C 
BRANCH   4   5
ATOM      5  C   UNL     1      17.296  23.967   6.622  1.00  0.00     0.000 C 
BRANCH   5   6
ATOM      6  C   UNL     1      17.427  24.522   8.053  1.00  0.00     0.006 C 
BRANCH   6   7
ATOM      7  C   UNL     1      17.674  26.037   8.115  1.00  0.00     0.053 C 
BRANCH   7   8
ATOM      8  C   UNL     1      18.653  26.399   9.189  1.00  0.00     0.041 C 
ATOM      9  O   UNL     1      19.148  27.556   9.230  1.00  0.00    -0.550 OA
ATOM     10  O   UNL     1      19.010  25.466  10.156  1.00  0.00    -0.550 OA
ENDBRANCH   7   8
ENDBRANCH   6   7
ENDBRANCH   5   6
ENDBRANCH   4   5
ENDBRANCH   3   4
ENDBRANCH   2   3
ENDBRANCH   1   2
BRANCH   1  11
ATOM     11  C   UNL     1      21.622  21.279   4.825  1.00  0.00     0.000 C 
BRANCH  11  12
ATOM     12  C   UNL     1      21.943  20.186   5.854  1.00  0.00     0.000 C 
BRANCH  12  13
ATOM     13  C   UNL     1      21.360  20.495   7.243  1.00  0.00     0.000 C 
BRANCH  13  14
ATOM     14  C   UNL     1      21.999  21.736   7.890  1.00  0.00     0.000 C 
BRANCH  14  15
ATOM     15  C   UNL     1      20.958  22.766   8.364  1.00  0.00     0.000 C 
BRANCH  15  16
ATOM     16  C   UNL     1      20.453  22.559   9.804  1.00  0.00     0.006 C 
BRANCH  16  17
ATOM     17  C   UNL     1      19.153  21.749   9.872  1.00  0.00     0.053 C 
BRANCH  17  18
ATOM     18  C   UNL     1      18.395  22.081  11.118  1.00  0.00     0.041 C 
ATOM     19  O   UNL     1      18.790  21.651  12.234  1.00  0.00    -0.550 OA
ATOM     20  O   UNL     1      17.224  22.824  11.042  1.00  0.00    -0.550 OA
ENDBRANCH  17  18
ENDBRANCH  16  17
ENDBRANCH  15  16
ENDBRANCH  14  15
ENDBRANCH  13  14
ENDBRANCH  12  13
ENDBRANCH  11  12
ENDBRANCH   1  11
TORSDOF 15
ENDMDL
