MODEL 1
REMARK VINA RESULT:    -6.168      0.000      0.000
REMARK INTER + INTRA:          -6.794
REMARK INTER:                  -6.528
REMARK INTRA:                  -0.266
REMARK UNBOUND:                -0.266
REMARK SMILES O=c1cc(-c2ccccc2)oc2ccccc12
REMARK SMILES IDX 4 1 3 2 2 3 1 4 17 5 16 6 15 7 14 8 13 9 12 10 11 11 5 12
REMARK SMILES IDX 8 13 7 14 9 15 6 16 10 17
REMARK H PARENT
REMARK Flexibility Score: inf
ROOT
ATOM      1  C   UNL     1      20.155  -0.491 -19.672  1.00  0.00     0.138 A 
ATOM      2  C   UNL     1      19.676  -1.817 -19.651  1.00  0.00     0.100 A 
ATOM      3  C   UNL     1      19.007  -2.290 -18.521  1.00  0.00     0.193 A 
ATOM      4  O   UNL     1      18.578  -3.477 -18.503  1.00  0.00    -0.289 OA
ATOM      5  C   UNL     1      18.820  -1.439 -17.423  1.00  0.00     0.065 A 
ATOM      6  C   UNL     1      18.156  -1.853 -16.254  1.00  0.00     0.016 A 
ATOM      7  C   UNL     1      17.997  -0.963 -15.187  1.00  0.00     0.001 A 
ATOM      8  C   UNL     1      18.498   0.339 -15.277  1.00  0.00     0.004 A 
ATOM      9  C   UNL     1      19.160   0.758 -16.435  1.00  0.00     0.048 A 
ATOM     10  C   UNL     1      19.324  -0.124 -17.508  1.00  0.00     0.138 A 
ATOM     11  O   UNL     1      19.955   0.283 -18.605  1.00  0.00    -0.456 OA
ENDROOT
BRANCH   1  12
ATOM     12  C   UNL     1      20.881   0.095 -20.841  1.00  0.00     0.017 A 
ATOM     13  C   UNL     1      22.250   1.114 -23.090  1.00  0.00     0.000 A 
ATOM     14  C   UNL     1      21.976   1.945 -22.004  1.00  0.00     0.001 A 
ATOM     15  C   UNL     1      21.846  -0.220 -23.064  1.00  0.00     0.001 A 
ATOM     16  C   UNL     1      21.298   1.445 -20.887  1.00  0.00     0.012 A 
ATOM     17  C   UNL     1      21.168  -0.727 -21.951  1.00  0.00     0.012 A 
ENDBRANCH   1  12
TORSDOF 1
ENDMDL
MODEL 2
REMARK VINA RESULT:    -5.833     14.984     17.892
REMARK INTER + INTRA:          -6.440
REMARK INTER:                  -6.181
REMARK INTRA:                  -0.259
REMARK UNBOUND:                -0.266
REMARK SMILES O=c1cc(-c2ccccc2)oc2ccccc12
REMARK SMILES IDX 4 1 3 2 2 3 1 4 17 5 16 6 15 7 14 8 13 9 12 10 11 11 5 12
REMARK SMILES IDX 8 13 7 14 9 15 6 16 10 17
REMARK H PARENT
REMARK Flexibility Score: inf
ROOT
ATOM      1  C   UNL     1       8.033  -6.843  -8.173  1.00  0.00     0.138 A 
ATOM      2  C   UNL     1       8.208  -8.026  -8.921  1.00  0.00     0.100 A 
ATOM      3  C   UNL     1       8.202  -7.967 -10.315  1.00  0.00     0.193 A 
ATOM      4  O   UNL     1       8.359  -9.025 -10.984  1.00  0.00    -0.289 OA
ATOM      5  C   UNL     1       8.025  -6.731 -10.953  1.00  0.00     0.065 A 
ATOM      6  C   UNL     1       8.009  -6.602 -12.354  1.00  0.00     0.016 A 
ATOM      7  C   UNL     1       7.828  -5.345 -12.939  1.00  0.00     0.001 A 
ATOM      8  C   UNL     1       7.661  -4.213 -12.135  1.00  0.00     0.004 A 
ATOM      9  C   UNL     1       7.674  -4.333 -10.743  1.00  0.00     0.048 A 
ATOM     10  C   UNL     1       7.855  -5.585 -10.147  1.00  0.00     0.138 A 
ATOM     11  O   UNL     1       7.867  -5.689  -8.822  1.00  0.00    -0.456 OA
ENDROOT
BRANCH   1  12
ATOM     12  C   UNL     1       8.024  -6.817  -6.677  1.00  0.00     0.017 A 
ATOM     13  C   UNL     1       8.037  -6.677  -3.859  1.00  0.00     0.000 A 
ATOM     14  C   UNL     1       7.693  -7.868  -4.496  1.00  0.00     0.001 A 
ATOM     15  C   UNL     1       8.374  -5.555  -4.615  1.00  0.00     0.001 A 
ATOM     16  C   UNL     1       7.686  -7.943  -5.893  1.00  0.00     0.012 A 
ATOM     17  C   UNL     1       8.368  -5.622  -6.011  1.00  0.00     0.012 A 
ENDBRANCH   1  12
TORSDOF 1
ENDMDL
MODEL 3
REMARK VINA RESULT:    -5.686     17.816     19.667
REMARK INTER + INTRA:          -6.285
REMARK INTER:                  -6.056
REMARK INTRA:                  -0.229
REMARK UNBOUND:                -0.266
REMARK SMILES O=c1cc(-c2ccccc2)oc2ccccc12
REMARK SMILES IDX 4 1 3 2 2 3 1 4 17 5 16 6 15 7 14 8 13 9 12 10 11 11 5 12
REMARK SMILES IDX 8 13 7 14 9 15 6 16 10 17
REMARK H PARENT
REMARK Flexibility Score: inf
ROOT
ATOM      1  C   UNL     1       4.894   6.241  -9.791  1.00  0.00     0.138 A 
ATOM      2  C   UNL     1       4.972   7.632  -9.572  1.00  0.00     0.100 A 
ATOM      3  C   UNL     1       4.926   8.504 -10.661  1.00  0.00     0.193 A 
ATOM      4  O   UNL     1       4.997   9.748 -10.465  1.00  0.00    -0.289 OA
ATOM      5  C   UNL     1       4.801   7.984 -11.957  1.00  0.00     0.065 A 
ATOM      6  C   UNL     1       4.750   8.807 -13.097  1.00  0.00     0.016 A 
ATOM      7  C   UNL     1       4.624   8.236 -14.368  1.00  0.00     0.001 A 
ATOM      8  C   UNL     1       4.552   6.847 -14.509  1.00  0.00     0.004 A 
ATOM      9  C   UNL     1       4.604   6.022 -13.382  1.00  0.00     0.048 A 
ATOM     10  C   UNL     1       4.728   6.583 -12.107  1.00  0.00     0.138 A 
ATOM     11  O   UNL     1       4.776   5.790 -11.041  1.00  0.00    -0.456 OA
ENDROOT
BRANCH   1  12
ATOM     12  C   UNL     1       4.936   5.238  -8.682  1.00  0.00     0.017 A 
ATOM     13  C   UNL     1       4.933   3.380  -6.556  1.00  0.00     0.000 A 
ATOM     14  C   UNL     1       5.991   3.399  -7.465  1.00  0.00     0.001 A 
ATOM     15  C   UNL     1       3.876   4.279  -6.700  1.00  0.00     0.001 A 
ATOM     16  C   UNL     1       5.998   4.319  -8.520  1.00  0.00     0.012 A 
ATOM     17  C   UNL     1       3.876   5.200  -7.752  1.00  0.00     0.012 A 
ENDBRANCH   1  12
TORSDOF 1
ENDMDL
MODEL 4
REMARK VINA RESULT:    -5.681      2.630      4.490
REMARK INTER + INTRA:          -6.279
REMARK INTER:                  -6.049
REMARK INTRA:                  -0.230
REMARK UNBOUND:                -0.266
REMARK SMILES O=c1cc(-c2ccccc2)oc2ccccc12
REMARK SMILES IDX 4 1 3 2 2 3 1 4 17 5 16 6 15 7 14 8 13 9 12 10 11 11 5 12
REMARK SMILES IDX 8 13 7 14 9 15 6 16 10 17
REMARK H PARENT
REMARK Flexibility Score: inf
ROOT
ATOM      1  C   UNL     1      18.252  -0.801 -16.267  1.00  0.00     0.138 A 
ATOM      2  C   UNL     1      17.543   0.122 -15.471  1.00  0.00     0.100 A 
ATOM      3  C   UNL     1      16.719  -0.342 -14.445  1.00  0.00     0.193 A 
ATOM      4  O   UNL     1      16.085   0.484 -13.733  1.00  0.00    -0.289 OA
ATOM      5  C   UNL     1      16.609  -1.722 -14.219  1.00  0.00     0.065 A 
ATOM      6  C   UNL     1      15.796  -2.255 -13.203  1.00  0.00     0.016 A 
ATOM      7  C   UNL     1      15.722  -3.640 -13.020  1.00  0.00     0.001 A 
ATOM      8  C   UNL     1      16.454  -4.498 -13.848  1.00  0.00     0.004 A 
ATOM      9  C   UNL     1      17.263  -3.975 -14.861  1.00  0.00     0.048 A 
ATOM     10  C   UNL     1      17.344  -2.592 -15.051  1.00  0.00     0.138 A 
ATOM     11  O   UNL     1      18.116  -2.105 -16.017  1.00  0.00    -0.456 OA
ENDROOT
BRANCH   1  12
ATOM     12  C   UNL     1      19.155  -0.389 -17.386  1.00  0.00     0.017 A 
ATOM     13  C   UNL     1      20.799   0.344 -19.560  1.00  0.00     0.000 A 
ATOM     14  C   UNL     1      21.150   0.716 -18.263  1.00  0.00     0.001 A 
ATOM     15  C   UNL     1      19.633  -0.388 -19.782  1.00  0.00     0.001 A 
ATOM     16  C   UNL     1      20.339   0.355 -17.182  1.00  0.00     0.012 A 
ATOM     17  C   UNL     1      18.818  -0.753 -18.707  1.00  0.00     0.012 A 
ENDBRANCH   1  12
TORSDOF 1
ENDMDL
MODEL 5
REMARK VINA RESULT:    -5.632     13.180     15.249
REMARK INTER + INTRA:          -6.228
REMARK INTER:                  -5.998
REMARK INTRA:                  -0.229
REMARK UNBOUND:                -0.266
REMARK SMILES O=c1cc(-c2ccccc2)oc2ccccc12
REMARK SMILES IDX 4 1 3 2 2 3 1 4 17 5 16 6 15 7 14 8 13 9 12 10 11 11 5 12
REMARK SMILES IDX 8 13 7 14 9 15 6 16 10 17
REMARK H PARENT
REMARK Flexibility Score: inf
ROOT
ATOM      1  C   UNL     1      10.044  -7.089 -10.799  1.00  0.00     0.138 A 
ATOM      2  C   UNL     1       9.213  -6.078 -11.323  1.00  0.00     0.100 A 
ATOM      3  C   UNL     1       8.296  -5.437 -10.488  1.00  0.00     0.193 A 
ATOM      4  O   UNL     1       7.553  -4.532 -10.957  1.00  0.00    -0.289 OA
ATOM      5  C   UNL     1       8.216  -5.808  -9.138  1.00  0.00     0.065 A 
ATOM      6  C   UNL     1       7.314  -5.204  -8.244  1.00  0.00     0.016 A 
ATOM      7  C   UNL     1       7.275  -5.612  -6.906  1.00  0.00     0.001 A 
ATOM      8  C   UNL     1       8.129  -6.623  -6.455  1.00  0.00     0.004 A 
ATOM      9  C   UNL     1       9.027  -7.229  -7.338  1.00  0.00     0.048 A 
ATOM     10  C   UNL     1       9.075  -6.828  -8.677  1.00  0.00     0.138 A 
ATOM     11  O   UNL     1       9.933  -7.410  -9.509  1.00  0.00    -0.456 OA
ENDROOT
BRANCH   1  12
ATOM     12  C   UNL     1      11.052  -7.826 -11.623  1.00  0.00     0.017 A 
ATOM     13  C   UNL     1      12.880  -9.256 -13.229  1.00  0.00     0.000 A 
ATOM     14  C   UNL     1      13.347  -8.420 -12.215  1.00  0.00     0.001 A 
ATOM     15  C   UNL     1      11.509  -9.382 -13.450  1.00  0.00     0.001 A 
ATOM     16  C   UNL     1      12.445  -7.710 -11.415  1.00  0.00     0.012 A 
ATOM     17  C   UNL     1      10.602  -8.675 -12.656  1.00  0.00     0.012 A 
ENDBRANCH   1  12
TORSDOF 1
ENDMDL
MODEL 6
REMARK VINA RESULT:    -5.608     11.282     12.373
REMARK INTER + INTRA:          -6.202
REMARK INTER:                  -5.977
REMARK INTRA:                  -0.225
REMARK UNBOUND:                -0.266
REMARK SMILES O=c1cc(-c2ccccc2)oc2ccccc12
REMARK SMILES IDX 4 1 3 2 2 3 1 4 17 5 16 6 15 7 14 8 13 9 12 10 11 11 5 12
REMARK SMILES IDX 8 13 7 14 9 15 6 16 10 17
REMARK H PARENT
REMARK Flexibility Score: inf
ROOT
ATOM      1  C   UNL     1      20.654  -1.843  -7.451  1.00  0.00     0.138 A 
ATOM      2  C   UNL     1      19.474  -2.412  -7.974  1.00  0.00     0.100 A 
ATOM      3  C   UNL     1      18.408  -1.583  -8.327  1.00  0.00     0.193 A 
ATOM      4  O   UNL     1      17.352  -2.092  -8.794  1.00  0.00    -0.289 OA
ATOM      5  C   UNL     1      18.526  -0.196  -8.159  1.00  0.00     0.065 A 
ATOM      6  C   UNL     1      17.490   0.694  -8.494  1.00  0.00     0.016 A 
ATOM      7  C   UNL     1      17.661   2.070  -8.306  1.00  0.00     0.001 A 
ATOM      8  C   UNL     1      18.860   2.563  -7.783  1.00  0.00     0.004 A 
ATOM      9  C   UNL     1      19.894   1.686  -7.446  1.00  0.00     0.048 A 
ATOM     10  C   UNL     1      19.734   0.308  -7.631  1.00  0.00     0.138 A 
ATOM     11  O   UNL     1      20.722  -0.519  -7.307  1.00  0.00    -0.456 OA
ENDROOT
BRANCH   1  12
ATOM     12  C   UNL     1      21.842  -2.658  -7.047  1.00  0.00     0.017 A 
ATOM     13  C   UNL     1      24.125  -4.172  -6.368  1.00  0.00     0.000 A 
ATOM     14  C   UNL     1      23.041  -4.113  -5.492  1.00  0.00     0.001 A 
ATOM     15  C   UNL     1      24.080  -3.481  -7.578  1.00  0.00     0.001 A 
ATOM     16  C   UNL     1      21.906  -3.365  -5.824  1.00  0.00     0.012 A 
ATOM     17  C   UNL     1      22.950  -2.730  -7.916  1.00  0.00     0.012 A 
ENDBRANCH   1  12
TORSDOF 1
ENDMDL
MODEL 7
REMARK VINA RESULT:    -5.564     11.753     12.992
REMARK INTER + INTRA:          -6.156
REMARK INTER:                  -5.931
REMARK INTRA:                  -0.225
REMARK UNBOUND:                -0.266
REMARK SMILES O=c1cc(-c2ccccc2)oc2ccccc12
REMARK SMILES IDX 4 1 3 2 2 3 1 4 17 5 16 6 15 7 14 8 13 9 12 10 11 11 5 12
REMARK SMILES IDX 8 13 7 14 9 15 6 16 10 17
REMARK H PARENT
REMARK Flexibility Score: inf
ROOT
ATOM      1  C   UNL     1       8.360   3.536 -17.860  1.00  0.00     0.138 A 
ATOM      2  C   UNL     1       8.318   3.008 -16.553  1.00  0.00     0.100 A 
ATOM      3  C   UNL     1       7.348   2.060 -16.224  1.00  0.00     0.193 A 
ATOM      4  O   UNL     1       7.310   1.587 -15.054  1.00  0.00    -0.289 OA
ATOM      5  C   UNL     1       6.429   1.645 -17.198  1.00  0.00     0.065 A 
ATOM      6  C   UNL     1       5.427   0.694 -16.932  1.00  0.00     0.016 A 
ATOM      7  C   UNL     1       4.536   0.316 -17.942  1.00  0.00     0.001 A 
ATOM      8  C   UNL     1       4.637   0.882 -19.216  1.00  0.00     0.004 A 
ATOM      9  C   UNL     1       5.629   1.828 -19.488  1.00  0.00     0.048 A 
ATOM     10  C   UNL     1       6.526   2.213 -18.487  1.00  0.00     0.138 A 
ATOM     11  O   UNL     1       7.466   3.113 -18.755  1.00  0.00    -0.456 OA
ENDROOT
BRANCH   1  12
ATOM     12  C   UNL     1       9.365   4.555 -18.295  1.00  0.00     0.017 A 
ATOM     13  C   UNL     1      11.310   6.407 -19.162  1.00  0.00     0.000 A 
ATOM     14  C   UNL     1      10.240   6.835 -18.376  1.00  0.00     0.001 A 
ATOM     15  C   UNL     1      11.417   5.064 -19.520  1.00  0.00     0.001 A 
ATOM     16  C   UNL     1       9.274   5.921 -17.943  1.00  0.00     0.012 A 
ATOM     17  C   UNL     1      10.455   4.144 -19.091  1.00  0.00     0.012 A 
ENDBRANCH   1  12
TORSDOF 1
ENDMDL
