MODEL 1
REMARK VINA RESULT:    -4.208      0.000      0.000
REMARK INTER + INTRA:          -8.886
REMARK INTER:                  -7.159
REMARK INTRA:                  -1.726
REMARK UNBOUND:                -1.726
REMARK SMILES CCCCCCCCCCCCCC(=O)[O-]
REMARK SMILES IDX 8 1 9 2 10 3 11 4 12 5 13 6 14 7 15 8 16 9 7 10 6 11 5 12
REMARK SMILES IDX 4 13 3 14 2 15 1 16
REMARK H PARENT
REMARK Flexibility Score: inf
ROOT
ATOM      1  C   UNL     1     128.158 141.591 141.862  1.00  0.00     0.000 C 
ENDROOT
BRANCH   1   2
ATOM      2  C   UNL     1     126.976 142.409 141.322  1.00  0.00     0.000 C 
BRANCH   2   3
ATOM      3  C   UNL     1     127.406 143.488 140.312  1.00  0.00     0.000 C 
BRANCH   3   4
ATOM      4  C   UNL     1     126.496 143.627 139.074  1.00  0.00     0.000 C 
BRANCH   4   5
ATOM      5  C   UNL     1     126.868 142.722 137.886  1.00  0.00     0.006 C 
BRANCH   5   6
ATOM      6  C   UNL     1     125.985 142.963 136.655  1.00  0.00     0.053 C 
BRANCH   6   7
ATOM      7  C   UNL     1     125.386 141.676 136.184  1.00  0.00     0.041 C 
ATOM      8  O   UNL     1     125.799 140.578 136.643  1.00  0.00    -0.550 OA
ATOM      9  O   UNL     1     124.337 141.690 135.273  1.00  0.00    -0.550 OA
ENDBRANCH   6   7
ENDBRANCH   5   6
ENDBRANCH   4   5
ENDBRANCH   3   4
ENDBRANCH   2   3
ENDBRANCH   1   2
BRANCH   1  10
ATOM     10  C   UNL     1     129.496 142.248 141.491  1.00  0.00     0.000 C 
BRANCH  10  11
ATOM     11  C   UNL     1     130.624 141.224 141.290  1.00  0.00    -0.000 C 
BRANCH  11  12
ATOM     12  C   UNL     1     131.346 141.391 139.942  1.00  0.00    -0.000 C 
BRANCH  12  13
ATOM     13  C   UNL     1     130.363 141.399 138.751  1.00  0.00    -0.000 C 
BRANCH  13  14
ATOM     14  C   UNL     1     129.946 139.990 138.286  1.00  0.00    -0.000 C 
BRANCH  14  15
ATOM     15  C   UNL     1     128.491 139.614 138.606  1.00  0.00    -0.003 C 
ATOM     16  C   UNL     1     128.376 138.628 139.769  1.00  0.00     0.004 C 
ENDBRANCH  14  15
ENDBRANCH  13  14
ENDBRANCH  12  13
ENDBRANCH  11  12
ENDBRANCH  10  11
ENDBRANCH   1  10
TORSDOF 12
ENDMDL
MODEL 2
REMARK VINA RESULT:    -4.201      1.759      4.575
REMARK INTER + INTRA:          -8.874
REMARK INTER:                  -7.554
REMARK INTRA:                  -1.320
REMARK UNBOUND:                -1.726
REMARK SMILES CCCCCCCCCCCCCC(=O)[O-]
REMARK SMILES IDX 8 1 9 2 10 3 11 4 12 5 13 6 14 7 15 8 16 9 7 10 6 11 5 12
REMARK SMILES IDX 4 13 3 14 2 15 1 16
REMARK H PARENT
REMARK Flexibility Score: inf
ROOT
ATOM      1  C   UNL     1     130.129 140.418 141.690  1.00  0.00     0.000 C 
ENDROOT
BRANCH   1   2
ATOM      2  C   UNL     1     131.024 141.431 140.961  1.00  0.00     0.000 C 
BRANCH   2   3
ATOM      3  C   UNL     1     131.625 140.872 139.660  1.00  0.00     0.000 C 
BRANCH   3   4
ATOM      4  C   UNL     1     130.657 140.821 138.460  1.00  0.00     0.000 C 
BRANCH   4   5
ATOM      5  C   UNL     1     129.890 139.497 138.295  1.00  0.00     0.006 C 
BRANCH   5   6
ATOM      6  C   UNL     1     128.372 139.666 138.435  1.00  0.00     0.053 C 
BRANCH   6   7
ATOM      7  C   UNL     1     127.657 138.558 137.729  1.00  0.00     0.041 C 
ATOM      8  O   UNL     1     127.390 137.487 138.336  1.00  0.00    -0.550 OA
ATOM      9  O   UNL     1     127.240 138.726 136.414  1.00  0.00    -0.550 OA
ENDBRANCH   6   7
ENDBRANCH   5   6
ENDBRANCH   4   5
ENDBRANCH   3   4
ENDBRANCH   2   3
ENDBRANCH   1   2
BRANCH   1  10
ATOM     10  C   UNL     1     128.741 141.014 141.971  1.00  0.00     0.000 C 
BRANCH  10  11
ATOM     11  C   UNL     1     128.601 142.457 141.460  1.00  0.00    -0.000 C 
BRANCH  11  12
ATOM     12  C   UNL     1     127.272 142.702 140.724  1.00  0.00    -0.000 C 
BRANCH  12  13
ATOM     13  C   UNL     1     127.485 143.041 139.233  1.00  0.00    -0.000 C 
BRANCH  13  14
ATOM     14  C   UNL     1     126.310 143.812 138.602  1.00  0.00    -0.000 C 
BRANCH  14  15
ATOM     15  C   UNL     1     126.118 145.240 139.139  1.00  0.00    -0.003 C 
ATOM     16  C   UNL     1     125.766 146.243 138.040  1.00  0.00     0.004 C 
ENDBRANCH  14  15
ENDBRANCH  13  14
ENDBRANCH  12  13
ENDBRANCH  11  12
ENDBRANCH  10  11
ENDBRANCH   1  10
TORSDOF 12
ENDMDL
MODEL 3
REMARK VINA RESULT:    -4.163      9.368     11.701
REMARK INTER + INTRA:          -8.809
REMARK INTER:                  -7.424
REMARK INTRA:                  -1.386
REMARK UNBOUND:                -1.726
REMARK SMILES CCCCCCCCCCCCCC(=O)[O-]
REMARK SMILES IDX 8 1 9 2 10 3 11 4 12 5 13 6 14 7 15 8 16 9 7 10 6 11 5 12
REMARK SMILES IDX 4 13 3 14 2 15 1 16
REMARK H PARENT
REMARK Flexibility Score: inf
ROOT
ATOM      1  C   UNL     1     138.143 136.847 139.086  1.00  0.00     0.000 C 
ENDROOT
BRANCH   1   2
ATOM      2  C   UNL     1     137.219 136.364 140.214  1.00  0.00     0.000 C 
BRANCH   2   3
ATOM      3  C   UNL     1     135.745 136.735 139.980  1.00  0.00     0.000 C 
BRANCH   3   4
ATOM      4  C   UNL     1     135.188 137.828 140.916  1.00  0.00     0.000 C 
BRANCH   4   5
ATOM      5  C   UNL     1     135.708 139.249 140.641  1.00  0.00     0.006 C 
BRANCH   5   6
ATOM      6  C   UNL     1     136.199 139.960 141.909  1.00  0.00     0.053 C 
BRANCH   6   7
ATOM      7  C   UNL     1     136.330 141.430 141.665  1.00  0.00     0.041 C 
ATOM      8  O   UNL     1     135.337 142.189 141.820  1.00  0.00    -0.550 OA
ATOM      9  O   UNL     1     137.562 141.969 141.315  1.00  0.00    -0.550 OA
ENDBRANCH   6   7
ENDBRANCH   5   6
ENDBRANCH   4   5
ENDBRANCH   3   4
ENDBRANCH   2   3
ENDBRANCH   1   2
BRANCH   1  10
ATOM     10  C   UNL     1     139.617 136.772 139.513  1.00  0.00     0.000 C 
BRANCH  10  11
ATOM     11  C   UNL     1     139.799 136.152 140.908  1.00  0.00    -0.000 C 
BRANCH  11  12
ATOM     12  C   UNL     1     140.800 134.984 140.913  1.00  0.00    -0.000 C 
BRANCH  12  13
ATOM     13  C   UNL     1     140.709 134.132 139.629  1.00  0.00    -0.000 C 
BRANCH  13  14
ATOM     14  C   UNL     1     139.561 133.104 139.651  1.00  0.00    -0.000 C 
BRANCH  14  15
ATOM     15  C   UNL     1     138.574 133.219 138.478  1.00  0.00    -0.003 C 
ATOM     16  C   UNL     1     139.215 133.811 137.222  1.00  0.00     0.004 C 
ENDBRANCH  14  15
ENDBRANCH  13  14
ENDBRANCH  12  13
ENDBRANCH  11  12
ENDBRANCH  10  11
ENDBRANCH   1  10
TORSDOF 12
ENDMDL
MODEL 4
REMARK VINA RESULT:    -4.012      9.462     11.743
REMARK INTER + INTRA:          -8.552
REMARK INTER:                  -7.557
REMARK INTRA:                  -0.995
REMARK UNBOUND:                -1.726
REMARK SMILES CCCCCCCCCCCCCC(=O)[O-]
REMARK SMILES IDX 8 1 9 2 10 3 11 4 12 5 13 6 14 7 15 8 16 9 7 10 6 11 5 12
REMARK SMILES IDX 4 13 3 14 2 15 1 16
REMARK H PARENT
REMARK Flexibility Score: inf
ROOT
ATOM      1  C   UNL     1     136.990 137.140 140.033  1.00  0.00     0.000 C 
ENDROOT
BRANCH   1   2
ATOM      2  C   UNL     1     136.191 138.111 139.151  1.00  0.00     0.000 C 
BRANCH   2   3
ATOM      3  C   UNL     1     136.128 139.533 139.732  1.00  0.00     0.000 C 
BRANCH   3   4
ATOM      4  C   UNL     1     136.564 139.660 141.207  1.00  0.00     0.000 C 
BRANCH   4   5
ATOM      5  C   UNL     1     136.614 141.098 141.751  1.00  0.00     0.006 C 
BRANCH   5   6
ATOM      6  C   UNL     1     136.712 142.152 140.641  1.00  0.00     0.053 C 
BRANCH   6   7
ATOM      7  C   UNL     1     138.110 142.673 140.539  1.00  0.00     0.041 C 
ATOM      8  O   UNL     1     138.976 142.335 141.388  1.00  0.00    -0.550 OA
ATOM      9  O   UNL     1     138.470 143.493 139.476  1.00  0.00    -0.550 OA
ENDBRANCH   6   7
ENDBRANCH   5   6
ENDBRANCH   4   5
ENDBRANCH   3   4
ENDBRANCH   2   3
ENDBRANCH   1   2
BRANCH   1  10
ATOM     10  C   UNL     1     138.307 136.737 139.352  1.00  0.00     0.000 C 
BRANCH  10  11
ATOM     11  C   UNL     1     139.504 136.761 140.315  1.00  0.00    -0.000 C 
BRANCH  11  12
ATOM     12  C   UNL     1     140.286 135.436 140.326  1.00  0.00    -0.000 C 
BRANCH  12  13
ATOM     13  C   UNL     1     139.373 134.223 140.605  1.00  0.00    -0.000 C 
BRANCH  13  14
ATOM     14  C   UNL     1     139.599 133.046 139.636  1.00  0.00    -0.000 C 
BRANCH  14  15
ATOM     15  C   UNL     1     140.336 133.415 138.339  1.00  0.00    -0.003 C 
ATOM     16  C   UNL     1     139.383 133.749 137.191  1.00  0.00     0.004 C 
ENDBRANCH  14  15
ENDBRANCH  13  14
ENDBRANCH  12  13
ENDBRANCH  11  12
ENDBRANCH  10  11
ENDBRANCH   1  10
TORSDOF 12
ENDMDL
MODEL 5
REMARK VINA RESULT:    -4.005      9.275     11.499
REMARK INTER + INTRA:          -8.541
REMARK INTER:                  -6.900
REMARK INTRA:                  -1.641
REMARK UNBOUND:                -1.726
REMARK SMILES CCCCCCCCCCCCCC(=O)[O-]
REMARK SMILES IDX 8 1 9 2 10 3 11 4 12 5 13 6 14 7 15 8 16 9 7 10 6 11 5 12
REMARK SMILES IDX 4 13 3 14 2 15 1 16
REMARK H PARENT
REMARK Flexibility Score: inf
ROOT
ATOM      1  C   UNL     1     138.224 136.660 139.092  1.00  0.00     0.000 C 
ENDROOT
BRANCH   1   2
ATOM      2  C   UNL     1     137.327 136.538 140.333  1.00  0.00     0.000 C 
BRANCH   2   3
ATOM      3  C   UNL     1     136.216 135.487 140.168  1.00  0.00     0.000 C 
BRANCH   3   4
ATOM      4  C   UNL     1     134.800 135.963 140.554  1.00  0.00     0.000 C 
BRANCH   4   5
ATOM      5  C   UNL     1     134.194 137.029 139.625  1.00  0.00     0.006 C 
BRANCH   5   6
ATOM      6  C   UNL     1     134.037 138.394 140.307  1.00  0.00     0.053 C 
BRANCH   6   7
ATOM      7  C   UNL     1     135.101 139.336 139.840  1.00  0.00     0.041 C 
ATOM      8  O   UNL     1     135.635 139.179 138.710  1.00  0.00    -0.550 OA
ATOM      9  O   UNL     1     135.469 140.417 140.632  1.00  0.00    -0.550 OA
ENDBRANCH   6   7
ENDBRANCH   5   6
ENDBRANCH   4   5
ENDBRANCH   3   4
ENDBRANCH   2   3
ENDBRANCH   1   2
BRANCH   1  10
ATOM     10  C   UNL     1     139.705 136.743 139.491  1.00  0.00     0.000 C 
BRANCH  10  11
ATOM     11  C   UNL     1     139.968 136.211 140.909  1.00  0.00    -0.000 C 
BRANCH  11  12
ATOM     12  C   UNL     1     140.620 134.818 140.910  1.00  0.00    -0.000 C 
BRANCH  12  13
ATOM     13  C   UNL     1     139.575 133.686 141.011  1.00  0.00    -0.000 C 
BRANCH  13  14
ATOM     14  C   UNL     1     139.344 132.938 139.683  1.00  0.00    -0.000 C 
BRANCH  14  15
ATOM     15  C   UNL     1     140.345 133.287 138.569  1.00  0.00    -0.003 C 
ATOM     16  C   UNL     1     139.660 133.659 137.253  1.00  0.00     0.004 C 
ENDBRANCH  14  15
ENDBRANCH  13  14
ENDBRANCH  12  13
ENDBRANCH  11  12
ENDBRANCH  10  11
ENDBRANCH   1  10
TORSDOF 12
ENDMDL
MODEL 6
REMARK VINA RESULT:    -4.003      2.197      3.152
REMARK INTER + INTRA:          -8.538
REMARK INTER:                  -6.990
REMARK INTRA:                  -1.548
REMARK UNBOUND:                -1.726
REMARK SMILES CCCCCCCCCCCCCC(=O)[O-]
REMARK SMILES IDX 8 1 9 2 10 3 11 4 12 5 13 6 14 7 15 8 16 9 7 10 6 11 5 12
REMARK SMILES IDX 4 13 3 14 2 15 1 16
REMARK H PARENT
REMARK Flexibility Score: inf
ROOT
ATOM      1  C   UNL     1     130.631 140.078 141.013  1.00  0.00     0.000 C 
ENDROOT
BRANCH   1   2
ATOM      2  C   UNL     1     129.155 140.297 141.378  1.00  0.00     0.000 C 
BRANCH   2   3
ATOM      3  C   UNL     1     128.842 141.756 141.754  1.00  0.00     0.000 C 
BRANCH   3   4
ATOM      4  C   UNL     1     127.609 142.363 141.053  1.00  0.00     0.000 C 
BRANCH   4   5
ATOM      5  C   UNL     1     127.856 142.873 139.623  1.00  0.00     0.006 C 
BRANCH   5   6
ATOM      6  C   UNL     1     126.558 143.090 138.835  1.00  0.00     0.053 C 
BRANCH   6   7
ATOM      7  C   UNL     1     126.061 144.489 139.024  1.00  0.00     0.041 C 
ATOM      8  O   UNL     1     126.028 145.287 138.051  1.00  0.00    -0.550 OA
ATOM      9  O   UNL     1     125.589 144.896 140.266  1.00  0.00    -0.550 OA
ENDBRANCH   6   7
ENDBRANCH   5   6
ENDBRANCH   4   5
ENDBRANCH   3   4
ENDBRANCH   2   3
ENDBRANCH   1   2
BRANCH   1  10
ATOM     10  C   UNL     1     131.201 141.297 140.271  1.00  0.00     0.000 C 
BRANCH  10  11
ATOM     11  C   UNL     1     131.278 141.082 138.751  1.00  0.00    -0.000 C 
BRANCH  11  12
ATOM     12  C   UNL     1     131.293 139.594 138.360  1.00  0.00    -0.000 C 
BRANCH  12  13
ATOM     13  C   UNL     1     130.211 139.256 137.312  1.00  0.00    -0.000 C 
BRANCH  13  14
ATOM     14  C   UNL     1     128.885 138.769 137.929  1.00  0.00    -0.000 C 
BRANCH  14  15
ATOM     15  C   UNL     1     127.689 139.706 137.699  1.00  0.00    -0.003 C 
ATOM     16  C   UNL     1     126.524 139.016 136.990  1.00  0.00     0.004 C 
ENDBRANCH  14  15
ENDBRANCH  13  14
ENDBRANCH  12  13
ENDBRANCH  11  12
ENDBRANCH  10  11
ENDBRANCH   1  10
TORSDOF 12
ENDMDL
MODEL 7
REMARK VINA RESULT:    -3.905      2.555      3.880
REMARK INTER + INTRA:          -8.370
REMARK INTER:                  -7.384
REMARK INTRA:                  -0.986
REMARK UNBOUND:                -1.726
REMARK SMILES CCCCCCCCCCCCCC(=O)[O-]
REMARK SMILES IDX 8 1 9 2 10 3 11 4 12 5 13 6 14 7 15 8 16 9 7 10 6 11 5 12
REMARK SMILES IDX 4 13 3 14 2 15 1 16
REMARK H PARENT
REMARK Flexibility Score: inf
ROOT
ATOM      1  C   UNL     1     130.496 141.866 140.997  1.00  0.00     0.000 C 
ENDROOT
BRANCH   1   2
ATOM      2  C   UNL     1     129.225 141.994 141.850  1.00  0.00     0.000 C 
BRANCH   2   3
ATOM      3  C   UNL     1     127.945 141.643 141.073  1.00  0.00     0.000 C 
BRANCH   3   4
ATOM      4  C   UNL     1     126.921 142.790 140.944  1.00  0.00     0.000 C 
BRANCH   4   5
ATOM      5  C   UNL     1     127.127 143.714 139.731  1.00  0.00     0.006 C 
BRANCH   5   6
ATOM      6  C   UNL     1     126.126 144.875 139.689  1.00  0.00     0.053 C 
BRANCH   6   7
ATOM      7  C   UNL     1     125.868 145.291 138.276  1.00  0.00     0.041 C 
ATOM      8  O   UNL     1     125.790 146.512 137.979  1.00  0.00    -0.550 OA
ATOM      9  O   UNL     1     125.764 144.331 137.277  1.00  0.00    -0.550 OA
ENDBRANCH   6   7
ENDBRANCH   5   6
ENDBRANCH   4   5
ENDBRANCH   3   4
ENDBRANCH   2   3
ENDBRANCH   1   2
BRANCH   1  10
ATOM     10  C   UNL     1     130.157 141.397 139.574  1.00  0.00     0.000 C 
BRANCH  10  11
ATOM     11  C   UNL     1     131.397 140.940 138.789  1.00  0.00    -0.000 C 
BRANCH  11  12
ATOM     12  C   UNL     1     131.545 139.409 138.748  1.00  0.00    -0.000 C 
BRANCH  12  13
ATOM     13  C   UNL     1     132.880 138.936 139.363  1.00  0.00    -0.000 C 
BRANCH  13  14
ATOM     14  C   UNL     1     132.960 139.131 140.889  1.00  0.00    -0.000 C 
BRANCH  14  15
ATOM     15  C   UNL     1     133.930 140.233 141.344  1.00  0.00    -0.003 C 
ATOM     16  C   UNL     1     135.328 140.076 140.745  1.00  0.00     0.004 C 
ENDBRANCH  14  15
ENDBRANCH  13  14
ENDBRANCH  12  13
ENDBRANCH  11  12
ENDBRANCH  10  11
ENDBRANCH   1  10
TORSDOF 12
ENDMDL
MODEL 8
REMARK VINA RESULT:    -3.897      9.133     11.252
REMARK INTER + INTRA:          -8.356
REMARK INTER:                  -6.951
REMARK INTRA:                  -1.405
REMARK UNBOUND:                -1.726
REMARK SMILES CCCCCCCCCCCCCC(=O)[O-]
REMARK SMILES IDX 8 1 9 2 10 3 11 4 12 5 13 6 14 7 15 8 16 9 7 10 6 11 5 12
REMARK SMILES IDX 4 13 3 14 2 15 1 16
REMARK H PARENT
REMARK Flexibility Score: inf
ROOT
ATOM      1  C   UNL     1     137.945 136.748 139.058  1.00  0.00     0.000 C 
ENDROOT
BRANCH   1   2
ATOM      2  C   UNL     1     137.126 136.635 140.352  1.00  0.00     0.000 C 
BRANCH   2   3
ATOM      3  C   UNL     1     136.214 137.850 140.593  1.00  0.00     0.000 C 
BRANCH   3   4
ATOM      4  C   UNL     1     135.060 138.013 139.582  1.00  0.00     0.000 C 
BRANCH   4   5
ATOM      5  C   UNL     1     133.751 137.302 139.967  1.00  0.00     0.006 C 
BRANCH   5   6
ATOM      6  C   UNL     1     133.181 136.447 138.829  1.00  0.00     0.053 C 
BRANCH   6   7
ATOM      7  C   UNL     1     133.354 134.992 139.132  1.00  0.00     0.041 C 
ATOM      8  O   UNL     1     134.288 134.608 139.883  1.00  0.00    -0.550 OA
ATOM      9  O   UNL     1     132.452 134.064 138.624  1.00  0.00    -0.550 OA
ENDBRANCH   6   7
ENDBRANCH   5   6
ENDBRANCH   4   5
ENDBRANCH   3   4
ENDBRANCH   2   3
ENDBRANCH   1   2
BRANCH   1  10
ATOM     10  C   UNL     1     139.451 136.785 139.361  1.00  0.00     0.000 C 
BRANCH  10  11
ATOM     11  C   UNL     1     139.779 136.314 140.787  1.00  0.00    -0.000 C 
BRANCH  11  12
ATOM     12  C   UNL     1     140.534 134.974 140.812  1.00  0.00    -0.000 C 
BRANCH  12  13
ATOM     13  C   UNL     1     139.580 133.770 140.971  1.00  0.00    -0.000 C 
BRANCH  13  14
ATOM     14  C   UNL     1     139.425 132.933 139.687  1.00  0.00    -0.000 C 
BRANCH  14  15
ATOM     15  C   UNL     1     140.372 133.330 138.543  1.00  0.00    -0.003 C 
ATOM     16  C   UNL     1     139.632 133.648 137.244  1.00  0.00     0.004 C 
ENDBRANCH  14  15
ENDBRANCH  13  14
ENDBRANCH  12  13
ENDBRANCH  11  12
ENDBRANCH  10  11
ENDBRANCH   1  10
TORSDOF 12
ENDMDL
MODEL 9
REMARK VINA RESULT:    -3.605      2.146      3.309
REMARK INTER + INTRA:          -7.860
REMARK INTER:                  -6.536
REMARK INTRA:                  -1.324
REMARK UNBOUND:                -1.726
REMARK SMILES CCCCCCCCCCCCCC(=O)[O-]
REMARK SMILES IDX 8 1 9 2 10 3 11 4 12 5 13 6 14 7 15 8 16 9 7 10 6 11 5 12
REMARK SMILES IDX 4 13 3 14 2 15 1 16
REMARK H PARENT
REMARK Flexibility Score: inf
ROOT
ATOM      1  C   UNL     1     129.505 140.610 142.125  1.00  0.00     0.000 C 
ENDROOT
BRANCH   1   2
ATOM      2  C   UNL     1     129.699 141.747 141.111  1.00  0.00     0.000 C 
BRANCH   2   3
ATOM      3  C   UNL     1     128.517 142.732 141.084  1.00  0.00     0.000 C 
BRANCH   3   4
ATOM      4  C   UNL     1     127.771 142.824 139.736  1.00  0.00     0.000 C 
BRANCH   4   5
ATOM      5  C   UNL     1     126.321 143.331 139.827  1.00  0.00     0.006 C 
BRANCH   5   6
ATOM      6  C   UNL     1     126.220 144.860 139.765  1.00  0.00     0.053 C 
BRANCH   6   7
ATOM      7  C   UNL     1     125.951 145.309 138.364  1.00  0.00     0.041 C 
ATOM      8  O   UNL     1     125.886 146.537 138.092  1.00  0.00    -0.550 OA
ATOM      9  O   UNL     1     125.821 144.371 137.347  1.00  0.00    -0.550 OA
ENDBRANCH   6   7
ENDBRANCH   5   6
ENDBRANCH   4   5
ENDBRANCH   3   4
ENDBRANCH   2   3
ENDBRANCH   1   2
BRANCH   1  10
ATOM     10  C   UNL     1     129.667 139.239 141.450  1.00  0.00     0.000 C 
BRANCH  10  11
ATOM     11  C   UNL     1     128.320 138.595 141.084  1.00  0.00    -0.000 C 
BRANCH  11  12
ATOM     12  C   UNL     1     128.276 138.093 139.631  1.00  0.00    -0.000 C 
BRANCH  12  13
ATOM     13  C   UNL     1     128.159 139.252 138.617  1.00  0.00    -0.000 C 
BRANCH  13  14
ATOM     14  C   UNL     1     128.879 138.978 137.282  1.00  0.00    -0.000 C 
BRANCH  14  15
ATOM     15  C   UNL     1     130.413 139.050 137.353  1.00  0.00    -0.003 C 
ATOM     16  C   UNL     1     130.913 140.292 138.092  1.00  0.00     0.004 C 
ENDBRANCH  14  15
ENDBRANCH  13  14
ENDBRANCH  12  13
ENDBRANCH  11  12
ENDBRANCH  10  11
ENDBRANCH   1  10
TORSDOF 12
ENDMDL
