MODEL 1
REMARK VINA RESULT:    -5.607      0.000      0.000
REMARK INTER + INTRA:          -7.724
REMARK INTER:                  -7.573
REMARK INTRA:                  -0.151
REMARK UNBOUND:                -0.151
REMARK SMILES CCCCCCCC=O
REMARK SMILES IDX 5 1 4 2 3 3 2 4 1 5 6 6 7 7 8 8 9 9
REMARK H PARENT
REMARK Flexibility Score: inf
ROOT
ATOM      1  C   UNL     1      22.426  52.255  -4.169  1.00  0.00     0.000 C 
ENDROOT
BRANCH   1   2
ATOM      2  C   UNL     1      23.279  51.192  -4.878  1.00  0.00     0.000 C 
BRANCH   2   3
ATOM      3  C   UNL     1      23.336  49.864  -4.105  1.00  0.00    -0.000 C 
BRANCH   3   4
ATOM      4  C   UNL     1      24.440  48.929  -4.618  1.00  0.00    -0.003 C 
ATOM      5  C   UNL     1      24.899  47.969  -3.524  1.00  0.00     0.004 C 
ENDBRANCH   3   4
ENDBRANCH   2   3
ENDBRANCH   1   2
BRANCH   1   6
ATOM      6  C   UNL     1      22.605  53.629  -4.826  1.00  0.00     0.008 C 
BRANCH   6   7
ATOM      7  C   UNL     1      22.878  53.489  -6.328  1.00  0.00     0.072 C 
BRANCH   7   8
ATOM      8  C   UNL     1      23.614  54.682  -6.860  1.00  0.00     0.224 C 
ATOM      9  O   UNL     1      24.123  54.639  -7.969  1.00  0.00    -0.303 OA
ENDBRANCH   7   8
ENDBRANCH   6   7
ENDBRANCH   1   6
TORSDOF 6
ENDMDL
MODEL 2
REMARK VINA RESULT:    -5.579      3.095      5.647
REMARK INTER + INTRA:          -7.687
REMARK INTER:                  -7.513
REMARK INTRA:                  -0.174
REMARK UNBOUND:                -0.151
REMARK SMILES CCCCCCCC=O
REMARK SMILES IDX 5 1 4 2 3 3 2 4 1 5 6 6 7 7 8 8 9 9
REMARK H PARENT
REMARK Flexibility Score: inf
ROOT
ATOM      1  C   UNL     1      23.698  50.389  -4.601  1.00  0.00     0.000 C 
ENDROOT
BRANCH   1   2
ATOM      2  C   UNL     1      22.627  51.428  -4.963  1.00  0.00     0.000 C 
BRANCH   2   3
ATOM      3  C   UNL     1      22.771  52.732  -4.162  1.00  0.00    -0.000 C 
BRANCH   3   4
ATOM      4  C   UNL     1      22.611  53.984  -5.038  1.00  0.00    -0.003 C 
ATOM      5  C   UNL     1      23.020  53.700  -6.480  1.00  0.00     0.004 C 
ENDBRANCH   3   4
ENDBRANCH   2   3
ENDBRANCH   1   2
BRANCH   1   6
ATOM      6  C   UNL     1      23.323  49.003  -5.142  1.00  0.00     0.008 C 
BRANCH   6   7
ATOM      7  C   UNL     1      24.434  47.984  -4.862  1.00  0.00     0.072 C 
BRANCH   7   8
ATOM      8  C   UNL     1      24.706  47.870  -3.391  1.00  0.00     0.224 C 
ATOM      9  O   UNL     1      25.671  47.235  -2.999  1.00  0.00    -0.303 OA
ENDBRANCH   7   8
ENDBRANCH   6   7
ENDBRANCH   1   6
TORSDOF 6
ENDMDL
MODEL 3
REMARK VINA RESULT:    -5.513      2.864      5.464
REMARK INTER + INTRA:          -7.597
REMARK INTER:                  -7.404
REMARK INTRA:                  -0.194
REMARK UNBOUND:                -0.151
REMARK SMILES CCCCCCCC=O
REMARK SMILES IDX 5 1 4 2 3 3 2 4 1 5 6 6 7 7 8 8 9 9
REMARK H PARENT
REMARK Flexibility Score: inf
ROOT
ATOM      1  C   UNL     1      22.837  51.361  -5.013  1.00  0.00     0.000 C 
ENDROOT
BRANCH   1   2
ATOM      2  C   UNL     1      22.562  52.615  -4.171  1.00  0.00     0.000 C 
BRANCH   2   3
ATOM      3  C   UNL     1      22.668  53.913  -4.987  1.00  0.00    -0.000 C 
BRANCH   3   4
ATOM      4  C   UNL     1      22.975  53.655  -6.470  1.00  0.00    -0.003 C 
ATOM      5  C   UNL     1      23.916  54.719  -7.028  1.00  0.00     0.004 C 
ENDBRANCH   3   4
ENDBRANCH   2   3
ENDBRANCH   1   2
BRANCH   1   6
ATOM      6  C   UNL     1      23.175  50.162  -4.117  1.00  0.00     0.008 C 
BRANCH   6   7
ATOM      7  C   UNL     1      24.360  49.371  -4.683  1.00  0.00     0.072 C 
BRANCH   7   8
ATOM      8  C   UNL     1      24.344  47.951  -4.199  1.00  0.00     0.224 C 
ATOM      9  O   UNL     1      25.159  47.582  -3.368  1.00  0.00    -0.303 OA
ENDBRANCH   7   8
ENDBRANCH   6   7
ENDBRANCH   1   6
TORSDOF 6
ENDMDL
MODEL 4
REMARK VINA RESULT:    -5.258      2.547      5.287
REMARK INTER + INTRA:          -7.253
REMARK INTER:                  -7.094
REMARK INTRA:                  -0.160
REMARK UNBOUND:                -0.151
REMARK SMILES CCCCCCCC=O
REMARK SMILES IDX 5 1 4 2 3 3 2 4 1 5 6 6 7 7 8 8 9 9
REMARK H PARENT
REMARK Flexibility Score: inf
ROOT
ATOM      1  C   UNL     1      23.144  52.486  -4.191  1.00  0.00     0.000 C 
ENDROOT
BRANCH   1   2
ATOM      2  C   UNL     1      22.552  53.694  -4.932  1.00  0.00     0.000 C 
BRANCH   2   3
ATOM      3  C   UNL     1      22.988  53.760  -6.404  1.00  0.00    -0.000 C 
BRANCH   3   4
ATOM      4  C   UNL     1      23.835  55.003  -6.714  1.00  0.00    -0.003 C 
ATOM      5  C   UNL     1      24.429  54.926  -8.118  1.00  0.00     0.004 C 
ENDBRANCH   3   4
ENDBRANCH   2   3
ENDBRANCH   1   2
BRANCH   1   6
ATOM      6  C   UNL     1      22.872  51.186  -4.957  1.00  0.00     0.008 C 
BRANCH   6   7
ATOM      7  C   UNL     1      23.327  49.966  -4.148  1.00  0.00     0.072 C 
BRANCH   7   8
ATOM      8  C   UNL     1      24.206  49.069  -4.968  1.00  0.00     0.224 C 
ATOM      9  O   UNL     1      23.889  47.904  -5.148  1.00  0.00    -0.303 OA
ENDBRANCH   7   8
ENDBRANCH   6   7
ENDBRANCH   1   6
TORSDOF 6
ENDMDL
MODEL 5
REMARK VINA RESULT:    -5.196      1.920      3.362
REMARK INTER + INTRA:          -7.169
REMARK INTER:                  -7.016
REMARK INTRA:                  -0.153
REMARK UNBOUND:                -0.151
REMARK SMILES CCCCCCCC=O
REMARK SMILES IDX 5 1 4 2 3 3 2 4 1 5 6 6 7 7 8 8 9 9
REMARK H PARENT
REMARK Flexibility Score: inf
ROOT
ATOM      1  C   UNL     1      22.949  54.427  -6.752  1.00  0.00     0.000 C 
ENDROOT
BRANCH   1   2
ATOM      2  C   UNL     1      23.436  53.422  -5.698  1.00  0.00     0.000 C 
BRANCH   2   3
ATOM      3  C   UNL     1      22.469  53.294  -4.509  1.00  0.00    -0.000 C 
BRANCH   3   4
ATOM      4  C   UNL     1      22.024  51.845  -4.264  1.00  0.00    -0.003 C 
ATOM      5  C   UNL     1      23.123  50.860  -4.653  1.00  0.00     0.004 C 
ENDBRANCH   3   4
ENDBRANCH   2   3
ENDBRANCH   1   2
BRANCH   1   6
ATOM      6  C   UNL     1      24.043  54.705  -7.791  1.00  0.00     0.008 C 
BRANCH   6   7
ATOM      7  C   UNL     1      24.964  55.840  -7.329  1.00  0.00     0.072 C 
BRANCH   7   8
ATOM      8  C   UNL     1      25.498  56.615  -8.497  1.00  0.00     0.224 C 
ATOM      9  O   UNL     1      25.221  57.798  -8.620  1.00  0.00    -0.303 OA
ENDBRANCH   7   8
ENDBRANCH   6   7
ENDBRANCH   1   6
TORSDOF 6
ENDMDL
MODEL 6
REMARK VINA RESULT:    -5.029      2.457      5.693
REMARK INTER + INTRA:          -6.944
REMARK INTER:                  -6.800
REMARK INTRA:                  -0.144
REMARK UNBOUND:                -0.151
REMARK SMILES CCCCCCCC=O
REMARK SMILES IDX 5 1 4 2 3 3 2 4 1 5 6 6 7 7 8 8 9 9
REMARK H PARENT
REMARK Flexibility Score: inf
ROOT
ATOM      1  C   UNL     1      23.029  53.621  -6.216  1.00  0.00     0.000 C 
ENDROOT
BRANCH   1   2
ATOM      2  C   UNL     1      24.004  54.787  -6.440  1.00  0.00     0.000 C 
BRANCH   2   3
ATOM      3  C   UNL     1      24.229  55.094  -7.929  1.00  0.00    -0.000 C 
BRANCH   3   4
ATOM      4  C   UNL     1      25.547  55.840  -8.185  1.00  0.00    -0.003 C 
ATOM      5  C   UNL     1      25.287  57.275  -8.633  1.00  0.00     0.004 C 
ENDBRANCH   3   4
ENDBRANCH   2   3
ENDBRANCH   1   2
BRANCH   1   6
ATOM      6  C   UNL     1      22.453  53.653  -4.794  1.00  0.00     0.008 C 
BRANCH   6   7
ATOM      7  C   UNL     1      22.262  52.234  -4.246  1.00  0.00     0.072 C 
BRANCH   7   8
ATOM      8  C   UNL     1      23.427  51.356  -4.597  1.00  0.00     0.224 C 
ATOM      9  O   UNL     1      23.235  50.205  -4.952  1.00  0.00    -0.303 OA
ENDBRANCH   7   8
ENDBRANCH   6   7
ENDBRANCH   1   6
TORSDOF 6
ENDMDL
MODEL 7
REMARK VINA RESULT:    -4.440      4.018      6.278
REMARK INTER + INTRA:          -6.148
REMARK INTER:                  -6.057
REMARK INTRA:                  -0.091
REMARK UNBOUND:                -0.151
REMARK SMILES CCCCCCCC=O
REMARK SMILES IDX 5 1 4 2 3 3 2 4 1 5 6 6 7 7 8 8 9 9
REMARK H PARENT
REMARK Flexibility Score: inf
ROOT
ATOM      1  C   UNL     1      25.677  56.393  -8.335  1.00  0.00     0.000 C 
ENDROOT
BRANCH   1   2
ATOM      2  C   UNL     1      24.272  55.793  -8.182  1.00  0.00     0.000 C 
BRANCH   2   3
ATOM      3  C   UNL     1      24.129  54.931  -6.917  1.00  0.00    -0.000 C 
BRANCH   3   4
ATOM      4  C   UNL     1      22.947  53.953  -7.000  1.00  0.00    -0.003 C 
ATOM      5  C   UNL     1      22.882  53.066  -5.759  1.00  0.00     0.004 C 
ENDBRANCH   3   4
ENDBRANCH   2   3
ENDBRANCH   1   2
BRANCH   1   6
ATOM      6  C   UNL     1      25.603  57.850  -8.808  1.00  0.00     0.008 C 
BRANCH   6   7
ATOM      7  C   UNL     1      26.728  58.163  -9.801  1.00  0.00     0.072 C 
BRANCH   7   8
ATOM      8  C   UNL     1      27.454  59.419  -9.420  1.00  0.00     0.224 C 
ATOM      9  O   UNL     1      26.981  60.164  -8.576  1.00  0.00    -0.303 OA
ENDBRANCH   7   8
ENDBRANCH   6   7
ENDBRANCH   1   6
TORSDOF 6
ENDMDL
MODEL 8
REMARK VINA RESULT:    -4.327      4.132      7.937
REMARK INTER + INTRA:          -5.996
REMARK INTER:                  -5.916
REMARK INTRA:                  -0.080
REMARK UNBOUND:                -0.151
REMARK SMILES CCCCCCCC=O
REMARK SMILES IDX 5 1 4 2 3 3 2 4 1 5 6 6 7 7 8 8 9 9
REMARK H PARENT
REMARK Flexibility Score: inf
ROOT
ATOM      1  C   UNL     1      25.333  55.988  -8.481  1.00  0.00     0.000 C 
ENDROOT
BRANCH   1   2
ATOM      2  C   UNL     1      25.268  57.521  -8.562  1.00  0.00     0.000 C 
BRANCH   2   3
ATOM      3  C   UNL     1      26.431  58.122  -9.367  1.00  0.00    -0.000 C 
BRANCH   3   4
ATOM      4  C   UNL     1      26.614  59.625  -9.108  1.00  0.00    -0.003 C 
ATOM      5  C   UNL     1      27.849  60.160  -9.827  1.00  0.00     0.004 C 
ENDBRANCH   3   4
ENDBRANCH   2   3
ENDBRANCH   1   2
BRANCH   1   6
ATOM      6  C   UNL     1      24.648  55.477  -7.207  1.00  0.00     0.008 C 
BRANCH   6   7
ATOM      7  C   UNL     1      23.533  54.481  -7.544  1.00  0.00     0.072 C 
BRANCH   7   8
ATOM      8  C   UNL     1      23.120  53.699  -6.333  1.00  0.00     0.224 C 
ATOM      9  O   UNL     1      22.748  54.284  -5.329  1.00  0.00    -0.303 OA
ENDBRANCH   7   8
ENDBRANCH   6   7
ENDBRANCH   1   6
TORSDOF 6
ENDMDL
MODEL 9
REMARK VINA RESULT:    -4.156      4.993      7.454
REMARK INTER + INTRA:          -5.765
REMARK INTER:                  -5.628
REMARK INTRA:                  -0.137
REMARK UNBOUND:                -0.151
REMARK SMILES CCCCCCCC=O
REMARK SMILES IDX 5 1 4 2 3 3 2 4 1 5 6 6 7 7 8 8 9 9
REMARK H PARENT
REMARK Flexibility Score: inf
ROOT
ATOM      1  C   UNL     1      25.249  58.098  -8.750  1.00  0.00     0.000 C 
ENDROOT
BRANCH   1   2
ATOM      2  C   UNL     1      25.637  56.613  -8.776  1.00  0.00     0.000 C 
BRANCH   2   3
ATOM      3  C   UNL     1      25.175  55.856  -7.521  1.00  0.00    -0.000 C 
BRANCH   3   4
ATOM      4  C   UNL     1      24.103  54.800  -7.828  1.00  0.00    -0.003 C 
ATOM      5  C   UNL     1      23.419  54.324  -6.549  1.00  0.00     0.004 C 
ENDBRANCH   3   4
ENDBRANCH   2   3
ENDBRANCH   1   2
BRANCH   1   6
ATOM      6  C   UNL     1      26.483  58.991  -8.934  1.00  0.00     0.008 C 
BRANCH   6   7
ATOM      7  C   UNL     1      27.301  58.552 -10.153  1.00  0.00     0.072 C 
BRANCH   7   8
ATOM      8  C   UNL     1      28.582  59.325 -10.254  1.00  0.00     0.224 C 
ATOM      9  O   UNL     1      28.565  60.484 -10.637  1.00  0.00    -0.303 OA
ENDBRANCH   7   8
ENDBRANCH   6   7
ENDBRANCH   1   6
TORSDOF 6
ENDMDL
