MODEL 1
REMARK VINA RESULT:    15.217      0.000      0.000
REMARK INTER + INTRA:          22.046
REMARK INTER:                  21.444
REMARK INTRA:                   0.602
REMARK UNBOUND:                 0.602
REMARK SMILES CC1=CCC(=C(C)C)C(=O)CC(C)=CCC1
REMARK SMILES IDX 12 1 14 2 13 3 15 4 16 5 2 6 1 7 3 8 11 10 9 11 10 12 5 13
REMARK SMILES IDX 6 14 7 15 8 16 4 17
REMARK H PARENT
REMARK Flexibility Score: 60.00
ROOT
ATOM      1  C   UNL     1     145.507  55.208  14.951  1.00  0.00    -0.070 C 
ATOM      2  C   UNL     1     145.687  54.050  15.625  1.00  0.00    -0.027 C 
ATOM      3  C   UNL     1     144.139  55.485  14.377  1.00  0.00     0.039 C 
ENDROOT
BRANCH   2   4
ATOM      4  C   UNL     1     147.001  53.551  16.187  1.00  0.00     0.032 C 
BRANCH   4   5
ATOM      5  C   UNL     1     147.099  53.576  17.726  1.00  0.00     0.034 C 
BRANCH   5   6
ATOM      6  C   UNL     1     145.815  54.027  18.399  1.00  0.00    -0.077 C 
ATOM      7  C   UNL     1     144.832  52.964  18.820  1.00  0.00     0.039 C 
ATOM      8  C   UNL     1     145.464  55.323  18.583  1.00  0.00    -0.023 CG0
ATOM      9  G   UNL     1     146.292  56.550  18.259  1.00  0.00     0.000 G0
ENDBRANCH   5   6
ENDBRANCH   4   5
ENDBRANCH   2   4
BRANCH   1  10
ATOM     10  C   UNL     1     146.626  56.189  14.668  1.00  0.00     0.111 C 
BRANCH  10  11
ATOM     11  C   UNL     1     146.866  57.112  15.834  1.00  0.00     0.163 C 
ATOM     12  O   UNL     1     147.944  57.764  15.863  1.00  0.00    -0.294 OA
BRANCH  11  13
ATOM     13  C   UNL     1     145.907  57.230  16.972  1.00  0.00    -0.002 C 
ATOM     14  C   UNL     1     144.770  57.981  16.853  1.00  0.00    -0.069 C 
ATOM     15  C   UNL     1     143.862  58.249  18.033  1.00  0.00     0.039 C 
ATOM     16  C   UNL     1     144.365  58.586  15.527  1.00  0.00     0.039 C 
BRANCH  13  17
ATOM     17  C   UNL     1     146.297  56.564  18.282  1.00  0.00     0.066 CG0
ATOM     18  G   UNL     1     145.456  55.338  18.577  1.00  0.00     0.000 G0
ENDBRANCH  13  17
ENDBRANCH  11  13
ENDBRANCH  10  11
ENDBRANCH   1  10
TORSDOF 0
ENDMDL
MODEL 2
REMARK VINA RESULT:    15.371      1.350      2.103
REMARK INTER + INTRA:          22.263
REMARK INTER:                  20.854
REMARK INTRA:                   1.409
REMARK UNBOUND:                 0.602
REMARK SMILES CC1=CCC(=C(C)C)C(=O)CC(C)=CCC1
REMARK SMILES IDX 12 1 14 2 13 3 15 4 16 5 2 6 1 7 3 8 11 10 9 11 10 12 5 13
REMARK SMILES IDX 6 14 7 15 8 16 4 17
REMARK H PARENT
REMARK Flexibility Score: 60.00
ROOT
ATOM      1  C   UNL     1     145.067  55.653  14.744  1.00  0.00    -0.070 C 
ATOM      2  C   UNL     1     145.771  54.502  14.667  1.00  0.00    -0.027 C 
ATOM      3  C   UNL     1     145.061  56.559  13.537  1.00  0.00     0.039 C 
ENDROOT
BRANCH   2   4
ATOM      4  C   UNL     1     145.977  53.515  15.797  1.00  0.00     0.032 C 
BRANCH   4   5
ATOM      5  C   UNL     1     146.912  54.004  16.921  1.00  0.00     0.034 C 
BRANCH   5   6
ATOM      6  C   UNL     1     146.183  54.295  18.221  1.00  0.00    -0.077 C 
ATOM      7  C   UNL     1     145.398  53.173  18.852  1.00  0.00     0.039 C 
ATOM      8  C   UNL     1     146.134  55.514  18.812  1.00  0.00    -0.023 CG0
ATOM      9  G   UNL     1     146.853  56.773  18.373  1.00  0.00     0.000 G0
ENDBRANCH   5   6
ENDBRANCH   4   5
ENDBRANCH   2   4
BRANCH   1  10
ATOM     10  C   UNL     1     144.365  56.116  16.004  1.00  0.00     0.111 C 
BRANCH  10  11
ATOM     11  C   UNL     1     145.068  57.290  16.633  1.00  0.00     0.163 C 
ATOM     12  O   UNL     1     144.411  58.350  16.811  1.00  0.00    -0.294 OA
BRANCH  11  13
ATOM     13  C   UNL     1     146.518  57.258  16.990  1.00  0.00    -0.002 C 
ATOM     14  C   UNL     1     147.473  57.571  16.062  1.00  0.00    -0.069 C 
ATOM     15  C   UNL     1     148.949  57.395  16.343  1.00  0.00     0.039 C 
ATOM     16  C   UNL     1     147.096  58.109  14.699  1.00  0.00     0.039 C 
BRANCH  13  17
ATOM     17  C   UNL     1     146.881  56.774  18.385  1.00  0.00     0.066 CG0
ATOM     18  G   UNL     1     146.106  55.535  18.785  1.00  0.00     0.000 G0
ENDBRANCH  13  17
ENDBRANCH  11  13
ENDBRANCH  10  11
ENDBRANCH   1  10
TORSDOF 0
ENDMDL
MODEL 3
REMARK VINA RESULT:    15.550      1.722      3.771
REMARK INTER + INTRA:          22.515
REMARK INTER:                  21.018
REMARK INTRA:                   1.498
REMARK UNBOUND:                 0.602
REMARK SMILES CC1=CCC(=C(C)C)C(=O)CC(C)=CCC1
REMARK SMILES IDX 12 1 14 2 13 3 15 4 16 5 2 6 1 7 3 8 11 10 9 11 10 12 5 13
REMARK SMILES IDX 6 14 7 15 8 16 4 17
REMARK H PARENT
REMARK Flexibility Score: 60.00
ROOT
ATOM      1  C   UNL     1     146.254  54.195  17.067  1.00  0.00    -0.070 C 
ATOM      2  C   UNL     1     146.078  53.853  15.771  1.00  0.00    -0.027 C 
ATOM      3  C   UNL     1     147.196  53.358  17.896  1.00  0.00     0.039 C 
ENDROOT
BRANCH   2   4
ATOM      4  C   UNL     1     145.107  54.506  14.810  1.00  0.00     0.032 C 
BRANCH   4   5
ATOM      5  C   UNL     1     145.362  56.005  14.549  1.00  0.00     0.034 C 
BRANCH   5   6
ATOM      6  C   UNL     1     144.112  56.855  14.680  1.00  0.00    -0.077 C 
ATOM      7  C   UNL     1     142.946  56.532  13.779  1.00  0.00     0.039 C 
ATOM      8  C   UNL     1     143.999  57.927  15.503  1.00  0.00    -0.023 CG0
ATOM      9  G   UNL     1     145.025  58.424  16.502  1.00  0.00     0.000 G0
ENDBRANCH   5   6
ENDBRANCH   4   5
ENDBRANCH   2   4
BRANCH   1  10
ATOM     10  C   UNL     1     145.486  55.312  17.745  1.00  0.00     0.111 C 
BRANCH  10  11
ATOM     11  C   UNL     1     146.273  56.596  17.766  1.00  0.00     0.163 C 
ATOM     12  O   UNL     1     146.934  56.869  18.803  1.00  0.00    -0.294 OA
BRANCH  11  13
ATOM     13  C   UNL     1     146.245  57.571  16.636  1.00  0.00    -0.002 C 
ATOM     14  C   UNL     1     147.327  57.716  15.811  1.00  0.00    -0.069 C 
ATOM     15  C   UNL     1     147.390  58.803  14.759  1.00  0.00     0.039 C 
ATOM     16  C   UNL     1     148.521  56.793  15.913  1.00  0.00     0.039 C 
BRANCH  13  17
ATOM     17  C   UNL     1     145.012  58.451  16.506  1.00  0.00     0.066 CG0
ATOM     18  G   UNL     1     144.024  57.911  15.491  1.00  0.00     0.000 G0
ENDBRANCH  13  17
ENDBRANCH  11  13
ENDBRANCH  10  11
ENDBRANCH   1  10
TORSDOF 0
ENDMDL
MODEL 4
REMARK VINA RESULT:    15.806      1.637      4.141
REMARK INTER + INTRA:          22.877
REMARK INTER:                  18.837
REMARK INTRA:                   4.040
REMARK UNBOUND:                 0.602
REMARK SMILES CC1=CCC(=C(C)C)C(=O)CC(C)=CCC1
REMARK SMILES IDX 12 1 14 2 13 3 15 4 16 5 2 6 1 7 3 8 11 10 9 11 10 12 5 13
REMARK SMILES IDX 6 14 7 15 8 16 4 17
REMARK H PARENT
REMARK Flexibility Score: 60.00
ROOT
ATOM      1  C   UNL     1     144.450  58.011  16.108  1.00  0.00    -0.070 C 
ATOM      2  C   UNL     1     145.493  58.834  15.859  1.00  0.00    -0.027 C 
ATOM      3  C   UNL     1     143.625  58.270  17.344  1.00  0.00     0.039 C 
ENDROOT
BRANCH   2   4
ATOM      4  C   UNL     1     146.490  58.679  14.731  1.00  0.00     0.032 C 
BRANCH   4   5
ATOM      5  C   UNL     1     147.482  57.510  14.898  1.00  0.00     0.034 C 
BRANCH   5   6
ATOM      6  C   UNL     1     148.173  57.502  16.250  1.00  0.00    -0.077 C 
ATOM      7  C   UNL     1     149.586  58.025  16.319  1.00  0.00     0.039 C 
ATOM      8  C   UNL     1     147.630  56.992  17.383  1.00  0.00    -0.023 CG0
ATOM      9  G   UNL     1     146.231  56.434  17.555  1.00  0.00     0.000 G0
ENDBRANCH   5   6
ENDBRANCH   4   5
ENDBRANCH   2   4
BRANCH   1  10
ATOM     10  C   UNL     1     144.128  56.796  15.262  1.00  0.00     0.111 C 
BRANCH  10  11
ATOM     11  C   UNL     1     145.242  55.782  15.297  1.00  0.00     0.163 C 
ATOM     12  O   UNL     1     145.595  55.250  14.211  1.00  0.00    -0.294 OA
BRANCH  11  13
ATOM     13  C   UNL     1     145.891  55.350  16.570  1.00  0.00    -0.002 C 
ATOM     14  C   UNL     1     146.088  54.022  16.839  1.00  0.00    -0.069 C 
ATOM     15  C   UNL     1     146.595  53.545  18.182  1.00  0.00     0.039 C 
ATOM     16  C   UNL     1     145.803  52.961  15.799  1.00  0.00     0.039 C 
BRANCH  13  17
ATOM     17  C   UNL     1     146.230  56.433  17.582  1.00  0.00     0.066 CG0
ATOM     18  G   UNL     1     147.636  56.971  17.400  1.00  0.00     0.000 G0
ENDBRANCH  13  17
ENDBRANCH  11  13
ENDBRANCH  10  11
ENDBRANCH   1  10
TORSDOF 0
ENDMDL
MODEL 5
REMARK VINA RESULT:    15.848      1.981      4.640
REMARK INTER + INTRA:          22.935
REMARK INTER:                  19.597
REMARK INTRA:                   3.338
REMARK UNBOUND:                 0.602
REMARK SMILES CC1=CCC(=C(C)C)C(=O)CC(C)=CCC1
REMARK SMILES IDX 12 1 14 2 13 3 15 4 16 5 2 6 1 7 3 8 11 10 9 11 10 12 5 13
REMARK SMILES IDX 6 14 7 15 8 16 4 17
REMARK H PARENT
REMARK Flexibility Score: 60.00
ROOT
ATOM      1  C   UNL     1     147.552  57.504  16.296  1.00  0.00    -0.070 C 
ATOM      2  C   UNL     1     147.022  58.192  15.260  1.00  0.00    -0.027 C 
ATOM      3  C   UNL     1     148.931  56.917  16.122  1.00  0.00     0.039 C 
ENDROOT
BRANCH   2   4
ATOM      4  C   UNL     1     145.624  58.770  15.207  1.00  0.00     0.032 C 
BRANCH   4   5
ATOM      5  C   UNL     1     144.523  57.854  15.780  1.00  0.00     0.034 C 
BRANCH   5   6
ATOM      6  C   UNL     1     144.026  56.822  14.783  1.00  0.00    -0.077 C 
ATOM      7  C   UNL     1     142.686  57.062  14.134  1.00  0.00     0.039 C 
ATOM      8  C   UNL     1     144.674  55.668  14.491  1.00  0.00    -0.023 CG0
ATOM      9  G   UNL     1     146.030  55.226  15.003  1.00  0.00     0.000 G0
ENDBRANCH   5   6
ENDBRANCH   4   5
ENDBRANCH   2   4
BRANCH   1  10
ATOM     10  C   UNL     1     146.798  57.219  17.579  1.00  0.00     0.111 C 
BRANCH  10  11
ATOM     11  C   UNL     1     145.826  56.081  17.411  1.00  0.00     0.163 C 
ATOM     12  O   UNL     1     144.784  56.082  18.119  1.00  0.00    -0.294 OA
BRANCH  11  13
ATOM     13  C   UNL     1     146.085  54.935  16.490  1.00  0.00    -0.002 C 
ATOM     14  C   UNL     1     146.415  53.702  16.984  1.00  0.00    -0.069 C 
ATOM     15  C   UNL     1     146.838  52.566  16.079  1.00  0.00     0.039 C 
ATOM     16  C   UNL     1     146.376  53.416  18.469  1.00  0.00     0.039 C 
BRANCH  13  17
ATOM     17  C   UNL     1     146.060  55.222  14.998  1.00  0.00     0.066 CG0
ATOM     18  G   UNL     1     144.687  55.645  14.515  1.00  0.00     0.000 G0
ENDBRANCH  13  17
ENDBRANCH  11  13
ENDBRANCH  10  11
ENDBRANCH   1  10
TORSDOF 0
ENDMDL
MODEL 6
REMARK VINA RESULT:    15.964      1.575      2.748
REMARK INTER + INTRA:          23.098
REMARK INTER:                  21.252
REMARK INTRA:                   1.846
REMARK UNBOUND:                 0.602
REMARK SMILES CC1=CCC(=C(C)C)C(=O)CC(C)=CCC1
REMARK SMILES IDX 12 1 14 2 13 3 15 4 16 5 2 6 1 7 3 8 11 10 9 11 10 12 5 13
REMARK SMILES IDX 6 14 7 15 8 16 4 17
REMARK H PARENT
REMARK Flexibility Score: 60.00
ROOT
ATOM      1  C   UNL     1     143.271  56.766  14.380  1.00  0.00    -0.070 C 
ATOM      2  C   UNL     1     144.105  55.899  13.763  1.00  0.00    -0.027 C 
ATOM      3  C   UNL     1     142.165  57.386  13.563  1.00  0.00     0.039 C 
ENDROOT
BRANCH   2   4
ATOM      4  C   UNL     1     145.324  55.253  14.385  1.00  0.00     0.032 C 
BRANCH   4   5
ATOM      5  C   UNL     1     145.047  54.452  15.673  1.00  0.00     0.034 C 
BRANCH   5   6
ATOM      6  C   UNL     1     146.247  54.378  16.601  1.00  0.00    -0.077 C 
ATOM      7  C   UNL     1     147.082  53.123  16.569  1.00  0.00     0.039 C 
ATOM      8  C   UNL     1     146.575  55.336  17.503  1.00  0.00    -0.023 CG0
ATOM      9  G   UNL     1     145.898  56.677  17.700  1.00  0.00     0.000 G0
ENDBRANCH   5   6
ENDBRANCH   4   5
ENDBRANCH   2   4
BRANCH   1  10
ATOM     10  C   UNL     1     143.450  57.212  15.818  1.00  0.00     0.111 C 
BRANCH  10  11
ATOM     11  C   UNL     1     144.662  58.091  15.981  1.00  0.00     0.163 C 
ATOM     12  O   UNL     1     144.577  59.294  15.617  1.00  0.00    -0.294 OA
BRANCH  11  13
ATOM     13  C   UNL     1     145.964  57.572  16.497  1.00  0.00    -0.002 C 
ATOM     14  C   UNL     1     147.131  57.823  15.828  1.00  0.00    -0.069 C 
ATOM     15  C   UNL     1     148.439  57.181  16.235  1.00  0.00     0.039 C 
ATOM     16  C   UNL     1     147.168  58.757  14.639  1.00  0.00     0.039 C 
BRANCH  13  17
ATOM     17  C   UNL     1     145.920  56.685  17.731  1.00  0.00     0.066 CG0
ATOM     18  G   UNL     1     146.577  55.340  17.497  1.00  0.00     0.000 G0
ENDBRANCH  13  17
ENDBRANCH  11  13
ENDBRANCH  10  11
ENDBRANCH   1  10
TORSDOF 0
ENDMDL
MODEL 7
REMARK VINA RESULT:    16.191      1.721      4.058
REMARK INTER + INTRA:          23.419
REMARK INTER:                  20.379
REMARK INTRA:                   3.040
REMARK UNBOUND:                 0.602
REMARK SMILES CC1=CCC(=C(C)C)C(=O)CC(C)=CCC1
REMARK SMILES IDX 12 1 14 2 13 3 15 4 16 5 2 6 1 7 3 8 11 10 9 11 10 12 5 13
REMARK SMILES IDX 6 14 7 15 8 16 4 17
REMARK H PARENT
REMARK Flexibility Score: 60.00
ROOT
ATOM      1  C   UNL     1     144.520  56.346  14.721  1.00  0.00    -0.070 C 
ATOM      2  C   UNL     1     144.390  57.579  15.258  1.00  0.00    -0.027 C 
ATOM      3  C   UNL     1     143.285  55.690  14.152  1.00  0.00     0.039 C 
ENDROOT
BRANCH   2   4
ATOM      4  C   UNL     1     145.484  58.355  15.960  1.00  0.00     0.032 C 
BRANCH   4   5
ATOM      5  C   UNL     1     146.876  58.250  15.304  1.00  0.00     0.034 C 
BRANCH   5   6
ATOM      6  C   UNL     1     147.918  57.622  16.212  1.00  0.00    -0.077 C 
ATOM      7  C   UNL     1     149.366  57.962  15.958  1.00  0.00     0.039 C 
ATOM      8  C   UNL     1     147.640  56.723  17.187  1.00  0.00    -0.023 CG0
ATOM      9  G   UNL     1     146.270  56.248  17.630  1.00  0.00     0.000 G0
ENDBRANCH   5   6
ENDBRANCH   4   5
ENDBRANCH   2   4
BRANCH   1  10
ATOM     10  C   UNL     1     145.814  55.559  14.744  1.00  0.00     0.111 C 
BRANCH  10  11
ATOM     11  C   UNL     1     145.797  54.490  15.806  1.00  0.00     0.163 C 
ATOM     12  O   UNL     1     145.528  53.310  15.455  1.00  0.00    -0.294 OA
BRANCH  11  13
ATOM     13  C   UNL     1     146.024  54.792  17.250  1.00  0.00    -0.002 C 
ATOM     14  C   UNL     1     145.921  53.807  18.194  1.00  0.00    -0.069 C 
ATOM     15  C   UNL     1     145.988  54.110  19.675  1.00  0.00     0.039 C 
ATOM     16  C   UNL     1     145.730  52.359  17.800  1.00  0.00     0.039 C 
BRANCH  13  17
ATOM     17  C   UNL     1     146.277  56.243  17.627  1.00  0.00     0.066 CG0
ATOM     18  G   UNL     1     147.639  56.727  17.172  1.00  0.00     0.000 G0
ENDBRANCH  13  17
ENDBRANCH  11  13
ENDBRANCH  10  11
ENDBRANCH   1  10
TORSDOF 0
ENDMDL
MODEL 8
REMARK VINA RESULT:    16.268      1.669      4.332
REMARK INTER + INTRA:          23.527
REMARK INTER:                  21.661
REMARK INTRA:                   1.866
REMARK UNBOUND:                 0.602
REMARK SMILES CC1=CCC(=C(C)C)C(=O)CC(C)=CCC1
REMARK SMILES IDX 12 1 14 2 13 3 15 4 16 5 2 6 1 7 3 8 11 10 9 11 10 12 5 13
REMARK SMILES IDX 6 14 7 15 8 16 4 17
REMARK H PARENT
REMARK Flexibility Score: 60.00
ROOT
ATOM      1  C   UNL     1     145.038  58.458  16.289  1.00  0.00    -0.070 C 
ATOM      2  C   UNL     1     146.013  58.581  15.361  1.00  0.00    -0.027 C 
ATOM      3  C   UNL     1     144.357  59.715  16.770  1.00  0.00     0.039 C 
ENDROOT
BRANCH   2   4
ATOM      4  C   UNL     1     146.873  57.455  14.829  1.00  0.00     0.032 C 
BRANCH   4   5
ATOM      5  C   UNL     1     146.308  56.740  13.585  1.00  0.00     0.034 C 
BRANCH   5   6
ATOM      6  C   UNL     1     145.125  55.841  13.898  1.00  0.00    -0.077 C 
ATOM      7  C   UNL     1     143.853  56.057  13.119  1.00  0.00     0.039 C 
ATOM      8  C   UNL     1     145.117  54.904  14.878  1.00  0.00    -0.023 CG0
ATOM      9  G   UNL     1     146.275  54.502  15.770  1.00  0.00     0.000 G0
ENDBRANCH   5   6
ENDBRANCH   4   5
ENDBRANCH   2   4
BRANCH   1  10
ATOM     10  C   UNL     1     144.663  57.138  16.932  1.00  0.00     0.111 C 
BRANCH  10  11
ATOM     11  C   UNL     1     145.875  56.404  17.443  1.00  0.00     0.163 C 
ATOM     12  O   UNL     1     146.767  57.070  18.033  1.00  0.00    -0.294 OA
BRANCH  11  13
ATOM     13  C   UNL     1     146.079  54.941  17.222  1.00  0.00    -0.002 C 
ATOM     14  C   UNL     1     146.178  54.081  18.281  1.00  0.00    -0.069 C 
ATOM     15  C   UNL     1     146.541  52.624  18.096  1.00  0.00     0.039 C 
ATOM     16  C   UNL     1     145.930  54.549  19.698  1.00  0.00     0.039 C 
BRANCH  13  17
ATOM     17  C   UNL     1     146.264  54.474  15.787  1.00  0.00     0.066 CG0
ATOM     18  G   UNL     1     145.115  54.892  14.891  1.00  0.00     0.000 G0
ENDBRANCH  13  17
ENDBRANCH  11  13
ENDBRANCH  10  11
ENDBRANCH   1  10
TORSDOF 0
ENDMDL
MODEL 9
REMARK VINA RESULT:    16.511      1.829      3.114
REMARK INTER + INTRA:          23.869
REMARK INTER:                  21.689
REMARK INTRA:                   2.180
REMARK UNBOUND:                 0.602
REMARK SMILES CC1=CCC(=C(C)C)C(=O)CC(C)=CCC1
REMARK SMILES IDX 12 1 14 2 13 3 15 4 16 5 2 6 1 7 3 8 11 10 9 11 10 12 5 13
REMARK SMILES IDX 6 14 7 15 8 16 4 17
REMARK H PARENT
REMARK Flexibility Score: 60.00
ROOT
ATOM      1  C   UNL     1     148.232  57.456  16.315  1.00  0.00    -0.070 C 
ATOM      2  C   UNL     1     147.728  56.802  17.385  1.00  0.00    -0.027 C 
ATOM      3  C   UNL     1     149.732  57.529  16.174  1.00  0.00     0.039 C 
ENDROOT
BRANCH   2   4
ATOM      4  C   UNL     1     146.262  56.704  17.751  1.00  0.00     0.032 C 
BRANCH   4   5
ATOM      5  C   UNL     1     145.725  55.265  17.893  1.00  0.00     0.034 C 
BRANCH   5   6
ATOM      6  C   UNL     1     146.251  54.323  16.825  1.00  0.00    -0.077 C 
ATOM      7  C   UNL     1     147.292  53.311  17.235  1.00  0.00     0.039 C 
ATOM      8  C   UNL     1     145.899  54.376  15.517  1.00  0.00    -0.023 CG0
ATOM      9  G   UNL     1     144.869  55.290  14.885  1.00  0.00     0.000 G0
ENDBRANCH   5   6
ENDBRANCH   4   5
ENDBRANCH   2   4
BRANCH   1  10
ATOM     10  C   UNL     1     147.370  58.193  15.309  1.00  0.00     0.111 C 
BRANCH  10  11
ATOM     11  C   UNL     1     146.498  57.247  14.525  1.00  0.00     0.163 C 
ATOM     12  O   UNL     1     146.885  56.894  13.380  1.00  0.00    -0.294 OA
BRANCH  11  13
ATOM     13  C   UNL     1     145.176  56.771  15.031  1.00  0.00    -0.002 C 
ATOM     14  C   UNL     1     144.334  57.622  15.695  1.00  0.00    -0.069 C 
ATOM     15  C   UNL     1     143.064  57.134  16.356  1.00  0.00     0.039 C 
ATOM     16  C   UNL     1     144.637  59.100  15.802  1.00  0.00     0.039 C 
BRANCH  13  17
ATOM     17  C   UNL     1     144.857  55.295  14.861  1.00  0.00     0.066 CG0
ATOM     18  G   UNL     1     145.900  54.401  15.503  1.00  0.00     0.000 G0
ENDBRANCH  13  17
ENDBRANCH  11  13
ENDBRANCH  10  11
ENDBRANCH   1  10
TORSDOF 0
ENDMDL
