MODEL 1
REMARK VINA RESULT:    -2.459      0.000      0.000
REMARK INTER + INTRA:          -2.755
REMARK INTER:                  -2.746
REMARK INTRA:                  -0.009
REMARK UNBOUND:                -0.009
REMARK SMILES CCCC(=O)[O-]
REMARK SMILES IDX 3 1 4 2 5 3 6 4 2 5 1 6
REMARK H PARENT
REMARK Flexibility Score: inf
ROOT
ATOM      1  C   UNL     1      62.541  34.130  60.372  1.00  0.00     0.052 C 
ENDROOT
BRANCH   1   2
ATOM      2  C   UNL     1      63.952  33.788  60.744  1.00  0.00     0.041 C 
ATOM      3  O   UNL     1      64.439  32.672  60.424  1.00  0.00    -0.550 OA
ATOM      4  O   UNL     1      64.717  34.689  61.474  1.00  0.00    -0.550 OA
ENDBRANCH   1   2
BRANCH   1   5
ATOM      5  C   UNL     1      62.191  35.577  60.738  1.00  0.00     0.003 C 
ATOM      6  C   UNL     1      60.786  35.971  60.281  1.00  0.00     0.004 C 
ENDBRANCH   1   5
TORSDOF 2
ENDMDL
MODEL 2
REMARK VINA RESULT:    -2.444     14.712     15.330
REMARK INTER + INTRA:          -2.739
REMARK INTER:                  -2.730
REMARK INTRA:                  -0.009
REMARK UNBOUND:                -0.009
REMARK SMILES CCCC(=O)[O-]
REMARK SMILES IDX 3 1 4 2 5 3 6 4 2 5 1 6
REMARK H PARENT
REMARK Flexibility Score: inf
ROOT
ATOM      1  C   UNL     1      55.503  27.852  50.122  1.00  0.00     0.052 C 
ENDROOT
BRANCH   1   2
ATOM      2  C   UNL     1      55.863  26.446  49.748  1.00  0.00     0.041 C 
ATOM      3  O   UNL     1      56.976  25.966  50.086  1.00  0.00    -0.550 OA
ATOM      4  O   UNL     1      54.982  25.679  48.996  1.00  0.00    -0.550 OA
ENDBRANCH   1   2
BRANCH   1   5
ATOM      5  C   UNL     1      54.072  28.205  49.699  1.00  0.00     0.003 C 
ATOM      6  C   UNL     1      53.681  29.628  50.098  1.00  0.00     0.004 C 
ENDBRANCH   1   5
TORSDOF 2
ENDMDL
MODEL 3
REMARK VINA RESULT:    -2.427      3.689      4.341
REMARK INTER + INTRA:          -2.719
REMARK INTER:                  -2.688
REMARK INTRA:                  -0.032
REMARK UNBOUND:                -0.009
REMARK SMILES CCCC(=O)[O-]
REMARK SMILES IDX 3 1 4 2 5 3 6 4 2 5 1 6
REMARK H PARENT
REMARK Flexibility Score: inf
ROOT
ATOM      1  C   UNL     1      61.081  30.662  61.453  1.00  0.00     0.052 C 
ENDROOT
BRANCH   1   2
ATOM      2  C   UNL     1      62.182  29.646  61.410  1.00  0.00     0.041 C 
ATOM      3  O   UNL     1      61.910  28.417  61.426  1.00  0.00    -0.550 OA
ATOM      4  O   UNL     1      63.509  30.057  61.386  1.00  0.00    -0.550 OA
ENDBRANCH   1   2
BRANCH   1   5
ATOM      5  C   UNL     1      61.038  31.508  60.174  1.00  0.00     0.003 C 
ATOM      6  C   UNL     1      61.682  32.881  60.363  1.00  0.00     0.004 C 
ENDBRANCH   1   5
TORSDOF 2
ENDMDL
MODEL 4
REMARK VINA RESULT:    -2.410      1.951      2.307
REMARK INTER + INTRA:          -2.701
REMARK INTER:                  -2.695
REMARK INTRA:                  -0.006
REMARK UNBOUND:                -0.009
REMARK SMILES CCCC(=O)[O-]
REMARK SMILES IDX 3 1 4 2 5 3 6 4 2 5 1 6
REMARK H PARENT
REMARK Flexibility Score: inf
ROOT
ATOM      1  C   UNL     1      64.135  34.459  61.034  1.00  0.00     0.052 C 
ENDROOT
BRANCH   1   2
ATOM      2  C   UNL     1      65.010  35.655  61.252  1.00  0.00     0.041 C 
ATOM      3  O   UNL     1      66.182  35.676  60.792  1.00  0.00    -0.550 OA
ATOM      4  O   UNL     1      64.543  36.733  61.994  1.00  0.00    -0.550 OA
ENDBRANCH   1   2
BRANCH   1   5
ATOM      5  C   UNL     1      62.716  34.861  60.615  1.00  0.00     0.003 C 
ATOM      6  C   UNL     1      61.845  33.653  60.270  1.00  0.00     0.004 C 
ENDBRANCH   1   5
TORSDOF 2
ENDMDL
MODEL 5
REMARK VINA RESULT:    -2.368      3.263      3.980
REMARK INTER + INTRA:          -2.654
REMARK INTER:                  -2.633
REMARK INTRA:                  -0.021
REMARK UNBOUND:                -0.009
REMARK SMILES CCCC(=O)[O-]
REMARK SMILES IDX 3 1 4 2 5 3 6 4 2 5 1 6
REMARK H PARENT
REMARK Flexibility Score: inf
ROOT
ATOM      1  C   UNL     1      62.400  31.544  60.590  1.00  0.00     0.052 C 
ENDROOT
BRANCH   1   2
ATOM      2  C   UNL     1      61.649  30.493  61.350  1.00  0.00     0.041 C 
ATOM      3  O   UNL     1      60.543  30.768  61.886  1.00  0.00    -0.550 OA
ATOM      4  O   UNL     1      62.186  29.220  61.495  1.00  0.00    -0.550 OA
ENDBRANCH   1   2
BRANCH   1   5
ATOM      5  C   UNL     1      61.510  32.744  60.248  1.00  0.00     0.003 C 
ATOM      6  C   UNL     1      62.259  34.073  60.350  1.00  0.00     0.004 C 
ENDBRANCH   1   5
TORSDOF 2
ENDMDL
MODEL 6
REMARK VINA RESULT:    -2.363     12.690     13.255
REMARK INTER + INTRA:          -2.649
REMARK INTER:                  -2.622
REMARK INTRA:                  -0.026
REMARK UNBOUND:                -0.009
REMARK SMILES CCCC(=O)[O-]
REMARK SMILES IDX 3 1 4 2 5 3 6 4 2 5 1 6
REMARK H PARENT
REMARK Flexibility Score: inf
ROOT
ATOM      1  C   UNL     1      59.533  29.173  48.997  1.00  0.00     0.052 C 
ENDROOT
BRANCH   1   2
ATOM      2  C   UNL     1      60.425  27.970  49.053  1.00  0.00     0.041 C 
ATOM      3  O   UNL     1      59.929  26.817  49.148  1.00  0.00    -0.550 OA
ATOM      4  O   UNL     1      61.806  28.126  49.035  1.00  0.00    -0.550 OA
ENDBRANCH   1   2
BRANCH   1   5
ATOM      5  C   UNL     1      58.796  29.396  50.323  1.00  0.00     0.003 C 
ATOM      6  C   UNL     1      57.355  28.885  50.281  1.00  0.00     0.004 C 
ENDBRANCH   1   5
TORSDOF 2
ENDMDL
MODEL 7
REMARK VINA RESULT:    -2.335     13.261     13.501
REMARK INTER + INTRA:          -2.617
REMARK INTER:                  -2.592
REMARK INTRA:                  -0.024
REMARK UNBOUND:                -0.009
REMARK SMILES CCCC(=O)[O-]
REMARK SMILES IDX 3 1 4 2 5 3 6 4 2 5 1 6
REMARK H PARENT
REMARK Flexibility Score: inf
ROOT
ATOM      1  C   UNL     1      58.640  27.960  50.152  1.00  0.00     0.052 C 
ENDROOT
BRANCH   1   2
ATOM      2  C   UNL     1      59.590  28.619  49.198  1.00  0.00     0.041 C 
ATOM      3  O   UNL     1      59.299  29.728  48.679  1.00  0.00    -0.550 OA
ATOM      4  O   UNL     1      60.782  27.991  48.857  1.00  0.00    -0.550 OA
ENDBRANCH   1   2
BRANCH   1   5
ATOM      5  C   UNL     1      57.372  28.797  50.359  1.00  0.00     0.003 C 
ATOM      6  C   UNL     1      56.096  27.966  50.218  1.00  0.00     0.004 C 
ENDBRANCH   1   5
TORSDOF 2
ENDMDL
MODEL 8
REMARK VINA RESULT:    -2.266      2.159      3.018
REMARK INTER + INTRA:          -2.539
REMARK INTER:                  -2.501
REMARK INTRA:                  -0.038
REMARK UNBOUND:                -0.009
REMARK SMILES CCCC(=O)[O-]
REMARK SMILES IDX 3 1 4 2 5 3 6 4 2 5 1 6
REMARK H PARENT
REMARK Flexibility Score: inf
ROOT
ATOM      1  C   UNL     1      63.850  34.033  60.736  1.00  0.00     0.052 C 
ENDROOT
BRANCH   1   2
ATOM      2  C   UNL     1      62.434  34.499  60.585  1.00  0.00     0.041 C 
ATOM      3  O   UNL     1      61.549  33.712  60.158  1.00  0.00    -0.550 OA
ATOM      4  O   UNL     1      62.098  35.814  60.884  1.00  0.00    -0.550 OA
ENDBRANCH   1   2
BRANCH   1   5
ATOM      5  C   UNL     1      64.708  35.056  61.490  1.00  0.00     0.003 C 
ATOM      6  C   UNL     1      65.752  35.717  60.589  1.00  0.00     0.004 C 
ENDBRANCH   1   5
TORSDOF 2
ENDMDL
MODEL 9
REMARK VINA RESULT:    -2.252      1.934      2.916
REMARK INTER + INTRA:          -2.524
REMARK INTER:                  -2.509
REMARK INTRA:                  -0.015
REMARK UNBOUND:                -0.009
REMARK SMILES CCCC(=O)[O-]
REMARK SMILES IDX 3 1 4 2 5 3 6 4 2 5 1 6
REMARK H PARENT
REMARK Flexibility Score: inf
ROOT
ATOM      1  C   UNL     1      61.705  33.800  60.218  1.00  0.00     0.052 C 
ENDROOT
BRANCH   1   2
ATOM      2  C   UNL     1      62.734  34.765  60.724  1.00  0.00     0.041 C 
ATOM      3  O   UNL     1      62.436  35.975  60.898  1.00  0.00    -0.550 OA
ATOM      4  O   UNL     1      64.032  34.334  60.969  1.00  0.00    -0.550 OA
ENDBRANCH   1   2
BRANCH   1   5
ATOM      5  C   UNL     1      62.179  32.347  60.342  1.00  0.00     0.003 C 
ATOM      6  C   UNL     1      61.089  31.423  60.886  1.00  0.00     0.004 C 
ENDBRANCH   1   5
TORSDOF 2
ENDMDL
