MODEL 1
REMARK VINA RESULT:    -2.634      0.000      0.000
REMARK INTER + INTRA:          -4.158
REMARK INTER:                  -3.788
REMARK INTRA:                  -0.370
REMARK UNBOUND:                -0.370
REMARK SMILES CCCCCCCCCO
REMARK SMILES IDX 6 1 5 2 4 3 3 4 2 5 1 6 7 7 8 8 9 9 10 10
REMARK H PARENT 10 11
REMARK Flexibility Score: inf
ROOT
ATOM      1  C   UNL     1     115.635 121.432 107.922  1.00  0.00     0.000 C 
ENDROOT
BRANCH   1   2
ATOM      2  C   UNL     1     117.069 121.947 108.117  1.00  0.00     0.000 C 
BRANCH   2   3
ATOM      3  C   UNL     1     117.116 123.428 108.528  1.00  0.00    -0.000 C 
BRANCH   3   4
ATOM      4  C   UNL     1     117.699 124.329 107.428  1.00  0.00    -0.000 C 
BRANCH   4   5
ATOM      5  C   UNL     1     117.364 125.802 107.693  1.00  0.00    -0.003 C 
ATOM      6  C   UNL     1     115.863 126.001 107.883  1.00  0.00     0.004 C 
ENDBRANCH   4   5
ENDBRANCH   3   4
ENDBRANCH   2   3
ENDBRANCH   1   2
BRANCH   1   7
ATOM      7  C   UNL     1     114.697 122.007 108.995  1.00  0.00     0.002 C 
BRANCH   7   8
ATOM      8  C   UNL     1     113.285 121.399 108.937  1.00  0.00     0.028 C 
BRANCH   8   9
ATOM      9  C   UNL     1     113.241 119.910 109.306  1.00  0.00     0.156 C 
BRANCH   9  10
ATOM     10  O   UNL     1     113.743 119.695 110.598  1.00  0.00    -0.396 OA
ATOM     11  H   UNL     1     113.478 118.772 110.855  1.00  0.00     0.210 HD
ENDBRANCH   9  10
ENDBRANCH   8   9
ENDBRANCH   7   8
ENDBRANCH   1   7
TORSDOF 8
ENDMDL
MODEL 2
REMARK VINA RESULT:    -2.624      8.537     10.186
REMARK INTER + INTRA:          -4.144
REMARK INTER:                  -3.737
REMARK INTRA:                  -0.407
REMARK UNBOUND:                -0.370
REMARK SMILES CCCCCCCCCO
REMARK SMILES IDX 6 1 5 2 4 3 3 4 2 5 1 6 7 7 8 8 9 9 10 10
REMARK H PARENT 10 11
REMARK Flexibility Score: inf
ROOT
ATOM      1  C   UNL     1     110.169 115.287 107.691  1.00  0.00     0.000 C 
ENDROOT
BRANCH   1   2
ATOM      2  C   UNL     1     110.090 116.821 107.665  1.00  0.00     0.000 C 
BRANCH   2   3
ATOM      3  C   UNL     1     108.728 117.336 107.170  1.00  0.00    -0.000 C 
BRANCH   3   4
ATOM      4  C   UNL     1     107.707 117.497 108.306  1.00  0.00    -0.000 C 
BRANCH   4   5
ATOM      5  C   UNL     1     106.292 117.160 107.823  1.00  0.00    -0.003 C 
ATOM      6  C   UNL     1     106.043 115.654 107.851  1.00  0.00     0.004 C 
ENDBRANCH   4   5
ENDBRANCH   3   4
ENDBRANCH   2   3
ENDBRANCH   1   2
BRANCH   1   7
ATOM      7  C   UNL     1     110.059 114.758 109.130  1.00  0.00     0.002 C 
BRANCH   7   8
ATOM      8  C   UNL     1     110.350 113.251 109.232  1.00  0.00     0.028 C 
BRANCH   8   9
ATOM      9  C   UNL     1     111.811 112.929 109.574  1.00  0.00     0.156 C 
BRANCH   9  10
ATOM     10  O   UNL     1     112.284 113.757 110.602  1.00  0.00    -0.396 OA
ATOM     11  H   UNL     1     112.277 113.211 111.432  1.00  0.00     0.210 HD
ENDBRANCH   9  10
ENDBRANCH   8   9
ENDBRANCH   7   8
ENDBRANCH   1   7
TORSDOF 8
ENDMDL
MODEL 3
REMARK VINA RESULT:    -2.609      6.959      8.122
REMARK INTER + INTRA:          -4.123
REMARK INTER:                  -3.758
REMARK INTRA:                  -0.365
REMARK UNBOUND:                -0.370
REMARK SMILES CCCCCCCCCO
REMARK SMILES IDX 6 1 5 2 4 3 3 4 2 5 1 6 7 7 8 8 9 9 10 10
REMARK H PARENT 10 11
REMARK Flexibility Score: inf
ROOT
ATOM      1  C   UNL     1     123.803 120.073 108.571  1.00  0.00     0.000 C 
ENDROOT
BRANCH   1   2
ATOM      2  C   UNL     1     123.625 120.915 109.843  1.00  0.00     0.000 C 
BRANCH   2   3
ATOM      3  C   UNL     1     124.581 122.119 109.896  1.00  0.00    -0.000 C 
BRANCH   3   4
ATOM      4  C   UNL     1     125.620 122.100 108.765  1.00  0.00    -0.000 C 
BRANCH   4   5
ATOM      5  C   UNL     1     125.727 123.476 108.097  1.00  0.00    -0.003 C 
ATOM      6  C   UNL     1     125.247 123.425 106.649  1.00  0.00     0.004 C 
ENDBRANCH   4   5
ENDBRANCH   3   4
ENDBRANCH   2   3
ENDBRANCH   1   2
BRANCH   1   7
ATOM      7  C   UNL     1     122.691 119.019 108.452  1.00  0.00     0.002 C 
BRANCH   7   8
ATOM      8  C   UNL     1     121.844 118.903 109.730  1.00  0.00     0.028 C 
BRANCH   8   9
ATOM      9  C   UNL     1     120.364 118.596 109.461  1.00  0.00     0.156 C 
BRANCH   9  10
ATOM     10  O   UNL     1     119.693 118.264 110.647  1.00  0.00    -0.396 OA
ATOM     11  H   UNL     1     118.772 117.998 110.387  1.00  0.00     0.210 HD
ENDBRANCH   9  10
ENDBRANCH   8   9
ENDBRANCH   7   8
ENDBRANCH   1   7
TORSDOF 8
ENDMDL
MODEL 4
REMARK VINA RESULT:    -2.607     11.631     14.031
REMARK INTER + INTRA:          -4.120
REMARK INTER:                  -3.514
REMARK INTRA:                  -0.606
REMARK UNBOUND:                -0.370
REMARK SMILES CCCCCCCCCO
REMARK SMILES IDX 6 1 5 2 4 3 3 4 2 5 1 6 7 7 8 8 9 9 10 10
REMARK H PARENT 10 11
REMARK Flexibility Score: inf
ROOT
ATOM      1  C   UNL     1     117.275 110.439 107.713  1.00  0.00     0.000 C 
ENDROOT
BRANCH   1   2
ATOM      2  C   UNL     1     115.744 110.390 107.827  1.00  0.00     0.000 C 
BRANCH   2   3
ATOM      3  C   UNL     1     115.253 109.233 108.714  1.00  0.00    -0.000 C 
BRANCH   3   4
ATOM      4  C   UNL     1     114.529 108.140 107.914  1.00  0.00    -0.000 C 
BRANCH   4   5
ATOM      5  C   UNL     1     115.315 106.824 107.951  1.00  0.00    -0.003 C 
ATOM      6  C   UNL     1     116.349 106.767 106.830  1.00  0.00     0.004 C 
ENDBRANCH   4   5
ENDBRANCH   3   4
ENDBRANCH   2   3
ENDBRANCH   1   2
BRANCH   1   7
ATOM      7  C   UNL     1     117.933 109.547 108.777  1.00  0.00     0.002 C 
BRANCH   7   8
ATOM      8  C   UNL     1     119.048 110.269 109.550  1.00  0.00     0.028 C 
BRANCH   8   9
ATOM      9  C   UNL     1     118.936 111.800 109.506  1.00  0.00     0.156 C 
BRANCH   9  10
ATOM     10  O   UNL     1     118.273 112.291 110.640  1.00  0.00    -0.396 OA
ATOM     11  H   UNL     1     117.657 111.572 110.942  1.00  0.00     0.210 HD
ENDBRANCH   9  10
ENDBRANCH   8   9
ENDBRANCH   7   8
ENDBRANCH   1   7
TORSDOF 8
ENDMDL
MODEL 5
REMARK VINA RESULT:    -2.606     11.657     14.032
REMARK INTER + INTRA:          -4.118
REMARK INTER:                  -3.762
REMARK INTRA:                  -0.356
REMARK UNBOUND:                -0.370
REMARK SMILES CCCCCCCCCO
REMARK SMILES IDX 6 1 5 2 4 3 3 4 2 5 1 6 7 7 8 8 9 9 10 10
REMARK H PARENT 10 11
REMARK Flexibility Score: inf
ROOT
ATOM      1  C   UNL     1     116.247 110.659 107.725  1.00  0.00     0.000 C 
ENDROOT
BRANCH   1   2
ATOM      2  C   UNL     1     114.875 109.986 107.883  1.00  0.00     0.000 C 
BRANCH   2   3
ATOM      3  C   UNL     1     114.919 108.760 108.811  1.00  0.00    -0.000 C 
BRANCH   3   4
ATOM      4  C   UNL     1     114.412 107.482 108.128  1.00  0.00    -0.000 C 
BRANCH   4   5
ATOM      5  C   UNL     1     114.322 107.672 106.609  1.00  0.00    -0.003 C 
ATOM      6  C   UNL     1     113.622 106.489 105.946  1.00  0.00     0.004 C 
ENDBRANCH   4   5
ENDBRANCH   3   4
ENDBRANCH   2   3
ENDBRANCH   1   2
BRANCH   1   7
ATOM      7  C   UNL     1     117.143 110.366 108.939  1.00  0.00     0.002 C 
BRANCH   7   8
ATOM      8  C   UNL     1     118.620 110.712 108.683  1.00  0.00     0.028 C 
BRANCH   8   9
ATOM      9  C   UNL     1     119.156 111.827 109.591  1.00  0.00     0.156 C 
BRANCH   9  10
ATOM     10  O   UNL     1     118.206 112.197 110.553  1.00  0.00    -0.396 OA
ATOM     11  H   UNL     1     117.649 112.909 110.142  1.00  0.00     0.210 HD
ENDBRANCH   9  10
ENDBRANCH   8   9
ENDBRANCH   7   8
ENDBRANCH   1   7
TORSDOF 8
ENDMDL
MODEL 6
REMARK VINA RESULT:    -2.602      1.661      2.436
REMARK INTER + INTRA:          -4.113
REMARK INTER:                  -3.508
REMARK INTRA:                  -0.605
REMARK UNBOUND:                -0.370
REMARK SMILES CCCCCCCCCO
REMARK SMILES IDX 6 1 5 2 4 3 3 4 2 5 1 6 7 7 8 8 9 9 10 10
REMARK H PARENT 10 11
REMARK Flexibility Score: inf
ROOT
ATOM      1  C   UNL     1     113.359 123.932 108.143  1.00  0.00     0.000 C 
ENDROOT
BRANCH   1   2
ATOM      2  C   UNL     1     113.833 123.605 106.719  1.00  0.00     0.000 C 
BRANCH   2   3
ATOM      3  C   UNL     1     115.327 123.904 106.508  1.00  0.00    -0.000 C 
BRANCH   3   4
ATOM      4  C   UNL     1     115.922 124.766 107.632  1.00  0.00    -0.000 C 
BRANCH   4   5
ATOM      5  C   UNL     1     117.217 124.145 108.170  1.00  0.00    -0.003 C 
ATOM      6  C   UNL     1     116.990 122.707 108.629  1.00  0.00     0.004 C 
ENDBRANCH   4   5
ENDBRANCH   3   4
ENDBRANCH   2   3
ENDBRANCH   1   2
BRANCH   1   7
ATOM      7  C   UNL     1     112.634 122.730 108.768  1.00  0.00     0.002 C 
BRANCH   7   8
ATOM      8  C   UNL     1     113.534 121.923 109.719  1.00  0.00     0.028 C 
BRANCH   8   9
ATOM      9  C   UNL     1     113.468 120.407 109.490  1.00  0.00     0.156 C 
BRANCH   9  10
ATOM     10  O   UNL     1     113.766 119.704 110.667  1.00  0.00    -0.396 OA
ATOM     11  H   UNL     1     114.445 120.242 111.153  1.00  0.00     0.210 HD
ENDBRANCH   9  10
ENDBRANCH   8   9
ENDBRANCH   7   8
ENDBRANCH   1   7
TORSDOF 8
ENDMDL
MODEL 7
REMARK VINA RESULT:    -2.560      8.161     10.041
REMARK INTER + INTRA:          -4.053
REMARK INTER:                  -3.538
REMARK INTRA:                  -0.515
REMARK UNBOUND:                -0.370
REMARK SMILES CCCCCCCCCO
REMARK SMILES IDX 6 1 5 2 4 3 3 4 2 5 1 6 7 7 8 8 9 9 10 10
REMARK H PARENT 10 11
REMARK Flexibility Score: inf
ROOT
ATOM      1  C   UNL     1     122.893 117.412 107.098  1.00  0.00     0.000 C 
ENDROOT
BRANCH   1   2
ATOM      2  C   UNL     1     121.923 116.233 106.933  1.00  0.00     0.000 C 
BRANCH   2   3
ATOM      3  C   UNL     1     122.607 114.869 107.128  1.00  0.00    -0.000 C 
BRANCH   3   4
ATOM      4  C   UNL     1     123.413 114.793 108.434  1.00  0.00    -0.000 C 
BRANCH   4   5
ATOM      5  C   UNL     1     124.889 114.494 108.149  1.00  0.00    -0.003 C 
ATOM      6  C   UNL     1     125.114 114.181 106.672  1.00  0.00     0.004 C 
ENDBRANCH   4   5
ENDBRANCH   3   4
ENDBRANCH   2   3
ENDBRANCH   1   2
BRANCH   1   7
ATOM      7  C   UNL     1     122.261 118.528 107.944  1.00  0.00     0.002 C 
BRANCH   7   8
ATOM      8  C   UNL     1     121.564 117.993 109.207  1.00  0.00     0.028 C 
BRANCH   8   9
ATOM      9  C   UNL     1     120.331 118.808 109.620  1.00  0.00     0.156 C 
BRANCH   9  10
ATOM     10  O   UNL     1     119.676 118.216 110.711  1.00  0.00    -0.396 OA
ATOM     11  H   UNL     1     118.920 117.693 110.337  1.00  0.00     0.210 HD
ENDBRANCH   9  10
ENDBRANCH   8   9
ENDBRANCH   7   8
ENDBRANCH   1   7
TORSDOF 8
ENDMDL
MODEL 8
REMARK VINA RESULT:    -2.509      8.799     11.096
REMARK INTER + INTRA:          -3.978
REMARK INTER:                  -3.410
REMARK INTRA:                  -0.568
REMARK UNBOUND:                -0.370
REMARK SMILES CCCCCCCCCO
REMARK SMILES IDX 6 1 5 2 4 3 3 4 2 5 1 6 7 7 8 8 9 9 10 10
REMARK H PARENT 10 11
REMARK Flexibility Score: inf
ROOT
ATOM      1  C   UNL     1     108.357 112.856 107.833  1.00  0.00     0.000 C 
ENDROOT
BRANCH   1   2
ATOM      2  C   UNL     1     106.971 113.439 108.148  1.00  0.00     0.000 C 
BRANCH   2   3
ATOM      3  C   UNL     1     106.676 114.726 107.359  1.00  0.00    -0.000 C 
BRANCH   3   4
ATOM      4  C   UNL     1     107.931 115.579 107.127  1.00  0.00    -0.000 C 
BRANCH   4   5
ATOM      5  C   UNL     1     107.985 116.752 108.112  1.00  0.00    -0.003 C 
ATOM      6  C   UNL     1     109.420 117.043 108.547  1.00  0.00     0.004 C 
ENDBRANCH   4   5
ENDBRANCH   3   4
ENDBRANCH   2   3
ENDBRANCH   1   2
BRANCH   1   7
ATOM      7  C   UNL     1     109.127 112.545 109.126  1.00  0.00     0.002 C 
BRANCH   7   8
ATOM      8  C   UNL     1     110.220 113.583 109.431  1.00  0.00     0.028 C 
BRANCH   8   9
ATOM      9  C   UNL     1     111.589 112.961 109.740  1.00  0.00     0.156 C 
BRANCH   9  10
ATOM     10  O   UNL     1     112.307 113.748 110.652  1.00  0.00    -0.396 OA
ATOM     11  H   UNL     1     113.132 114.044 110.184  1.00  0.00     0.210 HD
ENDBRANCH   9  10
ENDBRANCH   8   9
ENDBRANCH   7   8
ENDBRANCH   1   7
TORSDOF 8
ENDMDL
MODEL 9
REMARK VINA RESULT:    -2.491     13.337     15.199
REMARK INTER + INTRA:          -3.953
REMARK INTER:                  -3.479
REMARK INTRA:                  -0.474
REMARK UNBOUND:                -0.370
REMARK SMILES CCCCCCCCCO
REMARK SMILES IDX 6 1 5 2 4 3 3 4 2 5 1 6 7 7 8 8 9 9 10 10
REMARK H PARENT 10 11
REMARK Flexibility Score: inf
ROOT
ATOM      1  C   UNL     1     119.517 108.708 108.122  1.00  0.00     0.000 C 
ENDROOT
BRANCH   1   2
ATOM      2  C   UNL     1     119.078 107.240 108.231  1.00  0.00     0.000 C 
BRANCH   2   3
ATOM      3  C   UNL     1     120.260 106.283 108.459  1.00  0.00    -0.000 C 
BRANCH   3   4
ATOM      4  C   UNL     1     121.557 106.777 107.801  1.00  0.00    -0.000 C 
BRANCH   4   5
ATOM      5  C   UNL     1     122.721 106.750 108.798  1.00  0.00    -0.003 C 
ATOM      6  C   UNL     1     122.277 107.227 110.178  1.00  0.00     0.004 C 
ENDBRANCH   4   5
ENDBRANCH   3   4
ENDBRANCH   2   3
ENDBRANCH   1   2
BRANCH   1   7
ATOM      7  C   UNL     1     119.394 109.419 109.479  1.00  0.00     0.002 C 
BRANCH   7   8
ATOM      8  C   UNL     1     118.132 110.292 109.579  1.00  0.00     0.028 C 
BRANCH   8   9
ATOM      9  C   UNL     1     118.421 111.799 109.518  1.00  0.00     0.156 C 
BRANCH   9  10
ATOM     10  O   UNL     1     118.240 112.400 110.772  1.00  0.00    -0.396 OA
ATOM     11  H   UNL     1     118.429 113.367 110.652  1.00  0.00     0.210 HD
ENDBRANCH   9  10
ENDBRANCH   8   9
ENDBRANCH   7   8
ENDBRANCH   1   7
TORSDOF 8
ENDMDL
