MODEL 1
REMARK VINA RESULT:    -4.481      0.000      0.000
REMARK INTER + INTRA:          -5.731
REMARK INTER:                  -5.397
REMARK INTRA:                  -0.333
REMARK UNBOUND:                -0.333
REMARK SMILES O=c1c(O)c(-c2ccc(O)c(O)c2)oc2cc(O)cc(O)c12
REMARK SMILES IDX 5 1 3 2 2 3 1 4 22 5 20 6 19 7 17 8 16 9 15 10 14 11 6 12
REMARK SMILES IDX 7 13 8 14 9 15 13 16 11 17 10 18 12 20 4 22 21 24 18 26
REMARK H PARENT 10 19 12 21 4 23 21 25 18 27
REMARK Flexibility Score: inf
ROOT
ATOM      1  C   UNL     1      25.143  33.213  40.101  1.00  0.00     0.180 A 
ATOM      2  C   UNL     1      24.644  33.939  39.006  1.00  0.00     0.208 A 
ATOM      3  C   UNL     1      24.708  35.341  39.032  1.00  0.00     0.238 A 
ATOM      4  O   UNL     1      24.310  35.984  38.026  1.00  0.00    -0.285 OA
ATOM      5  C   UNL     1      25.256  36.001  40.159  1.00  0.00     0.111 A 
ATOM      6  C   UNL     1      25.336  37.419  40.310  1.00  0.00     0.134 A 
ATOM      7  C   UNL     1      26.016  37.959  41.408  1.00  0.00     0.093 A 
ATOM      8  C   UNL     1      26.562  37.135  42.394  1.00  0.00     0.123 A 
ATOM      9  C   UNL     1      26.439  35.751  42.285  1.00  0.00     0.094 A 
ATOM     10  C   UNL     1      25.797  35.181  41.183  1.00  0.00     0.146 A 
ATOM     11  O   UNL     1      25.711  33.859  41.114  1.00  0.00    -0.452 OA
ENDROOT
BRANCH   1  12
ATOM     12  C   UNL     1      25.087  31.735  40.158  1.00  0.00     0.025 A 
ATOM     13  C   UNL     1      23.960  31.064  40.665  1.00  0.00     0.016 A 
ATOM     14  C   UNL     1      23.938  29.669  40.731  1.00  0.00     0.051 A 
ATOM     15  C   UNL     1      25.046  28.924  40.306  1.00  0.00     0.157 A 
ATOM     16  C   UNL     1      26.202  30.984  39.753  1.00  0.00     0.062 A 
ATOM     17  C   UNL     1      26.185  29.586  39.818  1.00  0.00     0.158 A 
BRANCH  15  18
ATOM     18  O   UNL     1      25.021  27.531  40.372  1.00  0.00    -0.504 OA
ATOM     19  H   UNL     1      24.877  26.963  39.546  1.00  0.00     0.293 HD
ENDBRANCH  15  18
BRANCH  17  20
ATOM     20  O   UNL     1      27.306  28.874  39.393  1.00  0.00    -0.504 OA
ATOM     21  H   UNL     1      27.941  28.431  40.045  1.00  0.00     0.293 HD
ENDBRANCH  17  20
ENDBRANCH   1  12
BRANCH   2  22
ATOM     22  O   UNL     1      24.127  33.268  37.895  1.00  0.00    -0.502 OA
ATOM     23  H   UNL     1      23.132  33.169  37.734  1.00  0.00     0.293 HD
ENDBRANCH   2  22
BRANCH   6  24
ATOM     24  O   UNL     1      24.744  38.331  39.430  1.00  0.00    -0.507 OA
ATOM     25  H   UNL     1      24.126  38.081  38.673  1.00  0.00     0.293 HD
ENDBRANCH   6  24
BRANCH   8  26
ATOM     26  O   UNL     1      27.225  37.682  43.491  1.00  0.00    -0.508 OA
ATOM     27  H   UNL     1      27.710  37.098  44.162  1.00  0.00     0.293 HD
ENDBRANCH   8  26
TORSDOF 6
ENDMDL
MODEL 2
REMARK VINA RESULT:    -4.077      1.546      7.152
REMARK INTER + INTRA:          -5.245
REMARK INTER:                  -4.967
REMARK INTRA:                  -0.277
REMARK UNBOUND:                -0.333
REMARK SMILES O=c1c(O)c(-c2ccc(O)c(O)c2)oc2cc(O)cc(O)c12
REMARK SMILES IDX 5 1 3 2 2 3 1 4 22 5 20 6 19 7 17 8 16 9 15 10 14 11 6 12
REMARK SMILES IDX 7 13 8 14 9 15 13 16 11 17 10 18 12 20 4 22 21 24 18 26
REMARK H PARENT 10 19 12 21 4 23 21 25 18 27
REMARK Flexibility Score: inf
ROOT
ATOM      1  C   UNL     1      26.156  32.646  39.661  1.00  0.00     0.180 A 
ATOM      2  C   UNL     1      27.427  32.224  39.235  1.00  0.00     0.208 A 
ATOM      3  C   UNL     1      27.748  30.860  39.297  1.00  0.00     0.238 A 
ATOM      4  O   UNL     1      28.868  30.481  38.864  1.00  0.00    -0.285 OA
ATOM      5  C   UNL     1      26.801  29.934  39.799  1.00  0.00     0.111 A 
ATOM      6  C   UNL     1      27.034  28.534  39.945  1.00  0.00     0.134 A 
ATOM      7  C   UNL     1      25.980  27.695  40.329  1.00  0.00     0.093 A 
ATOM      8  C   UNL     1      24.721  28.215  40.637  1.00  0.00     0.123 A 
ATOM      9  C   UNL     1      24.500  29.589  40.554  1.00  0.00     0.094 A 
ATOM     10  C   UNL     1      25.522  30.447  40.139  1.00  0.00     0.146 A 
ATOM     11  O   UNL     1      25.266  31.746  40.065  1.00  0.00    -0.452 OA
ENDROOT
BRANCH   1  12
ATOM     12  C   UNL     1      25.753  34.071  39.649  1.00  0.00     0.025 A 
ATOM     13  C   UNL     1      24.933  34.591  38.632  1.00  0.00     0.016 A 
ATOM     14  C   UNL     1      24.584  35.944  38.629  1.00  0.00     0.051 A 
ATOM     15  C   UNL     1      25.060  36.799  39.631  1.00  0.00     0.157 A 
ATOM     16  C   UNL     1      26.245  34.937  40.639  1.00  0.00     0.062 A 
ATOM     17  C   UNL     1      25.898  36.293  40.639  1.00  0.00     0.158 A 
BRANCH  15  18
ATOM     18  O   UNL     1      24.710  38.150  39.625  1.00  0.00    -0.504 OA
ATOM     19  H   UNL     1      24.211  38.571  40.399  1.00  0.00     0.293 HD
ENDBRANCH  15  18
BRANCH  17  20
ATOM     20  O   UNL     1      26.394  37.120  41.646  1.00  0.00    -0.504 OA
ATOM     21  H   UNL     1      26.646  38.086  41.475  1.00  0.00     0.293 HD
ENDBRANCH  17  20
ENDBRANCH   1  12
BRANCH   2  22
ATOM     22  O   UNL     1      28.339  33.151  38.723  1.00  0.00    -0.502 OA
ATOM     23  H   UNL     1      28.390  33.376  37.736  1.00  0.00     0.293 HD
ENDBRANCH   2  22
BRANCH   6  24
ATOM     24  O   UNL     1      28.278  27.925  39.752  1.00  0.00    -0.507 OA
ATOM     25  H   UNL     1      29.076  28.372  39.327  1.00  0.00     0.293 HD
ENDBRANCH   6  24
BRANCH   8  26
ATOM     26  O   UNL     1      23.682  27.375  41.034  1.00  0.00    -0.508 OA
ATOM     27  H   UNL     1      23.134  27.566  41.863  1.00  0.00     0.293 HD
ENDBRANCH   8  26
TORSDOF 6
ENDMDL
MODEL 3
REMARK VINA RESULT:    -4.042      1.572      7.081
REMARK INTER + INTRA:          -5.202
REMARK INTER:                  -4.890
REMARK INTRA:                  -0.312
REMARK UNBOUND:                -0.333
REMARK SMILES O=c1c(O)c(-c2ccc(O)c(O)c2)oc2cc(O)cc(O)c12
REMARK SMILES IDX 5 1 3 2 2 3 1 4 22 5 20 6 19 7 17 8 16 9 15 10 14 11 6 12
REMARK SMILES IDX 7 13 8 14 9 15 13 16 11 17 10 18 12 20 4 22 21 24 18 26
REMARK H PARENT 10 19 12 21 4 23 21 25 18 27
REMARK Flexibility Score: inf
ROOT
ATOM      1  C   UNL     1      24.758  32.363  40.150  1.00  0.00     0.180 A 
ATOM      2  C   UNL     1      23.622  31.664  40.592  1.00  0.00     0.208 A 
ATOM      3  C   UNL     1      23.687  30.268  40.718  1.00  0.00     0.238 A 
ATOM      4  O   UNL     1      22.685  29.654  41.167  1.00  0.00    -0.285 OA
ATOM      5  C   UNL     1      24.883  29.585  40.386  1.00  0.00     0.111 A 
ATOM      6  C   UNL     1      25.049  28.168  40.438  1.00  0.00     0.134 A 
ATOM      7  C   UNL     1      26.315  27.613  40.213  1.00  0.00     0.093 A 
ATOM      8  C   UNL     1      27.404  28.417  39.873  1.00  0.00     0.123 A 
ATOM      9  C   UNL     1      27.238  29.796  39.762  1.00  0.00     0.094 A 
ATOM     10  C   UNL     1      25.996  30.384  40.016  1.00  0.00     0.146 A 
ATOM     11  O   UNL     1      25.885  31.701  39.909  1.00  0.00    -0.452 OA
ENDROOT
BRANCH   1  12
ATOM     12  C   UNL     1      24.759  33.832  39.968  1.00  0.00     0.025 A 
ATOM     13  C   UNL     1      24.545  34.413  38.705  1.00  0.00     0.016 A 
ATOM     14  C   UNL     1      24.573  35.802  38.552  1.00  0.00     0.051 A 
ATOM     15  C   UNL     1      24.828  36.629  39.653  1.00  0.00     0.157 A 
ATOM     16  C   UNL     1      25.035  34.666  41.064  1.00  0.00     0.062 A 
ATOM     17  C   UNL     1      25.064  36.057  40.915  1.00  0.00     0.158 A 
BRANCH  15  18
ATOM     18  O   UNL     1      24.855  38.015  39.498  1.00  0.00    -0.504 OA
ATOM     19  H   UNL     1      24.517  38.637  40.223  1.00  0.00     0.293 HD
ENDBRANCH  15  18
BRANCH  17  20
ATOM     20  O   UNL     1      25.327  36.853  42.030  1.00  0.00    -0.504 OA
ATOM     21  H   UNL     1      26.175  37.400  42.112  1.00  0.00     0.293 HD
ENDBRANCH  17  20
ENDBRANCH   1  12
BRANCH   2  22
ATOM     22  O   UNL     1      22.459  32.360  40.935  1.00  0.00    -0.502 OA
ATOM     23  H   UNL     1      21.932  32.902  40.262  1.00  0.00     0.293 HD
ENDBRANCH   2  22
BRANCH   6  24
ATOM     24  O   UNL     1      24.005  27.269  40.678  1.00  0.00    -0.507 OA
ATOM     25  H   UNL     1      23.067  27.533  40.938  1.00  0.00     0.293 HD
ENDBRANCH   6  24
BRANCH   8  26
ATOM     26  O   UNL     1      28.657  27.855  39.636  1.00  0.00    -0.508 OA
ATOM     27  H   UNL     1      29.165  28.035  38.778  1.00  0.00     0.293 HD
ENDBRANCH   8  26
TORSDOF 6
ENDMDL
MODEL 4
REMARK VINA RESULT:    -3.950     16.110     18.258
REMARK INTER + INTRA:          -5.092
REMARK INTER:                  -4.772
REMARK INTRA:                  -0.320
REMARK UNBOUND:                -0.333
REMARK SMILES O=c1c(O)c(-c2ccc(O)c(O)c2)oc2cc(O)cc(O)c12
REMARK SMILES IDX 5 1 3 2 2 3 1 4 22 5 20 6 19 7 17 8 16 9 15 10 14 11 6 12
REMARK SMILES IDX 7 13 8 14 9 15 13 16 11 17 10 18 12 20 4 22 21 24 18 26
REMARK H PARENT 10 19 12 21 4 23 21 25 18 27
REMARK Flexibility Score: inf
ROOT
ATOM      1  C   UNL     1      16.790  31.464  55.240  1.00  0.00     0.180 A 
ATOM      2  C   UNL     1      15.676  30.837  54.658  1.00  0.00     0.208 A 
ATOM      3  C   UNL     1      15.860  29.637  53.954  1.00  0.00     0.238 A 
ATOM      4  O   UNL     1      14.851  29.052  53.481  1.00  0.00    -0.285 OA
ATOM      5  C   UNL     1      17.158  29.085  53.828  1.00  0.00     0.111 A 
ATOM      6  C   UNL     1      17.467  27.894  53.104  1.00  0.00     0.134 A 
ATOM      7  C   UNL     1      18.765  27.371  53.156  1.00  0.00     0.093 A 
ATOM      8  C   UNL     1      19.780  28.031  53.852  1.00  0.00     0.123 A 
ATOM      9  C   UNL     1      19.502  29.226  54.514  1.00  0.00     0.094 A 
ATOM     10  C   UNL     1      18.208  29.754  54.509  1.00  0.00     0.146 A 
ATOM     11  O   UNL     1      17.985  30.888  55.161  1.00  0.00    -0.452 OA
ENDROOT
BRANCH   1  12
ATOM     12  C   UNL     1      16.680  32.744  55.975  1.00  0.00     0.025 A 
ATOM     13  C   UNL     1      16.482  32.775  57.367  1.00  0.00     0.016 A 
ATOM     14  C   UNL     1      16.357  33.995  58.037  1.00  0.00     0.051 A 
ATOM     15  C   UNL     1      16.414  35.200  57.325  1.00  0.00     0.157 A 
ATOM     16  C   UNL     1      16.715  33.955  55.265  1.00  0.00     0.062 A 
ATOM     17  C   UNL     1      16.590  35.179  55.931  1.00  0.00     0.158 A 
BRANCH  15  18
ATOM     18  O   UNL     1      16.290  36.417  57.997  1.00  0.00    -0.504 OA
ATOM     19  H   UNL     1      15.790  36.489  58.875  1.00  0.00     0.293 HD
ENDBRANCH  15  18
BRANCH  17  20
ATOM     20  O   UNL     1      16.645  36.362  55.194  1.00  0.00    -0.504 OA
ATOM     21  H   UNL     1      16.965  36.383  54.234  1.00  0.00     0.293 HD
ENDBRANCH  17  20
ENDBRANCH   1  12
BRANCH   2  22
ATOM     22  O   UNL     1      14.400  31.387  54.812  1.00  0.00    -0.502 OA
ATOM     23  H   UNL     1      13.718  31.397  54.063  1.00  0.00     0.293 HD
ENDBRANCH   2  22
BRANCH   6  24
ATOM     24  O   UNL     1      16.549  27.209  52.302  1.00  0.00    -0.507 OA
ATOM     25  H   UNL     1      16.124  26.326  52.542  1.00  0.00     0.293 HD
ENDBRANCH   6  24
BRANCH   8  26
ATOM     26  O   UNL     1      21.073  27.512  53.886  1.00  0.00    -0.508 OA
ATOM     27  H   UNL     1      21.886  28.111  53.818  1.00  0.00     0.293 HD
ENDBRANCH   8  26
TORSDOF 6
ENDMDL
MODEL 5
REMARK VINA RESULT:    -3.933      5.290      7.674
REMARK INTER + INTRA:          -5.071
REMARK INTER:                  -4.766
REMARK INTRA:                  -0.304
REMARK UNBOUND:                -0.333
REMARK SMILES O=c1c(O)c(-c2ccc(O)c(O)c2)oc2cc(O)cc(O)c12
REMARK SMILES IDX 5 1 3 2 2 3 1 4 22 5 20 6 19 7 17 8 16 9 15 10 14 11 6 12
REMARK SMILES IDX 7 13 8 14 9 15 13 16 11 17 10 18 12 20 4 22 21 24 18 26
REMARK H PARENT 10 19 12 21 4 23 21 25 18 27
REMARK Flexibility Score: inf
ROOT
ATOM      1  C   UNL     1      19.997  33.553  39.855  1.00  0.00     0.180 A 
ATOM      2  C   UNL     1      20.090  32.736  40.995  1.00  0.00     0.208 A 
ATOM      3  C   UNL     1      21.346  32.239  41.376  1.00  0.00     0.238 A 
ATOM      4  O   UNL     1      21.431  31.553  42.428  1.00  0.00    -0.285 OA
ATOM      5  C   UNL     1      22.492  32.551  40.604  1.00  0.00     0.111 A 
ATOM      6  C   UNL     1      23.808  32.070  40.875  1.00  0.00     0.134 A 
ATOM      7  C   UNL     1      24.887  32.549  40.122  1.00  0.00     0.093 A 
ATOM      8  C   UNL     1      24.688  33.441  39.066  1.00  0.00     0.123 A 
ATOM      9  C   UNL     1      23.400  33.871  38.756  1.00  0.00     0.094 A 
ATOM     10  C   UNL     1      22.307  33.439  39.512  1.00  0.00     0.146 A 
ATOM     11  O   UNL     1      21.099  33.882  39.190  1.00  0.00    -0.452 OA
ENDROOT
BRANCH   1  12
ATOM     12  C   UNL     1      18.705  34.093  39.376  1.00  0.00     0.025 A 
ATOM     13  C   UNL     1      17.802  33.297  38.650  1.00  0.00     0.016 A 
ATOM     14  C   UNL     1      16.598  33.834  38.188  1.00  0.00     0.051 A 
ATOM     15  C   UNL     1      16.285  35.178  38.431  1.00  0.00     0.157 A 
ATOM     16  C   UNL     1      18.395  35.445  39.598  1.00  0.00     0.062 A 
ATOM     17  C   UNL     1      17.190  35.988  39.137  1.00  0.00     0.158 A 
BRANCH  15  18
ATOM     18  O   UNL     1      15.082  35.712  37.968  1.00  0.00    -0.504 OA
ATOM     19  H   UNL     1      15.061  36.509  37.342  1.00  0.00     0.293 HD
ENDBRANCH  15  18
BRANCH  17  20
ATOM     20  O   UNL     1      16.911  37.331  39.389  1.00  0.00    -0.504 OA
ATOM     21  H   UNL     1      16.147  37.816  38.936  1.00  0.00     0.293 HD
ENDBRANCH  17  20
ENDBRANCH   1  12
BRANCH   2  22
ATOM     22  O   UNL     1      18.951  32.458  41.754  1.00  0.00    -0.502 OA
ATOM     23  H   UNL     1      18.195  31.879  41.409  1.00  0.00     0.293 HD
ENDBRANCH   2  22
BRANCH   6  24
ATOM     24  O   UNL     1      24.102  31.108  41.846  1.00  0.00    -0.507 OA
ATOM     25  H   UNL     1      23.754  31.122  42.793  1.00  0.00     0.293 HD
ENDBRANCH   6  24
BRANCH   8  26
ATOM     26  O   UNL     1      25.766  33.901  38.311  1.00  0.00    -0.508 OA
ATOM     27  H   UNL     1      26.718  33.626  38.524  1.00  0.00     0.293 HD
ENDBRANCH   8  26
TORSDOF 6
ENDMDL
MODEL 6
REMARK VINA RESULT:    -3.929     15.429     16.545
REMARK INTER + INTRA:          -5.066
REMARK INTER:                  -4.789
REMARK INTRA:                  -0.277
REMARK UNBOUND:                -0.333
REMARK SMILES O=c1c(O)c(-c2ccc(O)c(O)c2)oc2cc(O)cc(O)c12
REMARK SMILES IDX 5 1 3 2 2 3 1 4 22 5 20 6 19 7 17 8 16 9 15 10 14 11 6 12
REMARK SMILES IDX 7 13 8 14 9 15 13 16 11 17 10 18 12 20 4 22 21 24 18 26
REMARK H PARENT 10 19 12 21 4 23 21 25 18 27
REMARK Flexibility Score: inf
ROOT
ATOM      1  C   UNL     1      17.796  30.948  54.660  1.00  0.00     0.180 A 
ATOM      2  C   UNL     1      17.140  31.067  55.898  1.00  0.00     0.208 A 
ATOM      3  C   UNL     1      16.698  32.332  56.315  1.00  0.00     0.238 A 
ATOM      4  O   UNL     1      16.064  32.424  57.398  1.00  0.00    -0.285 OA
ATOM      5  C   UNL     1      16.930  33.465  55.498  1.00  0.00     0.111 A 
ATOM      6  C   UNL     1      16.561  34.801  55.839  1.00  0.00     0.134 A 
ATOM      7  C   UNL     1      16.722  35.825  54.897  1.00  0.00     0.093 A 
ATOM      8  C   UNL     1      17.300  35.572  53.651  1.00  0.00     0.123 A 
ATOM      9  C   UNL     1      17.718  34.282  53.331  1.00  0.00     0.094 A 
ATOM     10  C   UNL     1      17.538  33.233  54.236  1.00  0.00     0.146 A 
ATOM     11  O   UNL     1      17.941  32.018  53.886  1.00  0.00    -0.452 OA
ENDROOT
BRANCH   1  12
ATOM     12  C   UNL     1      18.314  29.652  54.164  1.00  0.00     0.025 A 
ATOM     13  C   UNL     1      17.456  28.682  53.617  1.00  0.00     0.016 A 
ATOM     14  C   UNL     1      17.964  27.458  53.177  1.00  0.00     0.051 A 
ATOM     15  C   UNL     1      19.332  27.178  53.289  1.00  0.00     0.157 A 
ATOM     16  C   UNL     1      19.681  29.359  54.294  1.00  0.00     0.062 A 
ATOM     17  C   UNL     1      20.194  28.133  53.854  1.00  0.00     0.158 A 
BRANCH  15  18
ATOM     18  O   UNL     1      19.836  25.955  52.848  1.00  0.00    -0.504 OA
ATOM     19  H   UNL     1      20.829  25.810  52.707  1.00  0.00     0.293 HD
ENDBRANCH  15  18
BRANCH  17  20
ATOM     20  O   UNL     1      21.560  27.882  53.986  1.00  0.00    -0.504 OA
ATOM     21  H   UNL     1      21.916  26.985  54.291  1.00  0.00     0.293 HD
ENDBRANCH  17  20
ENDBRANCH   1  12
BRANCH   2  22
ATOM     22  O   UNL     1      16.903  29.933  56.679  1.00  0.00    -0.502 OA
ATOM     23  H   UNL     1      16.019  29.439  56.665  1.00  0.00     0.293 HD
ENDBRANCH   2  22
BRANCH   6  24
ATOM     24  O   UNL     1      16.060  35.176  57.089  1.00  0.00    -0.507 OA
ATOM     25  H   UNL     1      16.124  34.616  57.926  1.00  0.00     0.293 HD
ENDBRANCH   6  24
BRANCH   8  26
ATOM     26  O   UNL     1      17.471  36.599  52.725  1.00  0.00    -0.508 OA
ATOM     27  H   UNL     1      17.918  37.472  52.978  1.00  0.00     0.293 HD
ENDBRANCH   8  26
TORSDOF 6
ENDMDL
MODEL 7
REMARK VINA RESULT:    -3.836     14.592     16.743
REMARK INTER + INTRA:          -4.955
REMARK INTER:                  -4.927
REMARK INTRA:                  -0.028
REMARK UNBOUND:                -0.333
REMARK SMILES O=c1c(O)c(-c2ccc(O)c(O)c2)oc2cc(O)cc(O)c12
REMARK SMILES IDX 5 1 3 2 2 3 1 4 22 5 20 6 19 7 17 8 16 9 15 10 14 11 6 12
REMARK SMILES IDX 7 13 8 14 9 15 13 16 11 17 10 18 12 20 4 22 21 24 18 26
REMARK H PARENT 10 19 12 21 4 23 21 25 18 27
REMARK Flexibility Score: inf
ROOT
ATOM      1  C   UNL     1      20.098  29.129  53.818  1.00  0.00     0.180 A 
ATOM      2  C   UNL     1      21.463  29.442  53.697  1.00  0.00     0.208 A 
ATOM      3  C   UNL     1      22.370  28.421  53.375  1.00  0.00     0.238 A 
ATOM      4  O   UNL     1      23.582  28.718  53.214  1.00  0.00    -0.285 OA
ATOM      5  C   UNL     1      21.905  27.096  53.195  1.00  0.00     0.111 A 
ATOM      6  C   UNL     1      22.741  25.975  52.906  1.00  0.00     0.134 A 
ATOM      7  C   UNL     1      22.158  24.735  52.618  1.00  0.00     0.093 A 
ATOM      8  C   UNL     1      20.774  24.560  52.673  1.00  0.00     0.123 A 
ATOM      9  C   UNL     1      19.953  25.633  53.012  1.00  0.00     0.094 A 
ATOM     10  C   UNL     1      20.503  26.892  53.270  1.00  0.00     0.146 A 
ATOM     11  O   UNL     1      19.684  27.890  53.578  1.00  0.00    -0.452 OA
ENDROOT
BRANCH   1  12
ATOM     12  C   UNL     1      19.085  30.146  54.180  1.00  0.00     0.025 A 
ATOM     13  C   UNL     1      18.966  31.348  53.461  1.00  0.00     0.016 A 
ATOM     14  C   UNL     1      18.018  32.304  53.835  1.00  0.00     0.051 A 
ATOM     15  C   UNL     1      17.185  32.080  54.938  1.00  0.00     0.157 A 
ATOM     16  C   UNL     1      18.262  29.935  55.298  1.00  0.00     0.062 A 
ATOM     17  C   UNL     1      17.310  30.890  55.676  1.00  0.00     0.158 A 
BRANCH  15  18
ATOM     18  O   UNL     1      16.238  33.035  55.309  1.00  0.00    -0.504 OA
ATOM     19  H   UNL     1      16.179  33.383  56.259  1.00  0.00     0.293 HD
ENDBRANCH  15  18
BRANCH  17  20
ATOM     20  O   UNL     1      16.501  30.640  56.784  1.00  0.00    -0.504 OA
ATOM     21  H   UNL     1      16.684  31.055  57.689  1.00  0.00     0.293 HD
ENDBRANCH  17  20
ENDBRANCH   1  12
BRANCH   2  22
ATOM     22  O   UNL     1      21.897  30.761  53.858  1.00  0.00    -0.502 OA
ATOM     23  H   UNL     1      22.465  31.235  53.166  1.00  0.00     0.293 HD
ENDBRANCH   2  22
BRANCH   6  24
ATOM     24  O   UNL     1      24.139  26.022  52.915  1.00  0.00    -0.507 OA
ATOM     25  H   UNL     1      24.693  26.489  53.617  1.00  0.00     0.293 HD
ENDBRANCH   6  24
BRANCH   8  26
ATOM     26  O   UNL     1      20.203  23.318  52.401  1.00  0.00    -0.508 OA
ATOM     27  H   UNL     1      19.800  22.747  53.134  1.00  0.00     0.293 HD
ENDBRANCH   8  26
TORSDOF 6
ENDMDL
MODEL 8
REMARK VINA RESULT:    -3.741     13.832     15.366
REMARK INTER + INTRA:          -4.840
REMARK INTER:                  -4.505
REMARK INTRA:                  -0.334
REMARK UNBOUND:                -0.333
REMARK SMILES O=c1c(O)c(-c2ccc(O)c(O)c2)oc2cc(O)cc(O)c12
REMARK SMILES IDX 5 1 3 2 2 3 1 4 22 5 20 6 19 7 17 8 16 9 15 10 14 11 6 12
REMARK SMILES IDX 7 13 8 14 9 15 13 16 11 17 10 18 12 20 4 22 21 24 18 26
REMARK H PARENT 10 19 12 21 4 23 21 25 18 27
REMARK Flexibility Score: inf
ROOT
ATOM      1  C   UNL     1      20.368  29.718  53.722  1.00  0.00     0.180 A 
ATOM      2  C   UNL     1      21.270  28.642  53.755  1.00  0.00     0.208 A 
ATOM      3  C   UNL     1      22.630  28.884  53.503  1.00  0.00     0.238 A 
ATOM      4  O   UNL     1      23.441  27.926  53.587  1.00  0.00    -0.285 OA
ATOM      5  C   UNL     1      23.068  30.198  53.206  1.00  0.00     0.111 A 
ATOM      6  C   UNL     1      24.416  30.552  52.895  1.00  0.00     0.134 A 
ATOM      7  C   UNL     1      24.758  31.902  52.747  1.00  0.00     0.093 A 
ATOM      8  C   UNL     1      23.789  32.904  52.832  1.00  0.00     0.123 A 
ATOM      9  C   UNL     1      22.460  32.563  53.076  1.00  0.00     0.094 A 
ATOM     10  C   UNL     1      22.094  31.228  53.265  1.00  0.00     0.146 A 
ATOM     11  O   UNL     1      20.819  30.949  53.506  1.00  0.00    -0.452 OA
ENDROOT
BRANCH   1  12
ATOM     12  C   UNL     1      18.916  29.537  53.952  1.00  0.00     0.025 A 
ATOM     13  C   UNL     1      18.041  29.228  52.896  1.00  0.00     0.016 A 
ATOM     14  C   UNL     1      16.671  29.085  53.132  1.00  0.00     0.051 A 
ATOM     15  C   UNL     1      16.154  29.262  54.422  1.00  0.00     0.157 A 
ATOM     16  C   UNL     1      18.390  29.735  55.239  1.00  0.00     0.062 A 
ATOM     17  C   UNL     1      17.019  29.593  55.480  1.00  0.00     0.158 A 
BRANCH  15  18
ATOM     18  O   UNL     1      14.787  29.118  54.656  1.00  0.00    -0.504 OA
ATOM     19  H   UNL     1      14.132  29.865  54.452  1.00  0.00     0.293 HD
ENDBRANCH  15  18
BRANCH  17  20
ATOM     20  O   UNL     1      16.534  29.782  56.774  1.00  0.00    -0.504 OA
ATOM     21  H   UNL     1      15.584  30.082  56.955  1.00  0.00     0.293 HD
ENDBRANCH  17  20
ENDBRANCH   1  12
BRANCH   2  22
ATOM     22  O   UNL     1      20.820  27.357  54.071  1.00  0.00    -0.502 OA
ATOM     23  H   UNL     1      20.878  26.585  53.418  1.00  0.00     0.293 HD
ENDBRANCH   2  22
BRANCH   6  24
ATOM     24  O   UNL     1      25.441  29.622  52.697  1.00  0.00    -0.507 OA
ATOM     25  H   UNL     1      26.259  29.536  53.281  1.00  0.00     0.293 HD
ENDBRANCH   6  24
BRANCH   8  26
ATOM     26  O   UNL     1      24.135  34.244  52.667  1.00  0.00    -0.508 OA
ATOM     27  H   UNL     1      23.535  34.991  52.996  1.00  0.00     0.293 HD
ENDBRANCH   8  26
TORSDOF 6
ENDMDL
MODEL 9
REMARK VINA RESULT:    -3.740      4.838      6.686
REMARK INTER + INTRA:          -4.839
REMARK INTER:                  -4.621
REMARK INTRA:                  -0.218
REMARK UNBOUND:                -0.333
REMARK SMILES O=c1c(O)c(-c2ccc(O)c(O)c2)oc2cc(O)cc(O)c12
REMARK SMILES IDX 5 1 3 2 2 3 1 4 22 5 20 6 19 7 17 8 16 9 15 10 14 11 6 12
REMARK SMILES IDX 7 13 8 14 9 15 13 16 11 17 10 18 12 20 4 22 21 24 18 26
REMARK H PARENT 10 19 12 21 4 23 21 25 18 27
REMARK Flexibility Score: inf
ROOT
ATOM      1  C   UNL     1      21.890  33.651  40.278  1.00  0.00     0.180 A 
ATOM      2  C   UNL     1      21.562  33.841  41.631  1.00  0.00     0.208 A 
ATOM      3  C   UNL     1      20.211  33.958  41.995  1.00  0.00     0.238 A 
ATOM      4  O   UNL     1      19.922  34.074  43.214  1.00  0.00    -0.285 OA
ATOM      5  C   UNL     1      19.205  33.899  41.000  1.00  0.00     0.111 A 
ATOM      6  C   UNL     1      17.808  34.045  41.250  1.00  0.00     0.134 A 
ATOM      7  C   UNL     1      16.894  33.838  40.209  1.00  0.00     0.093 A 
ATOM      8  C   UNL     1      17.332  33.555  38.913  1.00  0.00     0.123 A 
ATOM      9  C   UNL     1      18.697  33.468  38.647  1.00  0.00     0.094 A 
ATOM     10  C   UNL     1      19.631  33.635  39.672  1.00  0.00     0.146 A 
ATOM     11  O   UNL     1      20.921  33.533  39.376  1.00  0.00    -0.452 OA
ENDROOT
BRANCH   1  12
ATOM     12  C   UNL     1      23.292  33.545  39.813  1.00  0.00     0.025 A 
ATOM     13  C   UNL     1      23.884  34.556  39.037  1.00  0.00     0.016 A 
ATOM     14  C   UNL     1      25.201  34.424  38.590  1.00  0.00     0.051 A 
ATOM     15  C   UNL     1      25.941  33.275  38.899  1.00  0.00     0.157 A 
ATOM     16  C   UNL     1      24.030  32.386  40.103  1.00  0.00     0.062 A 
ATOM     17  C   UNL     1      25.350  32.249  39.657  1.00  0.00     0.158 A 
BRANCH  15  18
ATOM     18  O   UNL     1      27.256  33.146  38.452  1.00  0.00    -0.504 OA
ATOM     19  H   UNL     1      27.895  33.932  38.452  1.00  0.00     0.293 HD
ENDBRANCH  15  18
BRANCH  17  20
ATOM     20  O   UNL     1      26.057  31.090  39.976  1.00  0.00    -0.504 OA
ATOM     21  H   UNL     1      25.934  30.226  39.463  1.00  0.00     0.293 HD
ENDBRANCH  17  20
ENDBRANCH   1  12
BRANCH   2  22
ATOM     22  O   UNL     1      22.569  33.876  42.599  1.00  0.00    -0.502 OA
ATOM     23  H   UNL     1      22.542  33.300  43.432  1.00  0.00     0.293 HD
ENDBRANCH   2  22
BRANCH   6  24
ATOM     24  O   UNL     1      17.271  34.417  42.487  1.00  0.00    -0.507 OA
ATOM     25  H   UNL     1      17.633  34.123  43.382  1.00  0.00     0.293 HD
ENDBRANCH   6  24
BRANCH   8  26
ATOM     26  O   UNL     1      16.416  33.366  37.879  1.00  0.00    -0.508 OA
ATOM     27  H   UNL     1      16.082  34.140  37.319  1.00  0.00     0.293 HD
ENDBRANCH   8  26
TORSDOF 6
ENDMDL
