MODEL 1
REMARK VINA RESULT:    -2.947      0.000      0.000
REMARK INTER + INTRA:          -9.676
REMARK INTER:                  -7.772
REMARK INTRA:                  -1.905
REMARK UNBOUND:                -1.905
REMARK SMILES CCCCCCCCCCCCCCCCCCCCCCCCCCCCCC(=O)[O-]
REMARK SMILES IDX 16 1 17 2 18 3 19 4 20 5 21 6 22 7 23 8 24 9 25 10 26 11
REMARK SMILES IDX 27 12 28 13 29 14 30 15 31 16 32 17 15 18 14 19 13 20 12 21
REMARK SMILES IDX 11 22 10 23 9 24 8 25 7 26 6 27 5 28 4 29 3 30 2 31 1 32
REMARK H PARENT
REMARK Flexibility Score: inf
ROOT
ATOM      1  C   UNL     1       0.142  26.603  24.769  1.00  0.00     0.000 C 
ENDROOT
BRANCH   1   2
ATOM      2  C   UNL     1       1.414  26.711  23.905  1.00  0.00     0.000 C 
BRANCH   2   3
ATOM      3  C   UNL     1       1.318  27.815  22.842  1.00  0.00     0.000 C 
BRANCH   3   4
ATOM      4  C   UNL     1       0.449  27.417  21.638  1.00  0.00     0.000 C 
BRANCH   4   5
ATOM      5  C   UNL     1       1.302  27.306  20.364  1.00  0.00     0.000 C 
BRANCH   5   6
ATOM      6  C   UNL     1       1.292  25.891  19.759  1.00  0.00     0.000 C 
BRANCH   6   7
ATOM      7  C   UNL     1       1.032  24.764  20.773  1.00  0.00     0.000 C 
BRANCH   7   8
ATOM      8  C   UNL     1       1.994  23.572  20.594  1.00  0.00     0.000 C 
BRANCH   8   9
ATOM      9  C   UNL     1       1.262  22.217  20.435  1.00  0.00     0.000 C 
BRANCH   9  10
ATOM     10  C   UNL     1      -0.076  22.323  19.665  1.00  0.00     0.000 C 
BRANCH  10  11
ATOM     11  C   UNL     1       0.084  22.454  18.134  1.00  0.00     0.000 C 
BRANCH  11  12
ATOM     12  C   UNL     1      -0.181  21.142  17.366  1.00  0.00     0.000 C 
BRANCH  12  13
ATOM     13  C   UNL     1       0.653  19.933  17.832  1.00  0.00     0.006 C 
BRANCH  13  14
ATOM     14  C   UNL     1       0.257  18.593  17.191  1.00  0.00     0.053 C 
BRANCH  14  15
ATOM     15  C   UNL     1      -0.284  17.615  18.190  1.00  0.00     0.041 C 
ATOM     16  O   UNL     1      -1.121  16.741  17.838  1.00  0.00    -0.550 OA
ATOM     17  O   UNL     1       0.157  17.656  19.505  1.00  0.00    -0.550 OA
ENDBRANCH  14  15
ENDBRANCH  13  14
ENDBRANCH  12  13
ENDBRANCH  11  12
ENDBRANCH  10  11
ENDBRANCH   9  10
ENDBRANCH   8   9
ENDBRANCH   7   8
ENDBRANCH   6   7
ENDBRANCH   5   6
ENDBRANCH   4   5
ENDBRANCH   3   4
ENDBRANCH   2   3
ENDBRANCH   1   2
BRANCH   1  18
ATOM     18  C   UNL     1      -0.010  27.787  25.738  1.00  0.00     0.000 C 
BRANCH  18  19
ATOM     19  C   UNL     1      -1.464  27.989  26.203  1.00  0.00     0.000 C 
BRANCH  19  20
ATOM     20  C   UNL     1      -2.484  27.431  25.195  1.00  0.00     0.000 C 
BRANCH  20  21
ATOM     21  C   UNL     1      -3.519  26.504  25.858  1.00  0.00     0.000 C 
BRANCH  21  22
ATOM     22  C   UNL     1      -3.196  25.014  25.627  1.00  0.00     0.000 C 
BRANCH  22  23
ATOM     23  C   UNL     1      -3.916  24.062  26.598  1.00  0.00     0.000 C 
BRANCH  23  24
ATOM     24  C   UNL     1      -5.026  23.245  25.914  1.00  0.00    -0.000 C 
BRANCH  24  25
ATOM     25  C   UNL     1      -6.441  23.624  26.395  1.00  0.00    -0.000 C 
BRANCH  25  26
ATOM     26  C   UNL     1      -7.470  22.478  26.383  1.00  0.00    -0.000 C 
BRANCH  26  27
ATOM     27  C   UNL     1      -8.798  22.858  27.057  1.00  0.00    -0.000 C 
BRANCH  27  28
ATOM     28  C   UNL     1      -9.994  22.455  26.181  1.00  0.00    -0.000 C 
BRANCH  28  29
ATOM     29  C   UNL     1      -9.645  22.455  24.679  1.00  0.00    -0.000 C 
BRANCH  29  30
ATOM     30  C   UNL     1     -10.234  23.645  23.894  1.00  0.00    -0.000 C 
BRANCH  30  31
ATOM     31  C   UNL     1     -11.522  23.311  23.114  1.00  0.00    -0.003 C 
ATOM     32  C   UNL     1     -11.382  23.556  21.610  1.00  0.00     0.004 C 
ENDBRANCH  30  31
ENDBRANCH  29  30
ENDBRANCH  28  29
ENDBRANCH  27  28
ENDBRANCH  26  27
ENDBRANCH  25  26
ENDBRANCH  24  25
ENDBRANCH  23  24
ENDBRANCH  22  23
ENDBRANCH  21  22
ENDBRANCH  20  21
ENDBRANCH  19  20
ENDBRANCH  18  19
ENDBRANCH   1  18
TORSDOF 28
ENDMDL
MODEL 2
REMARK VINA RESULT:    -2.713      1.651      2.608
REMARK INTER + INTRA:          -9.060
REMARK INTER:                  -7.685
REMARK INTRA:                  -1.375
REMARK UNBOUND:                -1.905
REMARK SMILES CCCCCCCCCCCCCCCCCCCCCCCCCCCCCC(=O)[O-]
REMARK SMILES IDX 16 1 17 2 18 3 19 4 20 5 21 6 22 7 23 8 24 9 25 10 26 11
REMARK SMILES IDX 27 12 28 13 29 14 30 15 31 16 32 17 15 18 14 19 13 20 12 21
REMARK SMILES IDX 11 22 10 23 9 24 8 25 7 26 6 27 5 28 4 29 3 30 2 31 1 32
REMARK H PARENT
REMARK Flexibility Score: inf
ROOT
ATOM      1  C   UNL     1       1.896  26.937  23.356  1.00  0.00     0.000 C 
ENDROOT
BRANCH   1   2
ATOM      2  C   UNL     1       1.849  27.265  21.850  1.00  0.00     0.000 C 
BRANCH   2   3
ATOM      3  C   UNL     1       1.566  26.030  20.982  1.00  0.00     0.000 C 
BRANCH   3   4
ATOM      4  C   UNL     1       1.943  26.234  19.507  1.00  0.00     0.000 C 
BRANCH   4   5
ATOM      5  C   UNL     1       1.601  24.984  18.679  1.00  0.00     0.000 C 
BRANCH   5   6
ATOM      6  C   UNL     1       0.976  23.860  19.525  1.00  0.00     0.000 C 
BRANCH   6   7
ATOM      7  C   UNL     1       1.840  22.593  19.643  1.00  0.00     0.000 C 
BRANCH   7   8
ATOM      8  C   UNL     1       1.061  21.398  20.232  1.00  0.00     0.000 C 
BRANCH   8   9
ATOM      9  C   UNL     1       0.211  20.648  19.178  1.00  0.00     0.000 C 
BRANCH   9  10
ATOM     10  C   UNL     1       1.043  19.742  18.240  1.00  0.00     0.000 C 
BRANCH  10  11
ATOM     11  C   UNL     1       0.198  18.775  17.382  1.00  0.00     0.000 C 
BRANCH  11  12
ATOM     12  C   UNL     1      -0.134  17.444  18.088  1.00  0.00     0.000 C 
BRANCH  12  13
ATOM     13  C   UNL     1       0.782  17.089  19.276  1.00  0.00     0.006 C 
BRANCH  13  14
ATOM     14  C   UNL     1       1.646  15.834  19.070  1.00  0.00     0.053 C 
BRANCH  14  15
ATOM     15  C   UNL     1       1.651  14.936  20.270  1.00  0.00     0.041 C 
ATOM     16  O   UNL     1       1.567  15.421  21.431  1.00  0.00    -0.550 OA
ATOM     17  O   UNL     1       1.725  13.561  20.103  1.00  0.00    -0.550 OA
ENDBRANCH  14  15
ENDBRANCH  13  14
ENDBRANCH  12  13
ENDBRANCH  11  12
ENDBRANCH  10  11
ENDBRANCH   9  10
ENDBRANCH   8   9
ENDBRANCH   7   8
ENDBRANCH   6   7
ENDBRANCH   5   6
ENDBRANCH   4   5
ENDBRANCH   3   4
ENDBRANCH   2   3
ENDBRANCH   1   2
BRANCH   1  18
ATOM     18  C   UNL     1       0.542  27.167  24.049  1.00  0.00     0.000 C 
BRANCH  18  19
ATOM     19  C   UNL     1      -0.611  27.357  23.046  1.00  0.00     0.000 C 
BRANCH  19  20
ATOM     20  C   UNL     1      -1.985  27.412  23.736  1.00  0.00     0.000 C 
BRANCH  20  21
ATOM     21  C   UNL     1      -2.146  26.324  24.813  1.00  0.00     0.000 C 
BRANCH  21  22
ATOM     22  C   UNL     1      -3.115  26.755  25.933  1.00  0.00     0.000 C 
BRANCH  22  23
ATOM     23  C   UNL     1      -3.835  25.581  26.620  1.00  0.00     0.000 C 
BRANCH  23  24
ATOM     24  C   UNL     1      -3.698  24.263  25.840  1.00  0.00    -0.000 C 
BRANCH  24  25
ATOM     25  C   UNL     1      -4.880  23.299  26.067  1.00  0.00    -0.000 C 
BRANCH  25  26
ATOM     26  C   UNL     1      -6.275  23.892  25.798  1.00  0.00    -0.000 C 
BRANCH  26  27
ATOM     27  C   UNL     1      -7.396  23.150  26.542  1.00  0.00    -0.000 C 
BRANCH  27  28
ATOM     28  C   UNL     1      -8.665  23.063  25.681  1.00  0.00    -0.000 C 
BRANCH  28  29
ATOM     29  C   UNL     1      -8.682  24.119  24.556  1.00  0.00    -0.000 C 
BRANCH  29  30
ATOM     30  C   UNL     1     -10.093  24.466  24.038  1.00  0.00    -0.000 C 
BRANCH  30  31
ATOM     31  C   UNL     1     -10.877  23.257  23.487  1.00  0.00    -0.003 C 
ATOM     32  C   UNL     1     -11.359  23.470  22.051  1.00  0.00     0.004 C 
ENDBRANCH  30  31
ENDBRANCH  29  30
ENDBRANCH  28  29
ENDBRANCH  27  28
ENDBRANCH  26  27
ENDBRANCH  25  26
ENDBRANCH  24  25
ENDBRANCH  23  24
ENDBRANCH  22  23
ENDBRANCH  21  22
ENDBRANCH  20  21
ENDBRANCH  19  20
ENDBRANCH  18  19
ENDBRANCH   1  18
TORSDOF 28
ENDMDL
MODEL 3
REMARK VINA RESULT:    -2.566      1.197      2.836
REMARK INTER + INTRA:          -8.671
REMARK INTER:                  -6.821
REMARK INTRA:                  -1.850
REMARK UNBOUND:                -1.905
REMARK SMILES CCCCCCCCCCCCCCCCCCCCCCCCCCCCCC(=O)[O-]
REMARK SMILES IDX 16 1 17 2 18 3 19 4 20 5 21 6 22 7 23 8 24 9 25 10 26 11
REMARK SMILES IDX 27 12 28 13 29 14 30 15 31 16 32 17 15 18 14 19 13 20 12 21
REMARK SMILES IDX 11 22 10 23 9 24 8 25 7 26 6 27 5 28 4 29 3 30 2 31 1 32
REMARK H PARENT
REMARK Flexibility Score: inf
ROOT
ATOM      1  C   UNL     1      -2.475  27.128  25.974  1.00  0.00     0.000 C 
ENDROOT
BRANCH   1   2
ATOM      2  C   UNL     1      -1.490  27.936  25.106  1.00  0.00     0.000 C 
BRANCH   2   3
ATOM      3  C   UNL     1      -1.433  27.439  23.654  1.00  0.00     0.000 C 
BRANCH   3   4
ATOM      4  C   UNL     1      -0.070  26.836  23.278  1.00  0.00     0.000 C 
BRANCH   4   5
ATOM      5  C   UNL     1       0.071  25.413  23.843  1.00  0.00     0.000 C 
BRANCH   5   6
ATOM      6  C   UNL     1       1.086  24.558  23.063  1.00  0.00     0.000 C 
BRANCH   6   7
ATOM      7  C   UNL     1       1.186  24.894  21.565  1.00  0.00     0.000 C 
BRANCH   7   8
ATOM      8  C   UNL     1       1.533  23.662  20.704  1.00  0.00     0.000 C 
BRANCH   8   9
ATOM      9  C   UNL     1       0.535  22.492  20.886  1.00  0.00     0.000 C 
BRANCH   9  10
ATOM     10  C   UNL     1      -0.212  22.107  19.588  1.00  0.00     0.000 C 
BRANCH  10  11
ATOM     11  C   UNL     1       0.716  21.778  18.397  1.00  0.00     0.000 C 
BRANCH  11  12
ATOM     12  C   UNL     1       0.659  20.302  17.953  1.00  0.00     0.000 C 
BRANCH  12  13
ATOM     13  C   UNL     1       1.489  19.329  18.813  1.00  0.00     0.006 C 
BRANCH  13  14
ATOM     14  C   UNL     1       0.665  18.271  19.565  1.00  0.00     0.053 C 
BRANCH  14  15
ATOM     15  C   UNL     1       0.188  17.169  18.668  1.00  0.00     0.041 C 
ATOM     16  O   UNL     1      -1.007  17.143  18.269  1.00  0.00    -0.550 OA
ATOM     17  O   UNL     1       1.073  16.184  18.254  1.00  0.00    -0.550 OA
ENDBRANCH  14  15
ENDBRANCH  13  14
ENDBRANCH  12  13
ENDBRANCH  11  12
ENDBRANCH  10  11
ENDBRANCH   9  10
ENDBRANCH   8   9
ENDBRANCH   7   8
ENDBRANCH   6   7
ENDBRANCH   5   6
ENDBRANCH   4   5
ENDBRANCH   3   4
ENDBRANCH   2   3
ENDBRANCH   1   2
BRANCH   1  18
ATOM     18  C   UNL     1      -3.227  26.057  25.165  1.00  0.00     0.000 C 
BRANCH  18  19
ATOM     19  C   UNL     1      -2.901  24.626  25.632  1.00  0.00     0.000 C 
BRANCH  19  20
ATOM     20  C   UNL     1      -4.011  24.031  26.516  1.00  0.00     0.000 C 
BRANCH  20  21
ATOM     21  C   UNL     1      -5.197  23.499  25.691  1.00  0.00     0.000 C 
BRANCH  21  22
ATOM     22  C   UNL     1      -6.290  22.874  26.583  1.00  0.00     0.000 C 
BRANCH  22  23
ATOM     23  C   UNL     1      -7.718  23.317  26.221  1.00  0.00     0.000 C 
BRANCH  23  24
ATOM     24  C   UNL     1      -8.759  22.874  27.264  1.00  0.00    -0.000 C 
BRANCH  24  25
ATOM     25  C   UNL     1      -9.957  22.126  26.643  1.00  0.00    -0.000 C 
BRANCH  25  26
ATOM     26  C   UNL     1      -9.862  21.872  25.127  1.00  0.00    -0.000 C 
BRANCH  26  27
ATOM     27  C   UNL     1     -10.939  22.618  24.325  1.00  0.00    -0.000 C 
BRANCH  27  28
ATOM     28  C   UNL     1     -10.344  23.843  23.614  1.00  0.00    -0.000 C 
BRANCH  28  29
ATOM     29  C   UNL     1     -10.589  23.811  22.091  1.00  0.00    -0.000 C 
BRANCH  29  30
ATOM     30  C   UNL     1     -12.070  23.641  21.694  1.00  0.00    -0.000 C 
BRANCH  30  31
ATOM     31  C   UNL     1     -12.289  23.283  20.210  1.00  0.00    -0.003 C 
ATOM     32  C   UNL     1     -12.377  24.518  19.310  1.00  0.00     0.004 C 
ENDBRANCH  30  31
ENDBRANCH  29  30
ENDBRANCH  28  29
ENDBRANCH  27  28
ENDBRANCH  26  27
ENDBRANCH  25  26
ENDBRANCH  24  25
ENDBRANCH  23  24
ENDBRANCH  22  23
ENDBRANCH  21  22
ENDBRANCH  20  21
ENDBRANCH  19  20
ENDBRANCH  18  19
ENDBRANCH   1  18
TORSDOF 28
ENDMDL
MODEL 4
REMARK VINA RESULT:    -2.506      3.804     11.106
REMARK INTER + INTRA:          -8.514
REMARK INTER:                  -7.259
REMARK INTRA:                  -1.255
REMARK UNBOUND:                -1.905
REMARK SMILES CCCCCCCCCCCCCCCCCCCCCCCCCCCCCC(=O)[O-]
REMARK SMILES IDX 16 1 17 2 18 3 19 4 20 5 21 6 22 7 23 8 24 9 25 10 26 11
REMARK SMILES IDX 27 12 28 13 29 14 30 15 31 16 32 17 15 18 14 19 13 20 12 21
REMARK SMILES IDX 11 22 10 23 9 24 8 25 7 26 6 27 5 28 4 29 3 30 2 31 1 32
REMARK H PARENT
REMARK Flexibility Score: inf
ROOT
ATOM      1  C   UNL     1      -0.123  26.367  24.613  1.00  0.00     0.000 C 
ENDROOT
BRANCH   1   2
ATOM      2  C   UNL     1      -1.542  26.909  24.353  1.00  0.00     0.000 C 
BRANCH   2   3
ATOM      3  C   UNL     1      -2.323  27.172  25.650  1.00  0.00     0.000 C 
BRANCH   3   4
ATOM      4  C   UNL     1      -3.590  26.310  25.773  1.00  0.00     0.000 C 
BRANCH   4   5
ATOM      5  C   UNL     1      -3.235  24.875  26.192  1.00  0.00     0.000 C 
BRANCH   5   6
ATOM      6  C   UNL     1      -4.249  23.835  25.682  1.00  0.00     0.000 C 
BRANCH   6   7
ATOM      7  C   UNL     1      -5.641  23.929  26.329  1.00  0.00     0.000 C 
BRANCH   7   8
ATOM      8  C   UNL     1      -6.491  22.662  26.094  1.00  0.00     0.000 C 
BRANCH   8   9
ATOM      9  C   UNL     1      -7.862  22.708  26.812  1.00  0.00     0.000 C 
BRANCH   9  10
ATOM     10  C   UNL     1      -9.034  23.105  25.885  1.00  0.00     0.000 C 
BRANCH  10  11
ATOM     11  C   UNL     1      -8.671  24.171  24.827  1.00  0.00     0.000 C 
BRANCH  11  12
ATOM     12  C   UNL     1      -9.815  24.484  23.840  1.00  0.00     0.000 C 
BRANCH  12  13
ATOM     13  C   UNL     1     -10.571  23.252  23.305  1.00  0.00     0.006 C 
BRANCH  13  14
ATOM     14  C   UNL     1     -11.930  23.562  22.658  1.00  0.00     0.053 C 
BRANCH  14  15
ATOM     15  C   UNL     1     -11.846  23.663  21.164  1.00  0.00     0.041 C 
ATOM     16  O   UNL     1     -11.976  22.634  20.447  1.00  0.00    -0.550 OA
ATOM     17  O   UNL     1     -11.649  24.899  20.565  1.00  0.00    -0.550 OA
ENDBRANCH  14  15
ENDBRANCH  13  14
ENDBRANCH  12  13
ENDBRANCH  11  12
ENDBRANCH  10  11
ENDBRANCH   9  10
ENDBRANCH   8   9
ENDBRANCH   7   8
ENDBRANCH   6   7
ENDBRANCH   5   6
ENDBRANCH   4   5
ENDBRANCH   3   4
ENDBRANCH   2   3
ENDBRANCH   1   2
BRANCH   1  18
ATOM     18  C   UNL     1      -0.007  24.863  24.317  1.00  0.00     0.000 C 
BRANCH  18  19
ATOM     19  C   UNL     1       0.674  24.577  22.965  1.00  0.00     0.000 C 
BRANCH  19  20
ATOM     20  C   UNL     1       0.559  23.099  22.552  1.00  0.00     0.000 C 
BRANCH  20  21
ATOM     21  C   UNL     1       1.234  22.813  21.198  1.00  0.00     0.000 C 
BRANCH  21  22
ATOM     22  C   UNL     1       0.348  23.234  20.008  1.00  0.00     0.000 C 
BRANCH  22  23
ATOM     23  C   UNL     1       0.167  22.134  18.947  1.00  0.00     0.000 C 
BRANCH  23  24
ATOM     24  C   UNL     1       1.326  21.124  18.936  1.00  0.00    -0.000 C 
BRANCH  24  25
ATOM     25  C   UNL     1       1.558  20.483  17.552  1.00  0.00    -0.000 C 
BRANCH  25  26
ATOM     26  C   UNL     1       2.114  19.047  17.575  1.00  0.00    -0.000 C 
BRANCH  26  27
ATOM     27  C   UNL     1       1.106  18.023  18.119  1.00  0.00    -0.000 C 
BRANCH  27  28
ATOM     28  C   UNL     1       1.235  16.681  17.383  1.00  0.00    -0.000 C 
BRANCH  28  29
ATOM     29  C   UNL     1       0.771  15.491  18.248  1.00  0.00    -0.000 C 
BRANCH  29  30
ATOM     30  C   UNL     1       1.885  14.475  18.573  1.00  0.00    -0.000 C 
BRANCH  30  31
ATOM     31  C   UNL     1       2.048  14.176  20.078  1.00  0.00    -0.003 C 
ATOM     32  C   UNL     1       2.059  12.677  20.385  1.00  0.00     0.004 C 
ENDBRANCH  30  31
ENDBRANCH  29  30
ENDBRANCH  28  29
ENDBRANCH  27  28
ENDBRANCH  26  27
ENDBRANCH  25  26
ENDBRANCH  24  25
ENDBRANCH  23  24
ENDBRANCH  22  23
ENDBRANCH  21  22
ENDBRANCH  20  21
ENDBRANCH  19  20
ENDBRANCH  18  19
ENDBRANCH   1  18
TORSDOF 28
ENDMDL
MODEL 5
REMARK VINA RESULT:    -2.242      3.502     10.361
REMARK INTER + INTRA:          -7.817
REMARK INTER:                  -6.155
REMARK INTRA:                  -1.662
REMARK UNBOUND:                -1.905
REMARK SMILES CCCCCCCCCCCCCCCCCCCCCCCCCCCCCC(=O)[O-]
REMARK SMILES IDX 16 1 17 2 18 3 19 4 20 5 21 6 22 7 23 8 24 9 25 10 26 11
REMARK SMILES IDX 27 12 28 13 29 14 30 15 31 16 32 17 15 18 14 19 13 20 12 21
REMARK SMILES IDX 11 22 10 23 9 24 8 25 7 26 6 27 5 28 4 29 3 30 2 31 1 32
REMARK H PARENT
REMARK Flexibility Score: inf
ROOT
ATOM      1  C   UNL     1      -1.655  27.888  24.661  1.00  0.00     0.000 C 
ENDROOT
BRANCH   1   2
ATOM      2  C   UNL     1      -2.466  26.609  24.947  1.00  0.00     0.000 C 
BRANCH   2   3
ATOM      3  C   UNL     1      -1.640  25.328  24.756  1.00  0.00     0.000 C 
BRANCH   3   4
ATOM      4  C   UNL     1      -2.439  24.049  25.051  1.00  0.00     0.000 C 
BRANCH   4   5
ATOM      5  C   UNL     1      -3.647  24.355  25.950  1.00  0.00     0.000 C 
BRANCH   5   6
ATOM      6  C   UNL     1      -4.930  23.639  25.492  1.00  0.00     0.000 C 
BRANCH   6   7
ATOM      7  C   UNL     1      -5.730  22.974  26.625  1.00  0.00     0.000 C 
BRANCH   7   8
ATOM      8  C   UNL     1      -7.227  23.347  26.591  1.00  0.00     0.000 C 
BRANCH   8   9
ATOM      9  C   UNL     1      -8.161  22.112  26.596  1.00  0.00     0.000 C 
BRANCH   9  10
ATOM     10  C   UNL     1      -9.601  22.423  26.125  1.00  0.00     0.000 C 
BRANCH  10  11
ATOM     11  C   UNL     1      -9.679  23.395  24.926  1.00  0.00     0.000 C 
BRANCH  11  12
ATOM     12  C   UNL     1     -10.301  22.771  23.660  1.00  0.00     0.000 C 
BRANCH  12  13
ATOM     13  C   UNL     1     -10.652  23.775  22.543  1.00  0.00     0.006 C 
BRANCH  13  14
ATOM     14  C   UNL     1     -12.091  23.669  22.013  1.00  0.00     0.053 C 
BRANCH  14  15
ATOM     15  C   UNL     1     -12.149  23.612  20.516  1.00  0.00     0.041 C 
ATOM     16  O   UNL     1     -12.345  24.660  19.844  1.00  0.00    -0.550 OA
ATOM     17  O   UNL     1     -11.962  22.401  19.864  1.00  0.00    -0.550 OA
ENDBRANCH  14  15
ENDBRANCH  13  14
ENDBRANCH  12  13
ENDBRANCH  11  12
ENDBRANCH  10  11
ENDBRANCH   9  10
ENDBRANCH   8   9
ENDBRANCH   7   8
ENDBRANCH   6   7
ENDBRANCH   5   6
ENDBRANCH   4   5
ENDBRANCH   3   4
ENDBRANCH   2   3
ENDBRANCH   1   2
BRANCH   1  18
ATOM     18  C   UNL     1      -1.296  28.035  23.173  1.00  0.00     0.000 C 
BRANCH  18  19
ATOM     19  C   UNL     1       0.224  28.124  22.937  1.00  0.00     0.000 C 
BRANCH  19  20
ATOM     20  C   UNL     1       1.022  27.247  23.916  1.00  0.00     0.000 C 
BRANCH  20  21
ATOM     21  C   UNL     1       1.683  26.043  23.222  1.00  0.00     0.000 C 
BRANCH  21  22
ATOM     22  C   UNL     1       1.111  25.801  21.810  1.00  0.00     0.000 C 
BRANCH  22  23
ATOM     23  C   UNL     1       1.934  24.813  20.965  1.00  0.00     0.000 C 
BRANCH  23  24
ATOM     24  C   UNL     1       1.117  23.587  20.522  1.00  0.00    -0.000 C 
BRANCH  24  25
ATOM     25  C   UNL     1       0.423  23.783  19.159  1.00  0.00    -0.000 C 
BRANCH  25  26
ATOM     26  C   UNL     1       0.946  22.888  18.019  1.00  0.00    -0.000 C 
BRANCH  26  27
ATOM     27  C   UNL     1       0.340  21.476  18.039  1.00  0.00    -0.000 C 
BRANCH  27  28
ATOM     28  C   UNL     1       1.353  20.452  18.571  1.00  0.00    -0.000 C 
BRANCH  28  29
ATOM     29  C   UNL     1       0.863  19.759  19.859  1.00  0.00    -0.000 C 
BRANCH  29  30
ATOM     30  C   UNL     1       0.513  18.267  19.680  1.00  0.00    -0.000 C 
BRANCH  30  31
ATOM     31  C   UNL     1       0.547  17.783  18.216  1.00  0.00    -0.003 C 
ATOM     32  C   UNL     1       1.291  16.456  18.050  1.00  0.00     0.004 C 
ENDBRANCH  30  31
ENDBRANCH  29  30
ENDBRANCH  28  29
ENDBRANCH  27  28
ENDBRANCH  26  27
ENDBRANCH  25  26
ENDBRANCH  24  25
ENDBRANCH  23  24
ENDBRANCH  22  23
ENDBRANCH  21  22
ENDBRANCH  20  21
ENDBRANCH  19  20
ENDBRANCH  18  19
ENDBRANCH   1  18
TORSDOF 28
ENDMDL
MODEL 6
REMARK VINA RESULT:    -1.449      4.512      9.651
REMARK INTER + INTRA:          -5.724
REMARK INTER:                  -3.133
REMARK INTRA:                  -2.591
REMARK UNBOUND:                -1.905
REMARK SMILES CCCCCCCCCCCCCCCCCCCCCCCCCCCCCC(=O)[O-]
REMARK SMILES IDX 16 1 17 2 18 3 19 4 20 5 21 6 22 7 23 8 24 9 25 10 26 11
REMARK SMILES IDX 27 12 28 13 29 14 30 15 31 16 32 17 15 18 14 19 13 20 12 21
REMARK SMILES IDX 11 22 10 23 9 24 8 25 7 26 6 27 5 28 4 29 3 30 2 31 1 32
REMARK H PARENT
REMARK Flexibility Score: inf
ROOT
ATOM      1  C   UNL     1      -1.674  22.372  23.673  1.00  0.00     0.000 C 
ENDROOT
BRANCH   1   2
ATOM      2  C   UNL     1      -2.219  23.398  24.687  1.00  0.00     0.000 C 
BRANCH   2   3
ATOM      3  C   UNL     1      -1.276  24.594  24.885  1.00  0.00     0.000 C 
BRANCH   3   4
ATOM      4  C   UNL     1      -1.976  25.948  24.696  1.00  0.00     0.000 C 
BRANCH   4   5
ATOM      5  C   UNL     1      -0.963  27.102  24.782  1.00  0.00     0.000 C 
BRANCH   5   6
ATOM      6  C   UNL     1       0.460  26.623  25.119  1.00  0.00     0.000 C 
BRANCH   6   7
ATOM      7  C   UNL     1       1.433  26.622  23.928  1.00  0.00     0.000 C 
BRANCH   7   8
ATOM      8  C   UNL     1       1.761  28.045  23.429  1.00  0.00     0.000 C 
BRANCH   8   9
ATOM      9  C   UNL     1       2.053  28.104  21.910  1.00  0.00     0.000 C 
BRANCH   9  10
ATOM     10  C   UNL     1       1.537  26.871  21.131  1.00  0.00     0.000 C 
BRANCH  10  11
ATOM     11  C   UNL     1       1.798  26.929  19.610  1.00  0.00     0.000 C 
BRANCH  11  12
ATOM     12  C   UNL     1       2.115  25.557  18.979  1.00  0.00     0.000 C 
BRANCH  12  13
ATOM     13  C   UNL     1       1.762  25.429  17.484  1.00  0.00     0.006 C 
BRANCH  13  14
ATOM     14  C   UNL     1       0.736  26.454  16.975  1.00  0.00     0.053 C 
BRANCH  14  15
ATOM     15  C   UNL     1      -0.673  25.948  17.058  1.00  0.00     0.041 C 
ATOM     16  O   UNL     1      -1.626  26.745  17.271  1.00  0.00    -0.550 OA
ATOM     17  O   UNL     1      -0.933  24.597  16.875  1.00  0.00    -0.550 OA
ENDBRANCH  14  15
ENDBRANCH  13  14
ENDBRANCH  12  13
ENDBRANCH  11  12
ENDBRANCH  10  11
ENDBRANCH   9  10
ENDBRANCH   8   9
ENDBRANCH   7   8
ENDBRANCH   6   7
ENDBRANCH   5   6
ENDBRANCH   4   5
ENDBRANCH   3   4
ENDBRANCH   2   3
ENDBRANCH   1   2
BRANCH   1  18
ATOM     18  C   UNL     1      -0.267  22.735  23.169  1.00  0.00     0.000 C 
BRANCH  18  19
ATOM     19  C   UNL     1       0.174  21.872  21.972  1.00  0.00     0.000 C 
BRANCH  19  20
ATOM     20  C   UNL     1      -0.686  22.121  20.722  1.00  0.00     0.000 C 
BRANCH  20  21
ATOM     21  C   UNL     1       0.165  22.369  19.463  1.00  0.00     0.000 C 
BRANCH  21  22
ATOM     22  C   UNL     1       1.652  22.030  19.692  1.00  0.00     0.000 C 
BRANCH  22  23
ATOM     23  C   UNL     1       2.125  20.769  18.946  1.00  0.00     0.000 C 
BRANCH  23  24
ATOM     24  C   UNL     1       1.932  19.485  19.770  1.00  0.00    -0.000 C 
BRANCH  24  25
ATOM     25  C   UNL     1       1.924  18.207  18.906  1.00  0.00    -0.000 C 
BRANCH  25  26
ATOM     26  C   UNL     1       0.738  17.255  19.147  1.00  0.00    -0.000 C 
BRANCH  26  27
ATOM     27  C   UNL     1       0.376  16.423  17.907  1.00  0.00    -0.000 C 
BRANCH  27  28
ATOM     28  C   UNL     1       1.477  15.400  17.592  1.00  0.00    -0.000 C 
BRANCH  28  29
ATOM     29  C   UNL     1       1.819  14.515  18.808  1.00  0.00    -0.000 C 
BRANCH  29  30
ATOM     30  C   UNL     1       0.756  13.443  19.128  1.00  0.00    -0.000 C 
BRANCH  30  31
ATOM     31  C   UNL     1       1.337  12.118  19.661  1.00  0.00    -0.003 C 
ATOM     32  C   UNL     1       1.347  11.010  18.606  1.00  0.00     0.004 C 
ENDBRANCH  30  31
ENDBRANCH  29  30
ENDBRANCH  28  29
ENDBRANCH  27  28
ENDBRANCH  26  27
ENDBRANCH  25  26
ENDBRANCH  24  25
ENDBRANCH  23  24
ENDBRANCH  22  23
ENDBRANCH  21  22
ENDBRANCH  20  21
ENDBRANCH  19  20
ENDBRANCH  18  19
ENDBRANCH   1  18
TORSDOF 28
ENDMDL
MODEL 7
REMARK VINA RESULT:    -1.155      4.106     10.550
REMARK INTER + INTRA:          -4.951
REMARK INTER:                  -3.791
REMARK INTRA:                  -1.160
REMARK UNBOUND:                -1.905
REMARK SMILES CCCCCCCCCCCCCCCCCCCCCCCCCCCCCC(=O)[O-]
REMARK SMILES IDX 16 1 17 2 18 3 19 4 20 5 21 6 22 7 23 8 24 9 25 10 26 11
REMARK SMILES IDX 27 12 28 13 29 14 30 15 31 16 32 17 15 18 14 19 13 20 12 21
REMARK SMILES IDX 11 22 10 23 9 24 8 25 7 26 6 27 5 28 4 29 3 30 2 31 1 32
REMARK H PARENT
REMARK Flexibility Score: inf
ROOT
ATOM      1  C   UNL     1       0.266  21.413  20.864  1.00  0.00     0.000 C 
ENDROOT
BRANCH   1   2
ATOM      2  C   UNL     1       1.421  22.242  21.460  1.00  0.00     0.000 C 
BRANCH   2   3
ATOM      3  C   UNL     1       2.055  23.196  20.436  1.00  0.00     0.000 C 
BRANCH   3   4
ATOM      4  C   UNL     1       1.044  24.172  19.816  1.00  0.00     0.000 C 
BRANCH   4   5
ATOM      5  C   UNL     1       1.576  25.613  19.867  1.00  0.00     0.000 C 
BRANCH   5   6
ATOM      6  C   UNL     1       1.010  26.418  21.051  1.00  0.00     0.000 C 
BRANCH   6   7
ATOM      7  C   UNL     1       2.033  26.737  22.154  1.00  0.00     0.000 C 
BRANCH   7   8
ATOM      8  C   UNL     1       1.532  27.821  23.131  1.00  0.00     0.000 C 
BRANCH   8   9
ATOM      9  C   UNL     1       0.110  27.540  23.675  1.00  0.00     0.000 C 
BRANCH   9  10
ATOM     10  C   UNL     1      -0.063  27.893  25.170  1.00  0.00     0.000 C 
BRANCH  10  11
ATOM     11  C   UNL     1      -1.524  27.840  25.668  1.00  0.00     0.000 C 
BRANCH  11  12
ATOM     12  C   UNL     1      -2.418  26.866  24.873  1.00  0.00     0.000 C 
BRANCH  12  13
ATOM     13  C   UNL     1      -2.576  25.466  25.499  1.00  0.00     0.006 C 
BRANCH  13  14
ATOM     14  C   UNL     1      -3.875  24.736  25.122  1.00  0.00     0.053 C 
BRANCH  14  15
ATOM     15  C   UNL     1      -4.433  23.931  26.257  1.00  0.00     0.041 C 
ATOM     16  O   UNL     1      -3.761  23.761  27.310  1.00  0.00    -0.550 OA
ATOM     17  O   UNL     1      -5.707  23.389  26.159  1.00  0.00    -0.550 OA
ENDBRANCH  14  15
ENDBRANCH  13  14
ENDBRANCH  12  13
ENDBRANCH  11  12
ENDBRANCH  10  11
ENDBRANCH   9  10
ENDBRANCH   8   9
ENDBRANCH   7   8
ENDBRANCH   6   7
ENDBRANCH   5   6
ENDBRANCH   4   5
ENDBRANCH   3   4
ENDBRANCH   2   3
ENDBRANCH   1   2
BRANCH   1  18
ATOM     18  C   UNL     1       0.758  20.119  20.194  1.00  0.00     0.000 C 
BRANCH  18  19
ATOM     19  C   UNL     1       0.144  18.856  20.826  1.00  0.00     0.000 C 
BRANCH  19  20
ATOM     20  C   UNL     1       1.208  17.940  21.456  1.00  0.00     0.000 C 
BRANCH  20  21
ATOM     21  C   UNL     1       0.899  16.447  21.242  1.00  0.00     0.000 C 
BRANCH  21  22
ATOM     22  C   UNL     1       2.123  15.672  20.711  1.00  0.00     0.000 C 
BRANCH  22  23
ATOM     23  C   UNL     1       1.796  14.250  20.223  1.00  0.00     0.000 C 
BRANCH  23  24
ATOM     24  C   UNL     1       0.753  14.236  19.092  1.00  0.00    -0.000 C 
BRANCH  24  25
ATOM     25  C   UNL     1       1.342  13.812  17.731  1.00  0.00    -0.000 C 
BRANCH  25  26
ATOM     26  C   UNL     1       1.940  14.953  16.887  1.00  0.00    -0.000 C 
BRANCH  26  27
ATOM     27  C   UNL     1       1.695  16.342  17.497  1.00  0.00    -0.000 C 
BRANCH  27  28
ATOM     28  C   UNL     1       0.198  16.573  17.753  1.00  0.00    -0.000 C 
BRANCH  28  29
ATOM     29  C   UNL     1      -0.344  17.799  16.989  1.00  0.00    -0.000 C 
BRANCH  29  30
ATOM     30  C   UNL     1       0.377  19.121  17.325  1.00  0.00    -0.000 C 
BRANCH  30  31
ATOM     31  C   UNL     1      -0.382  20.386  16.875  1.00  0.00    -0.003 C 
ATOM     32  C   UNL     1       0.406  21.672  17.134  1.00  0.00     0.004 C 
ENDBRANCH  30  31
ENDBRANCH  29  30
ENDBRANCH  28  29
ENDBRANCH  27  28
ENDBRANCH  26  27
ENDBRANCH  25  26
ENDBRANCH  24  25
ENDBRANCH  23  24
ENDBRANCH  22  23
ENDBRANCH  21  22
ENDBRANCH  20  21
ENDBRANCH  19  20
ENDBRANCH  18  19
ENDBRANCH   1  18
TORSDOF 28
ENDMDL
