MODEL 1
REMARK VINA RESULT:    -4.406      0.000      0.000
REMARK INTER + INTRA:          -5.901
REMARK INTER:                  -5.694
REMARK INTRA:                  -0.208
REMARK UNBOUND:                -0.208
REMARK SMILES C=CC(=O)CCCCC
REMARK SMILES IDX 6 1 7 2 8 3 9 4 5 5 3 6 4 7 2 8 1 9
REMARK H PARENT
REMARK Flexibility Score: inf
ROOT
ATOM      1  C   UNL     1     -12.898 -15.432  28.993  1.00  0.00     0.008 C 
ENDROOT
BRANCH   1   2
ATOM      2  C   UNL     1     -12.930 -16.204  27.665  1.00  0.00     0.000 C 
BRANCH   2   3
ATOM      3  C   UNL     1     -11.641 -17.000  27.416  1.00  0.00    -0.003 C 
ATOM      4  C   UNL     1     -11.253 -17.053  25.939  1.00  0.00     0.004 C 
ENDBRANCH   2   3
ENDBRANCH   1   2
BRANCH   1   5
ATOM      5  C   UNL     1     -12.420 -16.331  30.138  1.00  0.00     0.080 C 
BRANCH   5   6
ATOM      6  C   UNL     1     -13.343 -16.220  31.315  1.00  0.00     0.155 C 
ATOM      7  O   UNL     1     -13.354 -17.137  32.182  1.00  0.00    -0.295 OA
BRANCH   6   8
ATOM      8  C   UNL     1     -14.258 -15.068  31.430  1.00  0.00     0.039 C 
ATOM      9  C   UNL     1     -14.905 -14.778  32.558  1.00  0.00     0.012 C 
ENDBRANCH   6   8
ENDBRANCH   5   6
ENDBRANCH   1   5
TORSDOF 5
ENDMDL
MODEL 2
REMARK VINA RESULT:    -4.380      2.292      3.251
REMARK INTER + INTRA:          -5.868
REMARK INTER:                  -5.305
REMARK INTRA:                  -0.563
REMARK UNBOUND:                -0.208
REMARK SMILES C=CC(=O)CCCCC
REMARK SMILES IDX 6 1 7 2 8 3 9 4 5 5 3 6 4 7 2 8 1 9
REMARK H PARENT
REMARK Flexibility Score: inf
ROOT
ATOM      1  C   UNL     1     -12.077 -16.250  29.435  1.00  0.00     0.008 C 
ENDROOT
BRANCH   1   2
ATOM      2  C   UNL     1     -12.873 -15.595  28.297  1.00  0.00     0.000 C 
BRANCH   2   3
ATOM      3  C   UNL     1     -12.951 -16.482  27.045  1.00  0.00    -0.003 C 
ATOM      4  C   UNL     1     -11.586 -17.012  26.609  1.00  0.00     0.004 C 
ENDBRANCH   2   3
ENDBRANCH   1   2
BRANCH   1   5
ATOM      5  C   UNL     1     -12.903 -17.343  30.123  1.00  0.00     0.080 C 
BRANCH   5   6
ATOM      6  C   UNL     1     -12.208 -18.669  30.025  1.00  0.00     0.155 C 
ATOM      7  O   UNL     1     -11.019 -18.776  30.433  1.00  0.00    -0.295 OA
BRANCH   6   8
ATOM      8  C   UNL     1     -12.898 -19.822  29.416  1.00  0.00     0.039 C 
ATOM      9  C   UNL     1     -13.979 -19.685  28.649  1.00  0.00     0.012 C 
ENDBRANCH   6   8
ENDBRANCH   5   6
ENDBRANCH   1   5
TORSDOF 5
ENDMDL
MODEL 3
REMARK VINA RESULT:    -4.367      2.631      3.908
REMARK INTER + INTRA:          -5.851
REMARK INTER:                  -5.330
REMARK INTRA:                  -0.521
REMARK UNBOUND:                -0.208
REMARK SMILES C=CC(=O)CCCCC
REMARK SMILES IDX 6 1 7 2 8 3 9 4 5 5 3 6 4 7 2 8 1 9
REMARK H PARENT
REMARK Flexibility Score: inf
ROOT
ATOM      1  C   UNL     1     -12.409 -17.285  31.355  1.00  0.00     0.008 C 
ENDROOT
BRANCH   1   2
ATOM      2  C   UNL     1     -13.229 -16.145  30.732  1.00  0.00     0.000 C 
BRANCH   2   3
ATOM      3  C   UNL     1     -12.830 -15.859  29.277  1.00  0.00    -0.003 C 
ATOM      4  C   UNL     1     -11.317 -15.875  29.062  1.00  0.00     0.004 C 
ENDBRANCH   2   3
ENDBRANCH   1   2
BRANCH   1   5
ATOM      5  C   UNL     1     -13.304 -18.482  31.693  1.00  0.00     0.080 C 
BRANCH   5   6
ATOM      6  C   UNL     1     -12.838 -19.709  30.967  1.00  0.00     0.155 C 
ATOM      7  O   UNL     1     -12.473 -20.719  31.630  1.00  0.00    -0.295 OA
BRANCH   6   8
ATOM      8  C   UNL     1     -12.769 -19.714  29.493  1.00  0.00     0.039 C 
ATOM      9  C   UNL     1     -13.856 -19.652  28.725  1.00  0.00     0.012 C 
ENDBRANCH   6   8
ENDBRANCH   5   6
ENDBRANCH   1   5
TORSDOF 5
ENDMDL
MODEL 4
REMARK VINA RESULT:    -4.366      2.709      4.937
REMARK INTER + INTRA:          -5.850
REMARK INTER:                  -5.596
REMARK INTRA:                  -0.254
REMARK UNBOUND:                -0.208
REMARK SMILES C=CC(=O)CCCCC
REMARK SMILES IDX 6 1 7 2 8 3 9 4 5 5 3 6 4 7 2 8 1 9
REMARK H PARENT
REMARK Flexibility Score: inf
ROOT
ATOM      1  C   UNL     1     -12.699 -17.148  30.744  1.00  0.00     0.008 C 
ENDROOT
BRANCH   1   2
ATOM      2  C   UNL     1     -13.451 -15.866  31.131  1.00  0.00     0.000 C 
BRANCH   2   3
ATOM      3  C   UNL     1     -14.052 -15.939  32.543  1.00  0.00    -0.003 C 
ATOM      4  C   UNL     1     -15.277 -15.041  32.713  1.00  0.00     0.004 C 
ENDBRANCH   2   3
ENDBRANCH   1   2
BRANCH   1   5
ATOM      5  C   UNL     1     -13.089 -18.311  31.663  1.00  0.00     0.080 C 
BRANCH   5   6
ATOM      6  C   UNL     1     -12.833 -19.625  30.986  1.00  0.00     0.155 C 
ATOM      7  O   UNL     1     -12.581 -20.643  31.687  1.00  0.00    -0.295 OA
BRANCH   6   8
ATOM      8  C   UNL     1     -12.833 -19.710  29.513  1.00  0.00     0.039 C 
ATOM      9  C   UNL     1     -13.922 -20.027  28.815  1.00  0.00     0.012 C 
ENDBRANCH   6   8
ENDBRANCH   5   6
ENDBRANCH   1   5
TORSDOF 5
ENDMDL
MODEL 5
REMARK VINA RESULT:    -4.335      1.409      5.021
REMARK INTER + INTRA:          -5.810
REMARK INTER:                  -5.629
REMARK INTRA:                  -0.181
REMARK UNBOUND:                -0.208
REMARK SMILES C=CC(=O)CCCCC
REMARK SMILES IDX 6 1 7 2 8 3 9 4 5 5 3 6 4 7 2 8 1 9
REMARK H PARENT
REMARK Flexibility Score: inf
ROOT
ATOM      1  C   UNL     1     -12.194 -16.152  30.604  1.00  0.00     0.008 C 
ENDROOT
BRANCH   1   2
ATOM      2  C   UNL     1     -13.272 -16.150  31.697  1.00  0.00     0.000 C 
BRANCH   2   3
ATOM      3  C   UNL     1     -14.294 -15.018  31.515  1.00  0.00    -0.003 C 
ATOM      4  C   UNL     1     -15.316 -14.953  32.649  1.00  0.00     0.004 C 
ENDBRANCH   2   3
ENDBRANCH   1   2
BRANCH   1   5
ATOM      5  C   UNL     1     -12.810 -15.884  29.226  1.00  0.00     0.080 C 
BRANCH   5   6
ATOM      6  C   UNL     1     -12.620 -17.068  28.325  1.00  0.00     0.155 C 
ATOM      7  O   UNL     1     -13.466 -18.004  28.346  1.00  0.00    -0.295 OA
BRANCH   6   8
ATOM      8  C   UNL     1     -11.430 -17.152  27.455  1.00  0.00     0.039 C 
ATOM      9  C   UNL     1     -11.509 -17.087  26.127  1.00  0.00     0.012 C 
ENDBRANCH   6   8
ENDBRANCH   5   6
ENDBRANCH   1   5
TORSDOF 5
ENDMDL
MODEL 6
REMARK VINA RESULT:    -4.333      2.621      3.187
REMARK INTER + INTRA:          -5.808
REMARK INTER:                  -5.564
REMARK INTRA:                  -0.243
REMARK UNBOUND:                -0.208
REMARK SMILES C=CC(=O)CCCCC
REMARK SMILES IDX 6 1 7 2 8 3 9 4 5 5 3 6 4 7 2 8 1 9
REMARK H PARENT
REMARK Flexibility Score: inf
ROOT
ATOM      1  C   UNL     1     -13.189 -18.717  31.794  1.00  0.00     0.008 C 
ENDROOT
BRANCH   1   2
ATOM      2  C   UNL     1     -12.914 -19.965  30.942  1.00  0.00     0.000 C 
BRANCH   2   3
ATOM      3  C   UNL     1     -12.823 -19.647  29.442  1.00  0.00    -0.003 C 
ATOM      4  C   UNL     1     -14.082 -20.046  28.674  1.00  0.00     0.004 C 
ENDBRANCH   2   3
ENDBRANCH   1   2
BRANCH   1   5
ATOM      5  C   UNL     1     -12.410 -17.508  31.262  1.00  0.00     0.080 C 
BRANCH   5   6
ATOM      6  C   UNL     1     -13.303 -16.306  31.169  1.00  0.00     0.155 C 
ATOM      7  O   UNL     1     -13.348 -15.652  30.091  1.00  0.00    -0.295 OA
BRANCH   6   8
ATOM      8  C   UNL     1     -14.085 -15.873  32.343  1.00  0.00     0.039 C 
ATOM      9  C   UNL     1     -14.732 -14.710  32.382  1.00  0.00     0.012 C 
ENDBRANCH   6   8
ENDBRANCH   5   6
ENDBRANCH   1   5
TORSDOF 5
ENDMDL
MODEL 7
REMARK VINA RESULT:    -4.288      2.405      3.534
REMARK INTER + INTRA:          -5.749
REMARK INTER:                  -5.236
REMARK INTRA:                  -0.513
REMARK UNBOUND:                -0.208
REMARK SMILES C=CC(=O)CCCCC
REMARK SMILES IDX 6 1 7 2 8 3 9 4 5 5 3 6 4 7 2 8 1 9
REMARK H PARENT
REMARK Flexibility Score: inf
ROOT
ATOM      1  C   UNL     1     -12.284 -18.425  31.478  1.00  0.00     0.008 C 
ENDROOT
BRANCH   1   2
ATOM      2  C   UNL     1     -13.086 -19.657  31.032  1.00  0.00     0.000 C 
BRANCH   2   3
ATOM      3  C   UNL     1     -12.871 -19.995  29.549  1.00  0.00    -0.003 C 
ATOM      4  C   UNL     1     -14.007 -19.499  28.656  1.00  0.00     0.004 C 
ENDBRANCH   2   3
ENDBRANCH   1   2
BRANCH   1   5
ATOM      5  C   UNL     1     -13.215 -17.323  31.994  1.00  0.00     0.080 C 
BRANCH   5   6
ATOM      6  C   UNL     1     -13.283 -16.189  31.015  1.00  0.00     0.155 C 
ATOM      7  O   UNL     1     -14.085 -15.237  31.224  1.00  0.00    -0.295 OA
BRANCH   6   8
ATOM      8  C   UNL     1     -12.449 -16.213  29.798  1.00  0.00     0.039 C 
ATOM      9  C   UNL     1     -12.803 -15.590  28.675  1.00  0.00     0.012 C 
ENDBRANCH   6   8
ENDBRANCH   5   6
ENDBRANCH   1   5
TORSDOF 5
ENDMDL
MODEL 8
REMARK VINA RESULT:    -4.253      2.488      4.674
REMARK INTER + INTRA:          -5.704
REMARK INTER:                  -5.434
REMARK INTRA:                  -0.270
REMARK UNBOUND:                -0.208
REMARK SMILES C=CC(=O)CCCCC
REMARK SMILES IDX 6 1 7 2 8 3 9 4 5 5 3 6 4 7 2 8 1 9
REMARK H PARENT
REMARK Flexibility Score: inf
ROOT
ATOM      1  C   UNL     1     -12.883 -16.411  29.890  1.00  0.00     0.008 C 
ENDROOT
BRANCH   1   2
ATOM      2  C   UNL     1     -13.279 -16.095  31.340  1.00  0.00     0.000 C 
BRANCH   2   3
ATOM      3  C   UNL     1     -14.360 -15.007  31.432  1.00  0.00    -0.003 C 
ATOM      4  C   UNL     1     -15.119 -15.036  32.758  1.00  0.00     0.004 C 
ENDBRANCH   2   3
ENDBRANCH   1   2
BRANCH   1   5
ATOM      5  C   UNL     1     -12.110 -17.732  29.809  1.00  0.00     0.080 C 
BRANCH   5   6
ATOM      6  C   UNL     1     -13.045 -18.874  29.540  1.00  0.00     0.155 C 
ATOM      7  O   UNL     1     -13.665 -18.920  28.442  1.00  0.00    -0.295 OA
BRANCH   6   8
ATOM      8  C   UNL     1     -13.268 -19.905  30.571  1.00  0.00     0.039 C 
ATOM      9  C   UNL     1     -12.538 -19.975  31.683  1.00  0.00     0.012 C 
ENDBRANCH   6   8
ENDBRANCH   5   6
ENDBRANCH   1   5
TORSDOF 5
ENDMDL
MODEL 9
REMARK VINA RESULT:    -4.064      2.542      4.735
REMARK INTER + INTRA:          -5.460
REMARK INTER:                  -4.906
REMARK INTRA:                  -0.555
REMARK UNBOUND:                -0.208
REMARK SMILES C=CC(=O)CCCCC
REMARK SMILES IDX 6 1 7 2 8 3 9 4 5 5 3 6 4 7 2 8 1 9
REMARK H PARENT
REMARK Flexibility Score: inf
ROOT
ATOM      1  C   UNL     1     -12.931 -18.768  31.427  1.00  0.00     0.008 C 
ENDROOT
BRANCH   1   2
ATOM      2  C   UNL     1     -11.867 -17.792  31.949  1.00  0.00     0.000 C 
BRANCH   2   3
ATOM      3  C   UNL     1     -12.455 -16.423  32.324  1.00  0.00    -0.003 C 
ATOM      4  C   UNL     1     -13.508 -15.938  31.328  1.00  0.00     0.004 C 
ENDBRANCH   2   3
ENDBRANCH   1   2
BRANCH   1   5
ATOM      5  C   UNL     1     -12.425 -19.523  30.193  1.00  0.00     0.080 C 
BRANCH   5   6
ATOM      6  C   UNL     1     -13.206 -19.127  28.976  1.00  0.00     0.155 C 
ATOM      7  O   UNL     1     -14.141 -19.871  28.571  1.00  0.00    -0.295 OA
BRANCH   6   8
ATOM      8  C   UNL     1     -12.852 -17.899  28.238  1.00  0.00     0.039 C 
ATOM      9  C   UNL     1     -11.610 -17.419  28.202  1.00  0.00     0.012 C 
ENDBRANCH   6   8
ENDBRANCH   5   6
ENDBRANCH   1   5
TORSDOF 5
ENDMDL
