MODEL 1
REMARK VINA RESULT:    -4.065      0.000      0.000
REMARK INTER + INTRA:          -8.646
REMARK INTER:                  -7.510
REMARK INTRA:                  -1.136
REMARK UNBOUND:                -1.136
REMARK SMILES CCCCCCCCCCCCCCCCO
REMARK SMILES IDX 9 1 8 2 7 3 6 4 5 5 4 6 3 7 2 8 1 9 10 10 11 11 12 12 13 13
REMARK SMILES IDX 14 14 15 15 16 16 17 17
REMARK H PARENT 17 18
REMARK Flexibility Score: inf
ROOT
ATOM      1  C   UNL     1      27.272  27.513  23.073  1.00  0.00     0.000 C 
ENDROOT
BRANCH   1   2
ATOM      2  C   UNL     1      27.427  26.629  21.819  1.00  0.00    -0.000 C 
BRANCH   2   3
ATOM      3  C   UNL     1      28.224  25.326  22.030  1.00  0.00    -0.000 C 
BRANCH   3   4
ATOM      4  C   UNL     1      29.720  25.409  21.675  1.00  0.00    -0.000 C 
BRANCH   4   5
ATOM      5  C   UNL     1      30.631  25.335  22.912  1.00  0.00    -0.000 C 
BRANCH   5   6
ATOM      6  C   UNL     1      31.714  26.426  22.914  1.00  0.00    -0.000 C 
BRANCH   6   7
ATOM      7  C   UNL     1      31.127  27.843  23.012  1.00  0.00    -0.000 C 
BRANCH   7   8
ATOM      8  C   UNL     1      31.446  28.655  21.751  1.00  0.00    -0.003 C 
ATOM      9  C   UNL     1      31.357  30.154  22.022  1.00  0.00     0.004 C 
ENDBRANCH   7   8
ENDBRANCH   6   7
ENDBRANCH   5   6
ENDBRANCH   4   5
ENDBRANCH   3   4
ENDBRANCH   2   3
ENDBRANCH   1   2
BRANCH   1  10
ATOM     10  C   UNL     1      26.829  26.764  24.341  1.00  0.00     0.000 C 
BRANCH  10  11
ATOM     11  C   UNL     1      25.334  26.394  24.320  1.00  0.00     0.000 C 
BRANCH  11  12
ATOM     12  C   UNL     1      25.100  24.874  24.346  1.00  0.00     0.000 C 
BRANCH  12  13
ATOM     13  C   UNL     1      23.610  24.507  24.235  1.00  0.00     0.000 C 
BRANCH  13  14
ATOM     14  C   UNL     1      23.276  23.747  22.938  1.00  0.00     0.002 C 
BRANCH  14  15
ATOM     15  C   UNL     1      21.801  23.331  22.787  1.00  0.00     0.028 C 
BRANCH  15  16
ATOM     16  C   UNL     1      21.631  21.912  22.233  1.00  0.00     0.156 C 
BRANCH  16  17
ATOM     17  O   UNL     1      22.714  21.582  21.407  1.00  0.00    -0.396 OA
ATOM     18  H   UNL     1      22.373  21.584  20.475  1.00  0.00     0.210 HD
ENDBRANCH  16  17
ENDBRANCH  15  16
ENDBRANCH  14  15
ENDBRANCH  13  14
ENDBRANCH  12  13
ENDBRANCH  11  12
ENDBRANCH  10  11
ENDBRANCH   1  10
TORSDOF 15
ENDMDL
MODEL 2
REMARK VINA RESULT:    -4.061      2.126      7.530
REMARK INTER + INTRA:          -8.639
REMARK INTER:                  -7.490
REMARK INTRA:                  -1.149
REMARK UNBOUND:                -1.136
REMARK SMILES CCCCCCCCCCCCCCCCO
REMARK SMILES IDX 9 1 8 2 7 3 6 4 5 5 4 6 3 7 2 8 1 9 10 10 11 11 12 12 13 13
REMARK SMILES IDX 14 14 15 15 16 16 17 17
REMARK H PARENT 17 18
REMARK Flexibility Score: inf
ROOT
ATOM      1  C   UNL     1      27.350  27.627  24.790  1.00  0.00     0.000 C 
ENDROOT
BRANCH   1   2
ATOM      2  C   UNL     1      25.833  27.395  24.642  1.00  0.00    -0.000 C 
BRANCH   2   3
ATOM      3  C   UNL     1      25.436  26.095  23.914  1.00  0.00    -0.000 C 
BRANCH   3   4
ATOM      4  C   UNL     1      24.554  25.132  24.729  1.00  0.00    -0.000 C 
BRANCH   4   5
ATOM      5  C   UNL     1      23.606  24.302  23.848  1.00  0.00    -0.000 C 
BRANCH   5   6
ATOM      6  C   UNL     1      22.189  24.201  24.438  1.00  0.00    -0.000 C 
BRANCH   6   7
ATOM      7  C   UNL     1      21.220  23.436  23.524  1.00  0.00    -0.000 C 
BRANCH   7   8
ATOM      8  C   UNL     1      21.961  22.824  22.330  1.00  0.00    -0.003 C 
ATOM      9  C   UNL     1      21.502  21.392  22.070  1.00  0.00     0.004 C 
ENDBRANCH   7   8
ENDBRANCH   6   7
ENDBRANCH   5   6
ENDBRANCH   4   5
ENDBRANCH   3   4
ENDBRANCH   2   3
ENDBRANCH   1   2
BRANCH   1  10
ATOM     10  C   UNL     1      27.907  28.804  23.971  1.00  0.00     0.000 C 
BRANCH  10  11
ATOM     11  C   UNL     1      29.446  28.836  23.949  1.00  0.00     0.000 C 
BRANCH  11  12
ATOM     12  C   UNL     1      30.068  27.432  24.026  1.00  0.00     0.000 C 
BRANCH  12  13
ATOM     13  C   UNL     1      30.581  26.940  22.662  1.00  0.00     0.000 C 
BRANCH  13  14
ATOM     14  C   UNL     1      30.180  25.485  22.360  1.00  0.00     0.002 C 
BRANCH  14  15
ATOM     15  C   UNL     1      28.738  25.295  21.858  1.00  0.00     0.028 C 
BRANCH  15  16
ATOM     16  C   UNL     1      28.385  26.216  20.683  1.00  0.00     0.156 C 
BRANCH  16  17
ATOM     17  O   UNL     1      27.226  26.949  20.976  1.00  0.00    -0.396 OA
ATOM     18  H   UNL     1      26.665  26.932  20.158  1.00  0.00     0.210 HD
ENDBRANCH  16  17
ENDBRANCH  15  16
ENDBRANCH  14  15
ENDBRANCH  13  14
ENDBRANCH  12  13
ENDBRANCH  11  12
ENDBRANCH  10  11
ENDBRANCH   1  10
TORSDOF 15
ENDMDL
MODEL 3
REMARK VINA RESULT:    -4.020      3.848      6.983
REMARK INTER + INTRA:          -8.563
REMARK INTER:                  -6.786
REMARK INTRA:                  -1.776
REMARK UNBOUND:                -1.136
REMARK SMILES CCCCCCCCCCCCCCCCO
REMARK SMILES IDX 9 1 8 2 7 3 6 4 5 5 4 6 3 7 2 8 1 9 10 10 11 11 12 12 13 13
REMARK SMILES IDX 14 14 15 15 16 16 17 17
REMARK H PARENT 17 18
REMARK Flexibility Score: inf
ROOT
ATOM      1  C   UNL     1      27.393  27.131  22.871  1.00  0.00     0.000 C 
ENDROOT
BRANCH   1   2
ATOM      2  C   UNL     1      27.461  27.303  24.401  1.00  0.00    -0.000 C 
BRANCH   2   3
ATOM      3  C   UNL     1      26.134  27.703  25.077  1.00  0.00    -0.000 C 
BRANCH   3   4
ATOM      4  C   UNL     1      24.966  27.979  24.112  1.00  0.00    -0.000 C 
BRANCH   4   5
ATOM      5  C   UNL     1      24.336  29.366  24.321  1.00  0.00    -0.000 C 
BRANCH   5   6
ATOM      6  C   UNL     1      25.158  30.491  23.669  1.00  0.00    -0.000 C 
BRANCH   6   7
ATOM      7  C   UNL     1      25.873  31.377  24.700  1.00  0.00    -0.000 C 
BRANCH   7   8
ATOM      8  C   UNL     1      27.182  31.933  24.128  1.00  0.00    -0.003 C 
ATOM      9  C   UNL     1      28.288  30.883  24.158  1.00  0.00     0.004 C 
ENDBRANCH   7   8
ENDBRANCH   6   7
ENDBRANCH   5   6
ENDBRANCH   4   5
ENDBRANCH   3   4
ENDBRANCH   2   3
ENDBRANCH   1   2
BRANCH   1  10
ATOM     10  C   UNL     1      27.689  25.708  22.366  1.00  0.00     0.000 C 
BRANCH  10  11
ATOM     11  C   UNL     1      28.832  25.670  21.336  1.00  0.00     0.000 C 
BRANCH  11  12
ATOM     12  C   UNL     1      30.056  24.886  21.838  1.00  0.00     0.000 C 
BRANCH  12  13
ATOM     13  C   UNL     1      30.608  25.442  23.163  1.00  0.00     0.000 C 
BRANCH  13  14
ATOM     14  C   UNL     1      31.678  26.529  22.956  1.00  0.00     0.002 C 
BRANCH  14  15
ATOM     15  C   UNL     1      31.359  27.890  23.600  1.00  0.00     0.028 C 
BRANCH  15  16
ATOM     16  C   UNL     1      31.276  29.033  22.582  1.00  0.00     0.156 C 
BRANCH  16  17
ATOM     17  O   UNL     1      30.712  28.573  21.384  1.00  0.00    -0.396 OA
ATOM     18  H   UNL     1      31.383  27.972  20.966  1.00  0.00     0.210 HD
ENDBRANCH  16  17
ENDBRANCH  15  16
ENDBRANCH  14  15
ENDBRANCH  13  14
ENDBRANCH  12  13
ENDBRANCH  11  12
ENDBRANCH  10  11
ENDBRANCH   1  10
TORSDOF 15
ENDMDL
MODEL 4
REMARK VINA RESULT:    -4.006      4.358      7.535
REMARK INTER + INTRA:          -8.538
REMARK INTER:                  -6.525
REMARK INTRA:                  -2.013
REMARK UNBOUND:                -1.136
REMARK SMILES CCCCCCCCCCCCCCCCO
REMARK SMILES IDX 9 1 8 2 7 3 6 4 5 5 4 6 3 7 2 8 1 9 10 10 11 11 12 12 13 13
REMARK SMILES IDX 14 14 15 15 16 16 17 17
REMARK H PARENT 17 18
REMARK Flexibility Score: inf
ROOT
ATOM      1  C   UNL     1      27.907  25.855  22.144  1.00  0.00     0.000 C 
ENDROOT
BRANCH   1   2
ATOM      2  C   UNL     1      27.257  27.086  22.805  1.00  0.00    -0.000 C 
BRANCH   2   3
ATOM      3  C   UNL     1      27.337  27.122  24.345  1.00  0.00    -0.000 C 
BRANCH   3   4
ATOM      4  C   UNL     1      28.300  28.174  24.926  1.00  0.00    -0.000 C 
BRANCH   4   5
ATOM      5  C   UNL     1      28.409  29.431  24.046  1.00  0.00    -0.000 C 
BRANCH   5   6
ATOM      6  C   UNL     1      27.793  30.673  24.712  1.00  0.00    -0.000 C 
BRANCH   6   7
ATOM      7  C   UNL     1      26.507  31.142  24.016  1.00  0.00    -0.000 C 
BRANCH   7   8
ATOM      8  C   UNL     1      25.268  30.562  24.707  1.00  0.00    -0.003 C 
ATOM      9  C   UNL     1      24.496  29.636  23.771  1.00  0.00     0.004 C 
ENDBRANCH   7   8
ENDBRANCH   6   7
ENDBRANCH   5   6
ENDBRANCH   4   5
ENDBRANCH   3   4
ENDBRANCH   2   3
ENDBRANCH   1   2
BRANCH   1  10
ATOM     10  C   UNL     1      29.374  26.046  21.722  1.00  0.00     0.000 C 
BRANCH  10  11
ATOM     11  C   UNL     1      30.353  25.253  22.606  1.00  0.00     0.000 C 
BRANCH  11  12
ATOM     12  C   UNL     1      31.256  26.163  23.455  1.00  0.00     0.000 C 
BRANCH  12  13
ATOM     13  C   UNL     1      32.054  27.163  22.600  1.00  0.00     0.000 C 
BRANCH  13  14
ATOM     14  C   UNL     1      31.753  28.630  22.957  1.00  0.00     0.002 C 
BRANCH  14  15
ATOM     15  C   UNL     1      31.727  29.600  21.762  1.00  0.00     0.028 C 
BRANCH  15  16
ATOM     16  C   UNL     1      31.493  31.058  22.176  1.00  0.00     0.156 C 
BRANCH  16  17
ATOM     17  O   UNL     1      30.296  31.531  21.621  1.00  0.00    -0.396 OA
ATOM     18  H   UNL     1      29.632  31.561  22.358  1.00  0.00     0.210 HD
ENDBRANCH  16  17
ENDBRANCH  15  16
ENDBRANCH  14  15
ENDBRANCH  13  14
ENDBRANCH  12  13
ENDBRANCH  11  12
ENDBRANCH  10  11
ENDBRANCH   1  10
TORSDOF 15
ENDMDL
MODEL 5
REMARK VINA RESULT:    -3.965      3.104      7.034
REMARK INTER + INTRA:          -8.462
REMARK INTER:                  -6.873
REMARK INTRA:                  -1.589
REMARK UNBOUND:                -1.136
REMARK SMILES CCCCCCCCCCCCCCCCO
REMARK SMILES IDX 9 1 8 2 7 3 6 4 5 5 4 6 3 7 2 8 1 9 10 10 11 11 12 12 13 13
REMARK SMILES IDX 14 14 15 15 16 16 17 17
REMARK H PARENT 17 18
REMARK Flexibility Score: inf
ROOT
ATOM      1  C   UNL     1      30.123  30.462  24.072  1.00  0.00     0.000 C 
ENDROOT
BRANCH   1   2
ATOM      2  C   UNL     1      28.648  30.011  24.077  1.00  0.00    -0.000 C 
BRANCH   2   3
ATOM      3  C   UNL     1      27.724  30.801  25.026  1.00  0.00    -0.000 C 
BRANCH   3   4
ATOM      4  C   UNL     1      26.668  31.680  24.330  1.00  0.00    -0.000 C 
BRANCH   4   5
ATOM      5  C   UNL     1      25.229  31.295  24.711  1.00  0.00    -0.000 C 
BRANCH   5   6
ATOM      6  C   UNL     1      24.614  30.273  23.740  1.00  0.00    -0.000 C 
BRANCH   6   7
ATOM      7  C   UNL     1      24.481  28.874  24.359  1.00  0.00    -0.000 C 
BRANCH   7   8
ATOM      8  C   UNL     1      25.473  27.896  23.717  1.00  0.00    -0.003 C 
ATOM      9  C   UNL     1      25.694  26.673  24.603  1.00  0.00     0.004 C 
ENDBRANCH   7   8
ENDBRANCH   6   7
ENDBRANCH   5   6
ENDBRANCH   4   5
ENDBRANCH   3   4
ENDBRANCH   2   3
ENDBRANCH   1   2
BRANCH   1  10
ATOM     10  C   UNL     1      30.738  30.643  22.673  1.00  0.00     0.000 C 
BRANCH  10  11
ATOM     11  C   UNL     1      31.868  29.638  22.387  1.00  0.00     0.000 C 
BRANCH  11  12
ATOM     12  C   UNL     1      31.351  28.322  21.781  1.00  0.00     0.000 C 
BRANCH  12  13
ATOM     13  C   UNL     1      31.424  27.149  22.774  1.00  0.00     0.000 C 
BRANCH  13  14
ATOM     14  C   UNL     1      30.324  26.098  22.540  1.00  0.00     0.002 C 
BRANCH  14  15
ATOM     15  C   UNL     1      28.884  26.638  22.590  1.00  0.00     0.028 C 
BRANCH  15  16
ATOM     16  C   UNL     1      27.931  25.899  21.642  1.00  0.00     0.156 C 
BRANCH  16  17
ATOM     17  O   UNL     1      27.244  26.817  20.835  1.00  0.00    -0.396 OA
ATOM     18  H   UNL     1      27.242  27.681  21.325  1.00  0.00     0.210 HD
ENDBRANCH  16  17
ENDBRANCH  15  16
ENDBRANCH  14  15
ENDBRANCH  13  14
ENDBRANCH  12  13
ENDBRANCH  11  12
ENDBRANCH  10  11
ENDBRANCH   1  10
TORSDOF 15
ENDMDL
MODEL 6
REMARK VINA RESULT:    -3.947      2.721      4.205
REMARK INTER + INTRA:          -8.429
REMARK INTER:                  -6.595
REMARK INTRA:                  -1.835
REMARK UNBOUND:                -1.136
REMARK SMILES CCCCCCCCCCCCCCCCO
REMARK SMILES IDX 9 1 8 2 7 3 6 4 5 5 4 6 3 7 2 8 1 9 10 10 11 11 12 12 13 13
REMARK SMILES IDX 14 14 15 15 16 16 17 17
REMARK H PARENT 17 18
REMARK Flexibility Score: inf
ROOT
ATOM      1  C   UNL     1      26.205  31.032  25.125  1.00  0.00     0.000 C 
ENDROOT
BRANCH   1   2
ATOM      2  C   UNL     1      27.284  31.368  24.076  1.00  0.00    -0.000 C 
BRANCH   2   3
ATOM      3  C   UNL     1      28.579  30.536  24.178  1.00  0.00    -0.000 C 
BRANCH   3   4
ATOM      4  C   UNL     1      28.458  29.236  24.994  1.00  0.00    -0.000 C 
BRANCH   4   5
ATOM      5  C   UNL     1      29.477  28.167  24.565  1.00  0.00    -0.000 C 
BRANCH   5   6
ATOM      6  C   UNL     1      30.020  28.404  23.146  1.00  0.00    -0.000 C 
BRANCH   6   7
ATOM      7  C   UNL     1      30.455  27.105  22.453  1.00  0.00    -0.000 C 
BRANCH   7   8
ATOM      8  C   UNL     1      29.499  25.956  22.794  1.00  0.00    -0.003 C 
ATOM      9  C   UNL     1      28.672  25.546  21.580  1.00  0.00     0.004 C 
ENDBRANCH   7   8
ENDBRANCH   6   7
ENDBRANCH   5   6
ENDBRANCH   4   5
ENDBRANCH   3   4
ENDBRANCH   2   3
ENDBRANCH   1   2
BRANCH   1  10
ATOM     10  C   UNL     1      24.755  31.194  24.635  1.00  0.00     0.000 C 
BRANCH  10  11
ATOM     11  C   UNL     1      24.248  29.962  23.864  1.00  0.00     0.000 C 
BRANCH  11  12
ATOM     12  C   UNL     1      24.713  28.637  24.494  1.00  0.00     0.000 C 
BRANCH  12  13
ATOM     13  C   UNL     1      25.504  27.762  23.506  1.00  0.00     0.000 C 
BRANCH  13  14
ATOM     14  C   UNL     1      26.007  26.451  24.137  1.00  0.00     0.002 C 
BRANCH  14  15
ATOM     15  C   UNL     1      24.927  25.607  24.838  1.00  0.00     0.028 C 
BRANCH  15  16
ATOM     16  C   UNL     1      24.344  24.511  23.939  1.00  0.00     0.156 C 
BRANCH  16  17
ATOM     17  O   UNL     1      25.349  23.965  23.128  1.00  0.00    -0.396 OA
ATOM     18  H   UNL     1      24.998  23.105  22.779  1.00  0.00     0.210 HD
ENDBRANCH  16  17
ENDBRANCH  15  16
ENDBRANCH  14  15
ENDBRANCH  13  14
ENDBRANCH  12  13
ENDBRANCH  11  12
ENDBRANCH  10  11
ENDBRANCH   1  10
TORSDOF 15
ENDMDL
MODEL 7
REMARK VINA RESULT:    -3.861      1.336      2.609
REMARK INTER + INTRA:          -8.269
REMARK INTER:                  -7.007
REMARK INTRA:                  -1.262
REMARK UNBOUND:                -1.136
REMARK SMILES CCCCCCCCCCCCCCCCO
REMARK SMILES IDX 9 1 8 2 7 3 6 4 5 5 4 6 3 7 2 8 1 9 10 10 11 11 12 12 13 13
REMARK SMILES IDX 14 14 15 15 16 16 17 17
REMARK H PARENT 17 18
REMARK Flexibility Score: inf
ROOT
ATOM      1  C   UNL     1      26.614  27.695  24.496  1.00  0.00     0.000 C 
ENDROOT
BRANCH   1   2
ATOM      2  C   UNL     1      27.187  29.084  24.148  1.00  0.00    -0.000 C 
BRANCH   2   3
ATOM      3  C   UNL     1      28.654  29.312  24.565  1.00  0.00    -0.000 C 
BRANCH   3   4
ATOM      4  C   UNL     1      29.470  28.030  24.815  1.00  0.00    -0.000 C 
BRANCH   4   5
ATOM      5  C   UNL     1      30.189  27.527  23.552  1.00  0.00    -0.000 C 
BRANCH   5   6
ATOM      6  C   UNL     1      30.519  26.026  23.620  1.00  0.00    -0.000 C 
BRANCH   6   7
ATOM      7  C   UNL     1      30.287  25.307  22.282  1.00  0.00    -0.000 C 
BRANCH   7   8
ATOM      8  C   UNL     1      28.807  25.353  21.886  1.00  0.00    -0.003 C 
ATOM      9  C   UNL     1      28.587  26.248  20.670  1.00  0.00     0.004 C 
ENDBRANCH   7   8
ENDBRANCH   6   7
ENDBRANCH   5   6
ENDBRANCH   4   5
ENDBRANCH   3   4
ENDBRANCH   2   3
ENDBRANCH   1   2
BRANCH   1  10
ATOM     10  C   UNL     1      25.755  27.055  23.392  1.00  0.00     0.000 C 
BRANCH  10  11
ATOM     11  C   UNL     1      25.505  25.555  23.629  1.00  0.00     0.000 C 
BRANCH  11  12
ATOM     12  C   UNL     1      24.602  25.290  24.846  1.00  0.00     0.000 C 
BRANCH  12  13
ATOM     13  C   UNL     1      23.309  24.547  24.469  1.00  0.00     0.000 C 
BRANCH  13  14
ATOM     14  C   UNL     1      23.426  23.780  23.139  1.00  0.00     0.002 C 
BRANCH  14  15
ATOM     15  C   UNL     1      22.087  23.443  22.460  1.00  0.00     0.028 C 
BRANCH  15  16
ATOM     16  C   UNL     1      21.928  21.950  22.150  1.00  0.00     0.156 C 
BRANCH  16  17
ATOM     17  O   UNL     1      22.863  21.554  21.184  1.00  0.00    -0.396 OA
ATOM     18  H   UNL     1      23.427  22.348  20.992  1.00  0.00     0.210 HD
ENDBRANCH  16  17
ENDBRANCH  15  16
ENDBRANCH  14  15
ENDBRANCH  13  14
ENDBRANCH  12  13
ENDBRANCH  11  12
ENDBRANCH  10  11
ENDBRANCH   1  10
TORSDOF 15
ENDMDL
MODEL 8
REMARK VINA RESULT:    -3.843      3.295      5.125
REMARK INTER + INTRA:          -8.236
REMARK INTER:                  -6.682
REMARK INTRA:                  -1.554
REMARK UNBOUND:                -1.136
REMARK SMILES CCCCCCCCCCCCCCCCO
REMARK SMILES IDX 9 1 8 2 7 3 6 4 5 5 4 6 3 7 2 8 1 9 10 10 11 11 12 12 13 13
REMARK SMILES IDX 14 14 15 15 16 16 17 17
REMARK H PARENT 17 18
REMARK Flexibility Score: inf
ROOT
ATOM      1  C   UNL     1      26.438  31.237  24.008  1.00  0.00     0.000 C 
ENDROOT
BRANCH   1   2
ATOM      2  C   UNL     1      27.675  30.933  24.878  1.00  0.00    -0.000 C 
BRANCH   2   3
ATOM      3  C   UNL     1      29.025  30.971  24.134  1.00  0.00    -0.000 C 
BRANCH   3   4
ATOM      4  C   UNL     1      29.232  32.190  23.215  1.00  0.00    -0.000 C 
BRANCH   4   5
ATOM      5  C   UNL     1      30.629  32.222  22.575  1.00  0.00    -0.000 C 
BRANCH   5   6
ATOM      6  C   UNL     1      31.479  30.996  22.950  1.00  0.00    -0.000 C 
BRANCH   6   7
ATOM      7  C   UNL     1      32.124  30.326  21.728  1.00  0.00    -0.000 C 
BRANCH   7   8
ATOM      8  C   UNL     1      31.676  28.864  21.606  1.00  0.00    -0.003 C 
ATOM      9  C   UNL     1      31.320  28.280  22.970  1.00  0.00     0.004 C 
ENDBRANCH   7   8
ENDBRANCH   6   7
ENDBRANCH   5   6
ENDBRANCH   4   5
ENDBRANCH   3   4
ENDBRANCH   2   3
ENDBRANCH   1   2
BRANCH   1  10
ATOM     10  C   UNL     1      25.086  30.933  24.678  1.00  0.00     0.000 C 
BRANCH  10  11
ATOM     11  C   UNL     1      24.375  29.719  24.053  1.00  0.00     0.000 C 
BRANCH  11  12
ATOM     12  C   UNL     1      24.260  28.534  25.028  1.00  0.00     0.000 C 
BRANCH  12  13
ATOM     13  C   UNL     1      25.154  27.350  24.622  1.00  0.00     0.000 C 
BRANCH  13  14
ATOM     14  C   UNL     1      25.858  27.568  23.270  1.00  0.00     0.002 C 
BRANCH  14  15
ATOM     15  C   UNL     1      27.388  27.398  23.296  1.00  0.00     0.028 C 
BRANCH  15  16
ATOM     16  C   UNL     1      27.936  26.692  22.051  1.00  0.00     0.156 C 
BRANCH  16  17
ATOM     17  O   UNL     1      27.025  26.804  20.991  1.00  0.00    -0.396 OA
ATOM     18  H   UNL     1      27.247  27.645  20.513  1.00  0.00     0.210 HD
ENDBRANCH  16  17
ENDBRANCH  15  16
ENDBRANCH  14  15
ENDBRANCH  13  14
ENDBRANCH  12  13
ENDBRANCH  11  12
ENDBRANCH  10  11
ENDBRANCH   1  10
TORSDOF 15
ENDMDL
MODEL 9
REMARK VINA RESULT:    -3.799      3.450      5.944
REMARK INTER + INTRA:          -8.155
REMARK INTER:                  -6.878
REMARK INTRA:                  -1.277
REMARK UNBOUND:                -1.136
REMARK SMILES CCCCCCCCCCCCCCCCO
REMARK SMILES IDX 9 1 8 2 7 3 6 4 5 5 4 6 3 7 2 8 1 9 10 10 11 11 12 12 13 13
REMARK SMILES IDX 14 14 15 15 16 16 17 17
REMARK H PARENT 17 18
REMARK Flexibility Score: inf
ROOT
ATOM      1  C   UNL     1      27.108  27.029  24.144  1.00  0.00     0.000 C 
ENDROOT
BRANCH   1   2
ATOM      2  C   UNL     1      25.727  27.533  23.681  1.00  0.00    -0.000 C 
BRANCH   2   3
ATOM      3  C   UNL     1      25.142  28.696  24.508  1.00  0.00    -0.000 C 
BRANCH   3   4
ATOM      4  C   UNL     1      24.817  29.970  23.707  1.00  0.00    -0.000 C 
BRANCH   4   5
ATOM      5  C   UNL     1      25.399  31.241  24.348  1.00  0.00    -0.000 C 
BRANCH   5   6
ATOM      6  C   UNL     1      26.933  31.296  24.262  1.00  0.00    -0.000 C 
BRANCH   6   7
ATOM      7  C   UNL     1      27.482  32.727  24.364  1.00  0.00    -0.000 C 
BRANCH   7   8
ATOM      8  C   UNL     1      28.992  32.754  24.096  1.00  0.00    -0.003 C 
ATOM      9  C   UNL     1      29.447  31.491  23.371  1.00  0.00     0.004 C 
ENDBRANCH   7   8
ENDBRANCH   6   7
ENDBRANCH   5   6
ENDBRANCH   4   5
ENDBRANCH   3   4
ENDBRANCH   2   3
ENDBRANCH   1   2
BRANCH   1  10
ATOM     10  C   UNL     1      27.841  27.961  25.125  1.00  0.00     0.000 C 
BRANCH  10  11
ATOM     11  C   UNL     1      29.372  27.895  24.975  1.00  0.00     0.000 C 
BRANCH  11  12
ATOM     12  C   UNL     1      29.810  27.464  23.565  1.00  0.00     0.000 C 
BRANCH  12  13
ATOM     13  C   UNL     1      30.558  26.120  23.566  1.00  0.00     0.000 C 
BRANCH  13  14
ATOM     14  C   UNL     1      30.308  25.294  22.291  1.00  0.00     0.002 C 
BRANCH  14  15
ATOM     15  C   UNL     1      28.854  25.298  21.785  1.00  0.00     0.028 C 
BRANCH  15  16
ATOM     16  C   UNL     1      28.624  26.275  20.626  1.00  0.00     0.156 C 
BRANCH  16  17
ATOM     17  O   UNL     1      27.310  26.761  20.657  1.00  0.00    -0.396 OA
ATOM     18  H   UNL     1      26.922  26.476  21.525  1.00  0.00     0.210 HD
ENDBRANCH  16  17
ENDBRANCH  15  16
ENDBRANCH  14  15
ENDBRANCH  13  14
ENDBRANCH  12  13
ENDBRANCH  11  12
ENDBRANCH  10  11
ENDBRANCH   1  10
TORSDOF 15
ENDMDL
