MODEL 1
REMARK VINA RESULT:    -6.134      0.000      0.000
REMARK INTER + INTRA:          -6.729
REMARK INTER:                  -6.672
REMARK INTRA:                  -0.057
REMARK UNBOUND:                -0.057
REMARK SMILES COc1cc2ccc(=O)oc2cc1O
REMARK SMILES IDX 3 1 13 2 12 3 11 4 5 5 4 6 6 7 7 8 8 9 9 10 10 11 2 12 1 13
REMARK SMILES IDX 14 14
REMARK H PARENT 14 15
REMARK Flexibility Score: inf
ROOT
ATOM      1  C   UNL     1       5.291  48.010  24.091  1.00  0.00     0.161 A 
ATOM      2  C   UNL     1       5.727  47.292  22.966  1.00  0.00     0.161 A 
ATOM      3  C   UNL     1       4.819  46.942  21.956  1.00  0.00     0.098 A 
ATOM      4  C   UNL     1       3.474  47.305  22.060  1.00  0.00     0.142 A 
ATOM      5  C   UNL     1       3.029  48.026  23.188  1.00  0.00     0.022 A 
ATOM      6  C   UNL     1       3.935  48.376  24.198  1.00  0.00     0.062 A 
ATOM      7  C   UNL     1       1.676  48.374  23.265  1.00  0.00     0.019 A 
ATOM      8  C   UNL     1       0.814  48.002  22.233  1.00  0.00     0.094 A 
ATOM      9  C   UNL     1       1.328  47.287  21.146  1.00  0.00     0.336 A 
ATOM     10  O   UNL     1       0.566  46.942  20.205  1.00  0.00    -0.246 OA
ATOM     11  O   UNL     1       2.618  46.969  21.098  1.00  0.00    -0.423 OA
ENDROOT
BRANCH   1  12
ATOM     12  O   UNL     1       6.235  48.338  25.078  1.00  0.00    -0.493 OA
ATOM     13  C   UNL     1       6.922  49.583  25.154  1.00  0.00     0.278 C 
ENDBRANCH   1  12
BRANCH   2  14
ATOM     14  O   UNL     1       7.068  46.929  22.859  1.00  0.00    -0.504 OA
ATOM     15  H   UNL     1       7.602  46.626  23.665  1.00  0.00     0.293 HD
ENDBRANCH   2  14
TORSDOF 2
ENDMDL
MODEL 2
REMARK VINA RESULT:    -5.908      1.498      5.352
REMARK INTER + INTRA:          -6.484
REMARK INTER:                  -6.439
REMARK INTRA:                  -0.045
REMARK UNBOUND:                -0.057
REMARK SMILES COc1cc2ccc(=O)oc2cc1O
REMARK SMILES IDX 3 1 13 2 12 3 11 4 5 5 4 6 6 7 7 8 8 9 9 10 10 11 2 12 1 13
REMARK SMILES IDX 14 14
REMARK H PARENT 14 15
REMARK Flexibility Score: inf
ROOT
ATOM      1  C   UNL     1       1.982  47.499  22.425  1.00  0.00     0.161 A 
ATOM      2  C   UNL     1       1.783  47.747  23.792  1.00  0.00     0.161 A 
ATOM      3  C   UNL     1       2.872  48.054  24.621  1.00  0.00     0.098 A 
ATOM      4  C   UNL     1       4.164  48.116  24.093  1.00  0.00     0.142 A 
ATOM      5  C   UNL     1       4.372  47.867  22.720  1.00  0.00     0.022 A 
ATOM      6  C   UNL     1       3.284  47.560  21.891  1.00  0.00     0.062 A 
ATOM      7  C   UNL     1       5.677  47.935  22.221  1.00  0.00     0.019 A 
ATOM      8  C   UNL     1       6.726  48.244  23.087  1.00  0.00     0.094 A 
ATOM      9  C   UNL     1       6.443  48.478  24.437  1.00  0.00     0.336 A 
ATOM     10  O   UNL     1       7.376  48.758  25.234  1.00  0.00    -0.246 OA
ATOM     11  O   UNL     1       5.193  48.407  24.885  1.00  0.00    -0.423 OA
ENDROOT
BRANCH   1  12
ATOM     12  O   UNL     1       0.863  47.195  21.633  1.00  0.00    -0.493 OA
ATOM     13  C   UNL     1       0.911  46.936  20.234  1.00  0.00     0.278 C 
ENDBRANCH   1  12
BRANCH   2  14
ATOM     14  O   UNL     1       0.495  47.687  24.322  1.00  0.00    -0.504 OA
ATOM     15  H   UNL     1      -0.041  46.827  24.317  1.00  0.00     0.293 HD
ENDBRANCH   2  14
TORSDOF 2
ENDMDL
MODEL 3
REMARK VINA RESULT:    -5.696      1.572      2.419
REMARK INTER + INTRA:          -6.253
REMARK INTER:                  -6.188
REMARK INTRA:                  -0.065
REMARK UNBOUND:                -0.057
REMARK SMILES COc1cc2ccc(=O)oc2cc1O
REMARK SMILES IDX 3 1 13 2 12 3 11 4 5 5 4 6 6 7 7 8 8 9 9 10 10 11 2 12 1 13
REMARK SMILES IDX 14 14
REMARK H PARENT 14 15
REMARK Flexibility Score: inf
ROOT
ATOM      1  C   UNL     1       4.748  47.197  23.472  1.00  0.00     0.161 A 
ATOM      2  C   UNL     1       3.950  47.273  24.624  1.00  0.00     0.161 A 
ATOM      3  C   UNL     1       2.553  47.301  24.517  1.00  0.00     0.098 A 
ATOM      4  C   UNL     1       1.942  47.252  23.261  1.00  0.00     0.142 A 
ATOM      5  C   UNL     1       2.736  47.176  22.098  1.00  0.00     0.022 A 
ATOM      6  C   UNL     1       4.134  47.148  22.205  1.00  0.00     0.062 A 
ATOM      7  C   UNL     1       2.096  47.130  20.855  1.00  0.00     0.019 A 
ATOM      8  C   UNL     1       0.702  47.159  20.802  1.00  0.00     0.094 A 
ATOM      9  C   UNL     1      -0.020  47.236  21.998  1.00  0.00     0.336 A 
ATOM     10  O   UNL     1      -1.278  47.265  21.970  1.00  0.00    -0.246 OA
ATOM     11  O   UNL     1       0.614  47.279  23.166  1.00  0.00    -0.423 OA
ENDROOT
BRANCH   1  12
ATOM     12  O   UNL     1       6.143  47.172  23.628  1.00  0.00    -0.493 OA
ATOM     13  C   UNL     1       6.996  48.296  23.435  1.00  0.00     0.278 C 
ENDBRANCH   1  12
BRANCH   2  14
ATOM     14  O   UNL     1       4.557  47.321  25.879  1.00  0.00    -0.504 OA
ATOM     15  H   UNL     1       5.560  47.228  25.987  1.00  0.00     0.293 HD
ENDBRANCH   2  14
TORSDOF 2
ENDMDL
MODEL 4
REMARK VINA RESULT:    -5.659      1.697      5.407
REMARK INTER + INTRA:          -6.212
REMARK INTER:                  -6.148
REMARK INTRA:                  -0.064
REMARK UNBOUND:                -0.057
REMARK SMILES COc1cc2ccc(=O)oc2cc1O
REMARK SMILES IDX 3 1 13 2 12 3 11 4 5 5 4 6 6 7 7 8 8 9 9 10 10 11 2 12 1 13
REMARK SMILES IDX 14 14
REMARK H PARENT 14 15
REMARK Flexibility Score: inf
ROOT
ATOM      1  C   UNL     1       3.980  47.351  23.364  1.00  0.00     0.161 A 
ATOM      2  C   UNL     1       4.879  47.559  22.307  1.00  0.00     0.161 A 
ATOM      3  C   UNL     1       6.173  48.034  22.562  1.00  0.00     0.098 A 
ATOM      4  C   UNL     1       6.580  48.304  23.871  1.00  0.00     0.142 A 
ATOM      5  C   UNL     1       5.682  48.098  24.939  1.00  0.00     0.022 A 
ATOM      6  C   UNL     1       4.388  47.623  24.685  1.00  0.00     0.062 A 
ATOM      7  C   UNL     1       6.117  48.378  26.239  1.00  0.00     0.019 A 
ATOM      8  C   UNL     1       7.415  48.848  26.439  1.00  0.00     0.094 A 
ATOM      9  C   UNL     1       8.249  49.029  25.331  1.00  0.00     0.336 A 
ATOM     10  O   UNL     1       9.423  49.453  25.491  1.00  0.00    -0.246 OA
ATOM     11  O   UNL     1       7.810  48.755  24.105  1.00  0.00    -0.423 OA
ENDROOT
BRANCH   1  12
ATOM     12  O   UNL     1       2.694  46.875  23.062  1.00  0.00    -0.493 OA
ATOM     13  C   UNL     1       1.503  47.650  23.162  1.00  0.00     0.278 C 
ENDBRANCH   1  12
BRANCH   2  14
ATOM     14  O   UNL     1       4.476  47.291  20.999  1.00  0.00    -0.504 OA
ATOM     15  H   UNL     1       5.131  46.965  20.298  1.00  0.00     0.293 HD
ENDBRANCH   2  14
TORSDOF 2
ENDMDL
MODEL 5
REMARK VINA RESULT:    -5.513     11.201     11.955
REMARK INTER + INTRA:          -6.053
REMARK INTER:                  -5.998
REMARK INTRA:                  -0.056
REMARK UNBOUND:                -0.057
REMARK SMILES COc1cc2ccc(=O)oc2cc1O
REMARK SMILES IDX 3 1 13 2 12 3 11 4 5 5 4 6 6 7 7 8 8 9 9 10 10 11 2 12 1 13
REMARK SMILES IDX 14 14
REMARK H PARENT 14 15
REMARK Flexibility Score: inf
ROOT
ATOM      1  C   UNL     1       2.652  57.331  24.170  1.00  0.00     0.161 A 
ATOM      2  C   UNL     1       3.241  58.221  23.258  1.00  0.00     0.161 A 
ATOM      3  C   UNL     1       2.694  59.497  23.061  1.00  0.00     0.098 A 
ATOM      4  C   UNL     1       1.558  59.894  23.771  1.00  0.00     0.142 A 
ATOM      5  C   UNL     1       0.960  59.006  24.689  1.00  0.00     0.022 A 
ATOM      6  C   UNL     1       1.506  57.730  24.886  1.00  0.00     0.062 A 
ATOM      7  C   UNL     1      -0.176  59.432  25.384  1.00  0.00     0.019 A 
ATOM      8  C   UNL     1      -0.681  60.712  25.152  1.00  0.00     0.094 A 
ATOM      9  C   UNL     1      -0.035  61.537  24.226  1.00  0.00     0.336 A 
ATOM     10  O   UNL     1      -0.475  62.695  24.002  1.00  0.00    -0.246 OA
ATOM     11  O   UNL     1       1.045  61.107  23.578  1.00  0.00    -0.423 OA
ENDROOT
BRANCH   1  12
ATOM     12  O   UNL     1       3.233  56.064  24.334  1.00  0.00    -0.493 OA
ATOM     13  C   UNL     1       2.813  54.889  23.647  1.00  0.00     0.278 C 
ENDBRANCH   1  12
BRANCH   2  14
ATOM     14  O   UNL     1       4.374  57.827  22.548  1.00  0.00    -0.504 OA
ATOM     15  H   UNL     1       4.637  56.852  22.466  1.00  0.00     0.293 HD
ENDBRANCH   2  14
TORSDOF 2
ENDMDL
MODEL 6
REMARK VINA RESULT:    -5.282      9.162     10.166
REMARK INTER + INTRA:          -5.802
REMARK INTER:                  -5.755
REMARK INTRA:                  -0.048
REMARK UNBOUND:                -0.057
REMARK SMILES COc1cc2ccc(=O)oc2cc1O
REMARK SMILES IDX 3 1 13 2 12 3 11 4 5 5 4 6 6 7 7 8 8 9 9 10 10 11 2 12 1 13
REMARK SMILES IDX 14 14
REMARK H PARENT 14 15
REMARK Flexibility Score: inf
ROOT
ATOM      1  C   UNL     1       2.596  55.162  23.669  1.00  0.00     0.161 A 
ATOM      2  C   UNL     1       2.961  55.489  24.984  1.00  0.00     0.161 A 
ATOM      3  C   UNL     1       2.508  56.681  25.568  1.00  0.00     0.098 A 
ATOM      4  C   UNL     1       1.689  57.553  24.846  1.00  0.00     0.142 A 
ATOM      5  C   UNL     1       1.318  57.231  23.524  1.00  0.00     0.022 A 
ATOM      6  C   UNL     1       1.771  56.040  22.939  1.00  0.00     0.062 A 
ATOM      7  C   UNL     1       0.499  58.124  22.825  1.00  0.00     0.019 A 
ATOM      8  C   UNL     1       0.074  59.297  23.451  1.00  0.00     0.094 A 
ATOM      9  C   UNL     1       0.483  59.549  24.765  1.00  0.00     0.336 A 
ATOM     10  O   UNL     1       0.112  60.601  25.347  1.00  0.00    -0.246 OA
ATOM     11  O   UNL     1       1.263  58.682  25.406  1.00  0.00    -0.423 OA
ENDROOT
BRANCH   1  12
ATOM     12  O   UNL     1       3.073  53.959  23.125  1.00  0.00    -0.493 OA
ATOM     13  C   UNL     1       2.387  53.191  22.141  1.00  0.00     0.278 C 
ENDBRANCH   1  12
BRANCH   2  14
ATOM     14  O   UNL     1       3.777  54.621  25.708  1.00  0.00    -0.504 OA
ATOM     15  H   UNL     1       3.420  53.758  26.098  1.00  0.00     0.293 HD
ENDBRANCH   2  14
TORSDOF 2
ENDMDL
MODEL 7
REMARK VINA RESULT:    -5.227     10.888     12.148
REMARK INTER + INTRA:          -5.743
REMARK INTER:                  -5.858
REMARK INTRA:                   0.115
REMARK UNBOUND:                -0.057
REMARK SMILES COc1cc2ccc(=O)oc2cc1O
REMARK SMILES IDX 3 1 13 2 12 3 11 4 5 5 4 6 6 7 7 8 8 9 9 10 10 11 2 12 1 13
REMARK SMILES IDX 14 14
REMARK H PARENT 14 15
REMARK Flexibility Score: inf
ROOT
ATOM      1  C   UNL     1       0.504  60.346  24.028  1.00  0.00     0.161 A 
ATOM      2  C   UNL     1      -0.161  59.588  25.005  1.00  0.00     0.161 A 
ATOM      3  C   UNL     1       0.327  58.327  25.375  1.00  0.00     0.098 A 
ATOM      4  C   UNL     1       1.480  57.813  24.775  1.00  0.00     0.142 A 
ATOM      5  C   UNL     1       2.154  58.569  23.792  1.00  0.00     0.022 A 
ATOM      6  C   UNL     1       1.666  59.830  23.422  1.00  0.00     0.062 A 
ATOM      7  C   UNL     1       3.304  58.028  23.208  1.00  0.00     0.019 A 
ATOM      8  C   UNL     1       3.749  56.769  23.612  1.00  0.00     0.094 A 
ATOM      9  C   UNL     1       3.029  56.078  24.592  1.00  0.00     0.336 A 
ATOM     10  O   UNL     1       3.413  54.940  24.969  1.00  0.00    -0.246 OA
ATOM     11  O   UNL     1       1.937  56.616  25.130  1.00  0.00    -0.423 OA
ENDROOT
BRANCH   1  12
ATOM     12  O   UNL     1      -0.021  61.603  23.689  1.00  0.00    -0.493 OA
ATOM     13  C   UNL     1      -1.221  61.803  22.948  1.00  0.00     0.278 C 
ENDBRANCH   1  12
BRANCH   2  14
ATOM     14  O   UNL     1      -1.311  60.098  25.605  1.00  0.00    -0.504 OA
ATOM     15  H   UNL     1      -1.302  60.451  26.555  1.00  0.00     0.293 HD
ENDBRANCH   2  14
TORSDOF 2
ENDMDL
MODEL 8
REMARK VINA RESULT:    -5.227      1.337      4.991
REMARK INTER + INTRA:          -5.742
REMARK INTER:                  -6.023
REMARK INTRA:                   0.281
REMARK UNBOUND:                -0.057
REMARK SMILES COc1cc2ccc(=O)oc2cc1O
REMARK SMILES IDX 3 1 13 2 12 3 11 4 5 5 4 6 6 7 7 8 8 9 9 10 10 11 2 12 1 13
REMARK SMILES IDX 14 14
REMARK H PARENT 14 15
REMARK Flexibility Score: inf
ROOT
ATOM      1  C   UNL     1       2.346  47.262  23.220  1.00  0.00     0.161 A 
ATOM      2  C   UNL     1       3.105  47.246  22.039  1.00  0.00     0.161 A 
ATOM      3  C   UNL     1       4.461  47.599  22.065  1.00  0.00     0.098 A 
ATOM      4  C   UNL     1       5.070  47.970  23.267  1.00  0.00     0.142 A 
ATOM      5  C   UNL     1       4.314  47.989  24.458  1.00  0.00     0.022 A 
ATOM      6  C   UNL     1       2.957  47.637  24.432  1.00  0.00     0.062 A 
ATOM      7  C   UNL     1       4.950  48.366  25.645  1.00  0.00     0.019 A 
ATOM      8  C   UNL     1       6.303  48.708  25.618  1.00  0.00     0.094 A 
ATOM      9  C   UNL     1       6.988  48.666  24.399  1.00  0.00     0.336 A 
ATOM     10  O   UNL     1       8.208  48.971  24.354  1.00  0.00    -0.246 OA
ATOM     11  O   UNL     1       6.358  48.304  23.285  1.00  0.00    -0.423 OA
ENDROOT
BRANCH   1  12
ATOM     12  O   UNL     1       0.991  46.902  23.146  1.00  0.00    -0.493 OA
ATOM     13  C   UNL     1       0.022  47.566  22.341  1.00  0.00     0.278 C 
ENDBRANCH   1  12
BRANCH   2  14
ATOM     14  O   UNL     1       2.501  46.876  20.838  1.00  0.00    -0.504 OA
ATOM     15  H   UNL     1       1.512  47.023  20.674  1.00  0.00     0.293 HD
ENDBRANCH   2  14
TORSDOF 2
ENDMDL
MODEL 9
REMARK VINA RESULT:    -5.221      9.802     10.487
REMARK INTER + INTRA:          -5.737
REMARK INTER:                  -5.688
REMARK INTRA:                  -0.049
REMARK UNBOUND:                -0.057
REMARK SMILES COc1cc2ccc(=O)oc2cc1O
REMARK SMILES IDX 3 1 13 2 12 3 11 4 5 5 4 6 6 7 7 8 8 9 9 10 10 11 2 12 1 13
REMARK SMILES IDX 14 14
REMARK H PARENT 14 15
REMARK Flexibility Score: inf
ROOT
ATOM      1  C   UNL     1       2.378  55.673  23.513  1.00  0.00     0.161 A 
ATOM      2  C   UNL     1       2.110  56.143  22.218  1.00  0.00     0.161 A 
ATOM      3  C   UNL     1       1.428  57.354  22.031  1.00  0.00     0.098 A 
ATOM      4  C   UNL     1       1.008  58.103  23.133  1.00  0.00     0.142 A 
ATOM      5  C   UNL     1       1.273  57.638  24.438  1.00  0.00     0.022 A 
ATOM      6  C   UNL     1       1.955  56.428  24.626  1.00  0.00     0.062 A 
ATOM      7  C   UNL     1       0.841  58.409  25.522  1.00  0.00     0.019 A 
ATOM      8  C   UNL     1       0.166  59.607  25.283  1.00  0.00     0.094 A 
ATOM      9  C   UNL     1      -0.061  60.004  23.961  1.00  0.00     0.336 A 
ATOM     10  O   UNL     1      -0.669  61.081  23.725  1.00  0.00    -0.246 OA
ATOM     11  O   UNL     1       0.361  59.251  22.949  1.00  0.00    -0.423 OA
ENDROOT
BRANCH   1  12
ATOM     12  O   UNL     1       3.063  54.456  23.652  1.00  0.00    -0.493 OA
ATOM     13  C   UNL     1       3.971  54.157  24.708  1.00  0.00     0.278 C 
ENDBRANCH   1  12
BRANCH   2  14
ATOM     14  O   UNL     1       2.527  55.397  21.116  1.00  0.00    -0.504 OA
ATOM     15  H   UNL     1       2.955  54.485  21.224  1.00  0.00     0.293 HD
ENDBRANCH   2  14
TORSDOF 2
ENDMDL
