MODEL 1
REMARK VINA RESULT:    -3.167      0.000      0.000
REMARK INTER + INTRA:         -13.640
REMARK INTER:                  -8.258
REMARK INTRA:                  -5.381
REMARK UNBOUND:                -5.381
REMARK SMILES CCCCCCCCCCCCCCCCCCCCCCCCCCCCCO
REMARK SMILES IDX 16 1 15 2 14 3 13 4 12 5 11 6 10 7 9 8 8 9 7 10 6 11 5 12
REMARK SMILES IDX 4 13 3 14 2 15 1 16 17 17 18 18 19 19 20 20 21 21 22 22
REMARK SMILES IDX 23 23 24 24 25 25 26 26 27 27 28 28 29 29 30 30
REMARK H PARENT 30 31
REMARK Flexibility Score: inf
ROOT
ATOM      1  C   UNL     1      10.908 -39.898  48.861  1.00  0.00     0.000 C 
ENDROOT
BRANCH   1   2
ATOM      2  C   UNL     1      11.991 -40.169  49.922  1.00  0.00     0.000 C 
BRANCH   2   3
ATOM      3  C   UNL     1      13.301 -39.408  49.649  1.00  0.00     0.000 C 
BRANCH   3   4
ATOM      4  C   UNL     1      13.079 -37.896  49.488  1.00  0.00     0.000 C 
BRANCH   4   5
ATOM      5  C   UNL     1      13.659 -37.358  48.168  1.00  0.00     0.000 C 
BRANCH   5   6
ATOM      6  C   UNL     1      13.031 -36.020  47.744  1.00  0.00     0.000 C 
BRANCH   6   7
ATOM      7  C   UNL     1      12.206 -35.317  48.841  1.00  0.00     0.000 C 
BRANCH   7   8
ATOM      8  C   UNL     1      10.861 -34.726  48.373  1.00  0.00    -0.000 C 
BRANCH   8   9
ATOM      9  C   UNL     1       9.614 -35.270  49.099  1.00  0.00    -0.000 C 
BRANCH   9  10
ATOM     10  C   UNL     1       9.872 -36.464  50.036  1.00  0.00    -0.000 C 
BRANCH  10  11
ATOM     11  C   UNL     1       8.658 -36.824  50.911  1.00  0.00    -0.000 C 
BRANCH  11  12
ATOM     12  C   UNL     1       9.045 -36.938  52.396  1.00  0.00    -0.000 C 
BRANCH  12  13
ATOM     13  C   UNL     1       8.322 -35.897  53.269  1.00  0.00    -0.000 C 
BRANCH  13  14
ATOM     14  C   UNL     1       7.962 -34.623  52.483  1.00  0.00    -0.000 C 
BRANCH  14  15
ATOM     15  C   UNL     1       8.773 -33.406  52.960  1.00  0.00    -0.003 C 
ATOM     16  C   UNL     1       9.769 -33.793  54.052  1.00  0.00     0.004 C 
ENDBRANCH  14  15
ENDBRANCH  13  14
ENDBRANCH  12  13
ENDBRANCH  11  12
ENDBRANCH  10  11
ENDBRANCH   9  10
ENDBRANCH   8   9
ENDBRANCH   7   8
ENDBRANCH   6   7
ENDBRANCH   5   6
ENDBRANCH   4   5
ENDBRANCH   3   4
ENDBRANCH   2   3
ENDBRANCH   1   2
BRANCH   1  17
ATOM     17  C   UNL     1      11.037 -40.726  47.567  1.00  0.00     0.000 C 
BRANCH  17  18
ATOM     18  C   UNL     1      10.782 -39.895  46.297  1.00  0.00     0.000 C 
BRANCH  18  19
ATOM     19  C   UNL     1      10.562 -38.403  46.597  1.00  0.00     0.000 C 
BRANCH  19  20
ATOM     20  C   UNL     1       9.595 -37.729  45.611  1.00  0.00     0.000 C 
BRANCH  20  21
ATOM     21  C   UNL     1       8.290 -37.329  46.316  1.00  0.00     0.000 C 
BRANCH  21  22
ATOM     22  C   UNL     1       7.036 -37.761  45.537  1.00  0.00     0.000 C 
BRANCH  22  23
ATOM     23  C   UNL     1       6.265 -38.892  46.237  1.00  0.00     0.000 C 
BRANCH  23  24
ATOM     24  C   UNL     1       7.017 -40.234  46.207  1.00  0.00     0.000 C 
BRANCH  24  25
ATOM     25  C   UNL     1       7.285 -40.819  47.610  1.00  0.00     0.000 C 
BRANCH  25  26
ATOM     26  C   UNL     1       7.213 -39.745  48.708  1.00  0.00     0.000 C 
BRANCH  26  27
ATOM     27  C   UNL     1       7.457 -40.311  50.117  1.00  0.00     0.002 C 
BRANCH  27  28
ATOM     28  C   UNL     1       6.466 -39.823  51.193  1.00  0.00     0.028 C 
BRANCH  28  29
ATOM     29  C   UNL     1       5.248 -39.086  50.629  1.00  0.00     0.156 C 
BRANCH  29  30
ATOM     30  O   UNL     1       4.070 -39.583  51.203  1.00  0.00    -0.396 OA
ATOM     31  H   UNL     1       3.646 -38.818  51.672  1.00  0.00     0.210 HD
ENDBRANCH  29  30
ENDBRANCH  28  29
ENDBRANCH  27  28
ENDBRANCH  26  27
ENDBRANCH  25  26
ENDBRANCH  24  25
ENDBRANCH  23  24
ENDBRANCH  22  23
ENDBRANCH  21  22
ENDBRANCH  20  21
ENDBRANCH  19  20
ENDBRANCH  18  19
ENDBRANCH  17  18
ENDBRANCH   1  17
TORSDOF 28
ENDMDL
MODEL 2
REMARK VINA RESULT:    -3.144      1.694      5.978
REMARK INTER + INTRA:         -13.578
REMARK INTER:                  -7.770
REMARK INTRA:                  -5.808
REMARK UNBOUND:                -5.381
REMARK SMILES CCCCCCCCCCCCCCCCCCCCCCCCCCCCCO
REMARK SMILES IDX 16 1 15 2 14 3 13 4 12 5 11 6 10 7 9 8 8 9 7 10 6 11 5 12
REMARK SMILES IDX 4 13 3 14 2 15 1 16 17 17 18 18 19 19 20 20 21 21 22 22
REMARK SMILES IDX 23 23 24 24 25 25 26 26 27 27 28 28 29 29 30 30
REMARK H PARENT 30 31
REMARK Flexibility Score: inf
ROOT
ATOM      1  C   UNL     1       9.490 -36.487  48.138  1.00  0.00     0.000 C 
ENDROOT
BRANCH   1   2
ATOM      2  C   UNL     1      10.354 -36.828  46.910  1.00  0.00     0.000 C 
BRANCH   2   3
ATOM      3  C   UNL     1       9.546 -37.467  45.767  1.00  0.00     0.000 C 
BRANCH   3   4
ATOM      4  C   UNL     1       8.447 -38.410  46.281  1.00  0.00     0.000 C 
BRANCH   4   5
ATOM      5  C   UNL     1       8.685 -39.871  45.857  1.00  0.00     0.000 C 
BRANCH   5   6
ATOM      6  C   UNL     1      10.088 -40.100  45.271  1.00  0.00     0.000 C 
BRANCH   6   7
ATOM      7  C   UNL     1      11.131 -40.624  46.279  1.00  0.00     0.000 C 
BRANCH   7   8
ATOM      8  C   UNL     1      10.564 -41.044  47.650  1.00  0.00    -0.000 C 
BRANCH   8   9
ATOM      9  C   UNL     1      11.031 -40.188  48.845  1.00  0.00    -0.000 C 
BRANCH   9  10
ATOM     10  C   UNL     1      12.228 -39.263  48.559  1.00  0.00    -0.000 C 
BRANCH  10  11
ATOM     11  C   UNL     1      12.469 -38.219  49.665  1.00  0.00    -0.000 C 
BRANCH  11  12
ATOM     12  C   UNL     1      13.481 -37.148  49.222  1.00  0.00    -0.000 C 
BRANCH  12  13
ATOM     13  C   UNL     1      13.864 -37.284  47.738  1.00  0.00    -0.000 C 
BRANCH  13  14
ATOM     14  C   UNL     1      13.868 -35.928  47.009  1.00  0.00    -0.000 C 
BRANCH  14  15
ATOM     15  C   UNL     1      13.553 -34.763  47.963  1.00  0.00    -0.003 C 
ATOM     16  C   UNL     1      13.935 -33.418  47.348  1.00  0.00     0.004 C 
ENDBRANCH  14  15
ENDBRANCH  13  14
ENDBRANCH  12  13
ENDBRANCH  11  12
ENDBRANCH  10  11
ENDBRANCH   9  10
ENDBRANCH   8   9
ENDBRANCH   7   8
ENDBRANCH   6   7
ENDBRANCH   5   6
ENDBRANCH   4   5
ENDBRANCH   3   4
ENDBRANCH   2   3
ENDBRANCH   1   2
BRANCH   1  17
ATOM     17  C   UNL     1      10.051 -35.373  49.044  1.00  0.00     0.000 C 
BRANCH  17  18
ATOM     18  C   UNL     1       9.264 -35.216  50.357  1.00  0.00     0.000 C 
BRANCH  18  19
ATOM     19  C   UNL     1      10.126 -34.663  51.505  1.00  0.00     0.000 C 
BRANCH  19  20
ATOM     20  C   UNL     1      11.630 -34.895  51.290  1.00  0.00     0.000 C 
BRANCH  20  21
ATOM     21  C   UNL     1      12.331 -35.188  52.626  1.00  0.00     0.000 C 
BRANCH  21  22
ATOM     22  C   UNL     1      11.513 -36.122  53.535  1.00  0.00     0.000 C 
BRANCH  22  23
ATOM     23  C   UNL     1      11.545 -37.584  53.063  1.00  0.00     0.000 C 
BRANCH  23  24
ATOM     24  C   UNL     1      10.258 -38.352  53.410  1.00  0.00     0.000 C 
BRANCH  24  25
ATOM     25  C   UNL     1       9.753 -39.254  52.264  1.00  0.00     0.000 C 
BRANCH  25  26
ATOM     26  C   UNL     1       8.799 -38.505  51.317  1.00  0.00     0.000 C 
BRANCH  26  27
ATOM     27  C   UNL     1       7.883 -39.449  50.520  1.00  0.00     0.002 C 
BRANCH  27  28
ATOM     28  C   UNL     1       6.895 -38.744  49.569  1.00  0.00     0.028 C 
BRANCH  28  29
ATOM     29  C   UNL     1       5.422 -38.990  49.908  1.00  0.00     0.156 C 
BRANCH  29  30
ATOM     30  O   UNL     1       5.030 -38.186  50.987  1.00  0.00    -0.396 OA
ATOM     31  H   UNL     1       4.195 -38.587  51.343  1.00  0.00     0.210 HD
ENDBRANCH  29  30
ENDBRANCH  28  29
ENDBRANCH  27  28
ENDBRANCH  26  27
ENDBRANCH  25  26
ENDBRANCH  24  25
ENDBRANCH  23  24
ENDBRANCH  22  23
ENDBRANCH  21  22
ENDBRANCH  20  21
ENDBRANCH  19  20
ENDBRANCH  18  19
ENDBRANCH  17  18
ENDBRANCH   1  17
TORSDOF 28
ENDMDL
MODEL 3
REMARK VINA RESULT:    -3.135      2.094      5.270
REMARK INTER + INTRA:         -13.555
REMARK INTER:                  -8.306
REMARK INTRA:                  -5.250
REMARK UNBOUND:                -5.381
REMARK SMILES CCCCCCCCCCCCCCCCCCCCCCCCCCCCCO
REMARK SMILES IDX 16 1 15 2 14 3 13 4 12 5 11 6 10 7 9 8 8 9 7 10 6 11 5 12
REMARK SMILES IDX 4 13 3 14 2 15 1 16 17 17 18 18 19 19 20 20 21 21 22 22
REMARK SMILES IDX 23 23 24 24 25 25 26 26 27 27 28 28 29 29 30 30
REMARK H PARENT 30 31
REMARK Flexibility Score: inf
ROOT
ATOM      1  C   UNL     1       9.975 -40.254  45.077  1.00  0.00     0.000 C 
ENDROOT
BRANCH   1   2
ATOM      2  C   UNL     1      11.101 -40.972  45.844  1.00  0.00     0.000 C 
BRANCH   2   3
ATOM      3  C   UNL     1      11.134 -40.609  47.339  1.00  0.00     0.000 C 
BRANCH   3   4
ATOM      4  C   UNL     1      11.156 -39.091  47.575  1.00  0.00     0.000 C 
BRANCH   4   5
ATOM      5  C   UNL     1      10.263 -38.669  48.756  1.00  0.00     0.000 C 
BRANCH   5   6
ATOM      6  C   UNL     1       9.274 -37.553  48.386  1.00  0.00     0.000 C 
BRANCH   6   7
ATOM      7  C   UNL     1       9.862 -36.436  47.500  1.00  0.00     0.000 C 
BRANCH   7   8
ATOM      8  C   UNL     1       9.982 -35.057  48.177  1.00  0.00    -0.000 C 
BRANCH   8   9
ATOM      9  C   UNL     1      11.184 -34.895  49.132  1.00  0.00    -0.000 C 
BRANCH   9  10
ATOM     10  C   UNL     1      12.386 -34.132  48.546  1.00  0.00    -0.000 C 
BRANCH  10  11
ATOM     11  C   UNL     1      13.723 -34.874  48.726  1.00  0.00    -0.000 C 
BRANCH  11  12
ATOM     12  C   UNL     1      13.620 -36.343  48.281  1.00  0.00    -0.000 C 
BRANCH  12  13
ATOM     13  C   UNL     1      14.574 -37.260  49.067  1.00  0.00    -0.000 C 
BRANCH  13  14
ATOM     14  C   UNL     1      13.819 -38.307  49.907  1.00  0.00    -0.000 C 
BRANCH  14  15
ATOM     15  C   UNL     1      12.899 -37.649  50.950  1.00  0.00    -0.003 C 
ATOM     16  C   UNL     1      12.823 -38.480  52.230  1.00  0.00     0.004 C 
ENDBRANCH  14  15
ENDBRANCH  13  14
ENDBRANCH  12  13
ENDBRANCH  11  12
ENDBRANCH  10  11
ENDBRANCH   9  10
ENDBRANCH   8   9
ENDBRANCH   7   8
ENDBRANCH   6   7
ENDBRANCH   5   6
ENDBRANCH   4   5
ENDBRANCH   3   4
ENDBRANCH   2   3
ENDBRANCH   1   2
BRANCH   1  17
ATOM     17  C   UNL     1       8.548 -40.733  45.408  1.00  0.00     0.000 C 
BRANCH  17  18
ATOM     18  C   UNL     1       7.632 -39.597  45.895  1.00  0.00     0.000 C 
BRANCH  18  19
ATOM     19  C   UNL     1       6.556 -40.083  46.881  1.00  0.00     0.000 C 
BRANCH  19  20
ATOM     20  C   UNL     1       7.139 -40.553  48.222  1.00  0.00     0.000 C 
BRANCH  20  21
ATOM     21  C   UNL     1       6.480 -39.809  49.393  1.00  0.00     0.000 C 
BRANCH  21  22
ATOM     22  C   UNL     1       7.344 -39.818  50.666  1.00  0.00     0.000 C 
BRANCH  22  23
ATOM     23  C   UNL     1       7.476 -38.424  51.301  1.00  0.00     0.000 C 
BRANCH  23  24
ATOM     24  C   UNL     1       8.670 -38.317  52.265  1.00  0.00     0.000 C 
BRANCH  24  25
ATOM     25  C   UNL     1       9.371 -36.943  52.224  1.00  0.00     0.000 C 
BRANCH  25  26
ATOM     26  C   UNL     1       8.504 -35.872  51.541  1.00  0.00     0.000 C 
BRANCH  26  27
ATOM     27  C   UNL     1       7.926 -34.848  52.533  1.00  0.00     0.002 C 
BRANCH  27  28
ATOM     28  C   UNL     1       8.784 -34.606  53.791  1.00  0.00     0.028 C 
BRANCH  28  29
ATOM     29  C   UNL     1       9.516 -33.260  53.795  1.00  0.00     0.156 C 
BRANCH  29  30
ATOM     30  O   UNL     1       8.625 -32.221  53.495  1.00  0.00    -0.396 OA
ATOM     31  H   UNL     1       9.142 -31.556  52.970  1.00  0.00     0.210 HD
ENDBRANCH  29  30
ENDBRANCH  28  29
ENDBRANCH  27  28
ENDBRANCH  26  27
ENDBRANCH  25  26
ENDBRANCH  24  25
ENDBRANCH  23  24
ENDBRANCH  22  23
ENDBRANCH  21  22
ENDBRANCH  20  21
ENDBRANCH  19  20
ENDBRANCH  18  19
ENDBRANCH  17  18
ENDBRANCH   1  17
TORSDOF 28
ENDMDL
MODEL 4
REMARK VINA RESULT:    -3.086      2.344      6.553
REMARK INTER + INTRA:         -13.428
REMARK INTER:                  -7.919
REMARK INTRA:                  -5.509
REMARK UNBOUND:                -5.381
REMARK SMILES CCCCCCCCCCCCCCCCCCCCCCCCCCCCCO
REMARK SMILES IDX 16 1 15 2 14 3 13 4 12 5 11 6 10 7 9 8 8 9 7 10 6 11 5 12
REMARK SMILES IDX 4 13 3 14 2 15 1 16 17 17 18 18 19 19 20 20 21 21 22 22
REMARK SMILES IDX 23 23 24 24 25 25 26 26 27 27 28 28 29 29 30 30
REMARK H PARENT 30 31
REMARK Flexibility Score: inf
ROOT
ATOM      1  C   UNL     1       6.686 -39.597  48.406  1.00  0.00     0.000 C 
ENDROOT
BRANCH   1   2
ATOM      2  C   UNL     1       6.568 -38.580  47.256  1.00  0.00     0.000 C 
BRANCH   2   3
ATOM      3  C   UNL     1       7.647 -38.768  46.176  1.00  0.00     0.000 C 
BRANCH   3   4
ATOM      4  C   UNL     1       8.397 -37.464  45.861  1.00  0.00     0.000 C 
BRANCH   4   5
ATOM      5  C   UNL     1       9.898 -37.698  45.616  1.00  0.00     0.000 C 
BRANCH   5   6
ATOM      6  C   UNL     1      10.391 -39.043  46.172  1.00  0.00     0.000 C 
BRANCH   6   7
ATOM      7  C   UNL     1      11.260 -38.938  47.442  1.00  0.00     0.000 C 
BRANCH   7   8
ATOM      8  C   UNL     1      10.523 -39.219  48.766  1.00  0.00    -0.000 C 
BRANCH   8   9
ATOM      9  C   UNL     1      10.328 -37.994  49.684  1.00  0.00    -0.000 C 
BRANCH   9  10
ATOM     10  C   UNL     1       9.220 -37.020  49.246  1.00  0.00    -0.000 C 
BRANCH  10  11
ATOM     11  C   UNL     1       9.752 -35.627  48.864  1.00  0.00    -0.000 C 
BRANCH  11  12
ATOM     12  C   UNL     1      10.986 -35.243  49.699  1.00  0.00    -0.000 C 
BRANCH  12  13
ATOM     13  C   UNL     1      12.243 -35.055  48.832  1.00  0.00    -0.000 C 
BRANCH  13  14
ATOM     14  C   UNL     1      13.391 -35.989  49.256  1.00  0.00    -0.000 C 
BRANCH  14  15
ATOM     15  C   UNL     1      14.058 -36.665  48.046  1.00  0.00    -0.003 C 
ATOM     16  C   UNL     1      13.618 -36.018  46.733  1.00  0.00     0.004 C 
ENDBRANCH  14  15
ENDBRANCH  13  14
ENDBRANCH  12  13
ENDBRANCH  11  12
ENDBRANCH  10  11
ENDBRANCH   9  10
ENDBRANCH   8   9
ENDBRANCH   7   8
ENDBRANCH   6   7
ENDBRANCH   5   6
ENDBRANCH   4   5
ENDBRANCH   3   4
ENDBRANCH   2   3
ENDBRANCH   1   2
BRANCH   1  17
ATOM     17  C   UNL     1       5.731 -39.359  49.592  1.00  0.00     0.000 C 
BRANCH  17  18
ATOM     18  C   UNL     1       6.404 -38.624  50.765  1.00  0.00     0.000 C 
BRANCH  18  19
ATOM     19  C   UNL     1       6.774 -39.566  51.923  1.00  0.00     0.000 C 
BRANCH  19  20
ATOM     20  C   UNL     1       8.165 -40.197  51.761  1.00  0.00     0.000 C 
BRANCH  20  21
ATOM     21  C   UNL     1       9.132 -39.667  52.831  1.00  0.00     0.000 C 
BRANCH  21  22
ATOM     22  C   UNL     1       8.404 -39.048  54.037  1.00  0.00     0.000 C 
BRANCH  22  23
ATOM     23  C   UNL     1       8.829 -37.595  54.301  1.00  0.00     0.000 C 
BRANCH  23  24
ATOM     24  C   UNL     1       9.330 -36.879  53.035  1.00  0.00     0.000 C 
BRANCH  24  25
ATOM     25  C   UNL     1       8.297 -35.906  52.430  1.00  0.00     0.000 C 
BRANCH  25  26
ATOM     26  C   UNL     1       7.967 -34.746  53.385  1.00  0.00     0.000 C 
BRANCH  26  27
ATOM     27  C   UNL     1       8.460 -33.384  52.867  1.00  0.00     0.002 C 
BRANCH  27  28
ATOM     28  C   UNL     1       9.718 -32.838  53.573  1.00  0.00     0.028 C 
BRANCH  28  29
ATOM     29  C   UNL     1      11.028 -33.171  52.853  1.00  0.00     0.156 C 
BRANCH  29  30
ATOM     30  O   UNL     1      11.588 -32.012  52.301  1.00  0.00    -0.396 OA
ATOM     31  H   UNL     1      12.550 -32.025  52.545  1.00  0.00     0.210 HD
ENDBRANCH  29  30
ENDBRANCH  28  29
ENDBRANCH  27  28
ENDBRANCH  26  27
ENDBRANCH  25  26
ENDBRANCH  24  25
ENDBRANCH  23  24
ENDBRANCH  22  23
ENDBRANCH  21  22
ENDBRANCH  20  21
ENDBRANCH  19  20
ENDBRANCH  18  19
ENDBRANCH  17  18
ENDBRANCH   1  17
TORSDOF 28
ENDMDL
MODEL 5
REMARK VINA RESULT:    -3.070      2.049      5.007
REMARK INTER + INTRA:         -13.388
REMARK INTER:                  -8.099
REMARK INTRA:                  -5.289
REMARK UNBOUND:                -5.381
REMARK SMILES CCCCCCCCCCCCCCCCCCCCCCCCCCCCCO
REMARK SMILES IDX 16 1 15 2 14 3 13 4 12 5 11 6 10 7 9 8 8 9 7 10 6 11 5 12
REMARK SMILES IDX 4 13 3 14 2 15 1 16 17 17 18 18 19 19 20 20 21 21 22 22
REMARK SMILES IDX 23 23 24 24 25 25 26 26 27 27 28 28 29 29 30 30
REMARK H PARENT 30 31
REMARK Flexibility Score: inf
ROOT
ATOM      1  C   UNL     1      10.691 -39.009  46.627  1.00  0.00     0.000 C 
ENDROOT
BRANCH   1   2
ATOM      2  C   UNL     1      10.354 -37.610  46.079  1.00  0.00     0.000 C 
BRANCH   2   3
ATOM      3  C   UNL     1       9.449 -36.799  47.021  1.00  0.00     0.000 C 
BRANCH   3   4
ATOM      4  C   UNL     1      10.146 -36.444  48.344  1.00  0.00     0.000 C 
BRANCH   4   5
ATOM      5  C   UNL     1      10.480 -34.945  48.446  1.00  0.00     0.000 C 
BRANCH   5   6
ATOM      6  C   UNL     1      11.352 -34.611  49.667  1.00  0.00     0.000 C 
BRANCH   6   7
ATOM      7  C   UNL     1      12.509 -33.631  49.386  1.00  0.00     0.000 C 
BRANCH   7   8
ATOM      8  C   UNL     1      12.848 -33.429  47.896  1.00  0.00    -0.000 C 
BRANCH   8   9
ATOM      9  C   UNL     1      14.074 -34.217  47.387  1.00  0.00    -0.000 C 
BRANCH   9  10
ATOM     10  C   UNL     1      13.811 -35.700  47.068  1.00  0.00    -0.000 C 
BRANCH  10  11
ATOM     11  C   UNL     1      14.461 -36.663  48.078  1.00  0.00    -0.000 C 
BRANCH  11  12
ATOM     12  C   UNL     1      13.511 -37.812  48.455  1.00  0.00    -0.000 C 
BRANCH  12  13
ATOM     13  C   UNL     1      13.239 -37.873  49.969  1.00  0.00    -0.000 C 
BRANCH  13  14
ATOM     14  C   UNL     1      14.305 -37.119  50.785  1.00  0.00    -0.000 C 
BRANCH  14  15
ATOM     15  C   UNL     1      13.679 -36.288  51.918  1.00  0.00    -0.003 C 
ATOM     16  C   UNL     1      12.390 -36.927  52.432  1.00  0.00     0.004 C 
ENDBRANCH  14  15
ENDBRANCH  13  14
ENDBRANCH  12  13
ENDBRANCH  11  12
ENDBRANCH  10  11
ENDBRANCH   9  10
ENDBRANCH   8   9
ENDBRANCH   7   8
ENDBRANCH   6   7
ENDBRANCH   5   6
ENDBRANCH   4   5
ENDBRANCH   3   4
ENDBRANCH   2   3
ENDBRANCH   1   2
BRANCH   1  17
ATOM     17  C   UNL     1      10.361 -40.180  45.681  1.00  0.00     0.000 C 
BRANCH  17  18
ATOM     18  C   UNL     1       9.139 -40.996  46.140  1.00  0.00     0.000 C 
BRANCH  18  19
ATOM     19  C   UNL     1       7.819 -40.474  45.547  1.00  0.00     0.000 C 
BRANCH  19  20
ATOM     20  C   UNL     1       6.980 -39.679  46.559  1.00  0.00     0.000 C 
BRANCH  20  21
ATOM     21  C   UNL     1       7.416 -39.997  47.997  1.00  0.00     0.000 C 
BRANCH  21  22
ATOM     22  C   UNL     1       7.147 -38.837  48.971  1.00  0.00     0.000 C 
BRANCH  22  23
ATOM     23  C   UNL     1       8.116 -38.830  50.164  1.00  0.00     0.000 C 
BRANCH  23  24
ATOM     24  C   UNL     1       7.655 -37.903  51.302  1.00  0.00     0.000 C 
BRANCH  24  25
ATOM     25  C   UNL     1       8.723 -37.696  52.397  1.00  0.00     0.000 C 
BRANCH  25  26
ATOM     26  C   UNL     1       8.561 -36.347  53.116  1.00  0.00     0.000 C 
BRANCH  26  27
ATOM     27  C   UNL     1       8.948 -35.147  52.235  1.00  0.00     0.002 C 
BRANCH  27  28
ATOM     28  C   UNL     1       9.921 -34.147  52.891  1.00  0.00     0.028 C 
BRANCH  28  29
ATOM     29  C   UNL     1       9.244 -32.886  53.435  1.00  0.00     0.156 C 
BRANCH  29  30
ATOM     30  O   UNL     1       7.886 -32.877  53.091  1.00  0.00    -0.396 OA
ATOM     31  H   UNL     1       7.525 -33.762  53.361  1.00  0.00     0.210 HD
ENDBRANCH  29  30
ENDBRANCH  28  29
ENDBRANCH  27  28
ENDBRANCH  26  27
ENDBRANCH  25  26
ENDBRANCH  24  25
ENDBRANCH  23  24
ENDBRANCH  22  23
ENDBRANCH  21  22
ENDBRANCH  20  21
ENDBRANCH  19  20
ENDBRANCH  18  19
ENDBRANCH  17  18
ENDBRANCH   1  17
TORSDOF 28
ENDMDL
MODEL 6
REMARK VINA RESULT:    -3.046      2.375      6.399
REMARK INTER + INTRA:         -13.325
REMARK INTER:                  -8.078
REMARK INTRA:                  -5.247
REMARK UNBOUND:                -5.381
REMARK SMILES CCCCCCCCCCCCCCCCCCCCCCCCCCCCCO
REMARK SMILES IDX 16 1 15 2 14 3 13 4 12 5 11 6 10 7 9 8 8 9 7 10 6 11 5 12
REMARK SMILES IDX 4 13 3 14 2 15 1 16 17 17 18 18 19 19 20 20 21 21 22 22
REMARK SMILES IDX 23 23 24 24 25 25 26 26 27 27 28 28 29 29 30 30
REMARK H PARENT 30 31
REMARK Flexibility Score: inf
ROOT
ATOM      1  C   UNL     1      10.744 -37.255  47.017  1.00  0.00     0.000 C 
ENDROOT
BRANCH   1   2
ATOM      2  C   UNL     1      11.113 -38.614  47.641  1.00  0.00     0.000 C 
BRANCH   2   3
ATOM      3  C   UNL     1      10.999 -39.781  46.645  1.00  0.00     0.000 C 
BRANCH   3   4
ATOM      4  C   UNL     1       9.967 -39.510  45.539  1.00  0.00     0.000 C 
BRANCH   4   5
ATOM      5  C   UNL     1       8.564 -40.023  45.909  1.00  0.00     0.000 C 
BRANCH   5   6
ATOM      6  C   UNL     1       7.505 -38.908  45.916  1.00  0.00     0.000 C 
BRANCH   6   7
ATOM      7  C   UNL     1       6.843 -38.656  47.286  1.00  0.00     0.000 C 
BRANCH   7   8
ATOM      8  C   UNL     1       7.162 -39.703  48.371  1.00  0.00    -0.000 C 
BRANCH   8   9
ATOM      9  C   UNL     1       5.959 -40.150  49.228  1.00  0.00    -0.000 C 
BRANCH   9  10
ATOM     10  C   UNL     1       5.386 -39.070  50.164  1.00  0.00    -0.000 C 
BRANCH  10  11
ATOM     11  C   UNL     1       6.376 -38.623  51.254  1.00  0.00    -0.000 C 
BRANCH  11  12
ATOM     12  C   UNL     1       6.370 -39.586  52.453  1.00  0.00    -0.000 C 
BRANCH  12  13
ATOM     13  C   UNL     1       7.791 -39.985  52.889  1.00  0.00    -0.000 C 
BRANCH  13  14
ATOM     14  C   UNL     1       8.869 -39.449  51.929  1.00  0.00    -0.000 C 
BRANCH  14  15
ATOM     15  C   UNL     1       9.998 -40.471  51.707  1.00  0.00    -0.003 C 
ATOM     16  C   UNL     1      10.049 -40.938  50.254  1.00  0.00     0.004 C 
ENDBRANCH  14  15
ENDBRANCH  13  14
ENDBRANCH  12  13
ENDBRANCH  11  12
ENDBRANCH  10  11
ENDBRANCH   9  10
ENDBRANCH   8   9
ENDBRANCH   7   8
ENDBRANCH   6   7
ENDBRANCH   5   6
ENDBRANCH   4   5
ENDBRANCH   3   4
ENDBRANCH   2   3
ENDBRANCH   1   2
BRANCH   1  17
ATOM     17  C   UNL     1       9.811 -36.374  47.871  1.00  0.00     0.000 C 
BRANCH  17  18
ATOM     18  C   UNL     1       9.529 -36.972  49.260  1.00  0.00     0.000 C 
BRANCH  18  19
ATOM     19  C   UNL     1       9.859 -35.999  50.404  1.00  0.00     0.000 C 
BRANCH  19  20
ATOM     20  C   UNL     1       8.688 -35.796  51.377  1.00  0.00     0.000 C 
BRANCH  20  21
ATOM     21  C   UNL     1       8.756 -34.406  52.029  1.00  0.00     0.000 C 
BRANCH  21  22
ATOM     22  C   UNL     1      10.067 -34.173  52.798  1.00  0.00     0.000 C 
BRANCH  22  23
ATOM     23  C   UNL     1       9.836 -33.915  54.296  1.00  0.00     0.000 C 
BRANCH  23  24
ATOM     24  C   UNL     1      10.437 -35.013  55.191  1.00  0.00     0.000 C 
BRANCH  24  25
ATOM     25  C   UNL     1      10.528 -36.388  54.498  1.00  0.00     0.000 C 
BRANCH  25  26
ATOM     26  C   UNL     1       9.476 -37.375  55.032  1.00  0.00     0.000 C 
BRANCH  26  27
ATOM     27  C   UNL     1       8.034 -36.878  54.836  1.00  0.00     0.002 C 
BRANCH  27  28
ATOM     28  C   UNL     1       7.232 -36.684  56.139  1.00  0.00     0.028 C 
BRANCH  28  29
ATOM     29  C   UNL     1       7.586 -37.685  57.242  1.00  0.00     0.156 C 
BRANCH  29  30
ATOM     30  O   UNL     1       8.154 -37.022  58.338  1.00  0.00    -0.396 OA
ATOM     31  H   UNL     1       7.449 -36.983  59.035  1.00  0.00     0.210 HD
ENDBRANCH  29  30
ENDBRANCH  28  29
ENDBRANCH  27  28
ENDBRANCH  26  27
ENDBRANCH  25  26
ENDBRANCH  24  25
ENDBRANCH  23  24
ENDBRANCH  22  23
ENDBRANCH  21  22
ENDBRANCH  20  21
ENDBRANCH  19  20
ENDBRANCH  18  19
ENDBRANCH  17  18
ENDBRANCH   1  17
TORSDOF 28
ENDMDL
MODEL 7
REMARK VINA RESULT:    -3.037      2.753      6.450
REMARK INTER + INTRA:         -13.301
REMARK INTER:                  -9.328
REMARK INTRA:                  -3.972
REMARK UNBOUND:                -5.381
REMARK SMILES CCCCCCCCCCCCCCCCCCCCCCCCCCCCCO
REMARK SMILES IDX 16 1 15 2 14 3 13 4 12 5 11 6 10 7 9 8 8 9 7 10 6 11 5 12
REMARK SMILES IDX 4 13 3 14 2 15 1 16 17 17 18 18 19 19 20 20 21 21 22 22
REMARK SMILES IDX 23 23 24 24 25 25 26 26 27 27 28 28 29 29 30 30
REMARK H PARENT 30 31
REMARK Flexibility Score: inf
ROOT
ATOM      1  C   UNL     1      10.775 -38.909  46.692  1.00  0.00     0.000 C 
ENDROOT
BRANCH   1   2
ATOM      2  C   UNL     1      10.315 -37.512  46.238  1.00  0.00     0.000 C 
BRANCH   2   3
ATOM      3  C   UNL     1       9.288 -36.879  47.192  1.00  0.00     0.000 C 
BRANCH   3   4
ATOM      4  C   UNL     1       9.842 -36.694  48.613  1.00  0.00     0.000 C 
BRANCH   4   5
ATOM      5  C   UNL     1      10.381 -35.272  48.850  1.00  0.00     0.000 C 
BRANCH   5   6
ATOM      6  C   UNL     1      11.693 -35.259  49.652  1.00  0.00     0.000 C 
BRANCH   6   7
ATOM      7  C   UNL     1      12.930 -34.790  48.859  1.00  0.00     0.000 C 
BRANCH   7   8
ATOM      8  C   UNL     1      13.063 -35.383  47.442  1.00  0.00    -0.000 C 
BRANCH   8   9
ATOM      9  C   UNL     1      14.057 -36.556  47.310  1.00  0.00    -0.000 C 
BRANCH   9  10
ATOM     10  C   UNL     1      14.063 -37.544  48.492  1.00  0.00    -0.000 C 
BRANCH  10  11
ATOM     11  C   UNL     1      15.479 -37.937  48.947  1.00  0.00    -0.000 C 
BRANCH  11  12
ATOM     12  C   UNL     1      16.524 -36.896  48.511  1.00  0.00    -0.000 C 
BRANCH  12  13
ATOM     13  C   UNL     1      17.581 -37.491  47.563  1.00  0.00    -0.000 C 
BRANCH  13  14
ATOM     14  C   UNL     1      17.848 -38.980  47.846  1.00  0.00    -0.000 C 
BRANCH  14  15
ATOM     15  C   UNL     1      18.694 -39.632  46.739  1.00  0.00    -0.003 C 
ATOM     16  C   UNL     1      18.912 -41.121  47.006  1.00  0.00     0.004 C 
ENDBRANCH  14  15
ENDBRANCH  13  14
ENDBRANCH  12  13
ENDBRANCH  11  12
ENDBRANCH  10  11
ENDBRANCH   9  10
ENDBRANCH   8   9
ENDBRANCH   7   8
ENDBRANCH   6   7
ENDBRANCH   5   6
ENDBRANCH   4   5
ENDBRANCH   3   4
ENDBRANCH   2   3
ENDBRANCH   1   2
BRANCH   1  17
ATOM     17  C   UNL     1      10.518 -40.044  45.682  1.00  0.00     0.000 C 
BRANCH  17  18
ATOM     18  C   UNL     1       9.339 -40.949  46.084  1.00  0.00     0.000 C 
BRANCH  18  19
ATOM     19  C   UNL     1       8.008 -40.505  45.454  1.00  0.00     0.000 C 
BRANCH  19  20
ATOM     20  C   UNL     1       6.967 -40.068  46.497  1.00  0.00     0.000 C 
BRANCH  20  21
ATOM     21  C   UNL     1       7.479 -40.334  47.921  1.00  0.00     0.000 C 
BRANCH  21  22
ATOM     22  C   UNL     1       7.165 -39.182  48.891  1.00  0.00     0.000 C 
BRANCH  22  23
ATOM     23  C   UNL     1       7.806 -39.383  50.274  1.00  0.00     0.000 C 
BRANCH  23  24
ATOM     24  C   UNL     1       7.618 -38.169  51.201  1.00  0.00     0.000 C 
BRANCH  24  25
ATOM     25  C   UNL     1       8.687 -38.072  52.310  1.00  0.00     0.000 C 
BRANCH  25  26
ATOM     26  C   UNL     1       9.008 -36.614  52.677  1.00  0.00     0.000 C 
BRANCH  26  27
ATOM     27  C   UNL     1       8.244 -35.596  51.815  1.00  0.00     0.002 C 
BRANCH  27  28
ATOM     28  C   UNL     1       7.891 -34.275  52.528  1.00  0.00     0.028 C 
BRANCH  28  29
ATOM     29  C   UNL     1       8.988 -33.762  53.465  1.00  0.00     0.156 C 
BRANCH  29  30
ATOM     30  O   UNL     1       8.851 -32.383  53.666  1.00  0.00    -0.396 OA
ATOM     31  H   UNL     1       7.879 -32.189  53.605  1.00  0.00     0.210 HD
ENDBRANCH  29  30
ENDBRANCH  28  29
ENDBRANCH  27  28
ENDBRANCH  26  27
ENDBRANCH  25  26
ENDBRANCH  24  25
ENDBRANCH  23  24
ENDBRANCH  22  23
ENDBRANCH  21  22
ENDBRANCH  20  21
ENDBRANCH  19  20
ENDBRANCH  18  19
ENDBRANCH  17  18
ENDBRANCH   1  17
TORSDOF 28
ENDMDL
MODEL 8
REMARK VINA RESULT:    -3.016      2.110      6.155
REMARK INTER + INTRA:         -13.245
REMARK INTER:                  -7.499
REMARK INTRA:                  -5.746
REMARK UNBOUND:                -5.381
REMARK SMILES CCCCCCCCCCCCCCCCCCCCCCCCCCCCCO
REMARK SMILES IDX 16 1 15 2 14 3 13 4 12 5 11 6 10 7 9 8 8 9 7 10 6 11 5 12
REMARK SMILES IDX 4 13 3 14 2 15 1 16 17 17 18 18 19 19 20 20 21 21 22 22
REMARK SMILES IDX 23 23 24 24 25 25 26 26 27 27 28 28 29 29 30 30
REMARK H PARENT 30 31
REMARK Flexibility Score: inf
ROOT
ATOM      1  C   UNL     1       9.890 -40.074  46.955  1.00  0.00     0.000 C 
ENDROOT
BRANCH   1   2
ATOM      2  C   UNL     1       9.129 -40.223  45.624  1.00  0.00     0.000 C 
BRANCH   2   3
ATOM      3  C   UNL     1       7.612 -40.394  45.817  1.00  0.00     0.000 C 
BRANCH   3   4
ATOM      4  C   UNL     1       6.878 -39.049  45.926  1.00  0.00     0.000 C 
BRANCH   4   5
ATOM      5  C   UNL     1       6.387 -38.765  47.357  1.00  0.00     0.000 C 
BRANCH   5   6
ATOM      6  C   UNL     1       6.312 -40.032  48.224  1.00  0.00     0.000 C 
BRANCH   6   7
ATOM      7  C   UNL     1       7.094 -39.954  49.551  1.00  0.00     0.000 C 
BRANCH   7   8
ATOM      8  C   UNL     1       7.752 -38.591  49.844  1.00  0.00    -0.000 C 
BRANCH   8   9
ATOM      9  C   UNL     1       8.020 -38.297  51.335  1.00  0.00    -0.000 C 
BRANCH   9  10
ATOM     10  C   UNL     1       9.432 -38.658  51.829  1.00  0.00    -0.000 C 
BRANCH  10  11
ATOM     11  C   UNL     1      10.454 -38.812  50.688  1.00  0.00    -0.000 C 
BRANCH  11  12
ATOM     12  C   UNL     1      11.853 -38.335  51.114  1.00  0.00    -0.000 C 
BRANCH  12  13
ATOM     13  C   UNL     1      12.908 -38.564  50.016  1.00  0.00    -0.000 C 
BRANCH  13  14
ATOM     14  C   UNL     1      13.594 -37.255  49.583  1.00  0.00    -0.000 C 
BRANCH  14  15
ATOM     15  C   UNL     1      13.882 -37.231  48.072  1.00  0.00    -0.003 C 
ATOM     16  C   UNL     1      14.567 -35.930  47.655  1.00  0.00     0.004 C 
ENDBRANCH  14  15
ENDBRANCH  13  14
ENDBRANCH  12  13
ENDBRANCH  11  12
ENDBRANCH  10  11
ENDBRANCH   9  10
ENDBRANCH   8   9
ENDBRANCH   7   8
ENDBRANCH   6   7
ENDBRANCH   5   6
ENDBRANCH   4   5
ENDBRANCH   3   4
ENDBRANCH   2   3
ENDBRANCH   1   2
BRANCH   1  17
ATOM     17  C   UNL     1      10.855 -38.875  47.027  1.00  0.00     0.000 C 
BRANCH  17  18
ATOM     18  C   UNL     1      10.203 -37.554  46.580  1.00  0.00     0.000 C 
BRANCH  18  19
ATOM     19  C   UNL     1       9.761 -36.679  47.765  1.00  0.00     0.000 C 
BRANCH  19  20
ATOM     20  C   UNL     1      10.689 -35.479  48.005  1.00  0.00     0.000 C 
BRANCH  20  21
ATOM     21  C   UNL     1      10.672 -35.065  49.484  1.00  0.00     0.000 C 
BRANCH  21  22
ATOM     22  C   UNL     1       9.271 -35.157  50.112  1.00  0.00     0.000 C 
BRANCH  22  23
ATOM     23  C   UNL     1       9.260 -34.747  51.594  1.00  0.00     0.000 C 
BRANCH  23  24
ATOM     24  C   UNL     1      10.525 -35.192  52.347  1.00  0.00     0.000 C 
BRANCH  24  25
ATOM     25  C   UNL     1      10.862 -34.302  53.562  1.00  0.00     0.000 C 
BRANCH  25  26
ATOM     26  C   UNL     1      10.144 -34.772  54.839  1.00  0.00     0.000 C 
BRANCH  26  27
ATOM     27  C   UNL     1       9.813 -36.273  54.822  1.00  0.00     0.002 C 
BRANCH  27  28
ATOM     28  C   UNL     1       8.324 -36.612  55.037  1.00  0.00     0.028 C 
BRANCH  28  29
ATOM     29  C   UNL     1       8.056 -37.489  56.263  1.00  0.00     0.156 C 
BRANCH  29  30
ATOM     30  O   UNL     1       8.135 -36.724  57.434  1.00  0.00    -0.396 OA
ATOM     31  H   UNL     1       7.734 -35.842  57.218  1.00  0.00     0.210 HD
ENDBRANCH  29  30
ENDBRANCH  28  29
ENDBRANCH  27  28
ENDBRANCH  26  27
ENDBRANCH  25  26
ENDBRANCH  24  25
ENDBRANCH  23  24
ENDBRANCH  22  23
ENDBRANCH  21  22
ENDBRANCH  20  21
ENDBRANCH  19  20
ENDBRANCH  18  19
ENDBRANCH  17  18
ENDBRANCH   1  17
TORSDOF 28
ENDMDL
MODEL 9
REMARK VINA RESULT:    -3.005      1.960      4.268
REMARK INTER + INTRA:         -13.218
REMARK INTER:                  -7.691
REMARK INTRA:                  -5.528
REMARK UNBOUND:                -5.381
REMARK SMILES CCCCCCCCCCCCCCCCCCCCCCCCCCCCCO
REMARK SMILES IDX 16 1 15 2 14 3 13 4 12 5 11 6 10 7 9 8 8 9 7 10 6 11 5 12
REMARK SMILES IDX 4 13 3 14 2 15 1 16 17 17 18 18 19 19 20 20 21 21 22 22
REMARK SMILES IDX 23 23 24 24 25 25 26 26 27 27 28 28 29 29 30 30
REMARK H PARENT 30 31
REMARK Flexibility Score: inf
ROOT
ATOM      1  C   UNL     1      10.353 -38.164  46.186  1.00  0.00     0.000 C 
ENDROOT
BRANCH   1   2
ATOM      2  C   UNL     1      10.952 -36.979  46.967  1.00  0.00     0.000 C 
BRANCH   2   3
ATOM      3  C   UNL     1      12.000 -37.415  48.006  1.00  0.00     0.000 C 
BRANCH   3   4
ATOM      4  C   UNL     1      13.439 -37.164  47.530  1.00  0.00     0.000 C 
BRANCH   4   5
ATOM      5  C   UNL     1      13.628 -35.746  46.960  1.00  0.00     0.000 C 
BRANCH   5   6
ATOM      6  C   UNL     1      14.528 -34.865  47.842  1.00  0.00     0.000 C 
BRANCH   6   7
ATOM      7  C   UNL     1      13.820 -33.653  48.479  1.00  0.00     0.000 C 
BRANCH   7   8
ATOM      8  C   UNL     1      12.282 -33.740  48.522  1.00  0.00    -0.000 C 
BRANCH   8   9
ATOM      9  C   UNL     1      11.685 -34.197  49.870  1.00  0.00    -0.000 C 
BRANCH   9  10
ATOM     10  C   UNL     1      12.718 -34.537  50.960  1.00  0.00    -0.000 C 
BRANCH  10  11
ATOM     11  C   UNL     1      12.699 -36.020  51.373  1.00  0.00    -0.000 C 
BRANCH  11  12
ATOM     12  C   UNL     1      14.087 -36.666  51.225  1.00  0.00    -0.000 C 
BRANCH  12  13
ATOM     13  C   UNL     1      14.009 -38.198  51.097  1.00  0.00    -0.000 C 
BRANCH  13  14
ATOM     14  C   UNL     1      12.679 -38.761  51.633  1.00  0.00    -0.000 C 
BRANCH  14  15
ATOM     15  C   UNL     1      12.136 -39.893  50.743  1.00  0.00    -0.003 C 
ATOM     16  C   UNL     1      13.232 -40.479  49.854  1.00  0.00     0.004 C 
ENDBRANCH  14  15
ENDBRANCH  13  14
ENDBRANCH  12  13
ENDBRANCH  11  12
ENDBRANCH  10  11
ENDBRANCH   9  10
ENDBRANCH   8   9
ENDBRANCH   7   8
ENDBRANCH   6   7
ENDBRANCH   5   6
ENDBRANCH   4   5
ENDBRANCH   3   4
ENDBRANCH   2   3
ENDBRANCH   1   2
BRANCH   1  17
ATOM     17  C   UNL     1      10.752 -39.559  46.706  1.00  0.00     0.000 C 
BRANCH  17  18
ATOM     18  C   UNL     1      10.594 -40.662  45.644  1.00  0.00     0.000 C 
BRANCH  18  19
ATOM     19  C   UNL     1       9.180 -40.708  45.041  1.00  0.00     0.000 C 
BRANCH  19  20
ATOM     20  C   UNL     1       8.086 -40.942  46.093  1.00  0.00     0.000 C 
BRANCH  20  21
ATOM     21  C   UNL     1       6.888 -40.011  45.850  1.00  0.00     0.000 C 
BRANCH  21  22
ATOM     22  C   UNL     1       6.735 -38.940  46.943  1.00  0.00     0.000 C 
BRANCH  22  23
ATOM     23  C   UNL     1       7.447 -39.324  48.251  1.00  0.00     0.000 C 
BRANCH  23  24
ATOM     24  C   UNL     1       8.069 -38.114  48.969  1.00  0.00     0.000 C 
BRANCH  24  25
ATOM     25  C   UNL     1       8.854 -38.493  50.243  1.00  0.00     0.000 C 
BRANCH  25  26
ATOM     26  C   UNL     1       8.302 -37.787  51.493  1.00  0.00     0.000 C 
BRANCH  26  27
ATOM     27  C   UNL     1       9.243 -36.694  52.029  1.00  0.00     0.002 C 
BRANCH  27  28
ATOM     28  C   UNL     1       8.705 -35.255  51.901  1.00  0.00     0.028 C 
BRANCH  28  29
ATOM     29  C   UNL     1       8.505 -34.544  53.242  1.00  0.00     0.156 C 
BRANCH  29  30
ATOM     30  O   UNL     1       7.727 -35.334  54.099  1.00  0.00    -0.396 OA
ATOM     31  H   UNL     1       7.316 -36.037  53.532  1.00  0.00     0.210 HD
ENDBRANCH  29  30
ENDBRANCH  28  29
ENDBRANCH  27  28
ENDBRANCH  26  27
ENDBRANCH  25  26
ENDBRANCH  24  25
ENDBRANCH  23  24
ENDBRANCH  22  23
ENDBRANCH  21  22
ENDBRANCH  20  21
ENDBRANCH  19  20
ENDBRANCH  18  19
ENDBRANCH  17  18
ENDBRANCH   1  17
TORSDOF 28
ENDMDL
