MODEL 1
REMARK VINA RESULT:    -4.735      0.000      0.000
REMARK INTER + INTRA:          -5.354
REMARK INTER:                  -5.427
REMARK INTRA:                   0.073
REMARK UNBOUND:                 0.073
REMARK SMILES COc1cc(C(=O)[O-])ccc1O
REMARK SMILES IDX 5 1 9 2 4 3 10 4 3 5 11 6 6 7 7 8 8 9 2 10 1 11 12 12
REMARK H PARENT 12 13
REMARK Flexibility Score: inf
ROOT
ATOM      1  C   UNL     1       7.745  13.505 -17.260  1.00  0.00     0.001 A 
ATOM      2  C   UNL     1       6.847  14.414 -17.846  1.00  0.00     0.014 A 
ATOM      3  C   UNL     1       9.063  13.439 -17.742  1.00  0.00     0.060 A 
ATOM      4  C   UNL     1       7.261  15.239 -18.893  1.00  0.00     0.051 A 
ATOM      5  C   UNL     1       9.486  14.271 -18.799  1.00  0.00     0.161 A 
ATOM      6  C   UNL     1       8.573  15.173 -19.371  1.00  0.00     0.157 A 
ENDROOT
BRANCH   1   7
ATOM      7  C   UNL     1       7.308  12.628 -16.150  1.00  0.00     0.072 C 
ATOM      8  O   UNL     1       6.260  12.888 -15.501  1.00  0.00    -0.545 OA
ATOM      9  O   UNL     1       8.049  11.502 -15.809  1.00  0.00    -0.545 OA
ENDBRANCH   1   7
BRANCH   5  10
ATOM     10  O   UNL     1      10.798  14.227 -19.300  1.00  0.00    -0.493 OA
ATOM     11  C   UNL     1      11.153  13.753 -20.596  1.00  0.00     0.278 C 
ENDBRANCH   5  10
BRANCH   6  12
ATOM     12  O   UNL     1       8.949  16.015 -20.419  1.00  0.00    -0.504 OA
ATOM     13  H   UNL     1       9.141  16.999 -20.279  1.00  0.00     0.293 HD
ENDBRANCH   6  12
TORSDOF 3
ENDMDL
MODEL 2
REMARK VINA RESULT:    -3.961      1.052      2.444
REMARK INTER + INTRA:          -4.467
REMARK INTER:                  -4.366
REMARK INTRA:                  -0.101
REMARK UNBOUND:                 0.073
REMARK SMILES COc1cc(C(=O)[O-])ccc1O
REMARK SMILES IDX 5 1 9 2 4 3 10 4 3 5 11 6 6 7 7 8 8 9 2 10 1 11 12 12
REMARK H PARENT 12 13
REMARK Flexibility Score: inf
ROOT
ATOM      1  C   UNL     1       7.874  13.315 -17.126  1.00  0.00     0.001 A 
ATOM      2  C   UNL     1       9.259  13.341 -17.364  1.00  0.00     0.014 A 
ATOM      3  C   UNL     1       7.023  14.062 -17.958  1.00  0.00     0.060 A 
ATOM      4  C   UNL     1       9.781  14.099 -18.414  1.00  0.00     0.051 A 
ATOM      5  C   UNL     1       7.545  14.829 -19.019  1.00  0.00     0.161 A 
ATOM      6  C   UNL     1       8.934  14.842 -19.240  1.00  0.00     0.157 A 
ENDROOT
BRANCH   1   7
ATOM      7  C   UNL     1       7.318  12.512 -16.013  1.00  0.00     0.072 C 
ATOM      8  O   UNL     1       6.244  12.853 -15.450  1.00  0.00    -0.545 OA
ATOM      9  O   UNL     1       7.974  11.368 -15.574  1.00  0.00    -0.545 OA
ENDBRANCH   1   7
BRANCH   5  10
ATOM     10  O   UNL     1       6.719  15.586 -19.867  1.00  0.00    -0.493 OA
ATOM     11  C   UNL     1       6.030  15.066 -21.000  1.00  0.00     0.278 C 
ENDBRANCH   5  10
BRANCH   6  12
ATOM     12  O   UNL     1       9.493  15.587 -20.279  1.00  0.00    -0.504 OA
ATOM     13  H   UNL     1      10.241  15.228 -20.860  1.00  0.00     0.293 HD
ENDBRANCH   6  12
TORSDOF 3
ENDMDL
MODEL 3
REMARK VINA RESULT:    -3.681      1.553      4.408
REMARK INTER + INTRA:          -4.146
REMARK INTER:                  -4.062
REMARK INTRA:                  -0.084
REMARK UNBOUND:                 0.073
REMARK SMILES COc1cc(C(=O)[O-])ccc1O
REMARK SMILES IDX 5 1 9 2 4 3 10 4 3 5 11 6 6 7 7 8 8 9 2 10 1 11 12 12
REMARK H PARENT 12 13
REMARK Flexibility Score: inf
ROOT
ATOM      1  C   UNL     1       9.497  14.385 -19.794  1.00  0.00     0.001 A 
ATOM      2  C   UNL     1       8.534  15.193 -20.422  1.00  0.00     0.014 A 
ATOM      3  C   UNL     1       9.250  13.912 -18.494  1.00  0.00     0.060 A 
ATOM      4  C   UNL     1       7.348  15.521 -19.762  1.00  0.00     0.051 A 
ATOM      5  C   UNL     1       8.054  14.240 -17.824  1.00  0.00     0.161 A 
ATOM      6  C   UNL     1       7.104  15.050 -18.470  1.00  0.00     0.157 A 
ENDROOT
BRANCH   1   7
ATOM      7  C   UNL     1      10.756  14.036 -20.492  1.00  0.00     0.072 C 
ATOM      8  O   UNL     1      11.534  13.169 -20.014  1.00  0.00    -0.545 OA
ATOM      9  O   UNL     1      11.096  14.662 -21.685  1.00  0.00    -0.545 OA
ENDBRANCH   1   7
BRANCH   5  10
ATOM     10  O   UNL     1       7.780  13.782 -16.524  1.00  0.00    -0.493 OA
ATOM     11  C   UNL     1       7.079  12.580 -16.221  1.00  0.00     0.278 C 
ENDBRANCH   5  10
BRANCH   6  12
ATOM     12  O   UNL     1       5.907  15.399 -17.843  1.00  0.00    -0.504 OA
ATOM     13  H   UNL     1       5.880  15.791 -16.909  1.00  0.00     0.293 HD
ENDBRANCH   6  12
TORSDOF 3
ENDMDL
MODEL 4
REMARK VINA RESULT:    -3.565      1.239      4.482
REMARK INTER + INTRA:          -4.013
REMARK INTER:                  -3.936
REMARK INTRA:                  -0.076
REMARK UNBOUND:                 0.073
REMARK SMILES COc1cc(C(=O)[O-])ccc1O
REMARK SMILES IDX 5 1 9 2 4 3 10 4 3 5 11 6 6 7 7 8 8 9 2 10 1 11 12 12
REMARK H PARENT 12 13
REMARK Flexibility Score: inf
ROOT
ATOM      1  C   UNL     1       9.049  13.846 -18.123  1.00  0.00     0.001 A 
ATOM      2  C   UNL     1       7.917  14.662 -17.955  1.00  0.00     0.014 A 
ATOM      3  C   UNL     1       9.170  12.679 -17.349  1.00  0.00     0.060 A 
ATOM      4  C   UNL     1       6.929  14.318 -17.031  1.00  0.00     0.051 A 
ATOM      5  C   UNL     1       8.175  12.327 -16.415  1.00  0.00     0.161 A 
ATOM      6  C   UNL     1       7.051  13.158 -16.262  1.00  0.00     0.157 A 
ENDROOT
BRANCH   1   7
ATOM      7  C   UNL     1      10.099  14.209 -19.101  1.00  0.00     0.072 C 
ATOM      8  O   UNL     1      10.397  13.426 -20.042  1.00  0.00    -0.545 OA
ATOM      9  O   UNL     1      10.770  15.421 -18.996  1.00  0.00    -0.545 OA
ENDBRANCH   1   7
BRANCH   5  10
ATOM     10  O   UNL     1       8.270  11.167 -15.628  1.00  0.00    -0.493 OA
ATOM     11  C   UNL     1       9.492  10.529 -15.272  1.00  0.00     0.278 C 
ENDBRANCH   5  10
BRANCH   6  12
ATOM     12  O   UNL     1       6.042  12.847 -15.349  1.00  0.00    -0.504 OA
ATOM     13  H   UNL     1       5.220  13.427 -15.235  1.00  0.00     0.293 HD
ENDBRANCH   6  12
TORSDOF 3
ENDMDL
MODEL 5
REMARK VINA RESULT:    -3.319      1.728      2.266
REMARK INTER + INTRA:          -3.731
REMARK INTER:                  -3.629
REMARK INTRA:                  -0.102
REMARK UNBOUND:                 0.073
REMARK SMILES COc1cc(C(=O)[O-])ccc1O
REMARK SMILES IDX 5 1 9 2 4 3 10 4 3 5 11 6 6 7 7 8 8 9 2 10 1 11 12 12
REMARK H PARENT 12 13
REMARK Flexibility Score: inf
ROOT
ATOM      1  C   UNL     1       8.274  11.885 -16.222  1.00  0.00     0.001 A 
ATOM      2  C   UNL     1       6.941  12.327 -16.209  1.00  0.00     0.014 A 
ATOM      3  C   UNL     1       9.223  12.598 -16.976  1.00  0.00     0.060 A 
ATOM      4  C   UNL     1       6.564  13.458 -16.936  1.00  0.00     0.051 A 
ATOM      5  C   UNL     1       8.848  13.740 -17.711  1.00  0.00     0.161 A 
ATOM      6  C   UNL     1       7.508  14.165 -17.685  1.00  0.00     0.157 A 
ENDROOT
BRANCH   1   7
ATOM      7  C   UNL     1       8.676  10.686 -15.453  1.00  0.00     0.072 C 
ATOM      8  O   UNL     1       7.825   9.814 -15.134  1.00  0.00    -0.545 OA
ATOM      9  O   UNL     1      10.001  10.506 -15.071  1.00  0.00    -0.545 OA
ENDBRANCH   1   7
BRANCH   5  10
ATOM     10  O   UNL     1       9.774  14.471 -18.474  1.00  0.00    -0.493 OA
ATOM     11  C   UNL     1      10.313  14.043 -19.720  1.00  0.00     0.278 C 
ENDBRANCH   5  10
BRANCH   6  12
ATOM     12  O   UNL     1       7.093  15.291 -18.398  1.00  0.00    -0.504 OA
ATOM     13  H   UNL     1       6.483  15.225 -19.204  1.00  0.00     0.293 HD
ENDBRANCH   6  12
TORSDOF 3
ENDMDL
MODEL 6
REMARK VINA RESULT:    -2.059      1.811      4.434
REMARK INTER + INTRA:          -2.287
REMARK INTER:                  -3.156
REMARK INTRA:                   0.869
REMARK UNBOUND:                 0.073
REMARK SMILES COc1cc(C(=O)[O-])ccc1O
REMARK SMILES IDX 5 1 9 2 4 3 10 4 3 5 11 6 6 7 7 8 8 9 2 10 1 11 12 12
REMARK H PARENT 12 13
REMARK Flexibility Score: inf
ROOT
ATOM      1  C   UNL     1       7.485  14.350 -18.257  1.00  0.00     0.001 A 
ATOM      2  C   UNL     1       8.843  14.257 -18.603  1.00  0.00     0.014 A 
ATOM      3  C   UNL     1       6.974  13.503 -17.259  1.00  0.00     0.060 A 
ATOM      4  C   UNL     1       9.674  13.335 -17.964  1.00  0.00     0.051 A 
ATOM      5  C   UNL     1       7.808  12.570 -16.610  1.00  0.00     0.161 A 
ATOM      6  C   UNL     1       9.165  12.493 -16.971  1.00  0.00     0.157 A 
ENDROOT
BRANCH   1   7
ATOM      7  C   UNL     1       6.602  15.327 -18.935  1.00  0.00     0.072 C 
ATOM      8  O   UNL     1       5.891  16.122 -18.264  1.00  0.00    -0.545 OA
ATOM      9  O   UNL     1       6.545  15.380 -20.323  1.00  0.00    -0.545 OA
ENDBRANCH   1   7
BRANCH   5  10
ATOM     10  O   UNL     1       7.326  11.711 -15.609  1.00  0.00    -0.493 OA
ATOM     11  C   UNL     1       8.071  10.643 -15.031  1.00  0.00     0.278 C 
ENDBRANCH   5  10
BRANCH   6  12
ATOM     12  O   UNL     1      10.026  11.584 -16.354  1.00  0.00    -0.504 OA
ATOM     13  H   UNL     1      10.448  10.813 -16.857  1.00  0.00     0.293 HD
ENDBRANCH   6  12
TORSDOF 3
ENDMDL
MODEL 7
REMARK VINA RESULT:    -2.004      2.158      4.744
REMARK INTER + INTRA:          -2.224
REMARK INTER:                  -2.147
REMARK INTRA:                  -0.077
REMARK UNBOUND:                 0.073
REMARK SMILES COc1cc(C(=O)[O-])ccc1O
REMARK SMILES IDX 5 1 9 2 4 3 10 4 3 5 11 6 6 7 7 8 8 9 2 10 1 11 12 12
REMARK H PARENT 12 13
REMARK Flexibility Score: inf
ROOT
ATOM      1  C   UNL     1      10.128  14.873 -20.189  1.00  0.00     0.001 A 
ATOM      2  C   UNL     1       8.737  14.778 -20.364  1.00  0.00     0.014 A 
ATOM      3  C   UNL     1      10.661  14.795 -18.891  1.00  0.00     0.060 A 
ATOM      4  C   UNL     1       7.897  14.610 -19.262  1.00  0.00     0.051 A 
ATOM      5  C   UNL     1       9.817  14.625 -17.775  1.00  0.00     0.161 A 
ATOM      6  C   UNL     1       8.428  14.533 -17.971  1.00  0.00     0.157 A 
ENDROOT
BRANCH   1   7
ATOM      7  C   UNL     1      11.022  15.052 -21.356  1.00  0.00     0.072 C 
ATOM      8  O   UNL     1      10.994  14.236 -22.315  1.00  0.00    -0.545 OA
ATOM      9  O   UNL     1      11.904  16.125 -21.409  1.00  0.00    -0.545 OA
ENDBRANCH   1   7
BRANCH   5  10
ATOM     10  O   UNL     1      10.321  14.544 -16.466  1.00  0.00    -0.493 OA
ATOM     11  C   UNL     1      11.519  15.172 -16.020  1.00  0.00     0.278 C 
ENDBRANCH   5  10
BRANCH   6  12
ATOM     12  O   UNL     1       7.556  14.364 -16.895  1.00  0.00    -0.504 OA
ATOM     13  H   UNL     1       7.669  14.869 -16.024  1.00  0.00     0.293 HD
ENDBRANCH   6  12
TORSDOF 3
ENDMDL
MODEL 8
REMARK VINA RESULT:    -1.905      2.110      4.843
REMARK INTER + INTRA:          -2.111
REMARK INTER:                  -2.260
REMARK INTRA:                   0.149
REMARK UNBOUND:                 0.073
REMARK SMILES COc1cc(C(=O)[O-])ccc1O
REMARK SMILES IDX 5 1 9 2 4 3 10 4 3 5 11 6 6 7 7 8 8 9 2 10 1 11 12 12
REMARK H PARENT 12 13
REMARK Flexibility Score: inf
ROOT
ATOM      1  C   UNL     1       8.339  13.230 -17.200  1.00  0.00     0.001 A 
ATOM      2  C   UNL     1       7.104  13.048 -16.554  1.00  0.00     0.014 A 
ATOM      3  C   UNL     1       9.394  12.345 -16.920  1.00  0.00     0.060 A 
ATOM      4  C   UNL     1       6.929  12.002 -15.646  1.00  0.00     0.051 A 
ATOM      5  C   UNL     1       9.222  11.288 -16.003  1.00  0.00     0.161 A 
ATOM      6  C   UNL     1       7.979  11.123 -15.367  1.00  0.00     0.157 A 
ENDROOT
BRANCH   1   7
ATOM      7  C   UNL     1       8.526  14.339 -18.164  1.00  0.00     0.072 C 
ATOM      8  O   UNL     1       9.641  14.522 -18.720  1.00  0.00    -0.545 OA
ATOM      9  O   UNL     1       7.473  15.193 -18.467  1.00  0.00    -0.545 OA
ENDBRANCH   1   7
BRANCH   5  10
ATOM     10  O   UNL     1      10.259  10.388 -15.703  1.00  0.00    -0.493 OA
ATOM     11  C   UNL     1      10.839  10.223 -14.413  1.00  0.00     0.278 C 
ENDBRANCH   5  10
BRANCH   6  12
ATOM     12  O   UNL     1       7.767  10.090 -14.454  1.00  0.00    -0.504 OA
ATOM     13  H   UNL     1       8.182   9.174 -14.569  1.00  0.00     0.293 HD
ENDBRANCH   6  12
TORSDOF 3
ENDMDL
