MODEL 1
REMARK VINA RESULT:    -4.763      0.000      0.000
REMARK INTER + INTRA:          -4.763
REMARK INTER:                  -4.763
REMARK INTRA:                   0.000
REMARK UNBOUND:                 0.000
REMARK SMILES CC1=CC[C@@H]2[C@H](C1)C2(C)C
REMARK SMILES IDX 1 1 2 2 3 3 4 4 5 5 6 6 7 7 8 8 9 9 10 10
REMARK H PARENT
REMARK Flexibility Score: inf
ROOT
ATOM      1  C   UNL     1       9.288   9.861  29.882  1.00  0.00     0.039 C 
ATOM      2  C   UNL     1       9.710   8.585  29.205  1.00  0.00    -0.077 C 
ATOM      3  C   UNL     1      10.457   8.645  28.089  1.00  0.00    -0.028 C 
ATOM      4  C   UNL     1      10.910   7.401  27.378  1.00  0.00     0.031 C 
ATOM      5  C   UNL     1       9.826   6.303  27.391  1.00  0.00     0.003 C 
ATOM      6  C   UNL     1       8.966   6.222  28.673  1.00  0.00     0.003 C 
ATOM      7  C   UNL     1       9.299   7.249  29.778  1.00  0.00     0.034 C 
ATOM      8  C   UNL     1       9.952   5.094  28.331  1.00  0.00    -0.029 C 
ATOM      9  C   UNL     1      11.227   4.894  29.174  1.00  0.00     0.012 C 
ATOM     10  C   UNL     1       9.297   3.810  27.811  1.00  0.00     0.012 C 
ENDROOT
TORSDOF 0
ENDMDL
MODEL 2
REMARK VINA RESULT:    -4.718     13.993     15.384
REMARK INTER + INTRA:          -4.718
REMARK INTER:                  -4.718
REMARK INTRA:                   0.000
REMARK UNBOUND:                 0.000
REMARK SMILES CC1=CC[C@@H]2[C@H](C1)C2(C)C
REMARK SMILES IDX 1 1 2 2 3 3 4 4 5 5 6 6 7 7 8 8 9 9 10 10
REMARK H PARENT
REMARK Flexibility Score: inf
ROOT
ATOM      1  C   UNL     1       6.746   5.633  10.897  1.00  0.00     0.039 C 
ATOM      2  C   UNL     1       6.950   6.459  12.139  1.00  0.00    -0.077 C 
ATOM      3  C   UNL     1       8.004   7.289  12.215  1.00  0.00    -0.028 C 
ATOM      4  C   UNL     1       8.252   8.139  13.428  1.00  0.00     0.031 C 
ATOM      5  C   UNL     1       7.900   7.395  14.734  1.00  0.00     0.003 C 
ATOM      6  C   UNL     1       6.685   6.443  14.659  1.00  0.00     0.003 C 
ATOM      7  C   UNL     1       5.976   6.356  13.289  1.00  0.00     0.034 C 
ATOM      8  C   UNL     1       6.608   7.729  15.498  1.00  0.00    -0.029 C 
ATOM      9  C   UNL     1       5.717   8.901  15.044  1.00  0.00     0.012 C 
ATOM     10  C   UNL     1       6.688   7.507  17.012  1.00  0.00     0.012 C 
ENDROOT
TORSDOF 0
ENDMDL
MODEL 3
REMARK VINA RESULT:    -4.708      1.688      2.933
REMARK INTER + INTRA:          -4.708
REMARK INTER:                  -4.708
REMARK INTRA:                   0.000
REMARK UNBOUND:                 0.000
REMARK SMILES CC1=CC[C@@H]2[C@H](C1)C2(C)C
REMARK SMILES IDX 1 1 2 2 3 3 4 4 5 5 6 6 7 7 8 8 9 9 10 10
REMARK H PARENT
REMARK Flexibility Score: inf
ROOT
ATOM      1  C   UNL     1      12.339   7.784  25.832  1.00  0.00     0.039 C 
ATOM      2  C   UNL     1      11.390   6.990  26.689  1.00  0.00    -0.077 C 
ATOM      3  C   UNL     1      10.182   7.499  26.982  1.00  0.00    -0.028 C 
ATOM      4  C   UNL     1       9.195   6.746  27.829  1.00  0.00     0.031 C 
ATOM      5  C   UNL     1       9.887   5.980  28.976  1.00  0.00     0.003 C 
ATOM      6  C   UNL     1      11.275   5.386  28.647  1.00  0.00     0.003 C 
ATOM      7  C   UNL     1      11.794   5.632  27.213  1.00  0.00     0.034 C 
ATOM      8  C   UNL     1      10.075   4.457  28.895  1.00  0.00    -0.029 C 
ATOM      9  C   UNL     1       9.458   3.658  27.731  1.00  0.00     0.012 C 
ATOM     10  C   UNL     1      10.092   3.743  30.250  1.00  0.00     0.012 C 
ENDROOT
TORSDOF 0
ENDMDL
MODEL 4
REMARK VINA RESULT:    -4.672     14.659     15.686
REMARK INTER + INTRA:          -4.672
REMARK INTER:                  -4.672
REMARK INTRA:                   0.000
REMARK UNBOUND:                 0.000
REMARK SMILES CC1=CC[C@@H]2[C@H](C1)C2(C)C
REMARK SMILES IDX 1 1 2 2 3 3 4 4 5 5 6 6 7 7 8 8 9 9 10 10
REMARK H PARENT
REMARK Flexibility Score: inf
ROOT
ATOM      1  C   UNL     1       5.779   9.386  15.696  1.00  0.00     0.039 C 
ATOM      2  C   UNL     1       6.422   8.557  14.617  1.00  0.00    -0.077 C 
ATOM      3  C   UNL     1       7.517   9.021  13.992  1.00  0.00    -0.028 C 
ATOM      4  C   UNL     1       8.202   8.230  12.913  1.00  0.00     0.031 C 
ATOM      5  C   UNL     1       7.191   7.487  12.014  1.00  0.00     0.003 C 
ATOM      6  C   UNL     1       5.931   6.944  12.726  1.00  0.00     0.003 C 
ATOM      7  C   UNL     1       5.843   7.213  14.245  1.00  0.00     0.034 C 
ATOM      8  C   UNL     1       6.981   5.972  12.165  1.00  0.00    -0.029 C 
ATOM      9  C   UNL     1       7.872   5.154  13.120  1.00  0.00     0.012 C 
ATOM     10  C   UNL     1       6.562   5.255  10.877  1.00  0.00     0.012 C 
ENDROOT
TORSDOF 0
ENDMDL
MODEL 5
REMARK VINA RESULT:    -4.513      6.053      7.713
REMARK INTER + INTRA:          -4.513
REMARK INTER:                  -4.513
REMARK INTRA:                   0.000
REMARK UNBOUND:                 0.000
REMARK SMILES CC1=CC[C@@H]2[C@H](C1)C2(C)C
REMARK SMILES IDX 1 1 2 2 3 3 4 4 5 5 6 6 7 7 8 8 9 9 10 10
REMARK H PARENT
REMARK Flexibility Score: inf
ROOT
ATOM      1  C   UNL     1      19.098   9.479  25.581  1.00  0.00     0.039 C 
ATOM      2  C   UNL     1      17.769   8.852  25.253  1.00  0.00    -0.077 C 
ATOM      3  C   UNL     1      17.719   7.827  24.385  1.00  0.00    -0.028 C 
ATOM      4  C   UNL     1      16.421   7.161  24.027  1.00  0.00     0.031 C 
ATOM      5  C   UNL     1      15.264   8.177  23.920  1.00  0.00     0.003 C 
ATOM      6  C   UNL     1      15.309   9.356  24.919  1.00  0.00     0.003 C 
ATOM      7  C   UNL     1      16.505   9.369  25.897  1.00  0.00     0.034 C 
ATOM      8  C   UNL     1      14.214   8.284  25.038  1.00  0.00    -0.029 C 
ATOM      9  C   UNL     1      14.226   7.288  26.214  1.00  0.00     0.012 C 
ATOM     10  C   UNL     1      12.827   8.735  24.570  1.00  0.00     0.012 C 
ENDROOT
TORSDOF 0
ENDMDL
MODEL 6
REMARK VINA RESULT:    -4.430      1.725      3.747
REMARK INTER + INTRA:          -4.430
REMARK INTER:                  -4.430
REMARK INTRA:                   0.000
REMARK UNBOUND:                 0.000
REMARK SMILES CC1=CC[C@@H]2[C@H](C1)C2(C)C
REMARK SMILES IDX 1 1 2 2 3 3 4 4 5 5 6 6 7 7 8 8 9 9 10 10
REMARK H PARENT
REMARK Flexibility Score: inf
ROOT
ATOM      1  C   UNL     1      10.819   3.772  30.982  1.00  0.00     0.039 C 
ATOM      2  C   UNL     1      10.563   4.619  29.764  1.00  0.00    -0.077 C 
ATOM      3  C   UNL     1       9.311   4.736  29.292  1.00  0.00    -0.028 C 
ATOM      4  C   UNL     1       9.000   5.574  28.084  1.00  0.00     0.031 C 
ATOM      5  C   UNL     1      10.104   5.468  27.011  1.00  0.00     0.003 C 
ATOM      6  C   UNL     1      11.549   5.339  27.544  1.00  0.00     0.003 C 
ATOM      7  C   UNL     1      11.706   5.332  29.081  1.00  0.00     0.034 C 
ATOM      8  C   UNL     1      11.107   6.615  26.809  1.00  0.00    -0.029 C 
ATOM      9  C   UNL     1      10.941   7.938  27.582  1.00  0.00     0.012 C 
ATOM     10  C   UNL     1      11.646   6.747  25.381  1.00  0.00     0.012 C 
ENDROOT
TORSDOF 0
ENDMDL
MODEL 7
REMARK VINA RESULT:    -4.415     14.197     15.535
REMARK INTER + INTRA:          -4.415
REMARK INTER:                  -4.415
REMARK INTRA:                   0.000
REMARK UNBOUND:                 0.000
REMARK SMILES CC1=CC[C@@H]2[C@H](C1)C2(C)C
REMARK SMILES IDX 1 1 2 2 3 3 4 4 5 5 6 6 7 7 8 8 9 9 10 10
REMARK H PARENT
REMARK Flexibility Score: inf
ROOT
ATOM      1  C   UNL     1       4.792   6.326  16.209  1.00  0.00     0.039 C 
ATOM      2  C   UNL     1       5.796   6.405  15.090  1.00  0.00    -0.077 C 
ATOM      3  C   UNL     1       6.772   5.486  15.012  1.00  0.00    -0.028 C 
ATOM      4  C   UNL     1       7.795   5.516  13.912  1.00  0.00     0.031 C 
ATOM      5  C   UNL     1       8.213   6.957  13.554  1.00  0.00     0.003 C 
ATOM      6  C   UNL     1       7.095   8.021  13.634  1.00  0.00     0.003 C 
ATOM      7  C   UNL     1       5.702   7.509  14.063  1.00  0.00     0.034 C 
ATOM      8  C   UNL     1       7.689   7.625  12.273  1.00  0.00    -0.029 C 
ATOM      9  C   UNL     1       6.848   6.819  11.263  1.00  0.00     0.012 C 
ATOM     10  C   UNL     1       8.634   8.666  11.663  1.00  0.00     0.012 C 
ENDROOT
TORSDOF 0
ENDMDL
MODEL 8
REMARK VINA RESULT:    -4.360      5.917      7.737
REMARK INTER + INTRA:          -4.360
REMARK INTER:                  -4.360
REMARK INTRA:                   0.000
REMARK UNBOUND:                 0.000
REMARK SMILES CC1=CC[C@@H]2[C@H](C1)C2(C)C
REMARK SMILES IDX 1 1 2 2 3 3 4 4 5 5 6 6 7 7 8 8 9 9 10 10
REMARK H PARENT
REMARK Flexibility Score: inf
ROOT
ATOM      1  C   UNL     1      18.238   7.884  24.957  1.00  0.00     0.039 C 
ATOM      2  C   UNL     1      16.892   8.323  24.446  1.00  0.00    -0.077 C 
ATOM      3  C   UNL     1      16.603   9.633  24.386  1.00  0.00    -0.028 C 
ATOM      4  C   UNL     1      15.277  10.125  23.879  1.00  0.00     0.031 C 
ATOM      5  C   UNL     1      14.116   9.210  24.322  1.00  0.00     0.003 C 
ATOM      6  C   UNL     1      14.437   7.699  24.387  1.00  0.00     0.003 C 
ATOM      7  C   UNL     1      15.878   7.296  24.000  1.00  0.00     0.034 C 
ATOM      8  C   UNL     1      13.465   8.238  23.325  1.00  0.00    -0.029 C 
ATOM      9  C   UNL     1      13.872   8.260  21.839  1.00  0.00     0.012 C 
ATOM     10  C   UNL     1      11.989   7.935  23.601  1.00  0.00     0.012 C 
ENDROOT
TORSDOF 0
ENDMDL
MODEL 9
REMARK VINA RESULT:    -4.333     14.003     15.096
REMARK INTER + INTRA:          -4.333
REMARK INTER:                  -4.333
REMARK INTRA:                   0.000
REMARK UNBOUND:                 0.000
REMARK SMILES CC1=CC[C@@H]2[C@H](C1)C2(C)C
REMARK SMILES IDX 1 1 2 2 3 3 4 4 5 5 6 6 7 7 8 8 9 9 10 10
REMARK H PARENT
REMARK Flexibility Score: inf
ROOT
ATOM      1  C   UNL     1       2.938   8.245  15.411  1.00  0.00     0.039 C 
ATOM      2  C   UNL     1       4.340   7.866  15.016  1.00  0.00    -0.077 C 
ATOM      3  C   UNL     1       5.376   8.572  15.499  1.00  0.00    -0.028 C 
ATOM      4  C   UNL     1       6.795   8.233  15.142  1.00  0.00     0.031 C 
ATOM      5  C   UNL     1       6.927   7.786  13.671  1.00  0.00     0.003 C 
ATOM      6  C   UNL     1       5.743   6.967  13.108  1.00  0.00     0.003 C 
ATOM      7  C   UNL     1       4.579   6.699  14.087  1.00  0.00     0.034 C 
ATOM      8  C   UNL     1       7.112   6.301  13.320  1.00  0.00    -0.029 C 
ATOM      9  C   UNL     1       7.302   5.256  14.437  1.00  0.00     0.012 C 
ATOM     10  C   UNL     1       7.902   6.043  12.033  1.00  0.00     0.012 C 
ENDROOT
TORSDOF 0
ENDMDL
