MODEL 1
REMARK VINA RESULT:    -3.899      0.000      0.000
REMARK INTER + INTRA:          -9.732
REMARK INTER:                  -7.547
REMARK INTRA:                  -2.186
REMARK UNBOUND:                -2.186
REMARK SMILES CCCCCCCCCCCCCCCCCC(=O)[O-]
REMARK SMILES IDX 10 1 11 2 12 3 13 4 14 5 15 6 16 7 17 8 18 9 19 10 20 11
REMARK SMILES IDX 9 12 8 13 7 14 6 15 5 16 4 17 3 18 2 19 1 20
REMARK H PARENT
REMARK Flexibility Score: inf
ROOT
ATOM      1  C   UNL     1     121.156 112.710 114.278  1.00  0.00     0.000 C 
ENDROOT
BRANCH   1   2
ATOM      2  C   UNL     1     119.960 113.508 113.739  1.00  0.00     0.000 C 
BRANCH   2   3
ATOM      3  C   UNL     1     119.128 114.155 114.856  1.00  0.00     0.000 C 
BRANCH   3   4
ATOM      4  C   UNL     1     119.706 113.882 116.255  1.00  0.00     0.000 C 
BRANCH   4   5
ATOM      5  C   UNL     1     118.625 113.513 117.287  1.00  0.00     0.000 C 
BRANCH   5   6
ATOM      6  C   UNL     1     118.913 112.245 118.115  1.00  0.00     0.000 C 
BRANCH   6   7
ATOM      7  C   UNL     1     119.866 111.233 117.454  1.00  0.00     0.006 C 
BRANCH   7   8
ATOM      8  C   UNL     1     121.103 110.932 118.308  1.00  0.00     0.053 C 
BRANCH   8   9
ATOM      9  C   UNL     1     122.314 111.583 117.718  1.00  0.00     0.041 C 
ATOM     10  O   UNL     1     123.065 110.942 116.934  1.00  0.00    -0.550 OA
ATOM     11  O   UNL     1     122.582 112.920 117.988  1.00  0.00    -0.550 OA
ENDBRANCH   8   9
ENDBRANCH   7   8
ENDBRANCH   6   7
ENDBRANCH   5   6
ENDBRANCH   4   5
ENDBRANCH   3   4
ENDBRANCH   2   3
ENDBRANCH   1   2
BRANCH   1  12
ATOM     12  C   UNL     1     120.981 111.209 114.006  1.00  0.00     0.000 C 
BRANCH  12  13
ATOM     13  C   UNL     1     121.829 110.763 112.808  1.00  0.00    -0.000 C 
BRANCH  13  14
ATOM     14  C   UNL     1     120.991 109.949 111.811  1.00  0.00    -0.000 C 
BRANCH  14  15
ATOM     15  C   UNL     1     119.493 110.307 111.852  1.00  0.00    -0.000 C 
BRANCH  15  16
ATOM     16  C   UNL     1     118.782 110.301 110.486  1.00  0.00    -0.000 C 
BRANCH  16  17
ATOM     17  C   UNL     1     119.756 110.141 109.306  1.00  0.00    -0.000 C 
BRANCH  17  18
ATOM     18  C   UNL     1     119.835 111.401 108.427  1.00  0.00    -0.000 C 
BRANCH  18  19
ATOM     19  C   UNL     1     121.200 112.098 108.504  1.00  0.00    -0.003 C 
ATOM     20  C   UNL     1     121.264 113.050 109.695  1.00  0.00     0.004 C 
ENDBRANCH  18  19
ENDBRANCH  17  18
ENDBRANCH  16  17
ENDBRANCH  15  16
ENDBRANCH  14  15
ENDBRANCH  13  14
ENDBRANCH  12  13
ENDBRANCH   1  12
TORSDOF 16
ENDMDL
MODEL 2
REMARK VINA RESULT:    -3.884      2.379      3.469
REMARK INTER + INTRA:          -9.702
REMARK INTER:                  -8.313
REMARK INTRA:                  -1.388
REMARK UNBOUND:                -2.186
REMARK SMILES CCCCCCCCCCCCCCCCCC(=O)[O-]
REMARK SMILES IDX 10 1 11 2 12 3 13 4 14 5 15 6 16 7 17 8 18 9 19 10 20 11
REMARK SMILES IDX 9 12 8 13 7 14 6 15 5 16 4 17 3 18 2 19 1 20
REMARK H PARENT
REMARK Flexibility Score: inf
ROOT
ATOM      1  C   UNL     1     120.459 112.486 112.542  1.00  0.00     0.000 C 
ENDROOT
BRANCH   1   2
ATOM      2  C   UNL     1     120.228 112.959 113.985  1.00  0.00     0.000 C 
BRANCH   2   3
ATOM      3  C   UNL     1     121.529 113.378 114.686  1.00  0.00     0.000 C 
BRANCH   3   4
ATOM      4  C   UNL     1     121.561 112.962 116.166  1.00  0.00     0.000 C 
BRANCH   4   5
ATOM      5  C   UNL     1     121.261 111.466 116.373  1.00  0.00     0.000 C 
BRANCH   5   6
ATOM      6  C   UNL     1     120.101 111.156 117.339  1.00  0.00     0.000 C 
BRANCH   6   7
ATOM      7  C   UNL     1     119.505 112.378 118.060  1.00  0.00     0.006 C 
BRANCH   7   8
ATOM      8  C   UNL     1     118.014 112.578 117.764  1.00  0.00     0.053 C 
BRANCH   8   9
ATOM      9  C   UNL     1     117.762 113.971 117.278  1.00  0.00     0.041 C 
ATOM     10  O   UNL     1     117.257 114.833 118.047  1.00  0.00    -0.550 OA
ATOM     11  O   UNL     1     118.138 114.333 115.990  1.00  0.00    -0.550 OA
ENDBRANCH   8   9
ENDBRANCH   7   8
ENDBRANCH   6   7
ENDBRANCH   5   6
ENDBRANCH   4   5
ENDBRANCH   3   4
ENDBRANCH   2   3
ENDBRANCH   1   2
BRANCH   1  12
ATOM     12  C   UNL     1     121.243 111.166 112.517  1.00  0.00     0.000 C 
BRANCH  12  13
ATOM     13  C   UNL     1     120.300 109.968 112.352  1.00  0.00    -0.000 C 
BRANCH  13  14
ATOM     14  C   UNL     1     119.169 110.289 111.364  1.00  0.00    -0.000 C 
BRANCH  14  15
ATOM     15  C   UNL     1     119.509 109.903 109.912  1.00  0.00    -0.000 C 
BRANCH  15  16
ATOM     16  C   UNL     1     119.882 111.081 108.993  1.00  0.00    -0.000 C 
BRANCH  16  17
ATOM     17  C   UNL     1     120.094 110.654 107.530  1.00  0.00    -0.000 C 
BRANCH  17  18
ATOM     18  C   UNL     1     119.780 109.167 107.295  1.00  0.00    -0.000 C 
BRANCH  18  19
ATOM     19  C   UNL     1     120.911 108.426 106.568  1.00  0.00    -0.003 C 
ATOM     20  C   UNL     1     120.356 107.336 105.657  1.00  0.00     0.004 C 
ENDBRANCH  18  19
ENDBRANCH  17  18
ENDBRANCH  16  17
ENDBRANCH  15  16
ENDBRANCH  14  15
ENDBRANCH  13  14
ENDBRANCH  12  13
ENDBRANCH   1  12
TORSDOF 16
ENDMDL
MODEL 3
REMARK VINA RESULT:    -3.868      2.584      3.862
REMARK INTER + INTRA:          -9.672
REMARK INTER:                  -8.115
REMARK INTRA:                  -1.557
REMARK UNBOUND:                -2.186
REMARK SMILES CCCCCCCCCCCCCCCCCC(=O)[O-]
REMARK SMILES IDX 10 1 11 2 12 3 13 4 14 5 15 6 16 7 17 8 18 9 19 10 20 11
REMARK SMILES IDX 9 12 8 13 7 14 6 15 5 16 4 17 3 18 2 19 1 20
REMARK H PARENT
REMARK Flexibility Score: inf
ROOT
ATOM      1  C   UNL     1     121.199 111.494 115.808  1.00  0.00     0.000 C 
ENDROOT
BRANCH   1   2
ATOM      2  C   UNL     1     120.193 111.589 116.965  1.00  0.00     0.000 C 
BRANCH   2   3
ATOM      3  C   UNL     1     119.900 113.040 117.377  1.00  0.00     0.000 C 
BRANCH   3   4
ATOM      4  C   UNL     1     118.443 113.242 117.824  1.00  0.00     0.000 C 
BRANCH   4   5
ATOM      5  C   UNL     1     117.724 114.352 117.035  1.00  0.00     0.000 C 
BRANCH   5   6
ATOM      6  C   UNL     1     118.178 114.517 115.572  1.00  0.00     0.000 C 
BRANCH   6   7
ATOM      7  C   UNL     1     118.438 115.967 115.125  1.00  0.00     0.006 C 
BRANCH   7   8
ATOM      8  C   UNL     1     119.898 116.219 114.733  1.00  0.00     0.053 C 
BRANCH   8   9
ATOM      9  C   UNL     1     120.035 116.271 113.244  1.00  0.00     0.041 C 
ATOM     10  O   UNL     1     119.226 115.646 112.507  1.00  0.00    -0.550 OA
ATOM     11  O   UNL     1     121.025 117.059 112.668  1.00  0.00    -0.550 OA
ENDBRANCH   8   9
ENDBRANCH   7   8
ENDBRANCH   6   7
ENDBRANCH   5   6
ENDBRANCH   4   5
ENDBRANCH   3   4
ENDBRANCH   2   3
ENDBRANCH   1   2
BRANCH   1  12
ATOM     12  C   UNL     1     120.981 112.628 114.797  1.00  0.00     0.000 C 
BRANCH  12  13
ATOM     13  C   UNL     1     121.244 112.148 113.364  1.00  0.00    -0.000 C 
BRANCH  13  14
ATOM     14  C   UNL     1     121.390 110.620 113.313  1.00  0.00    -0.000 C 
BRANCH  14  15
ATOM     15  C   UNL     1     120.479 109.963 112.260  1.00  0.00    -0.000 C 
BRANCH  15  16
ATOM     16  C   UNL     1     119.322 110.846 111.754  1.00  0.00    -0.000 C 
BRANCH  16  17
ATOM     17  C   UNL     1     118.721 110.344 110.430  1.00  0.00    -0.000 C 
BRANCH  17  18
ATOM     18  C   UNL     1     119.795 110.019 109.378  1.00  0.00    -0.000 C 
BRANCH  18  19
ATOM     19  C   UNL     1     119.944 111.121 108.319  1.00  0.00    -0.003 C 
ATOM     20  C   UNL     1     121.024 110.762 107.302  1.00  0.00     0.004 C 
ENDBRANCH  18  19
ENDBRANCH  17  18
ENDBRANCH  16  17
ENDBRANCH  15  16
ENDBRANCH  14  15
ENDBRANCH  13  14
ENDBRANCH  12  13
ENDBRANCH   1  12
TORSDOF 16
ENDMDL
MODEL 4
REMARK VINA RESULT:    -3.847      1.519      2.984
REMARK INTER + INTRA:          -9.632
REMARK INTER:                  -8.097
REMARK INTRA:                  -1.535
REMARK UNBOUND:                -2.186
REMARK SMILES CCCCCCCCCCCCCCCCCC(=O)[O-]
REMARK SMILES IDX 10 1 11 2 12 3 13 4 14 5 15 6 16 7 17 8 18 9 19 10 20 11
REMARK SMILES IDX 9 12 8 13 7 14 6 15 5 16 4 17 3 18 2 19 1 20
REMARK H PARENT
REMARK Flexibility Score: inf
ROOT
ATOM      1  C   UNL     1     118.889 115.983 114.114  1.00  0.00     0.000 C 
ENDROOT
BRANCH   1   2
ATOM      2  C   UNL     1     118.902 114.979 115.276  1.00  0.00     0.000 C 
BRANCH   2   3
ATOM      3  C   UNL     1     117.676 115.117 116.192  1.00  0.00     0.000 C 
BRANCH   3   4
ATOM      4  C   UNL     1     117.629 114.034 117.282  1.00  0.00     0.000 C 
BRANCH   4   5
ATOM      5  C   UNL     1     118.983 113.328 117.481  1.00  0.00     0.000 C 
BRANCH   5   6
ATOM      6  C   UNL     1     118.897 111.857 117.933  1.00  0.00     0.000 C 
BRANCH   6   7
ATOM      7  C   UNL     1     120.035 110.949 117.433  1.00  0.00     0.006 C 
BRANCH   7   8
ATOM      8  C   UNL     1     121.421 111.428 117.881  1.00  0.00     0.053 C 
BRANCH   8   9
ATOM      9  C   UNL     1     121.741 110.894 119.241  1.00  0.00     0.041 C 
ATOM     10  O   UNL     1     121.515 111.589 120.269  1.00  0.00    -0.550 OA
ATOM     11  O   UNL     1     122.238 109.603 119.379  1.00  0.00    -0.550 OA
ENDBRANCH   8   9
ENDBRANCH   7   8
ENDBRANCH   6   7
ENDBRANCH   5   6
ENDBRANCH   4   5
ENDBRANCH   3   4
ENDBRANCH   2   3
ENDBRANCH   1   2
BRANCH   1  12
ATOM     12  C   UNL     1     119.585 115.399 112.877  1.00  0.00     0.000 C 
BRANCH  12  13
ATOM     13  C   UNL     1     119.913 113.914 113.079  1.00  0.00    -0.000 C 
BRANCH  13  14
ATOM     14  C   UNL     1     121.328 113.589 112.574  1.00  0.00    -0.000 C 
BRANCH  14  15
ATOM     15  C   UNL     1     121.424 113.547 111.038  1.00  0.00    -0.000 C 
BRANCH  15  16
ATOM     16  C   UNL     1     120.284 112.789 110.332  1.00  0.00    -0.000 C 
BRANCH  16  17
ATOM     17  C   UNL     1     120.696 111.377 109.878  1.00  0.00    -0.000 C 
BRANCH  17  18
ATOM     18  C   UNL     1     119.644 110.312 110.231  1.00  0.00    -0.000 C 
BRANCH  18  19
ATOM     19  C   UNL     1     119.204 110.371 111.700  1.00  0.00    -0.003 C 
ATOM     20  C   UNL     1     120.337 109.948 112.630  1.00  0.00     0.004 C 
ENDBRANCH  18  19
ENDBRANCH  17  18
ENDBRANCH  16  17
ENDBRANCH  15  16
ENDBRANCH  14  15
ENDBRANCH  13  14
ENDBRANCH  12  13
ENDBRANCH   1  12
TORSDOF 16
ENDMDL
MODEL 5
REMARK VINA RESULT:    -3.842      3.246      7.515
REMARK INTER + INTRA:          -9.622
REMARK INTER:                  -7.679
REMARK INTRA:                  -1.943
REMARK UNBOUND:                -2.186
REMARK SMILES CCCCCCCCCCCCCCCCCC(=O)[O-]
REMARK SMILES IDX 10 1 11 2 12 3 13 4 14 5 15 6 16 7 17 8 18 9 19 10 20 11
REMARK SMILES IDX 9 12 8 13 7 14 6 15 5 16 4 17 3 18 2 19 1 20
REMARK H PARENT
REMARK Flexibility Score: inf
ROOT
ATOM      1  C   UNL     1     121.421 113.290 113.894  1.00  0.00     0.000 C 
ENDROOT
BRANCH   1   2
ATOM      2  C   UNL     1     121.794 112.001 113.147  1.00  0.00     0.000 C 
BRANCH   2   3
ATOM      3  C   UNL     1     120.829 110.843 113.445  1.00  0.00     0.000 C 
BRANCH   3   4
ATOM      4  C   UNL     1     120.500 110.014 112.193  1.00  0.00     0.000 C 
BRANCH   4   5
ATOM      5  C   UNL     1     119.036 110.171 111.740  1.00  0.00     0.000 C 
BRANCH   5   6
ATOM      6  C   UNL     1     118.841 110.457 110.238  1.00  0.00     0.000 C 
BRANCH   6   7
ATOM      7  C   UNL     1     119.824 111.473 109.631  1.00  0.00     0.006 C 
BRANCH   7   8
ATOM      8  C   UNL     1     119.894 111.397 108.101  1.00  0.00     0.053 C 
BRANCH   8   9
ATOM      9  C   UNL     1     120.446 110.074 107.671  1.00  0.00     0.041 C 
ATOM     10  O   UNL     1     119.710 109.238 107.081  1.00  0.00    -0.550 OA
ATOM     11  O   UNL     1     121.791 109.788 107.871  1.00  0.00    -0.550 OA
ENDBRANCH   8   9
ENDBRANCH   7   8
ENDBRANCH   6   7
ENDBRANCH   5   6
ENDBRANCH   4   5
ENDBRANCH   3   4
ENDBRANCH   2   3
ENDBRANCH   1   2
BRANCH   1  12
ATOM     12  C   UNL     1     120.028 113.782 113.478  1.00  0.00     0.000 C 
BRANCH  12  13
ATOM     13  C   UNL     1     119.217 114.238 114.697  1.00  0.00    -0.000 C 
BRANCH  13  14
ATOM     14  C   UNL     1     119.839 113.714 116.000  1.00  0.00    -0.000 C 
BRANCH  14  15
ATOM     15  C   UNL     1     118.789 113.380 117.077  1.00  0.00    -0.000 C 
BRANCH  15  16
ATOM     16  C   UNL     1     119.090 112.125 117.917  1.00  0.00    -0.000 C 
BRANCH  16  17
ATOM     17  C   UNL     1     120.171 111.229 117.287  1.00  0.00    -0.000 C 
BRANCH  17  18
ATOM     18  C   UNL     1     121.245 110.796 118.298  1.00  0.00    -0.000 C 
BRANCH  18  19
ATOM     19  C   UNL     1     122.616 111.429 118.019  1.00  0.00    -0.003 C 
ATOM     20  C   UNL     1     122.968 111.343 116.537  1.00  0.00     0.004 C 
ENDBRANCH  18  19
ENDBRANCH  17  18
ENDBRANCH  16  17
ENDBRANCH  15  16
ENDBRANCH  14  15
ENDBRANCH  13  14
ENDBRANCH  12  13
ENDBRANCH   1  12
TORSDOF 16
ENDMDL
MODEL 6
REMARK VINA RESULT:    -3.781      4.076      8.087
REMARK INTER + INTRA:          -9.503
REMARK INTER:                  -7.558
REMARK INTRA:                  -1.945
REMARK UNBOUND:                -2.186
REMARK SMILES CCCCCCCCCCCCCCCCCC(=O)[O-]
REMARK SMILES IDX 10 1 11 2 12 3 13 4 14 5 15 6 16 7 17 8 18 9 19 10 20 11
REMARK SMILES IDX 9 12 8 13 7 14 6 15 5 16 4 17 3 18 2 19 1 20
REMARK H PARENT
REMARK Flexibility Score: inf
ROOT
ATOM      1  C   UNL     1     122.061 110.802 112.731  1.00  0.00     0.000 C 
ENDROOT
BRANCH   1   2
ATOM      2  C   UNL     1     120.590 110.413 112.942  1.00  0.00     0.000 C 
BRANCH   2   3
ATOM      3  C   UNL     1     120.000 109.656 111.742  1.00  0.00     0.000 C 
BRANCH   3   4
ATOM      4  C   UNL     1     118.889 110.448 111.034  1.00  0.00     0.000 C 
BRANCH   4   5
ATOM      5  C   UNL     1     119.265 110.852 109.597  1.00  0.00     0.000 C 
BRANCH   5   6
ATOM      6  C   UNL     1     120.322 109.959 108.919  1.00  0.00     0.000 C 
BRANCH   6   7
ATOM      7  C   UNL     1     120.243 109.898 107.383  1.00  0.00     0.006 C 
BRANCH   7   8
ATOM      8  C   UNL     1     119.621 108.596 106.868  1.00  0.00     0.053 C 
BRANCH   8   9
ATOM      9  C   UNL     1     120.631 107.806 106.096  1.00  0.00     0.041 C 
ATOM     10  O   UNL     1     120.352 107.361 104.950  1.00  0.00    -0.550 OA
ATOM     11  O   UNL     1     121.903 107.610 106.620  1.00  0.00    -0.550 OA
ENDBRANCH   8   9
ENDBRANCH   7   8
ENDBRANCH   6   7
ENDBRANCH   5   6
ENDBRANCH   4   5
ENDBRANCH   3   4
ENDBRANCH   2   3
ENDBRANCH   1   2
BRANCH   1  12
ATOM     12  C   UNL     1     122.192 111.893 111.659  1.00  0.00     0.000 C 
BRANCH  12  13
ATOM     13  C   UNL     1     121.942 113.284 112.255  1.00  0.00    -0.000 C 
BRANCH  13  14
ATOM     14  C   UNL     1     120.489 113.728 112.030  1.00  0.00    -0.000 C 
BRANCH  14  15
ATOM     15  C   UNL     1     119.759 114.088 113.337  1.00  0.00    -0.000 C 
BRANCH  15  16
ATOM     16  C   UNL     1     120.642 114.086 114.600  1.00  0.00    -0.000 C 
BRANCH  16  17
ATOM     17  C   UNL     1     120.008 113.318 115.772  1.00  0.00    -0.000 C 
BRANCH  17  18
ATOM     18  C   UNL     1     120.733 111.996 116.074  1.00  0.00    -0.000 C 
BRANCH  18  19
ATOM     19  C   UNL     1     120.190 111.289 117.325  1.00  0.00    -0.003 C 
ATOM     20  C   UNL     1     119.177 112.167 118.054  1.00  0.00     0.004 C 
ENDBRANCH  18  19
ENDBRANCH  17  18
ENDBRANCH  16  17
ENDBRANCH  15  16
ENDBRANCH  14  15
ENDBRANCH  13  14
ENDBRANCH  12  13
ENDBRANCH   1  12
TORSDOF 16
ENDMDL
MODEL 7
REMARK VINA RESULT:    -3.772      4.549      7.252
REMARK INTER + INTRA:          -9.485
REMARK INTER:                  -7.564
REMARK INTRA:                  -1.921
REMARK UNBOUND:                -2.186
REMARK SMILES CCCCCCCCCCCCCCCCCC(=O)[O-]
REMARK SMILES IDX 10 1 11 2 12 3 13 4 14 5 15 6 16 7 17 8 18 9 19 10 20 11
REMARK SMILES IDX 9 12 8 13 7 14 6 15 5 16 4 17 3 18 2 19 1 20
REMARK H PARENT
REMARK Flexibility Score: inf
ROOT
ATOM      1  C   UNL     1     120.400 112.410 113.285  1.00  0.00     0.000 C 
ENDROOT
BRANCH   1   2
ATOM      2  C   UNL     1     120.893 110.994 113.618  1.00  0.00     0.000 C 
BRANCH   2   3
ATOM      3  C   UNL     1     120.659 110.001 112.469  1.00  0.00     0.000 C 
BRANCH   3   4
ATOM      4  C   UNL     1     119.305 110.213 111.773  1.00  0.00     0.000 C 
BRANCH   4   5
ATOM      5  C   UNL     1     119.362 109.941 110.259  1.00  0.00     0.000 C 
BRANCH   5   6
ATOM      6  C   UNL     1     120.708 109.401 109.739  1.00  0.00     0.000 C 
BRANCH   6   7
ATOM      7  C   UNL     1     121.031 109.745 108.274  1.00  0.00     0.006 C 
BRANCH   7   8
ATOM      8  C   UNL     1     119.967 109.238 107.293  1.00  0.00     0.053 C 
BRANCH   8   9
ATOM      9  C   UNL     1     120.501 108.093 106.492  1.00  0.00     0.041 C 
ATOM     10  O   UNL     1     121.726 107.799 106.537  1.00  0.00    -0.550 OA
ATOM     11  O   UNL     1     119.634 107.312 105.737  1.00  0.00    -0.550 OA
ENDBRANCH   8   9
ENDBRANCH   7   8
ENDBRANCH   6   7
ENDBRANCH   5   6
ENDBRANCH   4   5
ENDBRANCH   3   4
ENDBRANCH   2   3
ENDBRANCH   1   2
BRANCH   1  12
ATOM     12  C   UNL     1     121.337 113.095 112.281  1.00  0.00     0.000 C 
BRANCH  12  13
ATOM     13  C   UNL     1     120.541 113.773 111.158  1.00  0.00    -0.000 C 
BRANCH  13  14
ATOM     14  C   UNL     1     120.863 113.141 109.795  1.00  0.00    -0.000 C 
BRANCH  14  15
ATOM     15  C   UNL     1     122.201 113.628 109.207  1.00  0.00    -0.000 C 
BRANCH  15  16
ATOM     16  C   UNL     1     122.160 114.008 107.715  1.00  0.00    -0.000 C 
BRANCH  16  17
ATOM     17  C   UNL     1     121.091 113.228 106.929  1.00  0.00    -0.000 C 
BRANCH  17  18
ATOM     18  C   UNL     1     120.894 113.767 105.502  1.00  0.00    -0.000 C 
BRANCH  18  19
ATOM     19  C   UNL     1     121.540 115.143 105.290  1.00  0.00    -0.003 C 
ATOM     20  C   UNL     1     120.486 116.246 105.271  1.00  0.00     0.004 C 
ENDBRANCH  18  19
ENDBRANCH  17  18
ENDBRANCH  16  17
ENDBRANCH  15  16
ENDBRANCH  14  15
ENDBRANCH  13  14
ENDBRANCH  12  13
ENDBRANCH   1  12
TORSDOF 16
ENDMDL
MODEL 8
REMARK VINA RESULT:    -3.769      3.691      7.957
REMARK INTER + INTRA:          -9.480
REMARK INTER:                  -8.132
REMARK INTRA:                  -1.349
REMARK UNBOUND:                -2.186
REMARK SMILES CCCCCCCCCCCCCCCCCC(=O)[O-]
REMARK SMILES IDX 10 1 11 2 12 3 13 4 14 5 15 6 16 7 17 8 18 9 19 10 20 11
REMARK SMILES IDX 9 12 8 13 7 14 6 15 5 16 4 17 3 18 2 19 1 20
REMARK H PARENT
REMARK Flexibility Score: inf
ROOT
ATOM      1  C   UNL     1     120.976 112.951 113.638  1.00  0.00     0.000 C 
ENDROOT
BRANCH   1   2
ATOM      2  C   UNL     1     120.007 112.457 112.554  1.00  0.00     0.000 C 
BRANCH   2   3
ATOM      3  C   UNL     1     120.288 111.009 112.124  1.00  0.00     0.000 C 
BRANCH   3   4
ATOM      4  C   UNL     1     119.070 110.345 111.460  1.00  0.00     0.000 C 
BRANCH   4   5
ATOM      5  C   UNL     1     119.313 109.996 109.980  1.00  0.00     0.000 C 
BRANCH   5   6
ATOM      6  C   UNL     1     119.781 111.168 109.097  1.00  0.00     0.000 C 
BRANCH   6   7
ATOM      7  C   UNL     1     120.059 110.810 107.626  1.00  0.00     0.006 C 
BRANCH   7   8
ATOM      8  C   UNL     1     120.145 109.299 107.385  1.00  0.00     0.053 C 
BRANCH   8   9
ATOM      9  C   UNL     1     121.445 108.949 106.731  1.00  0.00     0.041 C 
ATOM     10  O   UNL     1     122.440 109.716 106.839  1.00  0.00    -0.550 OA
ATOM     11  O   UNL     1     121.574 107.745 106.049  1.00  0.00    -0.550 OA
ENDBRANCH   8   9
ENDBRANCH   7   8
ENDBRANCH   6   7
ENDBRANCH   5   6
ENDBRANCH   4   5
ENDBRANCH   3   4
ENDBRANCH   2   3
ENDBRANCH   1   2
BRANCH   1  12
ATOM     12  C   UNL     1     122.065 111.906 113.918  1.00  0.00     0.000 C 
BRANCH  12  13
ATOM     13  C   UNL     1     122.196 111.636 115.423  1.00  0.00    -0.000 C 
BRANCH  13  14
ATOM     14  C   UNL     1     120.978 112.175 116.188  1.00  0.00    -0.000 C 
BRANCH  14  15
ATOM     15  C   UNL     1     120.453 111.194 117.253  1.00  0.00    -0.000 C 
BRANCH  15  16
ATOM     16  C   UNL     1     119.564 111.825 118.341  1.00  0.00    -0.000 C 
BRANCH  16  17
ATOM     17  C   UNL     1     118.213 112.320 117.797  1.00  0.00    -0.000 C 
BRANCH  17  18
ATOM     18  C   UNL     1     118.084 113.852 117.834  1.00  0.00    -0.000 C 
BRANCH  18  19
ATOM     19  C   UNL     1     117.397 114.423 116.586  1.00  0.00    -0.003 C 
ATOM     20  C   UNL     1     118.425 114.900 115.564  1.00  0.00     0.004 C 
ENDBRANCH  18  19
ENDBRANCH  17  18
ENDBRANCH  16  17
ENDBRANCH  15  16
ENDBRANCH  14  15
ENDBRANCH  13  14
ENDBRANCH  12  13
ENDBRANCH   1  12
TORSDOF 16
ENDMDL
MODEL 9
REMARK VINA RESULT:    -3.723      4.050      6.567
REMARK INTER + INTRA:          -9.391
REMARK INTER:                  -6.797
REMARK INTRA:                  -2.594
REMARK UNBOUND:                -2.186
REMARK SMILES CCCCCCCCCCCCCCCCCC(=O)[O-]
REMARK SMILES IDX 10 1 11 2 12 3 13 4 14 5 15 6 16 7 17 8 18 9 19 10 20 11
REMARK SMILES IDX 9 12 8 13 7 14 6 15 5 16 4 17 3 18 2 19 1 20
REMARK H PARENT
REMARK Flexibility Score: inf
ROOT
ATOM      1  C   UNL     1     121.271 112.085 107.193  1.00  0.00     0.000 C 
ENDROOT
BRANCH   1   2
ATOM      2  C   UNL     1     119.990 111.513 107.817  1.00  0.00     0.000 C 
BRANCH   2   3
ATOM      3  C   UNL     1     119.981 109.977 107.849  1.00  0.00     0.000 C 
BRANCH   3   4
ATOM      4  C   UNL     1     119.972 109.417 109.280  1.00  0.00     0.000 C 
BRANCH   4   5
ATOM      5  C   UNL     1     119.202 110.314 110.268  1.00  0.00     0.000 C 
BRANCH   5   6
ATOM      6  C   UNL     1     119.576 110.128 111.752  1.00  0.00     0.000 C 
BRANCH   6   7
ATOM      7  C   UNL     1     120.388 111.279 112.372  1.00  0.00     0.006 C 
BRANCH   7   8
ATOM      8  C   UNL     1     121.473 111.818 111.433  1.00  0.00     0.053 C 
BRANCH   8   9
ATOM      9  C   UNL     1     121.203 113.250 111.094  1.00  0.00     0.041 C 
ATOM     10  O   UNL     1     120.025 113.700 111.115  1.00  0.00    -0.550 OA
ATOM     11  O   UNL     1     122.261 114.105 110.811  1.00  0.00    -0.550 OA
ENDBRANCH   8   9
ENDBRANCH   7   8
ENDBRANCH   6   7
ENDBRANCH   5   6
ENDBRANCH   4   5
ENDBRANCH   3   4
ENDBRANCH   2   3
ENDBRANCH   1   2
BRANCH   1  12
ATOM     12  C   UNL     1     122.271 110.966 106.869  1.00  0.00     0.000 C 
BRANCH  12  13
ATOM     13  C   UNL     1     123.544 111.103 107.714  1.00  0.00    -0.000 C 
BRANCH  13  14
ATOM     14  C   UNL     1     123.653 109.962 108.737  1.00  0.00    -0.000 C 
BRANCH  14  15
ATOM     15  C   UNL     1     123.845 108.582 108.081  1.00  0.00    -0.000 C 
BRANCH  15  16
ATOM     16  C   UNL     1     122.963 107.457 108.655  1.00  0.00    -0.000 C 
BRANCH  16  17
ATOM     17  C   UNL     1     122.314 106.590 107.562  1.00  0.00    -0.000 C 
BRANCH  17  18
ATOM     18  C   UNL     1     122.098 107.357 106.247  1.00  0.00    -0.000 C 
BRANCH  18  19
ATOM     19  C   UNL     1     121.068 106.687 105.327  1.00  0.00    -0.003 C 
ATOM     20  C   UNL     1     119.645 106.969 105.801  1.00  0.00     0.004 C 
ENDBRANCH  18  19
ENDBRANCH  17  18
ENDBRANCH  16  17
ENDBRANCH  15  16
ENDBRANCH  14  15
ENDBRANCH  13  14
ENDBRANCH  12  13
ENDBRANCH   1  12
TORSDOF 16
ENDMDL
