MODEL 1
REMARK VINA RESULT:    76.121      0.000      0.000
REMARK INTER + INTRA:         119.159
REMARK INTER:                 120.621
REMARK INTRA:                  -1.461
REMARK UNBOUND:                -1.461
REMARK SMILES C[C@H]1O[C@@H](O[C@H]2[C@H](Oc3cc(O)c4c(c3)O[C@@H](c3ccc(O)cc3)CC4=O)O[C@@H](CO)[C@H](O)[C@H]2O)[C@H](O)[C@H](O)[C@H]1O
REMARK SMILES IDX 6 1 34 2 32 3 29 4 28 5 7 6 5 7 4 8 1 9 2 10 40 11 3 12
REMARK SMILES IDX 38 13 36 14 41 15 39 17 37 19 35 21 8 23 9 24 10 25 15 26
REMARK SMILES IDX 11 27 14 28 13 29 16 30 26 31 17 32 27 33 25 34 12 35 18 37
REMARK SMILES IDX 19 38 24 39 20 40 23 41 21 42 22 43 33 45 30 47 31 48
REMARK H PARENT 41 16 39 18 37 20 35 22 12 36 22 44 33 46 31 49
REMARK Flexibility Score: inf
ROOT
ATOM      1  C   UNL     1      21.375  21.946   5.369  1.00  0.00     0.221 C 
ATOM      2  C   UNL     1      21.282  20.504   4.841  1.00  0.00     0.181 C 
ATOM      3  C   UNL     1      20.636  20.486   3.444  1.00  0.00     0.177 C 
ATOM      4  C   UNL     1      21.300  21.538   2.501  1.00  0.00     0.179 C 
ATOM      5  O   UNL     1      22.389  22.200   3.127  1.00  0.00    -0.332 OA
ATOM      6  C   UNL     1      21.971  22.900   4.291  1.00  0.00     0.339 C 
ENDROOT
BRANCH   1   7
ATOM      7  O   UNL     1      22.176  21.937   6.540  1.00  0.00    -0.337 OA
BRANCH   7   8
ATOM      8  C   UNL     1      23.433  22.569   6.342  1.00  0.00     0.282 C 
ATOM      9  C   UNL     1      23.596  19.943   7.979  1.00  0.00     0.041 C 
ATOM     10  C   UNL     1      24.671  20.996   7.654  1.00  0.00     0.150 C 
ATOM     11  C   UNL     1      24.901  22.033   8.785  1.00  0.00     0.174 C 
ATOM     12  O   UNL     1      24.476  21.600   6.376  1.00  0.00    -0.344 OA
ATOM     13  C   UNL     1      23.807  23.106   8.784  1.00  0.00     0.179 C 
ATOM     14  C   UNL     1      23.662  23.698   7.375  1.00  0.00     0.202 C 
BRANCH  11  15
ATOM     15  O   UNL     1      24.944  21.408  10.043  1.00  0.00    -0.388 OA
ATOM     16  H   UNL     1      24.290  20.659  10.011  1.00  0.00     0.211 HD
ENDBRANCH  11  15
BRANCH  13  17
ATOM     17  O   UNL     1      24.146  24.119   9.697  1.00  0.00    -0.387 OA
ATOM     18  H   UNL     1      24.358  24.930   9.164  1.00  0.00     0.211 HD
ENDBRANCH  13  17
BRANCH  14  19
ATOM     19  O   UNL     1      24.821  24.422   7.044  1.00  0.00    -0.385 OA
ATOM     20  H   UNL     1      25.331  24.558   7.888  1.00  0.00     0.211 HD
ENDBRANCH  14  19
ENDBRANCH   7   8
ENDBRANCH   1   7
BRANCH   2  21
ATOM     21  O   UNL     1      22.569  19.936   4.784  1.00  0.00    -0.387 OA
ATOM     22  H   UNL     1      22.449  18.952   4.785  1.00  0.00     0.211 HD
ENDBRANCH   2  21
BRANCH   6  23
ATOM     23  O   UNL     1      21.017  23.918   3.967  1.00  0.00    -0.462 OA
BRANCH  23  24
ATOM     24  C   UNL     1      20.284  24.669   4.898  1.00  0.00     0.130 A 
ATOM     25  C   UNL     1      20.457  26.055   5.059  1.00  0.00     0.093 A 
ATOM     26  C   UNL     1      19.343  24.004   5.687  1.00  0.00     0.094 A 
ATOM     27  C   UNL     1      19.704  26.768   6.000  1.00  0.00     0.133 A 
ATOM     28  C   UNL     1      18.544  24.706   6.590  1.00  0.00     0.138 A 
ATOM     29  C   UNL     1      18.706  26.098   6.754  1.00  0.00     0.102 A 
ATOM     30  O   UNL     1      17.577  24.010   7.328  1.00  0.00    -0.484 OA
ATOM     31  C   UNL     1      17.789  26.774   7.707  1.00  0.00     0.174 C 
ATOM     32  C   UNL     1      16.512  24.673   8.015  1.00  0.00     0.211 C 
ATOM     33  O   UNL     1      17.616  28.020   7.686  1.00  0.00    -0.294 OA
ATOM     34  C   UNL     1      17.026  25.945   8.700  1.00  0.00     0.131 C 
BRANCH  27  35
ATOM     35  O   UNL     1      19.998  28.125   6.166  1.00  0.00    -0.507 OA
ATOM     36  H   UNL     1      19.531  28.720   6.835  1.00  0.00     0.293 HD
ENDBRANCH  27  35
BRANCH  32  37
ATOM     37  C   UNL     1      15.883  23.737   9.019  1.00  0.00    -0.007 A 
ATOM     38  C   UNL     1      16.587  22.607   9.471  1.00  0.00     0.011 A 
ATOM     39  C   UNL     1      14.575  23.963   9.485  1.00  0.00     0.011 A 
ATOM     40  C   UNL     1      15.996  21.723  10.380  1.00  0.00     0.046 A 
ATOM     41  C   UNL     1      13.988  23.077  10.395  1.00  0.00     0.046 A 
ATOM     42  C   UNL     1      14.699  21.955  10.846  1.00  0.00     0.115 A 
BRANCH  42  43
ATOM     43  O   UNL     1      14.124  21.067  11.753  1.00  0.00    -0.508 OA
ATOM     44  H   UNL     1      14.678  20.356  12.218  1.00  0.00     0.293 HD
ENDBRANCH  42  43
ENDBRANCH  32  37
ENDBRANCH  23  24
ENDBRANCH   6  23
BRANCH   3  45
ATOM     45  O   UNL     1      19.262  20.756   3.573  1.00  0.00    -0.387 OA
ATOM     46  H   UNL     1      18.953  21.089   2.692  1.00  0.00     0.211 HD
ENDBRANCH   3  45
BRANCH   4  47
ATOM     47  C   UNL     1      21.817  20.872   1.217  1.00  0.00     0.191 C 
BRANCH  47  48
ATOM     48  O   UNL     1      23.210  21.002   1.125  1.00  0.00    -0.394 OA
ATOM     49  H   UNL     1      23.422  21.141   0.166  1.00  0.00     0.210 HD
ENDBRANCH  47  48
ENDBRANCH   4  47
TORSDOF 14
ENDMDL
MODEL 2
REMARK VINA RESULT:    76.675      4.974      9.117
REMARK INTER + INTRA:         120.039
REMARK INTER:                 121.168
REMARK INTRA:                  -1.129
REMARK UNBOUND:                -1.461
REMARK SMILES C[C@H]1O[C@@H](O[C@H]2[C@H](Oc3cc(O)c4c(c3)O[C@@H](c3ccc(O)cc3)CC4=O)O[C@@H](CO)[C@H](O)[C@H]2O)[C@H](O)[C@H](O)[C@H]1O
REMARK SMILES IDX 6 1 34 2 32 3 29 4 28 5 7 6 5 7 4 8 1 9 2 10 40 11 3 12
REMARK SMILES IDX 38 13 36 14 41 15 39 17 37 19 35 21 8 23 9 24 10 25 15 26
REMARK SMILES IDX 11 27 14 28 13 29 16 30 26 31 17 32 27 33 25 34 12 35 18 37
REMARK SMILES IDX 19 38 24 39 20 40 23 41 21 42 22 43 33 45 30 47 31 48
REMARK H PARENT 41 16 39 18 37 20 35 22 12 36 22 44 33 46 31 49
REMARK Flexibility Score: inf
ROOT
ATOM      1  C   UNL     1      16.533  23.223   8.687  1.00  0.00     0.221 C 
ATOM      2  C   UNL     1      15.010  23.409   8.794  1.00  0.00     0.181 C 
ATOM      3  C   UNL     1      14.372  22.200   9.502  1.00  0.00     0.177 C 
ATOM      4  C   UNL     1      15.132  21.852  10.821  1.00  0.00     0.179 C 
ATOM      5  O   UNL     1      16.174  22.777  11.093  1.00  0.00    -0.332 OA
ATOM      6  C   UNL     1      17.142  22.790  10.054  1.00  0.00     0.339 C 
ENDROOT
BRANCH   1   7
ATOM      7  O   UNL     1      17.098  24.447   8.243  1.00  0.00    -0.337 OA
BRANCH   7   8
ATOM      8  C   UNL     1      18.476  24.324   7.922  1.00  0.00     0.282 C 
ATOM      9  C   UNL     1      17.627  27.196   8.715  1.00  0.00     0.041 C 
ATOM     10  C   UNL     1      18.962  26.654   8.174  1.00  0.00     0.150 C 
ATOM     11  C   UNL     1      19.145  26.840   6.644  1.00  0.00     0.174 C 
ATOM     12  O   UNL     1      19.227  25.321   8.608  1.00  0.00    -0.344 OA
ATOM     13  C   UNL     1      18.362  25.781   5.860  1.00  0.00     0.179 C 
ATOM     14  C   UNL     1      18.703  24.383   6.393  1.00  0.00     0.202 C 
BRANCH  11  15
ATOM     15  O   UNL     1      18.737  28.122   6.238  1.00  0.00    -0.388 OA
ATOM     16  H   UNL     1      19.558  28.681   6.193  1.00  0.00     0.211 HD
ENDBRANCH  11  15
BRANCH  13  17
ATOM     17  O   UNL     1      18.694  25.870   4.498  1.00  0.00    -0.387 OA
ATOM     18  H   UNL     1      18.820  24.940   4.169  1.00  0.00     0.211 HD
ENDBRANCH  13  17
BRANCH  14  19
ATOM     19  O   UNL     1      20.043  24.077   6.095  1.00  0.00    -0.385 OA
ATOM     20  H   UNL     1      20.513  23.951   6.964  1.00  0.00     0.211 HD
ENDBRANCH  14  19
ENDBRANCH   7   8
ENDBRANCH   1   7
BRANCH   2  21
ATOM     21  O   UNL     1      14.725  24.589   9.505  1.00  0.00    -0.387 OA
ATOM     22  H   UNL     1      14.697  25.325   8.841  1.00  0.00     0.211 HD
ENDBRANCH   2  21
BRANCH   6  23
ATOM     23  O   UNL     1      17.770  21.509   9.918  1.00  0.00    -0.462 OA
BRANCH  23  24
ATOM     24  C   UNL     1      18.302  20.750  10.973  1.00  0.00     0.130 A 
ATOM     25  C   UNL     1      18.439  19.353  10.907  1.00  0.00     0.093 A 
ATOM     26  C   UNL     1      18.713  21.423  12.126  1.00  0.00     0.094 A 
ATOM     27  C   UNL     1      18.977  18.634  11.982  1.00  0.00     0.133 A 
ATOM     28  C   UNL     1      19.301  20.730  13.185  1.00  0.00     0.138 A 
ATOM     29  C   UNL     1      19.450  19.329  13.125  1.00  0.00     0.102 A 
ATOM     30  O   UNL     1      19.746  21.447  14.304  1.00  0.00    -0.484 OA
ATOM     31  C   UNL     1      20.122  18.674  14.278  1.00  0.00     0.174 C 
ATOM     32  C   UNL     1      20.639  20.886  15.270  1.00  0.00     0.211 C 
ATOM     33  O   UNL     1      20.600  17.514  14.191  1.00  0.00    -0.294 OA
ATOM     34  C   UNL     1      20.260  19.430  15.568  1.00  0.00     0.131 C 
BRANCH  27  35
ATOM     35  O   UNL     1      18.996  17.240  11.878  1.00  0.00    -0.507 OA
ATOM     36  H   UNL     1      18.195  16.654  12.066  1.00  0.00     0.293 HD
ENDBRANCH  27  35
BRANCH  32  37
ATOM     37  C   UNL     1      20.625  21.715  16.531  1.00  0.00    -0.007 A 
ATOM     38  C   UNL     1      19.510  21.685  17.385  1.00  0.00     0.011 A 
ATOM     39  C   UNL     1      21.709  22.555  16.846  1.00  0.00     0.011 A 
ATOM     40  C   UNL     1      19.482  22.475  18.540  1.00  0.00     0.046 A 
ATOM     41  C   UNL     1      21.678  23.342  18.002  1.00  0.00     0.046 A 
ATOM     42  C   UNL     1      20.565  23.302  18.853  1.00  0.00     0.115 A 
BRANCH  42  43
ATOM     43  O   UNL     1      20.524  24.080  20.008  1.00  0.00    -0.508 OA
ATOM     44  H   UNL     1      19.695  24.117  20.591  1.00  0.00     0.293 HD
ENDBRANCH  42  43
ENDBRANCH  32  37
ENDBRANCH  23  24
ENDBRANCH   6  23
BRANCH   3  45
ATOM     45  O   UNL     1      14.393  21.097   8.630  1.00  0.00    -0.387 OA
ATOM     46  H   UNL     1      15.121  20.501   8.942  1.00  0.00     0.211 HD
ENDBRANCH   3  45
BRANCH   4  47
ATOM     47  C   UNL     1      14.171  21.844  12.019  1.00  0.00     0.191 C 
BRANCH  47  48
ATOM     48  O   UNL     1      13.449  20.643  12.059  1.00  0.00    -0.394 OA
ATOM     49  H   UNL     1      13.946  20.030  12.662  1.00  0.00     0.210 HD
ENDBRANCH  47  48
ENDBRANCH   4  47
TORSDOF 14
ENDMDL
MODEL 3
REMARK VINA RESULT:    76.918      4.671      8.128
REMARK INTER + INTRA:         120.423
REMARK INTER:                 117.592
REMARK INTRA:                   2.831
REMARK UNBOUND:                -1.461
REMARK SMILES C[C@H]1O[C@@H](O[C@H]2[C@H](Oc3cc(O)c4c(c3)O[C@@H](c3ccc(O)cc3)CC4=O)O[C@@H](CO)[C@H](O)[C@H]2O)[C@H](O)[C@H](O)[C@H]1O
REMARK SMILES IDX 6 1 34 2 32 3 29 4 28 5 7 6 5 7 4 8 1 9 2 10 40 11 3 12
REMARK SMILES IDX 38 13 36 14 41 15 39 17 37 19 35 21 8 23 9 24 10 25 15 26
REMARK SMILES IDX 11 27 14 28 13 29 16 30 26 31 17 32 27 33 25 34 12 35 18 37
REMARK SMILES IDX 19 38 24 39 20 40 23 41 21 42 22 43 33 45 30 47 31 48
REMARK H PARENT 41 16 39 18 37 20 35 22 12 36 22 44 33 46 31 49
REMARK Flexibility Score: inf
ROOT
ATOM      1  C   UNL     1      18.658  19.535  13.043  1.00  0.00     0.221 C 
ATOM      2  C   UNL     1      18.849  18.384  14.046  1.00  0.00     0.181 C 
ATOM      3  C   UNL     1      18.320  17.066  13.454  1.00  0.00     0.177 C 
ATOM      4  C   UNL     1      18.864  16.837  12.008  1.00  0.00     0.179 C 
ATOM      5  O   UNL     1      19.776  17.852  11.617  1.00  0.00    -0.332 OA
ATOM      6  C   UNL     1      19.162  19.133  11.625  1.00  0.00     0.339 C 
ENDROOT
BRANCH   1   7
ATOM      7  O   UNL     1      19.361  20.668  13.531  1.00  0.00    -0.337 OA
BRANCH   7   8
ATOM      8  C   UNL     1      20.703  20.363  13.883  1.00  0.00     0.282 C 
ATOM      9  C   UNL     1      18.855  20.864  16.318  1.00  0.00     0.041 C 
ATOM     10  C   UNL     1      20.377  20.643  16.237  1.00  0.00     0.150 C 
ATOM     11  C   UNL     1      21.206  21.954  16.254  1.00  0.00     0.174 C 
ATOM     12  O   UNL     1      20.745  19.765  15.175  1.00  0.00    -0.344 OA
ATOM     13  C   UNL     1      21.201  22.632  14.879  1.00  0.00     0.179 C 
ATOM     14  C   UNL     1      21.604  21.618  13.800  1.00  0.00     0.202 C 
BRANCH  11  15
ATOM     15  O   UNL     1      20.718  22.850  17.221  1.00  0.00    -0.388 OA
ATOM     16  H   UNL     1      19.807  23.119  16.924  1.00  0.00     0.211 HD
ENDBRANCH  11  15
BRANCH  13  17
ATOM     17  O   UNL     1      22.103  23.708  14.887  1.00  0.00    -0.387 OA
ATOM     18  H   UNL     1      22.966  23.366  14.531  1.00  0.00     0.211 HD
ENDBRANCH  13  17
BRANCH  14  19
ATOM     19  O   UNL     1      22.951  21.253  13.972  1.00  0.00    -0.385 OA
ATOM     20  H   UNL     1      23.478  22.096  14.017  1.00  0.00     0.211 HD
ENDBRANCH  14  19
ENDBRANCH   7   8
ENDBRANCH   1   7
BRANCH   2  21
ATOM     21  O   UNL     1      20.214  18.255  14.364  1.00  0.00    -0.387 OA
ATOM     22  H   UNL     1      20.293  18.377  15.345  1.00  0.00     0.211 HD
ENDBRANCH   2  21
BRANCH   6  23
ATOM     23  O   UNL     1      18.075  19.191  10.693  1.00  0.00    -0.462 OA
BRANCH  23  24
ATOM     24  C   UNL     1      17.308  20.332  10.411  1.00  0.00     0.130 A 
ATOM     25  C   UNL     1      15.954  20.443  10.772  1.00  0.00     0.093 A 
ATOM     26  C   UNL     1      17.927  21.395   9.749  1.00  0.00     0.094 A 
ATOM     27  C   UNL     1      15.224  21.599  10.473  1.00  0.00     0.133 A 
ATOM     28  C   UNL     1      17.231  22.577   9.491  1.00  0.00     0.138 A 
ATOM     29  C   UNL     1      15.874  22.700   9.856  1.00  0.00     0.102 A 
ATOM     30  O   UNL     1      17.901  23.639   8.869  1.00  0.00    -0.484 OA
ATOM     31  C   UNL     1      15.219  24.005   9.581  1.00  0.00     0.174 C 
ATOM     32  C   UNL     1      17.385  24.973   8.864  1.00  0.00     0.211 C 
ATOM     33  O   UNL     1      14.148  24.340  10.150  1.00  0.00    -0.294 OA
ATOM     34  C   UNL     1      15.870  24.961   8.623  1.00  0.00     0.131 C 
BRANCH  27  35
ATOM     35  O   UNL     1      13.860  21.599  10.781  1.00  0.00    -0.507 OA
ATOM     36  H   UNL     1      13.305  22.438  10.863  1.00  0.00     0.293 HD
ENDBRANCH  27  35
BRANCH  32  37
ATOM     37  C   UNL     1      18.091  25.796   7.813  1.00  0.00    -0.007 A 
ATOM     38  C   UNL     1      18.203  27.189   7.962  1.00  0.00     0.011 A 
ATOM     39  C   UNL     1      18.611  25.185   6.657  1.00  0.00     0.011 A 
ATOM     40  C   UNL     1      18.832  27.957   6.976  1.00  0.00     0.046 A 
ATOM     41  C   UNL     1      19.239  25.957   5.674  1.00  0.00     0.046 A 
ATOM     42  C   UNL     1      19.353  27.345   5.833  1.00  0.00     0.115 A 
BRANCH  42  43
ATOM     43  O   UNL     1      19.979  28.123   4.861  1.00  0.00    -0.508 OA
ATOM     44  H   UNL     1      20.511  28.950   5.109  1.00  0.00     0.293 HD
ENDBRANCH  42  43
ENDBRANCH  32  37
ENDBRANCH  23  24
ENDBRANCH   6  23
BRANCH   3  45
ATOM     45  O   UNL     1      16.915  17.104  13.437  1.00  0.00    -0.387 OA
ATOM     46  H   UNL     1      16.601  16.226  13.775  1.00  0.00     0.211 HD
ENDBRANCH   3  45
BRANCH   4  47
ATOM     47  C   UNL     1      19.579  15.482  11.901  1.00  0.00     0.191 C 
BRANCH  47  48
ATOM     48  O   UNL     1      20.687  15.579  11.047  1.00  0.00    -0.394 OA
ATOM     49  H   UNL     1      21.142  14.697  11.066  1.00  0.00     0.210 HD
ENDBRANCH  47  48
ENDBRANCH   4  47
TORSDOF 14
ENDMDL
MODEL 4
REMARK VINA RESULT:    77.925      2.926      8.870
REMARK INTER + INTRA:         122.018
REMARK INTER:                 120.324
REMARK INTRA:                   1.695
REMARK UNBOUND:                -1.461
REMARK SMILES C[C@H]1O[C@@H](O[C@H]2[C@H](Oc3cc(O)c4c(c3)O[C@@H](c3ccc(O)cc3)CC4=O)O[C@@H](CO)[C@H](O)[C@H]2O)[C@H](O)[C@H](O)[C@H]1O
REMARK SMILES IDX 6 1 34 2 32 3 29 4 28 5 7 6 5 7 4 8 1 9 2 10 40 11 3 12
REMARK SMILES IDX 38 13 36 14 41 15 39 17 37 19 35 21 8 23 9 24 10 25 15 26
REMARK SMILES IDX 11 27 14 28 13 29 16 30 26 31 17 32 27 33 25 34 12 35 18 37
REMARK SMILES IDX 19 38 24 39 20 40 23 41 21 42 22 43 33 45 30 47 31 48
REMARK H PARENT 41 16 39 18 37 20 35 22 12 36 22 44 33 46 31 49
REMARK Flexibility Score: inf
ROOT
ATOM      1  C   UNL     1      17.306  23.887   8.679  1.00  0.00     0.221 C 
ATOM      2  C   UNL     1      17.163  25.125   9.581  1.00  0.00     0.181 C 
ATOM      3  C   UNL     1      18.326  26.103   9.335  1.00  0.00     0.177 C 
ATOM      4  C   UNL     1      18.530  26.365   7.809  1.00  0.00     0.179 C 
ATOM      5  O   UNL     1      17.550  25.707   7.021  1.00  0.00    -0.332 OA
ATOM      6  C   UNL     1      17.596  24.299   7.205  1.00  0.00     0.339 C 
ENDROOT
BRANCH   1   7
ATOM      7  O   UNL     1      16.107  23.133   8.770  1.00  0.00    -0.337 OA
BRANCH   7   8
ATOM      8  C   UNL     1      15.675  22.960  10.112  1.00  0.00     0.282 C 
ATOM      9  C   UNL     1      18.040  21.125   9.310  1.00  0.00     0.041 C 
ATOM     10  C   UNL     1      17.190  21.171  10.594  1.00  0.00     0.150 C 
ATOM     11  C   UNL     1      16.041  20.130  10.627  1.00  0.00     0.174 C 
ATOM     12  O   UNL     1      16.755  22.491  10.914  1.00  0.00    -0.344 OA
ATOM     13  C   UNL     1      14.848  20.594   9.784  1.00  0.00     0.179 C 
ATOM     14  C   UNL     1      14.450  22.020  10.191  1.00  0.00     0.202 C 
BRANCH  11  15
ATOM     15  O   UNL     1      16.480  18.876  10.167  1.00  0.00    -0.388 OA
ATOM     16  H   UNL     1      16.611  18.963   9.184  1.00  0.00     0.211 HD
ENDBRANCH  11  15
BRANCH  13  17
ATOM     17  O   UNL     1      13.767  19.719   9.983  1.00  0.00    -0.387 OA
ATOM     18  H   UNL     1      13.182  20.133  10.672  1.00  0.00     0.211 HD
ENDBRANCH  13  17
BRANCH  14  19
ATOM     19  O   UNL     1      13.934  22.012  11.499  1.00  0.00    -0.385 OA
ATOM     20  H   UNL     1      13.781  21.061  11.747  1.00  0.00     0.211 HD
ENDBRANCH  14  19
ENDBRANCH   7   8
ENDBRANCH   1   7
BRANCH   2  21
ATOM     21  O   UNL     1      15.935  25.761   9.322  1.00  0.00    -0.387 OA
ATOM     22  H   UNL     1      15.364  25.102   8.850  1.00  0.00     0.211 HD
ENDBRANCH   2  21
BRANCH   6  23
ATOM     23  O   UNL     1      18.862  23.766   6.795  1.00  0.00    -0.462 OA
BRANCH  23  24
ATOM     24  C   UNL     1      19.598  24.192   5.679  1.00  0.00     0.130 A 
ATOM     25  C   UNL     1      19.382  25.434   5.057  1.00  0.00     0.093 A 
ATOM     26  C   UNL     1      20.587  23.342   5.178  1.00  0.00     0.094 A 
ATOM     27  C   UNL     1      20.140  25.822   3.945  1.00  0.00     0.133 A 
ATOM     28  C   UNL     1      21.389  23.734   4.106  1.00  0.00     0.138 A 
ATOM     29  C   UNL     1      21.184  24.981   3.480  1.00  0.00     0.102 A 
ATOM     30  O   UNL     1      22.403  22.873   3.664  1.00  0.00    -0.484 OA
ATOM     31  C   UNL     1      22.107  25.337   2.372  1.00  0.00     0.174 C 
ATOM     32  C   UNL     1      23.466  23.312   2.814  1.00  0.00     0.211 C 
ATOM     33  O   UNL     1      22.236  26.524   1.975  1.00  0.00    -0.294 OA
ATOM     34  C   UNL     1      22.930  24.257   1.731  1.00  0.00     0.131 C 
BRANCH  27  35
ATOM     35  O   UNL     1      19.804  27.029   3.326  1.00  0.00    -0.507 OA
ATOM     36  H   UNL     1      19.190  27.096   2.527  1.00  0.00     0.293 HD
ENDBRANCH  27  35
BRANCH  32  37
ATOM     37  C   UNL     1      24.159  22.122   2.196  1.00  0.00    -0.007 A 
ATOM     38  C   UNL     1      23.461  21.274   1.318  1.00  0.00     0.011 A 
ATOM     39  C   UNL     1      25.496  21.826   2.518  1.00  0.00     0.011 A 
ATOM     40  C   UNL     1      24.092  20.154   0.766  1.00  0.00     0.046 A 
ATOM     41  C   UNL     1      26.124  20.706   1.963  1.00  0.00     0.046 A 
ATOM     42  C   UNL     1      25.423  19.868   1.084  1.00  0.00     0.115 A 
BRANCH  42  43
ATOM     43  O   UNL     1      26.039  18.751   0.524  1.00  0.00    -0.508 OA
ATOM     44  H   UNL     1      26.527  18.073   1.100  1.00  0.00     0.293 HD
ENDBRANCH  42  43
ENDBRANCH  32  37
ENDBRANCH  23  24
ENDBRANCH   6  23
BRANCH   3  45
ATOM     45  O   UNL     1      19.500  25.566   9.891  1.00  0.00    -0.387 OA
ATOM     46  H   UNL     1      19.416  25.654  10.876  1.00  0.00     0.211 HD
ENDBRANCH   3  45
BRANCH   4  47
ATOM     47  C   UNL     1      18.466  27.868   7.500  1.00  0.00     0.191 C 
BRANCH  47  48
ATOM     48  O   UNL     1      18.957  28.124   6.211  1.00  0.00    -0.394 OA
ATOM     49  H   UNL     1      19.855  28.531   6.323  1.00  0.00     0.210 HD
ENDBRANCH  47  48
ENDBRANCH   4  47
TORSDOF 14
ENDMDL
