MODEL 1
REMARK VINA RESULT:    -5.022      0.000      0.000
REMARK INTER + INTRA:          -5.514
REMARK INTER:                  -5.462
REMARK INTRA:                  -0.052
REMARK UNBOUND:                -0.052
REMARK SMILES COc1cc2ccc(=O)oc2cc1O
REMARK SMILES IDX 3 1 13 2 12 3 11 4 5 5 4 6 6 7 7 8 8 9 9 10 10 11 2 12 1 13
REMARK SMILES IDX 14 14
REMARK H PARENT 14 15
REMARK Flexibility Score: inf
ROOT
ATOM      1  C   UNL     1      -7.658   1.154  -8.754  1.00  0.00     0.161 A 
ATOM      2  C   UNL     1      -7.297   2.175  -9.648  1.00  0.00     0.161 A 
ATOM      3  C   UNL     1      -5.964   2.318 -10.059  1.00  0.00     0.098 A 
ATOM      4  C   UNL     1      -4.982   1.444  -9.582  1.00  0.00     0.142 A 
ATOM      5  C   UNL     1      -5.336   0.417  -8.684  1.00  0.00     0.022 A 
ATOM      6  C   UNL     1      -6.668   0.273  -8.271  1.00  0.00     0.062 A 
ATOM      7  C   UNL     1      -4.331  -0.442  -8.224  1.00  0.00     0.019 A 
ATOM      8  C   UNL     1      -3.021  -0.258  -8.662  1.00  0.00     0.094 A 
ATOM      9  C   UNL     1      -2.745   0.783  -9.555  1.00  0.00     0.336 A 
ATOM     10  O   UNL     1      -1.567   0.965  -9.963  1.00  0.00    -0.246 OA
ATOM     11  O   UNL     1      -3.719   1.586  -9.976  1.00  0.00    -0.423 OA
ENDROOT
BRANCH   1  12
ATOM     12  O   UNL     1      -9.003   1.049  -8.370  1.00  0.00    -0.493 OA
ATOM     13  C   UNL     1      -9.725  -0.176  -8.288  1.00  0.00     0.278 C 
ENDBRANCH   1  12
BRANCH   2  14
ATOM     14  O   UNL     1      -8.274   3.047 -10.125  1.00  0.00    -0.504 OA
ATOM     15  H   UNL     1      -8.242   3.412 -11.069  1.00  0.00     0.293 HD
ENDBRANCH   2  14
TORSDOF 2
ENDMDL
MODEL 2
REMARK VINA RESULT:    -4.547      1.709      5.175
REMARK INTER + INTRA:          -4.999
REMARK INTER:                  -4.945
REMARK INTRA:                  -0.054
REMARK UNBOUND:                -0.052
REMARK SMILES COc1cc2ccc(=O)oc2cc1O
REMARK SMILES IDX 3 1 13 2 12 3 11 4 5 5 4 6 6 7 7 8 8 9 9 10 10 11 2 12 1 13
REMARK SMILES IDX 14 14
REMARK H PARENT 14 15
REMARK Flexibility Score: inf
ROOT
ATOM      1  C   UNL     1      -4.487  -0.760  -9.587  1.00  0.00     0.161 A 
ATOM      2  C   UNL     1      -4.373   0.329  -8.708  1.00  0.00     0.161 A 
ATOM      3  C   UNL     1      -5.520   1.003  -8.263  1.00  0.00     0.098 A 
ATOM      4  C   UNL     1      -6.786   0.596  -8.691  1.00  0.00     0.142 A 
ATOM      5  C   UNL     1      -6.909  -0.496  -9.574  1.00  0.00     0.022 A 
ATOM      6  C   UNL     1      -5.764  -1.170 -10.021  1.00  0.00     0.062 A 
ATOM      7  C   UNL     1      -8.191  -0.879  -9.986  1.00  0.00     0.019 A 
ATOM      8  C   UNL     1      -9.299  -0.176  -9.515  1.00  0.00     0.094 A 
ATOM      9  C   UNL     1      -9.100   0.896  -8.640  1.00  0.00     0.336 A 
ATOM     10  O   UNL     1     -10.088   1.543  -8.204  1.00  0.00    -0.246 OA
ATOM     11  O   UNL     1      -7.870   1.241  -8.265  1.00  0.00    -0.423 OA
ENDROOT
BRANCH   1  12
ATOM     12  O   UNL     1      -3.313  -1.404 -10.006  1.00  0.00    -0.493 OA
ATOM     13  C   UNL     1      -2.762  -2.561  -9.385  1.00  0.00     0.278 C 
ENDBRANCH   1  12
BRANCH   2  14
ATOM     14  O   UNL     1      -3.111   0.737  -8.279  1.00  0.00    -0.504 OA
ATOM     15  H   UNL     1      -2.971   1.625  -7.813  1.00  0.00     0.293 HD
ENDBRANCH   2  14
TORSDOF 2
ENDMDL
MODEL 3
REMARK VINA RESULT:    -4.328      2.792      4.722
REMARK INTER + INTRA:          -4.760
REMARK INTER:                  -4.696
REMARK INTRA:                  -0.064
REMARK UNBOUND:                -0.052
REMARK SMILES COc1cc2ccc(=O)oc2cc1O
REMARK SMILES IDX 3 1 13 2 12 3 11 4 5 5 4 6 6 7 7 8 8 9 9 10 10 11 2 12 1 13
REMARK SMILES IDX 14 14
REMARK H PARENT 14 15
REMARK Flexibility Score: inf
ROOT
ATOM      1  C   UNL     1      -4.705  -2.609  -9.763  1.00  0.00     0.161 A 
ATOM      2  C   UNL     1      -3.586  -2.088  -9.094  1.00  0.00     0.161 A 
ATOM      3  C   UNL     1      -3.555  -0.738  -8.714  1.00  0.00     0.098 A 
ATOM      4  C   UNL     1      -4.637   0.100  -8.997  1.00  0.00     0.142 A 
ATOM      5  C   UNL     1      -5.763  -0.416  -9.669  1.00  0.00     0.022 A 
ATOM      6  C   UNL     1      -5.797  -1.765 -10.051  1.00  0.00     0.062 A 
ATOM      7  C   UNL     1      -6.831   0.447  -9.940  1.00  0.00     0.019 A 
ATOM      8  C   UNL     1      -6.751   1.781  -9.541  1.00  0.00     0.094 A 
ATOM      9  C   UNL     1      -5.601   2.221  -8.878  1.00  0.00     0.336 A 
ATOM     10  O   UNL     1      -5.509   3.422  -8.510  1.00  0.00    -0.246 OA
ATOM     11  O   UNL     1      -4.599   1.379  -8.634  1.00  0.00    -0.423 OA
ENDROOT
BRANCH   1  12
ATOM     12  O   UNL     1      -4.693  -3.965 -10.125  1.00  0.00    -0.493 OA
ATOM     13  C   UNL     1      -5.350  -4.999  -9.398  1.00  0.00     0.278 C 
ENDBRANCH   1  12
BRANCH   2  14
ATOM     14  O   UNL     1      -2.506  -2.921  -8.810  1.00  0.00    -0.504 OA
ATOM     15  H   UNL     1      -1.765  -2.633  -8.181  1.00  0.00     0.293 HD
ENDBRANCH   2  14
TORSDOF 2
ENDMDL
MODEL 4
REMARK VINA RESULT:    -4.165      2.196      2.425
REMARK INTER + INTRA:          -4.583
REMARK INTER:                  -4.518
REMARK INTRA:                  -0.065
REMARK UNBOUND:                -0.052
REMARK SMILES COc1cc2ccc(=O)oc2cc1O
REMARK SMILES IDX 3 1 13 2 12 3 11 4 5 5 4 6 6 7 7 8 8 9 9 10 10 11 2 12 1 13
REMARK SMILES IDX 14 14
REMARK H PARENT 14 15
REMARK Flexibility Score: inf
ROOT
ATOM      1  C   UNL     1      -7.627   0.945  -9.447  1.00  0.00     0.161 A 
ATOM      2  C   UNL     1      -6.571   1.615  -8.809  1.00  0.00     0.161 A 
ATOM      3  C   UNL     1      -5.339   0.972  -8.614  1.00  0.00     0.098 A 
ATOM      4  C   UNL     1      -5.152  -0.341  -9.055  1.00  0.00     0.142 A 
ATOM      5  C   UNL     1      -6.208  -1.021  -9.696  1.00  0.00     0.022 A 
ATOM      6  C   UNL     1      -7.440  -0.380  -9.890  1.00  0.00     0.062 A 
ATOM      7  C   UNL     1      -5.991  -2.335 -10.125  1.00  0.00     0.019 A 
ATOM      8  C   UNL     1      -4.749  -2.929  -9.908  1.00  0.00     0.094 A 
ATOM      9  C   UNL     1      -3.749  -2.193  -9.265  1.00  0.00     0.336 A 
ATOM     10  O   UNL     1      -2.619  -2.712  -9.060  1.00  0.00    -0.246 OA
ATOM     11  O   UNL     1      -3.981  -0.944  -8.867  1.00  0.00    -0.423 OA
ENDROOT
BRANCH   1  12
ATOM     12  O   UNL     1      -8.841   1.626  -9.619  1.00  0.00    -0.493 OA
ATOM     13  C   UNL     1      -9.997   1.433  -8.809  1.00  0.00     0.278 C 
ENDBRANCH   1  12
BRANCH   2  14
ATOM     14  O   UNL     1      -6.754   2.925  -8.369  1.00  0.00    -0.504 OA
ATOM     15  H   UNL     1      -7.038   3.130  -7.418  1.00  0.00     0.293 HD
ENDBRANCH   2  14
TORSDOF 2
ENDMDL
MODEL 5
REMARK VINA RESULT:    -3.934      1.841      2.371
REMARK INTER + INTRA:          -4.331
REMARK INTER:                  -4.269
REMARK INTRA:                  -0.062
REMARK UNBOUND:                -0.052
REMARK SMILES COc1cc2ccc(=O)oc2cc1O
REMARK SMILES IDX 3 1 13 2 12 3 11 4 5 5 4 6 6 7 7 8 8 9 9 10 10 11 2 12 1 13
REMARK SMILES IDX 14 14
REMARK H PARENT 14 15
REMARK Flexibility Score: inf
ROOT
ATOM      1  C   UNL     1      -7.983  -0.000  -8.755  1.00  0.00     0.161 A 
ATOM      2  C   UNL     1      -7.898  -1.067  -9.664  1.00  0.00     0.161 A 
ATOM      3  C   UNL     1      -6.647  -1.517 -10.111  1.00  0.00     0.098 A 
ATOM      4  C   UNL     1      -5.475  -0.909  -9.656  1.00  0.00     0.142 A 
ATOM      5  C   UNL     1      -5.552   0.164  -8.743  1.00  0.00     0.022 A 
ATOM      6  C   UNL     1      -6.801   0.616  -8.296  1.00  0.00     0.062 A 
ATOM      7  C   UNL     1      -4.361   0.754  -8.306  1.00  0.00     0.019 A 
ATOM      8  C   UNL     1      -3.143   0.269  -8.781  1.00  0.00     0.094 A 
ATOM      9  C   UNL     1      -3.144  -0.798  -9.684  1.00  0.00     0.336 A 
ATOM     10  O   UNL     1      -2.054  -1.250 -10.124  1.00  0.00    -0.246 OA
ATOM     11  O   UNL     1      -4.291  -1.341 -10.085  1.00  0.00    -0.423 OA
ENDROOT
BRANCH   1  12
ATOM     12  O   UNL     1      -9.255   0.417  -8.335  1.00  0.00    -0.493 OA
ATOM     13  C   UNL     1      -9.966   1.520  -8.891  1.00  0.00     0.278 C 
ENDBRANCH   1  12
BRANCH   2  14
ATOM     14  O   UNL     1      -9.065  -1.677 -10.120  1.00  0.00    -0.504 OA
ATOM     15  H   UNL     1      -9.349  -2.592  -9.790  1.00  0.00     0.293 HD
ENDBRANCH   2  14
TORSDOF 2
ENDMDL
MODEL 6
REMARK VINA RESULT:    -3.593      1.308      5.472
REMARK INTER + INTRA:          -3.961
REMARK INTER:                  -3.912
REMARK INTRA:                  -0.049
REMARK UNBOUND:                -0.052
REMARK SMILES COc1cc2ccc(=O)oc2cc1O
REMARK SMILES IDX 3 1 13 2 12 3 11 4 5 5 4 6 6 7 7 8 8 9 9 10 10 11 2 12 1 13
REMARK SMILES IDX 14 14
REMARK H PARENT 14 15
REMARK Flexibility Score: inf
ROOT
ATOM      1  C   UNL     1      -2.923   0.324  -9.669  1.00  0.00     0.161 A 
ATOM      2  C   UNL     1      -3.405  -0.772  -8.937  1.00  0.00     0.161 A 
ATOM      3  C   UNL     1      -4.747  -0.817  -8.530  1.00  0.00     0.098 A 
ATOM      4  C   UNL     1      -5.615   0.231  -8.850  1.00  0.00     0.142 A 
ATOM      5  C   UNL     1      -5.138   1.336  -9.584  1.00  0.00     0.022 A 
ATOM      6  C   UNL     1      -3.797   1.382  -9.991  1.00  0.00     0.062 A 
ATOM      7  C   UNL     1      -6.031   2.370  -9.888  1.00  0.00     0.019 A 
ATOM      8  C   UNL     1      -7.354   2.279  -9.460  1.00  0.00     0.094 A 
ATOM      9  C   UNL     1      -7.756   1.151  -8.736  1.00  0.00     0.336 A 
ATOM     10  O   UNL     1      -8.948   1.050  -8.341  1.00  0.00    -0.246 OA
ATOM     11  O   UNL     1      -6.887   0.182  -8.460  1.00  0.00    -0.423 OA
ENDROOT
BRANCH   1  12
ATOM     12  O   UNL     1      -1.573   0.326 -10.054  1.00  0.00    -0.493 OA
ATOM     13  C   UNL     1      -0.757   1.491 -10.125  1.00  0.00     0.278 C 
ENDBRANCH   1  12
BRANCH   2  14
ATOM     14  O   UNL     1      -2.542  -1.819  -8.617  1.00  0.00    -0.504 OA
ATOM     15  H   UNL     1      -2.892  -2.726  -8.331  1.00  0.00     0.293 HD
ENDBRANCH   2  14
TORSDOF 2
ENDMDL
MODEL 7
REMARK VINA RESULT:    -3.193      3.070      3.733
REMARK INTER + INTRA:          -3.525
REMARK INTER:                  -3.480
REMARK INTRA:                  -0.045
REMARK UNBOUND:                -0.052
REMARK SMILES COc1cc2ccc(=O)oc2cc1O
REMARK SMILES IDX 3 1 13 2 12 3 11 4 5 5 4 6 6 7 7 8 8 9 9 10 10 11 2 12 1 13
REMARK SMILES IDX 14 14
REMARK H PARENT 14 15
REMARK Flexibility Score: inf
ROOT
ATOM      1  C   UNL     1      -6.516   0.636  -9.352  1.00  0.00     0.161 A 
ATOM      2  C   UNL     1      -7.534  -0.219  -9.801  1.00  0.00     0.161 A 
ATOM      3  C   UNL     1      -7.266  -1.575 -10.041  1.00  0.00     0.098 A 
ATOM      4  C   UNL     1      -5.982  -2.086  -9.836  1.00  0.00     0.142 A 
ATOM      5  C   UNL     1      -4.953  -1.234  -9.386  1.00  0.00     0.022 A 
ATOM      6  C   UNL     1      -5.219   0.122  -9.146  1.00  0.00     0.062 A 
ATOM      7  C   UNL     1      -3.677  -1.775  -9.191  1.00  0.00     0.019 A 
ATOM      8  C   UNL     1      -3.462  -3.129  -9.445  1.00  0.00     0.094 A 
ATOM      9  C   UNL     1      -4.531  -3.913  -9.889  1.00  0.00     0.336 A 
ATOM     10  O   UNL     1      -4.357  -5.138 -10.123  1.00  0.00    -0.246 OA
ATOM     11  O   UNL     1      -5.735  -3.373 -10.067  1.00  0.00    -0.423 OA
ENDROOT
BRANCH   1  12
ATOM     12  O   UNL     1      -6.829   1.985  -9.125  1.00  0.00    -0.493 OA
ATOM     13  C   UNL     1      -5.868   3.003  -8.867  1.00  0.00     0.278 C 
ENDBRANCH   1  12
BRANCH   2  14
ATOM     14  O   UNL     1      -8.817   0.287 -10.006  1.00  0.00    -0.504 OA
ATOM     15  H   UNL     1      -9.493  -0.199 -10.582  1.00  0.00     0.293 HD
ENDBRANCH   2  14
TORSDOF 2
ENDMDL
MODEL 8
REMARK VINA RESULT:    -3.155      2.910      5.083
REMARK INTER + INTRA:          -3.484
REMARK INTER:                  -3.423
REMARK INTRA:                  -0.061
REMARK UNBOUND:                -0.052
REMARK SMILES COc1cc2ccc(=O)oc2cc1O
REMARK SMILES IDX 3 1 13 2 12 3 11 4 5 5 4 6 6 7 7 8 8 9 9 10 10 11 2 12 1 13
REMARK SMILES IDX 14 14
REMARK H PARENT 14 15
REMARK Flexibility Score: inf
ROOT
ATOM      1  C   UNL     1      -3.208   0.180  -9.350  1.00  0.00     0.161 A 
ATOM      2  C   UNL     1      -4.463   0.718  -9.671  1.00  0.00     0.161 A 
ATOM      3  C   UNL     1      -5.561  -0.127  -9.889  1.00  0.00     0.098 A 
ATOM      4  C   UNL     1      -5.415  -1.513  -9.787  1.00  0.00     0.142 A 
ATOM      5  C   UNL     1      -4.156  -2.061  -9.465  1.00  0.00     0.022 A 
ATOM      6  C   UNL     1      -3.057  -1.218  -9.248  1.00  0.00     0.062 A 
ATOM      7  C   UNL     1      -4.040  -3.453  -9.371  1.00  0.00     0.019 A 
ATOM      8  C   UNL     1      -5.162  -4.250  -9.597  1.00  0.00     0.094 A 
ATOM      9  C   UNL     1      -6.378  -3.635  -9.912  1.00  0.00     0.336 A 
ATOM     10  O   UNL     1      -7.402  -4.337 -10.119  1.00  0.00    -0.246 OA
ATOM     11  O   UNL     1      -6.460  -2.309  -9.996  1.00  0.00    -0.423 OA
ENDROOT
BRANCH   1  12
ATOM     12  O   UNL     1      -2.137   1.063  -9.141  1.00  0.00    -0.493 OA
ATOM     13  C   UNL     1      -1.162   1.395 -10.125  1.00  0.00     0.278 C 
ENDBRANCH   1  12
BRANCH   2  14
ATOM     14  O   UNL     1      -4.613   2.100  -9.773  1.00  0.00    -0.504 OA
ATOM     15  H   UNL     1      -4.923   2.538 -10.632  1.00  0.00     0.293 HD
ENDBRANCH   2  14
TORSDOF 2
ENDMDL
