MODEL 1
REMARK VINA RESULT:    -3.910      0.000      0.000
REMARK INTER + INTRA:          -3.991
REMARK INTER:                  -4.824
REMARK INTRA:                   0.833
REMARK UNBOUND:                 0.833
REMARK SMILES CC1=CC=CC(C)(C)CC1=O
REMARK SMILES IDX 1 1 2 2 3 3 10 4 11 5 9 6 4 8 5 9 6 10 7 11 8 12
REMARK H PARENT
REMARK Flexibility Score: 80.00
ROOT
ATOM      1  C   UNL     1      15.606 -34.475  21.144  1.00  0.00     0.048 C 
ATOM      2  C   UNL     1      14.691 -33.345  21.558  1.00  0.00    -0.008 C 
ATOM      3  C   UNL     1      13.965 -32.737  20.596  1.00  0.00     0.007 C 
ENDROOT
BRANCH   2   4
ATOM      4  C   UNL     1      14.629 -33.034  23.012  1.00  0.00     0.159 C 
ATOM      5  O   UNL     1      15.389 -33.667  23.796  1.00  0.00    -0.295 OA
BRANCH   4   6
ATOM      6  C   UNL     1      13.688 -32.037  23.618  1.00  0.00     0.091 CG0
ATOM      7  G   UNL     1      13.729 -30.647  22.947  1.00  0.00     0.000 G0
ENDBRANCH   4   6
ENDBRANCH   2   4
BRANCH   3   8
ATOM      8  C   UNL     1      13.008 -31.611  20.701  1.00  0.00    -0.003 C 
ATOM      9  C   UNL     1      12.899 -30.697  21.671  1.00  0.00    -0.020 C 
BRANCH   9  10
ATOM     10  C   UNL     1      13.709 -30.648  22.944  1.00  0.00    -0.010 CG0
ATOM     11  C   UNL     1      15.133 -30.120  22.655  1.00  0.00     0.016 C 
ATOM     12  C   UNL     1      13.025 -29.659  23.916  1.00  0.00     0.016 C 
ATOM     13  G   UNL     1      13.713 -32.045  23.605  1.00  0.00     0.000 G0
ENDBRANCH   9  10
ENDBRANCH   3   8
TORSDOF 0
ENDMDL
MODEL 2
REMARK VINA RESULT:    -3.893      2.067      4.062
REMARK INTER + INTRA:          -3.970
REMARK INTER:                  -4.813
REMARK INTRA:                   0.843
REMARK UNBOUND:                 0.833
REMARK SMILES CC1=CC=CC(C)(C)CC1=O
REMARK SMILES IDX 1 1 2 2 3 3 10 4 11 5 9 6 4 8 5 9 6 10 7 11 8 12
REMARK H PARENT
REMARK Flexibility Score: 80.00
ROOT
ATOM      1  C   UNL     1      13.283 -30.194  23.419  1.00  0.00     0.048 C 
ATOM      2  C   UNL     1      13.876 -31.499  22.937  1.00  0.00    -0.008 C 
ATOM      3  C   UNL     1      14.364 -32.351  23.865  1.00  0.00     0.007 C 
ENDROOT
BRANCH   2   4
ATOM      4  C   UNL     1      13.821 -31.758  21.473  1.00  0.00     0.159 C 
ATOM      5  O   UNL     1      13.379 -30.849  20.717  1.00  0.00    -0.295 OA
BRANCH   4   6
ATOM      6  C   UNL     1      14.223 -33.052  20.833  1.00  0.00     0.091 CG0
ATOM      7  G   UNL     1      15.636 -33.536  21.228  1.00  0.00     0.000 G0
ENDBRANCH   4   6
ENDBRANCH   2   4
BRANCH   3   8
ATOM      8  C   UNL     1      15.004 -33.675  23.691  1.00  0.00    -0.003 C 
ATOM      9  C   UNL     1      15.573 -34.189  22.594  1.00  0.00    -0.020 C 
BRANCH   9  10
ATOM     10  C   UNL     1      15.631 -33.539  21.233  1.00  0.00    -0.010 CG0
ATOM     11  C   UNL     1      16.691 -32.414  21.219  1.00  0.00     0.016 C 
ATOM     12  C   UNL     1      16.062 -34.610  20.203  1.00  0.00     0.016 C 
ATOM     13  G   UNL     1      14.223 -33.037  20.842  1.00  0.00     0.000 G0
ENDBRANCH   9  10
ENDBRANCH   3   8
TORSDOF 0
ENDMDL
MODEL 3
REMARK VINA RESULT:    -3.796      2.274      3.975
REMARK INTER + INTRA:          -3.851
REMARK INTER:                  -4.690
REMARK INTRA:                   0.839
REMARK UNBOUND:                 0.833
REMARK SMILES CC1=CC=CC(C)(C)CC1=O
REMARK SMILES IDX 1 1 2 2 3 3 10 4 11 5 9 6 4 8 5 9 6 10 7 11 8 12
REMARK H PARENT
REMARK Flexibility Score: 80.00
ROOT
ATOM      1  C   UNL     1      13.100 -28.972  23.480  1.00  0.00     0.048 C 
ATOM      2  C   UNL     1      13.855 -30.245  23.171  1.00  0.00    -0.008 C 
ATOM      3  C   UNL     1      13.547 -31.350  23.884  1.00  0.00     0.007 C 
ENDROOT
BRANCH   2   4
ATOM      4  C   UNL     1      14.842 -30.184  22.059  1.00  0.00     0.159 C 
ATOM      5  O   UNL     1      15.059 -29.070  21.507  1.00  0.00    -0.295 OA
BRANCH   4   6
ATOM      6  C   UNL     1      15.574 -31.375  21.519  1.00  0.00     0.091 CG0
ATOM      7  G   UNL     1      16.290 -32.215  22.600  1.00  0.00     0.000 G0
ENDBRANCH   4   6
ENDBRANCH   2   4
BRANCH   3   8
ATOM      8  C   UNL     1      14.119 -32.714  23.811  1.00  0.00    -0.003 C 
ATOM      9  C   UNL     1      15.293 -33.100  23.299  1.00  0.00    -0.020 C 
BRANCH   9  10
ATOM     10  C   UNL     1      16.296 -32.212  22.601  1.00  0.00    -0.010 CG0
ATOM     11  C   UNL     1      17.062 -31.353  23.633  1.00  0.00     0.016 C 
ATOM     12  C   UNL     1      17.323 -33.115  21.881  1.00  0.00     0.016 C 
ATOM     13  G   UNL     1      15.573 -31.360  21.534  1.00  0.00     0.000 G0
ENDBRANCH   9  10
ENDBRANCH   3   8
TORSDOF 0
ENDMDL
MODEL 4
REMARK VINA RESULT:    -3.671      1.947      3.743
REMARK INTER + INTRA:          -3.697
REMARK INTER:                  -4.551
REMARK INTRA:                   0.854
REMARK UNBOUND:                 0.833
REMARK SMILES CC1=CC=CC(C)(C)CC1=O
REMARK SMILES IDX 1 1 2 2 3 3 10 4 11 5 9 6 4 8 5 9 6 10 7 11 8 12
REMARK H PARENT
REMARK Flexibility Score: 80.00
ROOT
ATOM      1  C   UNL     1      14.149 -29.072  22.570  1.00  0.00     0.048 C 
ATOM      2  C   UNL     1      14.525 -30.403  21.960  1.00  0.00    -0.008 C 
ATOM      3  C   UNL     1      13.610 -31.021  21.181  1.00  0.00     0.007 C 
ENDROOT
BRANCH   2   4
ATOM      4  C   UNL     1      15.903 -30.896  22.228  1.00  0.00     0.159 C 
ATOM      5  O   UNL     1      16.634 -30.240  23.021  1.00  0.00    -0.295 OA
BRANCH   4   6
ATOM      6  C   UNL     1      16.502 -32.110  21.583  1.00  0.00     0.091 CG0
ATOM      7  G   UNL     1      15.636 -33.383  21.716  1.00  0.00     0.000 G0
ENDBRANCH   4   6
ENDBRANCH   2   4
BRANCH   3   8
ATOM      8  C   UNL     1      13.693 -32.318  20.472  1.00  0.00    -0.003 C 
ATOM      9  C   UNL     1      14.522 -33.343  20.700  1.00  0.00    -0.020 C 
BRANCH   9  10
ATOM     10  C   UNL     1      15.636 -33.377  21.718  1.00  0.00    -0.010 CG0
ATOM     11  C   UNL     1      15.058 -33.558  23.140  1.00  0.00     0.016 C 
ATOM     12  C   UNL     1      16.534 -34.598  21.412  1.00  0.00     0.016 C 
ATOM     13  G   UNL     1      16.497 -32.101  21.582  1.00  0.00     0.000 G0
ENDBRANCH   9  10
ENDBRANCH   3   8
TORSDOF 0
ENDMDL
MODEL 5
REMARK VINA RESULT:    -3.629      1.722      3.774
REMARK INTER + INTRA:          -3.645
REMARK INTER:                  -4.499
REMARK INTRA:                   0.854
REMARK UNBOUND:                 0.833
REMARK SMILES CC1=CC=CC(C)(C)CC1=O
REMARK SMILES IDX 1 1 2 2 3 3 10 4 11 5 9 6 4 8 5 9 6 10 7 11 8 12
REMARK H PARENT
REMARK Flexibility Score: 80.00
ROOT
ATOM      1  C   UNL     1      13.280 -30.330  23.599  1.00  0.00     0.048 C 
ATOM      2  C   UNL     1      14.406 -31.145  23.005  1.00  0.00    -0.008 C 
ATOM      3  C   UNL     1      15.250 -30.527  22.152  1.00  0.00     0.007 C 
ENDROOT
BRANCH   2   4
ATOM      4  C   UNL     1      14.521 -32.557  23.460  1.00  0.00     0.159 C 
ATOM      5  O   UNL     1      13.649 -33.007  24.254  1.00  0.00    -0.295 OA
BRANCH   4   6
ATOM      6  C   UNL     1      15.635 -33.479  23.065  1.00  0.00     0.091 CG0
ATOM      7  G   UNL     1      15.889 -33.541  21.543  1.00  0.00     0.000 G0
ENDBRANCH   4   6
ENDBRANCH   2   4
BRANCH   3   8
ATOM      8  C   UNL     1      16.419 -31.066  21.419  1.00  0.00    -0.003 C 
ATOM      9  C   UNL     1      16.705 -32.339  21.125  1.00  0.00    -0.020 C 
BRANCH   9  10
ATOM     10  C   UNL     1      15.907 -33.551  21.545  1.00  0.00    -0.010 CG0
ATOM     11  C   UNL     1      14.615 -33.661  20.704  1.00  0.00     0.016 C 
ATOM     12  C   UNL     1      16.761 -34.811  21.269  1.00  0.00     0.016 C 
ATOM     13  G   UNL     1      15.628 -33.482  23.063  1.00  0.00     0.000 G0
ENDBRANCH   9  10
ENDBRANCH   3   8
TORSDOF 0
ENDMDL
MODEL 6
REMARK VINA RESULT:    -3.606      2.635      3.310
REMARK INTER + INTRA:          -3.617
REMARK INTER:                  -4.474
REMARK INTRA:                   0.857
REMARK UNBOUND:                 0.833
REMARK SMILES CC1=CC=CC(C)(C)CC1=O
REMARK SMILES IDX 1 1 2 2 3 3 10 4 11 5 9 6 4 8 5 9 6 10 7 11 8 12
REMARK H PARENT
REMARK Flexibility Score: 80.00
ROOT
ATOM      1  C   UNL     1      16.865 -36.607  19.738  1.00  0.00     0.048 C 
ATOM      2  C   UNL     1      16.349 -35.452  20.566  1.00  0.00    -0.008 C 
ATOM      3  C   UNL     1      15.280 -34.771  20.101  1.00  0.00     0.007 C 
ENDROOT
BRANCH   2   4
ATOM      4  C   UNL     1      17.036 -35.199  21.861  1.00  0.00     0.159 C 
ATOM      5  O   UNL     1      18.044 -35.901  22.156  1.00  0.00    -0.295 OA
BRANCH   4   6
ATOM      6  C   UNL     1      16.586 -34.183  22.867  1.00  0.00     0.091 CG0
ATOM      7  G   UNL     1      16.354 -32.775  22.275  1.00  0.00     0.000 G0
ENDBRANCH   4   6
ENDBRANCH   2   4
BRANCH   3   8
ATOM      8  C   UNL     1      14.574 -33.606  20.683  1.00  0.00    -0.003 C 
ATOM      9  C   UNL     1      15.020 -32.726  21.586  1.00  0.00    -0.020 C 
BRANCH   9  10
ATOM     10  C   UNL     1      16.359 -32.766  22.282  1.00  0.00    -0.010 CG0
ATOM     11  C   UNL     1      17.480 -32.323  21.316  1.00  0.00     0.016 C 
ATOM     12  C   UNL     1      16.322 -31.762  23.458  1.00  0.00     0.016 C 
ATOM     13  G   UNL     1      16.594 -34.178  22.863  1.00  0.00     0.000 G0
ENDBRANCH   9  10
ENDBRANCH   3   8
TORSDOF 0
ENDMDL
MODEL 7
REMARK VINA RESULT:    -3.600      1.639      2.108
REMARK INTER + INTRA:          -3.609
REMARK INTER:                  -4.458
REMARK INTRA:                   0.849
REMARK UNBOUND:                 0.833
REMARK SMILES CC1=CC=CC(C)(C)CC1=O
REMARK SMILES IDX 1 1 2 2 3 3 10 4 11 5 9 6 4 8 5 9 6 10 7 11 8 12
REMARK H PARENT
REMARK Flexibility Score: 80.00
ROOT
ATOM      1  C   UNL     1      16.482 -35.713  19.843  1.00  0.00     0.048 C 
ATOM      2  C   UNL     1      15.738 -34.616  20.570  1.00  0.00    -0.008 C 
ATOM      3  C   UNL     1      14.736 -33.992  19.914  1.00  0.00     0.007 C 
ENDROOT
BRANCH   2   4
ATOM      4  C   UNL     1      16.143 -34.353  21.978  1.00  0.00     0.159 C 
ATOM      5  O   UNL     1      17.116 -35.000  22.455  1.00  0.00    -0.295 OA
BRANCH   4   6
ATOM      6  C   UNL     1      15.441 -33.391  22.888  1.00  0.00     0.091 CG0
ATOM      7  G   UNL     1      15.248 -31.983  22.283  1.00  0.00     0.000 G0
ENDBRANCH   4   6
ENDBRANCH   2   4
BRANCH   3   8
ATOM      8  C   UNL     1      13.853 -32.891  20.362  1.00  0.00    -0.003 C 
ATOM      9  C   UNL     1      14.054 -32.009  21.348  1.00  0.00    -0.020 C 
BRANCH   9  10
ATOM     10  C   UNL     1      15.231 -31.982  22.293  1.00  0.00    -0.010 CG0
ATOM     11  C   UNL     1      16.485 -31.434  21.575  1.00  0.00     0.016 C 
ATOM     12  C   UNL     1      14.894 -31.023  23.458  1.00  0.00     0.016 C 
ATOM     13  G   UNL     1      15.450 -33.394  22.881  1.00  0.00     0.000 G0
ENDBRANCH   9  10
ENDBRANCH   3   8
TORSDOF 0
ENDMDL
MODEL 8
REMARK VINA RESULT:    -3.597      2.354      3.386
REMARK INTER + INTRA:          -3.605
REMARK INTER:                  -4.450
REMARK INTRA:                   0.845
REMARK UNBOUND:                 0.833
REMARK SMILES CC1=CC=CC(C)(C)CC1=O
REMARK SMILES IDX 1 1 2 2 3 3 10 4 11 5 9 6 4 8 5 9 6 10 7 11 8 12
REMARK H PARENT
REMARK Flexibility Score: 80.00
ROOT
ATOM      1  C   UNL     1      17.983 -34.434  19.024  1.00  0.00     0.048 C 
ATOM      2  C   UNL     1      17.168 -33.590  19.977  1.00  0.00    -0.008 C 
ATOM      3  C   UNL     1      17.726 -32.453  20.447  1.00  0.00     0.007 C 
ENDROOT
BRANCH   2   4
ATOM      4  C   UNL     1      15.788 -34.059  20.273  1.00  0.00     0.159 C 
ATOM      5  O   UNL     1      15.413 -35.167  19.797  1.00  0.00    -0.295 OA
BRANCH   4   6
ATOM      6  C   UNL     1      14.789 -33.281  21.075  1.00  0.00     0.091 CG0
ATOM      7  G   UNL     1      15.316 -32.813  22.450  1.00  0.00     0.000 G0
ENDBRANCH   4   6
ENDBRANCH   2   4
BRANCH   3   8
ATOM      8  C   UNL     1      17.178 -31.449  21.388  1.00  0.00    -0.003 C 
ATOM      9  C   UNL     1      16.177 -31.585  22.264  1.00  0.00    -0.020 C 
BRANCH   9  10
ATOM     10  C   UNL     1      15.313 -32.810  22.445  1.00  0.00    -0.010 CG0
ATOM     11  C   UNL     1      16.091 -33.908  23.206  1.00  0.00     0.016 C 
ATOM     12  C   UNL     1      14.088 -32.415  23.303  1.00  0.00     0.016 C 
ATOM     13  G   UNL     1      14.801 -33.287  21.068  1.00  0.00     0.000 G0
ENDBRANCH   9  10
ENDBRANCH   3   8
TORSDOF 0
ENDMDL
MODEL 9
REMARK VINA RESULT:    -3.485      8.065      9.320
REMARK INTER + INTRA:          -3.467
REMARK INTER:                  -4.331
REMARK INTRA:                   0.864
REMARK UNBOUND:                 0.833
REMARK SMILES CC1=CC=CC(C)(C)CC1=O
REMARK SMILES IDX 1 1 2 2 3 3 10 4 11 5 9 6 4 8 5 9 6 10 7 11 8 12
REMARK H PARENT
REMARK Flexibility Score: 80.00
ROOT
ATOM      1  C   UNL     1      20.595 -30.155  21.688  1.00  0.00     0.048 C 
ATOM      2  C   UNL     1      20.872 -28.677  21.525  1.00  0.00    -0.008 C 
ATOM      3  C   UNL     1      19.981 -27.942  20.827  1.00  0.00     0.007 C 
ENDROOT
BRANCH   2   4
ATOM      4  C   UNL     1      22.086 -28.146  22.202  1.00  0.00     0.159 C 
ATOM      5  O   UNL     1      22.855 -28.959  22.787  1.00  0.00    -0.295 OA
BRANCH   4   6
ATOM      6  C   UNL     1      22.442 -26.692  22.270  1.00  0.00     0.091 CG0
ATOM      7  G   UNL     1      22.464 -25.986  20.896  1.00  0.00     0.000 G0
ENDBRANCH   4   6
ENDBRANCH   2   4
BRANCH   3   8
ATOM      8  C   UNL     1      19.994 -26.498  20.500  1.00  0.00    -0.003 C 
ATOM      9  C   UNL     1      21.033 -25.654  20.492  1.00  0.00    -0.020 C 
BRANCH   9  10
ATOM     10  C   UNL     1      22.451 -25.983  20.892  1.00  0.00    -0.010 CG0
ATOM     11  C   UNL     1      23.137 -26.824  19.791  1.00  0.00     0.016 C 
ATOM     12  C   UNL     1      23.234 -24.657  21.033  1.00  0.00     0.016 C 
ATOM     13  G   UNL     1      22.447 -26.688  22.267  1.00  0.00     0.000 G0
ENDBRANCH   9  10
ENDBRANCH   3   8
TORSDOF 0
ENDMDL
