MODEL 1
REMARK VINA RESULT:    -3.861      0.000      0.000
REMARK INTER + INTRA:         -15.019
REMARK INTER:                 -10.181
REMARK INTRA:                  -4.838
REMARK UNBOUND:                -4.838
REMARK SMILES CCCCCCCCCCCCCCCCCCCCCCCCCCCCCC(=O)[O-]
REMARK SMILES IDX 16 1 17 2 18 3 19 4 20 5 21 6 22 7 23 8 24 9 25 10 26 11
REMARK SMILES IDX 27 12 28 13 29 14 30 15 31 16 32 17 15 18 14 19 13 20 12 21
REMARK SMILES IDX 11 22 10 23 9 24 8 25 7 26 6 27 5 28 4 29 3 30 2 31 1 32
REMARK H PARENT
REMARK Flexibility Score: inf
ROOT
ATOM      1  C   UNL     1      -1.287  -8.839   6.254  1.00  0.00     0.000 C 
ENDROOT
BRANCH   1   2
ATOM      2  C   UNL     1      -2.709  -8.656   6.818  1.00  0.00     0.000 C 
BRANCH   2   3
ATOM      3  C   UNL     1      -2.838  -9.109   8.284  1.00  0.00     0.000 C 
BRANCH   3   4
ATOM      4  C   UNL     1      -3.398 -10.539   8.427  1.00  0.00     0.000 C 
BRANCH   4   5
ATOM      5  C   UNL     1      -4.231 -11.012   7.220  1.00  0.00     0.000 C 
BRANCH   5   6
ATOM      6  C   UNL     1      -5.325 -12.051   7.532  1.00  0.00     0.000 C 
BRANCH   6   7
ATOM      7  C   UNL     1      -5.919 -12.770   6.305  1.00  0.00     0.000 C 
BRANCH   7   8
ATOM      8  C   UNL     1      -7.454 -12.688   6.254  1.00  0.00     0.000 C 
BRANCH   8   9
ATOM      9  C   UNL     1      -8.008 -11.456   6.987  1.00  0.00     0.000 C 
BRANCH   9  10
ATOM     10  C   UNL     1      -9.112 -10.736   6.195  1.00  0.00     0.000 C 
BRANCH  10  11
ATOM     11  C   UNL     1      -8.556  -9.887   5.037  1.00  0.00     0.000 C 
BRANCH  11  12
ATOM     12  C   UNL     1      -9.362  -9.956   3.725  1.00  0.00     0.000 C 
BRANCH  12  13
ATOM     13  C   UNL     1     -10.742 -10.611   3.905  1.00  0.00     0.006 C 
BRANCH  13  14
ATOM     14  C   UNL     1     -10.850 -11.949   3.160  1.00  0.00     0.053 C 
BRANCH  14  15
ATOM     15  C   UNL     1     -11.071 -11.765   1.688  1.00  0.00     0.041 C 
ATOM     16  O   UNL     1     -12.175 -11.336   1.260  1.00  0.00    -0.550 OA
ATOM     17  O   UNL     1     -10.066 -12.097   0.788  1.00  0.00    -0.550 OA
ENDBRANCH  14  15
ENDBRANCH  13  14
ENDBRANCH  12  13
ENDBRANCH  11  12
ENDBRANCH  10  11
ENDBRANCH   9  10
ENDBRANCH   8   9
ENDBRANCH   7   8
ENDBRANCH   6   7
ENDBRANCH   5   6
ENDBRANCH   4   5
ENDBRANCH   3   4
ENDBRANCH   2   3
ENDBRANCH   1   2
BRANCH   1  18
ATOM     18  C   UNL     1      -0.150  -8.449   7.216  1.00  0.00     0.000 C 
BRANCH  18  19
ATOM     19  C   UNL     1       0.776  -9.609   7.627  1.00  0.00     0.000 C 
BRANCH  19  20
ATOM     20  C   UNL     1       0.557 -10.082   9.081  1.00  0.00     0.000 C 
BRANCH  20  21
ATOM     21  C   UNL     1       0.924 -11.562   9.282  1.00  0.00     0.000 C 
BRANCH  21  22
ATOM     22  C   UNL     1      -0.322 -12.442   9.521  1.00  0.00     0.000 C 
BRANCH  22  23
ATOM     23  C   UNL     1      -0.022 -13.949   9.566  1.00  0.00     0.000 C 
BRANCH  23  24
ATOM     24  C   UNL     1      -0.923 -14.768   8.626  1.00  0.00    -0.000 C 
BRANCH  24  25
ATOM     25  C   UNL     1      -2.005 -13.912   7.941  1.00  0.00    -0.000 C 
BRANCH  25  26
ATOM     26  C   UNL     1      -1.909 -13.848   6.406  1.00  0.00    -0.000 C 
BRANCH  26  27
ATOM     27  C   UNL     1      -1.365 -12.506   5.894  1.00  0.00    -0.000 C 
BRANCH  27  28
ATOM     28  C   UNL     1       0.141 -12.602   5.600  1.00  0.00    -0.000 C 
BRANCH  28  29
ATOM     29  C   UNL     1       0.569 -13.994   5.112  1.00  0.00    -0.000 C 
BRANCH  29  30
ATOM     30  C   UNL     1       1.992 -14.369   5.561  1.00  0.00    -0.000 C 
BRANCH  30  31
ATOM     31  C   UNL     1       2.450 -13.570   6.792  1.00  0.00    -0.003 C 
ATOM     32  C   UNL     1       3.791 -12.871   6.575  1.00  0.00     0.004 C 
ENDBRANCH  30  31
ENDBRANCH  29  30
ENDBRANCH  28  29
ENDBRANCH  27  28
ENDBRANCH  26  27
ENDBRANCH  25  26
ENDBRANCH  24  25
ENDBRANCH  23  24
ENDBRANCH  22  23
ENDBRANCH  21  22
ENDBRANCH  20  21
ENDBRANCH  19  20
ENDBRANCH  18  19
ENDBRANCH   1  18
TORSDOF 28
ENDMDL
MODEL 2
REMARK VINA RESULT:    -3.840      4.495     10.123
REMARK INTER + INTRA:         -14.963
REMARK INTER:                 -10.968
REMARK INTRA:                  -3.995
REMARK UNBOUND:                -4.838
REMARK SMILES CCCCCCCCCCCCCCCCCCCCCCCCCCCCCC(=O)[O-]
REMARK SMILES IDX 16 1 17 2 18 3 19 4 20 5 21 6 22 7 23 8 24 9 25 10 26 11
REMARK SMILES IDX 27 12 28 13 29 14 30 15 31 16 32 17 15 18 14 19 13 20 12 21
REMARK SMILES IDX 11 22 10 23 9 24 8 25 7 26 6 27 5 28 4 29 3 30 2 31 1 32
REMARK H PARENT
REMARK Flexibility Score: inf
ROOT
ATOM      1  C   UNL     1      -1.810  -8.340   7.077  1.00  0.00     0.000 C 
ENDROOT
BRANCH   1   2
ATOM      2  C   UNL     1      -0.549  -8.708   6.271  1.00  0.00     0.000 C 
BRANCH   2   3
ATOM      3  C   UNL     1       0.717  -8.797   7.143  1.00  0.00     0.000 C 
BRANCH   3   4
ATOM      4  C   UNL     1       0.412  -8.804   8.654  1.00  0.00     0.000 C 
BRANCH   4   5
ATOM      5  C   UNL     1       0.600 -10.178   9.328  1.00  0.00     0.000 C 
BRANCH   5   6
ATOM      6  C   UNL     1       0.780 -11.370   8.369  1.00  0.00     0.000 C 
BRANCH   6   7
ATOM      7  C   UNL     1      -0.380 -12.386   8.357  1.00  0.00     0.000 C 
BRANCH   7   8
ATOM      8  C   UNL     1      -1.037 -12.521   6.974  1.00  0.00     0.000 C 
BRANCH   8   9
ATOM      9  C   UNL     1      -0.021 -12.445   5.823  1.00  0.00     0.000 C 
BRANCH   9  10
ATOM     10  C   UNL     1      -0.186 -13.584   4.804  1.00  0.00     0.000 C 
BRANCH  10  11
ATOM     11  C   UNL     1       0.942 -14.630   4.892  1.00  0.00     0.000 C 
BRANCH  11  12
ATOM     12  C   UNL     1       1.835 -14.530   6.143  1.00  0.00     0.000 C 
BRANCH  12  13
ATOM     13  C   UNL     1       3.280 -14.118   5.815  1.00  0.00     0.006 C 
BRANCH  13  14
ATOM     14  C   UNL     1       3.841 -13.112   6.831  1.00  0.00     0.053 C 
BRANCH  14  15
ATOM     15  C   UNL     1       5.126 -12.493   6.369  1.00  0.00     0.041 C 
ATOM     16  O   UNL     1       5.997 -13.195   5.787  1.00  0.00    -0.550 OA
ATOM     17  O   UNL     1       5.376 -11.147   6.606  1.00  0.00    -0.550 OA
ENDBRANCH  14  15
ENDBRANCH  13  14
ENDBRANCH  12  13
ENDBRANCH  11  12
ENDBRANCH  10  11
ENDBRANCH   9  10
ENDBRANCH   8   9
ENDBRANCH   7   8
ENDBRANCH   6   7
ENDBRANCH   5   6
ENDBRANCH   4   5
ENDBRANCH   3   4
ENDBRANCH   2   3
ENDBRANCH   1   2
BRANCH   1  18
ATOM     18  C   UNL     1      -2.909  -9.419   7.096  1.00  0.00     0.000 C 
BRANCH  18  19
ATOM     19  C   UNL     1      -3.213 -10.008   8.487  1.00  0.00     0.000 C 
BRANCH  19  20
ATOM     20  C   UNL     1      -4.236 -11.165   8.451  1.00  0.00     0.000 C 
BRANCH  20  21
ATOM     21  C   UNL     1      -4.616 -11.571   7.017  1.00  0.00     0.000 C 
BRANCH  21  22
ATOM     22  C   UNL     1      -5.842 -12.510   6.986  1.00  0.00     0.000 C 
BRANCH  22  23
ATOM     23  C   UNL     1      -7.006 -11.988   6.127  1.00  0.00     0.000 C 
BRANCH  23  24
ATOM     24  C   UNL     1      -8.334 -12.709   6.415  1.00  0.00    -0.000 C 
BRANCH  24  25
ATOM     25  C   UNL     1      -9.340 -11.826   7.178  1.00  0.00    -0.000 C 
BRANCH  25  26
ATOM     26  C   UNL     1      -9.477 -10.388   6.646  1.00  0.00    -0.000 C 
BRANCH  26  27
ATOM     27  C   UNL     1     -10.806 -10.143   5.915  1.00  0.00    -0.000 C 
BRANCH  27  28
ATOM     28  C   UNL     1     -10.565  -9.497   4.542  1.00  0.00    -0.000 C 
BRANCH  28  29
ATOM     29  C   UNL     1      -9.241  -9.936   3.897  1.00  0.00    -0.000 C 
BRANCH  29  30
ATOM     30  C   UNL     1      -9.447 -10.902   2.717  1.00  0.00    -0.000 C 
BRANCH  30  31
ATOM     31  C   UNL     1     -10.723 -11.746   2.865  1.00  0.00    -0.003 C 
ATOM     32  C   UNL     1     -11.682 -11.573   1.688  1.00  0.00     0.004 C 
ENDBRANCH  30  31
ENDBRANCH  29  30
ENDBRANCH  28  29
ENDBRANCH  27  28
ENDBRANCH  26  27
ENDBRANCH  25  26
ENDBRANCH  24  25
ENDBRANCH  23  24
ENDBRANCH  22  23
ENDBRANCH  21  22
ENDBRANCH  20  21
ENDBRANCH  19  20
ENDBRANCH  18  19
ENDBRANCH   1  18
TORSDOF 28
ENDMDL
MODEL 3
REMARK VINA RESULT:    -3.821      1.927      4.089
REMARK INTER + INTRA:         -14.915
REMARK INTER:                 -10.070
REMARK INTRA:                  -4.845
REMARK UNBOUND:                -4.838
REMARK SMILES CCCCCCCCCCCCCCCCCCCCCCCCCCCCCC(=O)[O-]
REMARK SMILES IDX 16 1 17 2 18 3 19 4 20 5 21 6 22 7 23 8 24 9 25 10 26 11
REMARK SMILES IDX 27 12 28 13 29 14 30 15 31 16 32 17 15 18 14 19 13 20 12 21
REMARK SMILES IDX 11 22 10 23 9 24 8 25 7 26 6 27 5 28 4 29 3 30 2 31 1 32
REMARK H PARENT
REMARK Flexibility Score: inf
ROOT
ATOM      1  C   UNL     1      -4.341 -11.516  10.110  1.00  0.00     0.000 C 
ENDROOT
BRANCH   1   2
ATOM      2  C   UNL     1      -3.911 -12.765   9.318  1.00  0.00     0.000 C 
BRANCH   2   3
ATOM      3  C   UNL     1      -4.854 -13.088   8.145  1.00  0.00     0.000 C 
BRANCH   3   4
ATOM      4  C   UNL     1      -5.931 -12.007   7.919  1.00  0.00     0.000 C 
BRANCH   4   5
ATOM      5  C   UNL     1      -6.359 -11.843   6.448  1.00  0.00     0.000 C 
BRANCH   5   6
ATOM      6  C   UNL     1      -7.857 -12.057   6.162  1.00  0.00     0.000 C 
BRANCH   6   7
ATOM      7  C   UNL     1      -8.742 -12.263   7.407  1.00  0.00     0.000 C 
BRANCH   7   8
ATOM      8  C   UNL     1     -10.110 -11.572   7.286  1.00  0.00     0.000 C 
BRANCH   8   9
ATOM      9  C   UNL     1     -10.005 -10.038   7.319  1.00  0.00     0.000 C 
BRANCH   9  10
ATOM     10  C   UNL     1     -11.184  -9.344   6.617  1.00  0.00     0.000 C 
BRANCH  10  11
ATOM     11  C   UNL     1     -10.763  -8.614   5.328  1.00  0.00     0.000 C 
BRANCH  11  12
ATOM     12  C   UNL     1      -9.781  -9.387   4.426  1.00  0.00     0.000 C 
BRANCH  12  13
ATOM     13  C   UNL     1     -10.470 -10.476   3.587  1.00  0.00     0.006 C 
BRANCH  13  14
ATOM     14  C   UNL     1      -9.548 -11.038   2.495  1.00  0.00     0.053 C 
BRANCH  14  15
ATOM     15  C   UNL     1     -10.280 -11.921   1.530  1.00  0.00     0.041 C 
ATOM     16  O   UNL     1      -9.788 -13.028   1.182  1.00  0.00    -0.550 OA
ATOM     17  O   UNL     1     -11.493 -11.509   0.992  1.00  0.00    -0.550 OA
ENDBRANCH  14  15
ENDBRANCH  13  14
ENDBRANCH  12  13
ENDBRANCH  11  12
ENDBRANCH  10  11
ENDBRANCH   9  10
ENDBRANCH   8   9
ENDBRANCH   7   8
ENDBRANCH   6   7
ENDBRANCH   5   6
ENDBRANCH   4   5
ENDBRANCH   3   4
ENDBRANCH   2   3
ENDBRANCH   1   2
BRANCH   1  18
ATOM     18  C   UNL     1      -3.227 -10.858  10.945  1.00  0.00     0.000 C 
BRANCH  18  19
ATOM     19  C   UNL     1      -1.911 -11.655  11.009  1.00  0.00     0.000 C 
BRANCH  19  20
ATOM     20  C   UNL     1      -0.651 -10.764  10.937  1.00  0.00     0.000 C 
BRANCH  20  21
ATOM     21  C   UNL     1      -0.983  -9.266  11.040  1.00  0.00     0.000 C 
BRANCH  21  22
ATOM     22  C   UNL     1      -0.217  -8.428   9.992  1.00  0.00     0.000 C 
BRANCH  22  23
ATOM     23  C   UNL     1       0.800  -9.237   9.169  1.00  0.00     0.000 C 
BRANCH  23  24
ATOM     24  C   UNL     1       0.849  -8.813   7.692  1.00  0.00    -0.000 C 
BRANCH  24  25
ATOM     25  C   UNL     1       0.793 -10.010   6.725  1.00  0.00    -0.000 C 
BRANCH  25  26
ATOM     26  C   UNL     1       0.545 -11.374   7.392  1.00  0.00    -0.000 C 
BRANCH  26  27
ATOM     27  C   UNL     1      -0.937 -11.779   7.401  1.00  0.00    -0.000 C 
BRANCH  27  28
ATOM     28  C   UNL     1      -1.546 -11.658   5.995  1.00  0.00    -0.000 C 
BRANCH  28  29
ATOM     29  C   UNL     1      -2.512 -10.471   5.861  1.00  0.00    -0.000 C 
BRANCH  29  30
ATOM     30  C   UNL     1      -2.925  -9.884   7.223  1.00  0.00    -0.000 C 
BRANCH  30  31
ATOM     31  C   UNL     1      -2.696  -8.366   7.303  1.00  0.00    -0.003 C 
ATOM     32  C   UNL     1      -2.495  -7.729   5.929  1.00  0.00     0.004 C 
ENDBRANCH  30  31
ENDBRANCH  29  30
ENDBRANCH  28  29
ENDBRANCH  27  28
ENDBRANCH  26  27
ENDBRANCH  25  26
ENDBRANCH  24  25
ENDBRANCH  23  24
ENDBRANCH  22  23
ENDBRANCH  21  22
ENDBRANCH  20  21
ENDBRANCH  19  20
ENDBRANCH  18  19
ENDBRANCH   1  18
TORSDOF 28
ENDMDL
MODEL 4
REMARK VINA RESULT:    -3.806      2.164      5.667
REMARK INTER + INTRA:         -14.875
REMARK INTER:                  -9.715
REMARK INTRA:                  -5.160
REMARK UNBOUND:                -4.838
REMARK SMILES CCCCCCCCCCCCCCCCCCCCCCCCCCCCCC(=O)[O-]
REMARK SMILES IDX 16 1 17 2 18 3 19 4 20 5 21 6 22 7 23 8 24 9 25 10 26 11
REMARK SMILES IDX 27 12 28 13 29 14 30 15 31 16 32 17 15 18 14 19 13 20 12 21
REMARK SMILES IDX 11 22 10 23 9 24 8 25 7 26 6 27 5 28 4 29 3 30 2 31 1 32
REMARK H PARENT
REMARK Flexibility Score: inf
ROOT
ATOM      1  C   UNL     1      -8.865  -9.926   4.799  1.00  0.00     0.000 C 
ENDROOT
BRANCH   1   2
ATOM      2  C   UNL     1     -10.150  -9.843   3.953  1.00  0.00     0.000 C 
BRANCH   2   3
ATOM      3  C   UNL     1     -11.340  -9.241   4.724  1.00  0.00     0.000 C 
BRANCH   3   4
ATOM      4  C   UNL     1     -10.915  -8.498   6.007  1.00  0.00     0.000 C 
BRANCH   4   5
ATOM      5  C   UNL     1     -11.317  -9.215   7.311  1.00  0.00     0.000 C 
BRANCH   5   6
ATOM      6  C   UNL     1     -10.182  -9.427   8.331  1.00  0.00     0.000 C 
BRANCH   6   7
ATOM      7  C   UNL     1     -10.027 -10.868   8.854  1.00  0.00     0.000 C 
BRANCH   7   8
ATOM      8  C   UNL     1     -11.024 -11.845   8.207  1.00  0.00     0.000 C 
BRANCH   8   9
ATOM      9  C   UNL     1     -10.362 -13.159   7.760  1.00  0.00     0.000 C 
BRANCH   9  10
ATOM     10  C   UNL     1     -10.991 -13.739   6.482  1.00  0.00     0.000 C 
BRANCH  10  11
ATOM     11  C   UNL     1     -12.097 -12.838   5.901  1.00  0.00     0.000 C 
BRANCH  11  12
ATOM     12  C   UNL     1     -12.189 -12.819   4.363  1.00  0.00     0.000 C 
BRANCH  12  13
ATOM     13  C   UNL     1     -11.011 -13.538   3.684  1.00  0.00     0.006 C 
BRANCH  13  14
ATOM     14  C   UNL     1     -11.217 -13.686   2.170  1.00  0.00     0.053 C 
BRANCH  14  15
ATOM     15  C   UNL     1     -10.881 -12.430   1.424  1.00  0.00     0.041 C 
ATOM     16  O   UNL     1      -9.679 -12.139   1.178  1.00  0.00    -0.550 OA
ATOM     17  O   UNL     1     -11.892 -11.565   1.026  1.00  0.00    -0.550 OA
ENDBRANCH  14  15
ENDBRANCH  13  14
ENDBRANCH  12  13
ENDBRANCH  11  12
ENDBRANCH  10  11
ENDBRANCH   9  10
ENDBRANCH   8   9
ENDBRANCH   7   8
ENDBRANCH   6   7
ENDBRANCH   5   6
ENDBRANCH   4   5
ENDBRANCH   3   4
ENDBRANCH   2   3
ENDBRANCH   1   2
BRANCH   1  18
ATOM     18  C   UNL     1      -8.529 -11.328   5.339  1.00  0.00     0.000 C 
BRANCH  18  19
ATOM     19  C   UNL     1      -7.312 -11.384   6.281  1.00  0.00     0.000 C 
BRANCH  19  20
ATOM     20  C   UNL     1      -6.684 -12.792   6.386  1.00  0.00     0.000 C 
BRANCH  20  21
ATOM     21  C   UNL     1      -6.274 -13.148   7.825  1.00  0.00     0.000 C 
BRANCH  21  22
ATOM     22  C   UNL     1      -6.387 -11.937   8.777  1.00  0.00     0.000 C 
BRANCH  22  23
ATOM     23  C   UNL     1      -5.036 -11.443   9.321  1.00  0.00     0.000 C 
BRANCH  23  24
ATOM     24  C   UNL     1      -3.835 -12.173   8.698  1.00  0.00    -0.000 C 
BRANCH  24  25
ATOM     25  C   UNL     1      -2.790 -11.208   8.108  1.00  0.00    -0.000 C 
BRANCH  25  26
ATOM     26  C   UNL     1      -3.345 -10.185   7.101  1.00  0.00    -0.000 C 
BRANCH  26  27
ATOM     27  C   UNL     1      -2.858  -8.753   7.368  1.00  0.00    -0.000 C 
BRANCH  27  28
ATOM     28  C   UNL     1      -1.884  -8.291   6.273  1.00  0.00    -0.000 C 
BRANCH  28  29
ATOM     29  C   UNL     1      -0.417  -8.600   6.607  1.00  0.00    -0.000 C 
BRANCH  29  30
ATOM     30  C   UNL     1      -0.133  -8.568   8.119  1.00  0.00    -0.000 C 
BRANCH  30  31
ATOM     31  C   UNL     1       0.876  -9.646   8.549  1.00  0.00    -0.003 C 
ATOM     32  C   UNL     1       0.870 -10.861   7.623  1.00  0.00     0.004 C 
ENDBRANCH  30  31
ENDBRANCH  29  30
ENDBRANCH  28  29
ENDBRANCH  27  28
ENDBRANCH  26  27
ENDBRANCH  25  26
ENDBRANCH  24  25
ENDBRANCH  23  24
ENDBRANCH  22  23
ENDBRANCH  21  22
ENDBRANCH  20  21
ENDBRANCH  19  20
ENDBRANCH  18  19
ENDBRANCH   1  18
TORSDOF 28
ENDMDL
MODEL 5
REMARK VINA RESULT:    -3.771      1.488      4.251
REMARK INTER + INTRA:         -14.781
REMARK INTER:                 -10.140
REMARK INTRA:                  -4.641
REMARK UNBOUND:                -4.838
REMARK SMILES CCCCCCCCCCCCCCCCCCCCCCCCCCCCCC(=O)[O-]
REMARK SMILES IDX 16 1 17 2 18 3 19 4 20 5 21 6 22 7 23 8 24 9 25 10 26 11
REMARK SMILES IDX 27 12 28 13 29 14 30 15 31 16 32 17 15 18 14 19 13 20 12 21
REMARK SMILES IDX 11 22 10 23 9 24 8 25 7 26 6 27 5 28 4 29 3 30 2 31 1 32
REMARK H PARENT
REMARK Flexibility Score: inf
ROOT
ATOM      1  C   UNL     1      -4.179 -12.411   9.674  1.00  0.00     0.000 C 
ENDROOT
BRANCH   1   2
ATOM      2  C   UNL     1      -5.609 -12.901   9.375  1.00  0.00     0.000 C 
BRANCH   2   3
ATOM      3  C   UNL     1      -5.652 -14.027   8.325  1.00  0.00     0.000 C 
BRANCH   3   4
ATOM      4  C   UNL     1      -6.797 -13.860   7.306  1.00  0.00     0.000 C 
BRANCH   4   5
ATOM      5  C   UNL     1      -6.573 -12.725   6.288  1.00  0.00     0.000 C 
BRANCH   5   6
ATOM      6  C   UNL     1      -7.464 -11.481   6.470  1.00  0.00     0.000 C 
BRANCH   6   7
ATOM      7  C   UNL     1      -8.591 -11.626   7.512  1.00  0.00     0.000 C 
BRANCH   7   8
ATOM      8  C   UNL     1      -9.452 -10.358   7.636  1.00  0.00     0.000 C 
BRANCH   8   9
ATOM      9  C   UNL     1     -10.648 -10.356   6.670  1.00  0.00     0.000 C 
BRANCH   9  10
ATOM     10  C   UNL     1     -10.436  -9.430   5.460  1.00  0.00     0.000 C 
BRANCH  10  11
ATOM     11  C   UNL     1     -10.764 -10.118   4.121  1.00  0.00     0.000 C 
BRANCH  11  12
ATOM     12  C   UNL     1      -9.661 -11.042   3.570  1.00  0.00     0.000 C 
BRANCH  12  13
ATOM     13  C   UNL     1      -9.567 -11.013   2.035  1.00  0.00     0.006 C 
BRANCH  13  14
ATOM     14  C   UNL     1      -9.985 -12.349   1.403  1.00  0.00     0.053 C 
BRANCH  14  15
ATOM     15  C   UNL     1     -11.432 -12.365   1.012  1.00  0.00     0.041 C 
ATOM     16  O   UNL     1     -12.133 -11.324   1.124  1.00  0.00    -0.550 OA
ATOM     17  O   UNL     1     -12.015 -13.539   0.551  1.00  0.00    -0.550 OA
ENDBRANCH  14  15
ENDBRANCH  13  14
ENDBRANCH  12  13
ENDBRANCH  11  12
ENDBRANCH  10  11
ENDBRANCH   9  10
ENDBRANCH   8   9
ENDBRANCH   7   8
ENDBRANCH   6   7
ENDBRANCH   5   6
ENDBRANCH   4   5
ENDBRANCH   3   4
ENDBRANCH   2   3
ENDBRANCH   1   2
BRANCH   1  18
ATOM     18  C   UNL     1      -3.835 -11.023   9.103  1.00  0.00     0.000 C 
BRANCH  18  19
ATOM     19  C   UNL     1      -3.750 -10.959   7.566  1.00  0.00     0.000 C 
BRANCH  19  20
ATOM     20  C   UNL     1      -2.716 -11.939   6.969  1.00  0.00     0.000 C 
BRANCH  20  21
ATOM     21  C   UNL     1      -2.176 -11.468   5.608  1.00  0.00     0.000 C 
BRANCH  21  22
ATOM     22  C   UNL     1      -0.688 -11.835   5.416  1.00  0.00     0.000 C 
BRANCH  22  23
ATOM     23  C   UNL     1      -0.274 -13.144   6.108  1.00  0.00     0.000 C 
BRANCH  23  24
ATOM     24  C   UNL     1       0.968 -12.984   7.001  1.00  0.00    -0.000 C 
BRANCH  24  25
ATOM     25  C   UNL     1       0.616 -12.848   8.494  1.00  0.00    -0.000 C 
BRANCH  25  26
ATOM     26  C   UNL     1       0.982 -11.494   9.128  1.00  0.00    -0.000 C 
BRANCH  26  27
ATOM     27  C   UNL     1      -0.229 -10.762   9.726  1.00  0.00    -0.000 C 
BRANCH  27  28
ATOM     28  C   UNL     1      -0.392  -9.368   9.100  1.00  0.00    -0.000 C 
BRANCH  28  29
ATOM     29  C   UNL     1       0.507  -9.154   7.873  1.00  0.00    -0.000 C 
BRANCH  29  30
ATOM     30  C   UNL     1      -0.237  -8.490   6.700  1.00  0.00    -0.000 C 
BRANCH  30  31
ATOM     31  C   UNL     1      -1.695  -8.149   7.047  1.00  0.00    -0.003 C 
ATOM     32  C   UNL     1      -2.484  -7.644   5.839  1.00  0.00     0.004 C 
ENDBRANCH  30  31
ENDBRANCH  29  30
ENDBRANCH  28  29
ENDBRANCH  27  28
ENDBRANCH  26  27
ENDBRANCH  25  26
ENDBRANCH  24  25
ENDBRANCH  23  24
ENDBRANCH  22  23
ENDBRANCH  21  22
ENDBRANCH  20  21
ENDBRANCH  19  20
ENDBRANCH  18  19
ENDBRANCH   1  18
TORSDOF 28
ENDMDL
MODEL 6
REMARK VINA RESULT:    -3.746      3.818      9.052
REMARK INTER + INTRA:         -14.717
REMARK INTER:                  -9.880
REMARK INTRA:                  -4.837
REMARK UNBOUND:                -4.838
REMARK SMILES CCCCCCCCCCCCCCCCCCCCCCCCCCCCCC(=O)[O-]
REMARK SMILES IDX 16 1 17 2 18 3 19 4 20 5 21 6 22 7 23 8 24 9 25 10 26 11
REMARK SMILES IDX 27 12 28 13 29 14 30 15 31 16 32 17 15 18 14 19 13 20 12 21
REMARK SMILES IDX 11 22 10 23 9 24 8 25 7 26 6 27 5 28 4 29 3 30 2 31 1 32
REMARK H PARENT
REMARK Flexibility Score: inf
ROOT
ATOM      1  C   UNL     1      -3.683 -12.977   5.557  1.00  0.00     0.000 C 
ENDROOT
BRANCH   1   2
ATOM      2  C   UNL     1      -2.813 -13.682   4.498  1.00  0.00     0.000 C 
BRANCH   2   3
ATOM      3  C   UNL     1      -1.304 -13.471   4.722  1.00  0.00     0.000 C 
BRANCH   3   4
ATOM      4  C   UNL     1      -0.966 -12.082   5.298  1.00  0.00     0.000 C 
BRANCH   4   5
ATOM      5  C   UNL     1       0.408 -12.006   5.994  1.00  0.00     0.000 C 
BRANCH   5   6
ATOM      6  C   UNL     1       0.796 -13.237   6.836  1.00  0.00     0.000 C 
BRANCH   6   7
ATOM      7  C   UNL     1       0.231 -13.258   8.269  1.00  0.00     0.000 C 
BRANCH   7   8
ATOM      8  C   UNL     1       0.157 -11.856   8.900  1.00  0.00     0.000 C 
BRANCH   8   9
ATOM      9  C   UNL     1      -1.148 -11.625   9.680  1.00  0.00     0.000 C 
BRANCH   9  10
ATOM     10  C   UNL     1      -2.382 -11.545   8.766  1.00  0.00     0.000 C 
BRANCH  10  11
ATOM     11  C   UNL     1      -2.941 -10.114   8.645  1.00  0.00     0.000 C 
BRANCH  11  12
ATOM     12  C   UNL     1      -2.886  -9.505   7.231  1.00  0.00     0.000 C 
BRANCH  12  13
ATOM     13  C   UNL     1      -1.988  -8.258   7.150  1.00  0.00     0.006 C 
BRANCH  13  14
ATOM     14  C   UNL     1      -0.670  -8.540   6.415  1.00  0.00     0.053 C 
BRANCH  14  15
ATOM     15  C   UNL     1       0.515  -8.490   7.332  1.00  0.00     0.041 C 
ATOM     16  O   UNL     1       1.680  -8.636   6.874  1.00  0.00    -0.550 OA
ATOM     17  O   UNL     1       0.331  -8.311   8.697  1.00  0.00    -0.550 OA
ENDBRANCH  14  15
ENDBRANCH  13  14
ENDBRANCH  12  13
ENDBRANCH  11  12
ENDBRANCH  10  11
ENDBRANCH   9  10
ENDBRANCH   8   9
ENDBRANCH   7   8
ENDBRANCH   6   7
ENDBRANCH   5   6
ENDBRANCH   4   5
ENDBRANCH   3   4
ENDBRANCH   2   3
ENDBRANCH   1   2
BRANCH   1  18
ATOM     18  C   UNL     1      -5.010 -13.685   5.886  1.00  0.00     0.000 C 
BRANCH  18  19
ATOM     19  C   UNL     1      -6.172 -12.743   6.253  1.00  0.00     0.000 C 
BRANCH  19  20
ATOM     20  C   UNL     1      -5.871 -11.848   7.476  1.00  0.00     0.000 C 
BRANCH  20  21
ATOM     21  C   UNL     1      -6.288 -12.505   8.803  1.00  0.00     0.000 C 
BRANCH  21  22
ATOM     22  C   UNL     1      -6.020 -11.585  10.014  1.00  0.00     0.000 C 
BRANCH  22  23
ATOM     23  C   UNL     1      -7.289 -10.957  10.614  1.00  0.00     0.000 C 
BRANCH  23  24
ATOM     24  C   UNL     1      -8.576 -11.683  10.188  1.00  0.00    -0.000 C 
BRANCH  24  25
ATOM     25  C   UNL     1      -9.577 -10.753   9.476  1.00  0.00    -0.000 C 
BRANCH  25  26
ATOM     26  C   UNL     1      -9.367 -10.612   7.958  1.00  0.00    -0.000 C 
BRANCH  26  27
ATOM     27  C   UNL     1      -9.651 -11.910   7.188  1.00  0.00    -0.000 C 
BRANCH  27  28
ATOM     28  C   UNL     1      -9.731 -11.645   5.676  1.00  0.00    -0.000 C 
BRANCH  28  29
ATOM     29  C   UNL     1      -8.912 -10.421   5.238  1.00  0.00    -0.000 C 
BRANCH  29  30
ATOM     30  C   UNL     1      -9.302  -9.916   3.837  1.00  0.00    -0.000 C 
BRANCH  30  31
ATOM     31  C   UNL     1     -10.236 -10.889   3.101  1.00  0.00    -0.003 C 
ATOM     32  C   UNL     1      -9.650 -11.379   1.777  1.00  0.00     0.004 C 
ENDBRANCH  30  31
ENDBRANCH  29  30
ENDBRANCH  28  29
ENDBRANCH  27  28
ENDBRANCH  26  27
ENDBRANCH  25  26
ENDBRANCH  24  25
ENDBRANCH  23  24
ENDBRANCH  22  23
ENDBRANCH  21  22
ENDBRANCH  20  21
ENDBRANCH  19  20
ENDBRANCH  18  19
ENDBRANCH   1  18
TORSDOF 28
ENDMDL
MODEL 7
REMARK VINA RESULT:    -3.722      1.421      2.897
REMARK INTER + INTRA:         -14.652
REMARK INTER:                  -8.967
REMARK INTRA:                  -5.686
REMARK UNBOUND:                -4.838
REMARK SMILES CCCCCCCCCCCCCCCCCCCCCCCCCCCCCC(=O)[O-]
REMARK SMILES IDX 16 1 17 2 18 3 19 4 20 5 21 6 22 7 23 8 24 9 25 10 26 11
REMARK SMILES IDX 27 12 28 13 29 14 30 15 31 16 32 17 15 18 14 19 13 20 12 21
REMARK SMILES IDX 11 22 10 23 9 24 8 25 7 26 6 27 5 28 4 29 3 30 2 31 1 32
REMARK H PARENT
REMARK Flexibility Score: inf
ROOT
ATOM      1  C   UNL     1       0.097  -8.959   9.082  1.00  0.00     0.000 C 
ENDROOT
BRANCH   1   2
ATOM      2  C   UNL     1      -0.004 -10.354   9.727  1.00  0.00     0.000 C 
BRANCH   2   3
ATOM      3  C   UNL     1      -1.389 -11.003   9.544  1.00  0.00     0.000 C 
BRANCH   3   4
ATOM      4  C   UNL     1      -2.553 -10.036   9.839  1.00  0.00     0.000 C 
BRANCH   4   5
ATOM      5  C   UNL     1      -3.928 -10.723   9.954  1.00  0.00     0.000 C 
BRANCH   5   6
ATOM      6  C   UNL     1      -3.924 -12.253   9.775  1.00  0.00     0.000 C 
BRANCH   6   7
ATOM      7  C   UNL     1      -5.201 -12.845   9.147  1.00  0.00     0.000 C 
BRANCH   7   8
ATOM      8  C   UNL     1      -6.157 -11.764   8.614  1.00  0.00     0.000 C 
BRANCH   8   9
ATOM      9  C   UNL     1      -7.136 -12.306   7.560  1.00  0.00     0.000 C 
BRANCH   9  10
ATOM     10  C   UNL     1      -7.108 -11.501   6.250  1.00  0.00     0.000 C 
BRANCH  10  11
ATOM     11  C   UNL     1      -8.493 -11.397   5.585  1.00  0.00     0.000 C 
BRANCH  11  12
ATOM     12  C   UNL     1      -8.823 -10.026   4.964  1.00  0.00     0.000 C 
BRANCH  12  13
ATOM     13  C   UNL     1      -9.882 -10.112   3.852  1.00  0.00     0.006 C 
BRANCH  13  14
ATOM     14  C   UNL     1     -10.985 -11.129   4.178  1.00  0.00     0.053 C 
BRANCH  14  15
ATOM     15  C   UNL     1     -11.236 -12.080   3.046  1.00  0.00     0.041 C 
ATOM     16  O   UNL     1     -10.770 -13.250   3.083  1.00  0.00    -0.550 OA
ATOM     17  O   UNL     1     -11.960 -11.663   1.936  1.00  0.00    -0.550 OA
ENDBRANCH  14  15
ENDBRANCH  13  14
ENDBRANCH  12  13
ENDBRANCH  11  12
ENDBRANCH  10  11
ENDBRANCH   9  10
ENDBRANCH   8   9
ENDBRANCH   7   8
ENDBRANCH   6   7
ENDBRANCH   5   6
ENDBRANCH   4   5
ENDBRANCH   3   4
ENDBRANCH   2   3
ENDBRANCH   1   2
BRANCH   1  18
ATOM     18  C   UNL     1       0.879  -8.909   7.757  1.00  0.00     0.000 C 
BRANCH  18  19
ATOM     19  C   UNL     1       0.003  -8.892   6.490  1.00  0.00     0.000 C 
BRANCH  19  20
ATOM     20  C   UNL     1      -1.354  -8.183   6.693  1.00  0.00     0.000 C 
BRANCH  20  21
ATOM     21  C   UNL     1      -2.548  -9.079   6.325  1.00  0.00     0.000 C 
BRANCH  21  22
ATOM     22  C   UNL     1      -2.106 -10.513   5.961  1.00  0.00     0.000 C 
BRANCH  22  23
ATOM     23  C   UNL     1      -3.157 -11.590   6.279  1.00  0.00     0.000 C 
BRANCH  23  24
ATOM     24  C   UNL     1      -3.257 -12.671   5.190  1.00  0.00    -0.000 C 
BRANCH  24  25
ATOM     25  C   UNL     1      -4.320 -13.741   5.506  1.00  0.00    -0.000 C 
BRANCH  25  26
ATOM     26  C   UNL     1      -3.842 -14.882   6.421  1.00  0.00    -0.000 C 
BRANCH  26  27
ATOM     27  C   UNL     1      -2.319 -15.080   6.391  1.00  0.00    -0.000 C 
BRANCH  27  28
ATOM     28  C   UNL     1      -1.706 -14.831   7.778  1.00  0.00    -0.000 C 
BRANCH  28  29
ATOM     29  C   UNL     1      -0.481 -13.905   7.735  1.00  0.00    -0.000 C 
BRANCH  29  30
ATOM     30  C   UNL     1       0.031 -13.663   6.304  1.00  0.00    -0.000 C 
BRANCH  30  31
ATOM     31  C   UNL     1       1.023 -12.491   6.225  1.00  0.00    -0.003 C 
ATOM     32  C   UNL     1       2.014 -12.481   7.388  1.00  0.00     0.004 C 
ENDBRANCH  30  31
ENDBRANCH  29  30
ENDBRANCH  28  29
ENDBRANCH  27  28
ENDBRANCH  26  27
ENDBRANCH  25  26
ENDBRANCH  24  25
ENDBRANCH  23  24
ENDBRANCH  22  23
ENDBRANCH  21  22
ENDBRANCH  20  21
ENDBRANCH  19  20
ENDBRANCH  18  19
ENDBRANCH   1  18
TORSDOF 28
ENDMDL
MODEL 8
REMARK VINA RESULT:    -3.722      1.228      4.022
REMARK INTER + INTRA:         -14.652
REMARK INTER:                  -9.766
REMARK INTRA:                  -4.886
REMARK UNBOUND:                -4.838
REMARK SMILES CCCCCCCCCCCCCCCCCCCCCCCCCCCCCC(=O)[O-]
REMARK SMILES IDX 16 1 17 2 18 3 19 4 20 5 21 6 22 7 23 8 24 9 25 10 26 11
REMARK SMILES IDX 27 12 28 13 29 14 30 15 31 16 32 17 15 18 14 19 13 20 12 21
REMARK SMILES IDX 11 22 10 23 9 24 8 25 7 26 6 27 5 28 4 29 3 30 2 31 1 32
REMARK H PARENT
REMARK Flexibility Score: inf
ROOT
ATOM      1  C   UNL     1      -0.497 -13.498   4.564  1.00  0.00     0.000 C 
ENDROOT
BRANCH   1   2
ATOM      2  C   UNL     1      -1.257 -14.816   4.807  1.00  0.00     0.000 C 
BRANCH   2   3
ATOM      3  C   UNL     1      -1.586 -15.055   6.293  1.00  0.00     0.000 C 
BRANCH   3   4
ATOM      4  C   UNL     1      -3.095 -14.980   6.598  1.00  0.00     0.000 C 
BRANCH   4   5
ATOM      5  C   UNL     1      -3.965 -14.609   5.381  1.00  0.00     0.000 C 
BRANCH   5   6
ATOM      6  C   UNL     1      -4.753 -13.291   5.504  1.00  0.00     0.000 C 
BRANCH   6   7
ATOM      7  C   UNL     1      -4.116 -12.226   6.418  1.00  0.00     0.000 C 
BRANCH   7   8
ATOM      8  C   UNL     1      -5.135 -11.572   7.367  1.00  0.00     0.000 C 
BRANCH   8   9
ATOM      9  C   UNL     1      -6.352 -12.470   7.642  1.00  0.00     0.000 C 
BRANCH   9  10
ATOM     10  C   UNL     1      -7.688 -11.776   7.331  1.00  0.00     0.000 C 
BRANCH  10  11
ATOM     11  C   UNL     1      -7.803 -11.341   5.857  1.00  0.00     0.000 C 
BRANCH  11  12
ATOM     12  C   UNL     1      -9.214 -10.917   5.405  1.00  0.00     0.000 C 
BRANCH  12  13
ATOM     13  C   UNL     1      -9.370 -10.892   3.875  1.00  0.00     0.006 C 
BRANCH  13  14
ATOM     14  C   UNL     1     -10.797 -11.248   3.433  1.00  0.00     0.053 C 
BRANCH  14  15
ATOM     15  C   UNL     1     -10.904 -11.425   1.948  1.00  0.00     0.041 C 
ATOM     16  O   UNL     1     -12.022 -11.318   1.374  1.00  0.00    -0.550 OA
ATOM     17  O   UNL     1      -9.776 -11.737   1.201  1.00  0.00    -0.550 OA
ENDBRANCH  14  15
ENDBRANCH  13  14
ENDBRANCH  12  13
ENDBRANCH  11  12
ENDBRANCH  10  11
ENDBRANCH   9  10
ENDBRANCH   8   9
ENDBRANCH   7   8
ENDBRANCH   6   7
ENDBRANCH   5   6
ENDBRANCH   4   5
ENDBRANCH   3   4
ENDBRANCH   2   3
ENDBRANCH   1   2
BRANCH   1  18
ATOM     18  C   UNL     1      -0.527 -12.502   5.738  1.00  0.00     0.000 C 
BRANCH  18  19
ATOM     19  C   UNL     1       0.857 -12.102   6.281  1.00  0.00     0.000 C 
BRANCH  19  20
ATOM     20  C   UNL     1       1.615 -13.272   6.948  1.00  0.00     0.000 C 
BRANCH  20  21
ATOM     21  C   UNL     1       1.576 -13.199   8.484  1.00  0.00     0.000 C 
BRANCH  21  22
ATOM     22  C   UNL     1       0.513 -14.146   9.083  1.00  0.00     0.000 C 
BRANCH  22  23
ATOM     23  C   UNL     1      -0.531 -13.435   9.961  1.00  0.00     0.000 C 
BRANCH  23  24
ATOM     24  C   UNL     1      -1.553 -12.627   9.143  1.00  0.00    -0.000 C 
BRANCH  24  25
ATOM     25  C   UNL     1      -1.502 -11.118   9.449  1.00  0.00    -0.000 C 
BRANCH  25  26
ATOM     26  C   UNL     1      -0.478 -10.706  10.521  1.00  0.00    -0.000 C 
BRANCH  26  27
ATOM     27  C   UNL     1       0.714  -9.926   9.946  1.00  0.00    -0.000 C 
BRANCH  27  28
ATOM     28  C   UNL     1       0.234  -8.766   9.059  1.00  0.00    -0.000 C 
BRANCH  28  29
ATOM     29  C   UNL     1       0.860  -8.785   7.656  1.00  0.00    -0.000 C 
BRANCH  29  30
ATOM     30  C   UNL     1      -0.184  -8.619   6.538  1.00  0.00    -0.000 C 
BRANCH  30  31
ATOM     31  C   UNL     1      -1.597  -8.361   7.086  1.00  0.00    -0.003 C 
ATOM     32  C   UNL     1      -2.548  -7.809   6.026  1.00  0.00     0.004 C 
ENDBRANCH  30  31
ENDBRANCH  29  30
ENDBRANCH  28  29
ENDBRANCH  27  28
ENDBRANCH  26  27
ENDBRANCH  25  26
ENDBRANCH  24  25
ENDBRANCH  23  24
ENDBRANCH  22  23
ENDBRANCH  21  22
ENDBRANCH  20  21
ENDBRANCH  19  20
ENDBRANCH  18  19
ENDBRANCH   1  18
TORSDOF 28
ENDMDL
MODEL 9
REMARK VINA RESULT:    -3.718      1.467      2.940
REMARK INTER + INTRA:         -14.642
REMARK INTER:                  -9.099
REMARK INTRA:                  -5.543
REMARK UNBOUND:                -4.838
REMARK SMILES CCCCCCCCCCCCCCCCCCCCCCCCCCCCCC(=O)[O-]
REMARK SMILES IDX 16 1 17 2 18 3 19 4 20 5 21 6 22 7 23 8 24 9 25 10 26 11
REMARK SMILES IDX 27 12 28 13 29 14 30 15 31 16 32 17 15 18 14 19 13 20 12 21
REMARK SMILES IDX 11 22 10 23 9 24 8 25 7 26 6 27 5 28 4 29 3 30 2 31 1 32
REMARK H PARENT
REMARK Flexibility Score: inf
ROOT
ATOM      1  C   UNL     1      -2.542  -9.438   6.564  1.00  0.00     0.000 C 
ENDROOT
BRANCH   1   2
ATOM      2  C   UNL     1      -3.277 -10.217   7.671  1.00  0.00     0.000 C 
BRANCH   2   3
ATOM      3  C   UNL     1      -3.144  -9.560   9.058  1.00  0.00     0.000 C 
BRANCH   3   4
ATOM      4  C   UNL     1      -3.701 -10.437  10.198  1.00  0.00     0.000 C 
BRANCH   4   5
ATOM      5  C   UNL     1      -3.889 -11.919   9.818  1.00  0.00     0.000 C 
BRANCH   5   6
ATOM      6  C   UNL     1      -5.184 -12.578  10.328  1.00  0.00     0.000 C 
BRANCH   6   7
ATOM      7  C   UNL     1      -6.183 -13.000   9.234  1.00  0.00     0.000 C 
BRANCH   7   8
ATOM      8  C   UNL     1      -6.838 -11.799   8.532  1.00  0.00     0.000 C 
BRANCH   8   9
ATOM      9  C   UNL     1      -6.488 -11.721   7.037  1.00  0.00     0.000 C 
BRANCH   9  10
ATOM     10  C   UNL     1      -7.636 -12.195   6.130  1.00  0.00     0.000 C 
BRANCH  10  11
ATOM     11  C   UNL     1      -9.015 -11.698   6.606  1.00  0.00     0.000 C 
BRANCH  11  12
ATOM     12  C   UNL     1      -9.534 -10.429   5.904  1.00  0.00     0.000 C 
BRANCH  12  13
ATOM     13  C   UNL     1      -9.189 -10.390   4.406  1.00  0.00     0.006 C 
BRANCH  13  14
ATOM     14  C   UNL     1     -10.443 -10.297   3.524  1.00  0.00     0.053 C 
BRANCH  14  15
ATOM     15  C   UNL     1     -10.644 -11.527   2.690  1.00  0.00     0.041 C 
ATOM     16  O   UNL     1     -10.750 -11.434   1.437  1.00  0.00    -0.550 OA
ATOM     17  O   UNL     1     -10.742 -12.772   3.297  1.00  0.00    -0.550 OA
ENDBRANCH  14  15
ENDBRANCH  13  14
ENDBRANCH  12  13
ENDBRANCH  11  12
ENDBRANCH  10  11
ENDBRANCH   9  10
ENDBRANCH   8   9
ENDBRANCH   7   8
ENDBRANCH   6   7
ENDBRANCH   5   6
ENDBRANCH   4   5
ENDBRANCH   3   4
ENDBRANCH   2   3
ENDBRANCH   1   2
BRANCH   1  18
ATOM     18  C   UNL     1      -1.473  -8.448   7.063  1.00  0.00     0.000 C 
BRANCH  18  19
ATOM     19  C   UNL     1      -0.053  -8.704   6.526  1.00  0.00     0.000 C 
BRANCH  19  20
ATOM     20  C   UNL     1       1.003  -8.868   7.642  1.00  0.00     0.000 C 
BRANCH  20  21
ATOM     21  C   UNL     1       0.374  -9.219   9.001  1.00  0.00     0.000 C 
BRANCH  21  22
ATOM     22  C   UNL     1       0.898 -10.563   9.552  1.00  0.00     0.000 C 
BRANCH  22  23
ATOM     23  C   UNL     1      -0.180 -11.654   9.664  1.00  0.00     0.000 C 
BRANCH  23  24
ATOM     24  C   UNL     1      -0.569 -12.255   8.303  1.00  0.00    -0.000 C 
BRANCH  24  25
ATOM     25  C   UNL     1       0.626 -12.893   7.569  1.00  0.00    -0.000 C 
BRANCH  25  26
ATOM     26  C   UNL     1       0.879 -12.355   6.149  1.00  0.00    -0.000 C 
BRANCH  26  27
ATOM     27  C   UNL     1      -0.404 -12.232   5.315  1.00  0.00    -0.000 C 
BRANCH  27  28
ATOM     28  C   UNL     1      -0.656 -13.513   4.504  1.00  0.00    -0.000 C 
BRANCH  28  29
ATOM     29  C   UNL     1      -2.128 -13.953   4.522  1.00  0.00    -0.000 C 
BRANCH  29  30
ATOM     30  C   UNL     1      -3.017 -13.021   5.364  1.00  0.00    -0.000 C 
BRANCH  30  31
ATOM     31  C   UNL     1      -3.778 -13.774   6.468  1.00  0.00    -0.003 C 
ATOM     32  C   UNL     1      -4.634 -14.915   5.919  1.00  0.00     0.004 C 
ENDBRANCH  30  31
ENDBRANCH  29  30
ENDBRANCH  28  29
ENDBRANCH  27  28
ENDBRANCH  26  27
ENDBRANCH  25  26
ENDBRANCH  24  25
ENDBRANCH  23  24
ENDBRANCH  22  23
ENDBRANCH  21  22
ENDBRANCH  20  21
ENDBRANCH  19  20
ENDBRANCH  18  19
ENDBRANCH   1  18
TORSDOF 28
ENDMDL
