MODEL 1
REMARK VINA RESULT:    -4.226      0.000      0.000
REMARK INTER + INTRA:          -5.927
REMARK INTER:                  -5.708
REMARK INTRA:                  -0.218
REMARK UNBOUND:                -0.218
REMARK SMILES CCCCCCCC(=O)[O-]
REMARK SMILES IDX 5 1 6 2 7 3 8 4 9 5 10 6 4 7 3 8 2 9 1 10
REMARK H PARENT
REMARK Flexibility Score: inf
ROOT
ATOM      1  C   UNL     1      42.390  48.711  13.024  1.00  0.00     0.000 C 
ENDROOT
BRANCH   1   2
ATOM      2  C   UNL     1      41.874  50.057  13.547  1.00  0.00     0.006 C 
BRANCH   2   3
ATOM      3  C   UNL     1      40.401  50.261  13.180  1.00  0.00     0.053 C 
BRANCH   3   4
ATOM      4  C   UNL     1      39.734  51.162  14.172  1.00  0.00     0.041 C 
ATOM      5  O   UNL     1      38.730  51.841  13.835  1.00  0.00    -0.550 OA
ATOM      6  O   UNL     1      40.254  51.288  15.454  1.00  0.00    -0.550 OA
ENDBRANCH   3   4
ENDBRANCH   2   3
ENDBRANCH   1   2
BRANCH   1   7
ATOM      7  C   UNL     1      43.428  48.917  11.910  1.00  0.00     0.000 C 
BRANCH   7   8
ATOM      8  C   UNL     1      44.147  50.272  12.012  1.00  0.00    -0.000 C 
BRANCH   8   9
ATOM      9  C   UNL     1      45.592  50.215  11.499  1.00  0.00    -0.003 C 
ATOM     10  C   UNL     1      46.318  51.533  11.754  1.00  0.00     0.004 C 
ENDBRANCH   8   9
ENDBRANCH   7   8
ENDBRANCH   1   7
TORSDOF 6
ENDMDL
MODEL 2
REMARK VINA RESULT:    -4.203      3.479      5.226
REMARK INTER + INTRA:          -5.895
REMARK INTER:                  -5.651
REMARK INTRA:                  -0.244
REMARK UNBOUND:                -0.218
REMARK SMILES CCCCCCCC(=O)[O-]
REMARK SMILES IDX 5 1 6 2 7 3 8 4 9 5 10 6 4 7 3 8 2 9 1 10
REMARK H PARENT
REMARK Flexibility Score: inf
ROOT
ATOM      1  C   UNL     1      42.179  49.988  13.278  1.00  0.00     0.000 C 
ENDROOT
BRANCH   1   2
ATOM      2  C   UNL     1      42.697  48.545  13.301  1.00  0.00     0.006 C 
BRANCH   2   3
ATOM      3  C   UNL     1      43.086  48.078  11.895  1.00  0.00     0.053 C 
BRANCH   3   4
ATOM      4  C   UNL     1      41.981  47.277  11.284  1.00  0.00     0.041 C 
ATOM      5  O   UNL     1      41.460  46.326  11.923  1.00  0.00    -0.550 OA
ATOM      6  O   UNL     1      41.561  47.548   9.988  1.00  0.00    -0.550 OA
ENDBRANCH   3   4
ENDBRANCH   2   3
ENDBRANCH   1   2
BRANCH   1   7
ATOM      7  C   UNL     1      41.920  50.501  14.703  1.00  0.00     0.000 C 
BRANCH   7   8
ATOM      8  C   UNL     1      40.600  51.282  14.820  1.00  0.00    -0.000 C 
BRANCH   8   9
ATOM      9  C   UNL     1      39.625  50.970  13.676  1.00  0.00    -0.003 C 
ATOM     10  C   UNL     1      38.537  52.035  13.576  1.00  0.00     0.004 C 
ENDBRANCH   8   9
ENDBRANCH   7   8
ENDBRANCH   1   7
TORSDOF 6
ENDMDL
MODEL 3
REMARK VINA RESULT:    -4.175     13.389     14.740
REMARK INTER + INTRA:          -5.858
REMARK INTER:                  -5.560
REMARK INTRA:                  -0.298
REMARK UNBOUND:                -0.218
REMARK SMILES CCCCCCCC(=O)[O-]
REMARK SMILES IDX 5 1 6 2 7 3 8 4 9 5 10 6 4 7 3 8 2 9 1 10
REMARK H PARENT
REMARK Flexibility Score: inf
ROOT
ATOM      1  C   UNL     1      45.167  38.573  20.085  1.00  0.00     0.000 C 
ENDROOT
BRANCH   1   2
ATOM      2  C   UNL     1      46.167  39.728  19.964  1.00  0.00     0.006 C 
BRANCH   2   3
ATOM      3  C   UNL     1      46.444  40.065  18.496  1.00  0.00     0.053 C 
BRANCH   3   4
ATOM      4  C   UNL     1      47.917  40.096  18.234  1.00  0.00     0.041 C 
ATOM      5  O   UNL     1      48.416  39.369  17.336  1.00  0.00    -0.550 OA
ATOM      6  O   UNL     1      48.744  40.891  19.016  1.00  0.00    -0.550 OA
ENDBRANCH   3   4
ENDBRANCH   2   3
ENDBRANCH   1   2
BRANCH   1   7
ATOM      7  C   UNL     1      45.421  37.510  19.005  1.00  0.00     0.000 C 
BRANCH   7   8
ATOM      8  C   UNL     1      45.343  36.077  19.555  1.00  0.00    -0.000 C 
BRANCH   8   9
ATOM      9  C   UNL     1      46.478  35.182  19.035  1.00  0.00    -0.003 C 
ATOM     10  C   UNL     1      46.899  35.591  17.627  1.00  0.00     0.004 C 
ENDBRANCH   8   9
ENDBRANCH   7   8
ENDBRANCH   1   7
TORSDOF 6
ENDMDL
MODEL 4
REMARK VINA RESULT:    -4.156      1.844      3.504
REMARK INTER + INTRA:          -5.832
REMARK INTER:                  -5.369
REMARK INTRA:                  -0.463
REMARK UNBOUND:                -0.218
REMARK SMILES CCCCCCCC(=O)[O-]
REMARK SMILES IDX 5 1 6 2 7 3 8 4 9 5 10 6 4 7 3 8 2 9 1 10
REMARK H PARENT
REMARK Flexibility Score: inf
ROOT
ATOM      1  C   UNL     1      42.449  49.668  12.009  1.00  0.00     0.000 C 
ENDROOT
BRANCH   1   2
ATOM      2  C   UNL     1      41.668  49.910  13.306  1.00  0.00     0.006 C 
BRANCH   2   3
ATOM      3  C   UNL     1      40.232  50.353  13.009  1.00  0.00     0.053 C 
BRANCH   3   4
ATOM      4  C   UNL     1      39.734  51.268  14.082  1.00  0.00     0.041 C 
ATOM      5  O   UNL     1      40.355  51.364  15.173  1.00  0.00    -0.550 OA
ATOM      6  O   UNL     1      38.554  51.978  13.898  1.00  0.00    -0.550 OA
ENDBRANCH   3   4
ENDBRANCH   2   3
ENDBRANCH   1   2
BRANCH   1   7
ATOM      7  C   UNL     1      43.180  48.318  12.051  1.00  0.00     0.000 C 
BRANCH   7   8
ATOM      8  C   UNL     1      42.299  47.185  12.603  1.00  0.00    -0.000 C 
BRANCH   8   9
ATOM      9  C   UNL     1      41.326  46.628  11.554  1.00  0.00    -0.003 C 
ATOM     10  C   UNL     1      39.893  46.634  12.077  1.00  0.00     0.004 C 
ENDBRANCH   8   9
ENDBRANCH   7   8
ENDBRANCH   1   7
TORSDOF 6
ENDMDL
MODEL 5
REMARK VINA RESULT:    -4.148     13.885     15.030
REMARK INTER + INTRA:          -5.821
REMARK INTER:                  -5.407
REMARK INTRA:                  -0.413
REMARK UNBOUND:                -0.218
REMARK SMILES CCCCCCCC(=O)[O-]
REMARK SMILES IDX 5 1 6 2 7 3 8 4 9 5 10 6 4 7 3 8 2 9 1 10
REMARK H PARENT
REMARK Flexibility Score: inf
ROOT
ATOM      1  C   UNL     1      45.082  38.420  20.356  1.00  0.00     0.000 C 
ENDROOT
BRANCH   1   2
ATOM      2  C   UNL     1      45.038  36.947  19.936  1.00  0.00     0.006 C 
BRANCH   2   3
ATOM      3  C   UNL     1      45.455  36.779  18.472  1.00  0.00     0.053 C 
BRANCH   3   4
ATOM      4  C   UNL     1      46.482  35.700  18.339  1.00  0.00     0.041 C 
ATOM      5  O   UNL     1      47.100  35.543  17.254  1.00  0.00    -0.550 OA
ATOM      6  O   UNL     1      46.721  34.834  19.399  1.00  0.00    -0.550 OA
ENDBRANCH   3   4
ENDBRANCH   2   3
ENDBRANCH   1   2
BRANCH   1   7
ATOM      7  C   UNL     1      45.739  39.283  19.268  1.00  0.00     0.000 C 
BRANCH   7   8
ATOM      8  C   UNL     1      46.797  40.245  19.833  1.00  0.00    -0.000 C 
BRANCH   8   9
ATOM      9  C   UNL     1      47.886  40.593  18.809  1.00  0.00    -0.003 C 
ATOM     10  C   UNL     1      48.040  39.485  17.772  1.00  0.00     0.004 C 
ENDBRANCH   8   9
ENDBRANCH   7   8
ENDBRANCH   1   7
TORSDOF 6
ENDMDL
MODEL 6
REMARK VINA RESULT:    -4.057      2.013      3.407
REMARK INTER + INTRA:          -5.699
REMARK INTER:                  -5.327
REMARK INTRA:                  -0.372
REMARK UNBOUND:                -0.218
REMARK SMILES CCCCCCCC(=O)[O-]
REMARK SMILES IDX 5 1 6 2 7 3 8 4 9 5 10 6 4 7 3 8 2 9 1 10
REMARK H PARENT
REMARK Flexibility Score: inf
ROOT
ATOM      1  C   UNL     1      45.232  50.640  11.768  1.00  0.00     0.000 C 
ENDROOT
BRANCH   1   2
ATOM      2  C   UNL     1      43.824  50.148  11.411  1.00  0.00     0.006 C 
BRANCH   2   3
ATOM      3  C   UNL     1      43.293  49.180  12.473  1.00  0.00     0.053 C 
BRANCH   3   4
ATOM      4  C   UNL     1      42.191  49.817  13.259  1.00  0.00     0.041 C 
ATOM      5  O   UNL     1      42.434  50.351  14.372  1.00  0.00    -0.550 OA
ATOM      6  O   UNL     1      40.886  49.776  12.784  1.00  0.00    -0.550 OA
ENDBRANCH   3   4
ENDBRANCH   2   3
ENDBRANCH   1   2
BRANCH   1   7
ATOM      7  C   UNL     1      46.095  50.800  10.508  1.00  0.00     0.000 C 
BRANCH   7   8
ATOM      8  C   UNL     1      47.475  50.137  10.646  1.00  0.00    -0.000 C 
BRANCH   8   9
ATOM      9  C   UNL     1      47.393  48.604  10.685  1.00  0.00    -0.003 C 
ATOM     10  C   UNL     1      46.688  48.060   9.446  1.00  0.00     0.004 C 
ENDBRANCH   8   9
ENDBRANCH   7   8
ENDBRANCH   1   7
TORSDOF 6
ENDMDL
MODEL 7
REMARK VINA RESULT:    -4.026     13.056     14.218
REMARK INTER + INTRA:          -5.657
REMARK INTER:                  -5.326
REMARK INTRA:                  -0.331
REMARK UNBOUND:                -0.218
REMARK SMILES CCCCCCCC(=O)[O-]
REMARK SMILES IDX 5 1 6 2 7 3 8 4 9 5 10 6 4 7 3 8 2 9 1 10
REMARK H PARENT
REMARK Flexibility Score: inf
ROOT
ATOM      1  C   UNL     1      47.122  40.746  20.989  1.00  0.00     0.000 C 
ENDROOT
BRANCH   1   2
ATOM      2  C   UNL     1      48.112  41.410  21.953  1.00  0.00     0.006 C 
BRANCH   2   3
ATOM      3  C   UNL     1      49.553  41.251  21.457  1.00  0.00     0.053 C 
BRANCH   3   4
ATOM      4  C   UNL     1      50.288  42.550  21.555  1.00  0.00     0.041 C 
ATOM      5  O   UNL     1      49.857  43.568  20.953  1.00  0.00    -0.550 OA
ATOM      6  O   UNL     1      51.476  42.624  22.270  1.00  0.00    -0.550 OA
ENDBRANCH   3   4
ENDBRANCH   2   3
ENDBRANCH   1   2
BRANCH   1   7
ATOM      7  C   UNL     1      47.613  40.853  19.537  1.00  0.00     0.000 C 
BRANCH   7   8
ATOM      8  C   UNL     1      46.834  39.936  18.580  1.00  0.00    -0.000 C 
BRANCH   8   9
ATOM      9  C   UNL     1      45.717  39.155  19.287  1.00  0.00    -0.003 C 
ATOM     10  C   UNL     1      45.742  37.681  18.892  1.00  0.00     0.004 C 
ENDBRANCH   8   9
ENDBRANCH   7   8
ENDBRANCH   1   7
TORSDOF 6
ENDMDL
MODEL 8
REMARK VINA RESULT:    -4.008      2.459      3.918
REMARK INTER + INTRA:          -5.632
REMARK INTER:                  -5.165
REMARK INTRA:                  -0.467
REMARK UNBOUND:                -0.218
REMARK SMILES CCCCCCCC(=O)[O-]
REMARK SMILES IDX 5 1 6 2 7 3 8 4 9 5 10 6 4 7 3 8 2 9 1 10
REMARK H PARENT
REMARK Flexibility Score: inf
ROOT
ATOM      1  C   UNL     1      45.622  50.597  11.741  1.00  0.00     0.000 C 
ENDROOT
BRANCH   1   2
ATOM      2  C   UNL     1      44.123  50.323  11.580  1.00  0.00     0.006 C 
BRANCH   2   3
ATOM      3  C   UNL     1      43.807  48.840  11.800  1.00  0.00     0.053 C 
BRANCH   3   4
ATOM      4  C   UNL     1      42.747  48.679  12.843  1.00  0.00     0.041 C 
ATOM      5  O   UNL     1      42.123  47.591  12.949  1.00  0.00    -0.550 OA
ATOM      6  O   UNL     1      42.413  49.748  13.665  1.00  0.00    -0.550 OA
ENDBRANCH   3   4
ENDBRANCH   2   3
ENDBRANCH   1   2
BRANCH   1   7
ATOM      7  C   UNL     1      46.298  50.773  10.373  1.00  0.00     0.000 C 
BRANCH   7   8
ATOM      8  C   UNL     1      47.615  49.988  10.257  1.00  0.00    -0.000 C 
BRANCH   8   9
ATOM      9  C   UNL     1      47.465  48.518  10.673  1.00  0.00    -0.003 C 
ATOM     10  C   UNL     1      46.752  47.712   9.592  1.00  0.00     0.004 C 
ENDBRANCH   8   9
ENDBRANCH   7   8
ENDBRANCH   1   7
TORSDOF 6
ENDMDL
MODEL 9
REMARK VINA RESULT:    -3.997      3.015      5.159
REMARK INTER + INTRA:          -5.618
REMARK INTER:                  -5.342
REMARK INTRA:                  -0.275
REMARK UNBOUND:                -0.218
REMARK SMILES CCCCCCCC(=O)[O-]
REMARK SMILES IDX 5 1 6 2 7 3 8 4 9 5 10 6 4 7 3 8 2 9 1 10
REMARK H PARENT
REMARK Flexibility Score: inf
ROOT
ATOM      1  C   UNL     1      42.078  49.888  12.853  1.00  0.00     0.000 C 
ENDROOT
BRANCH   1   2
ATOM      2  C   UNL     1      43.108  48.772  12.644  1.00  0.00     0.006 C 
BRANCH   2   3
ATOM      3  C   UNL     1      43.840  48.942  11.309  1.00  0.00     0.053 C 
BRANCH   3   4
ATOM      4  C   UNL     1      44.436  50.311  11.208  1.00  0.00     0.041 C 
ATOM      5  O   UNL     1      44.099  51.081  10.272  1.00  0.00    -0.550 OA
ATOM      6  O   UNL     1      45.403  50.716  12.120  1.00  0.00    -0.550 OA
ENDBRANCH   3   4
ENDBRANCH   2   3
ENDBRANCH   1   2
BRANCH   1   7
ATOM      7  C   UNL     1      41.991  50.285  14.335  1.00  0.00     0.000 C 
BRANCH   7   8
ATOM      8  C   UNL     1      40.729  51.102  14.656  1.00  0.00    -0.000 C 
BRANCH   8   9
ATOM      9  C   UNL     1      39.639  50.952  13.585  1.00  0.00    -0.003 C 
ATOM     10  C   UNL     1      38.664  52.125  13.627  1.00  0.00     0.004 C 
ENDBRANCH   8   9
ENDBRANCH   7   8
ENDBRANCH   1   7
TORSDOF 6
ENDMDL
