MODEL 1
REMARK VINA RESULT:    -3.834      0.000      0.000
REMARK INTER + INTRA:          -5.406
REMARK INTER:                  -4.955
REMARK INTRA:                  -0.451
REMARK UNBOUND:                -0.451
REMARK SMILES CCO[C@@H]1O[C@@H](CO)[C@@H](O)[C@H](O)[C@@H]1O
REMARK SMILES IDX 4 1 13 2 11 3 9 4 6 5 5 6 3 7 2 8 1 9 14 10 12 12 7 14 8 15
REMARK SMILES IDX 10 17
REMARK H PARENT 14 11 12 13 8 16 10 18
REMARK Flexibility Score: inf
ROOT
ATOM      1  C   UNL     1       8.015   2.928   2.138  1.00  0.00     0.281 C 
ATOM      2  C   UNL     1       7.592   3.988   1.094  1.00  0.00     0.202 C 
ATOM      3  C   UNL     1       7.768   5.425   1.635  1.00  0.00     0.179 C 
ATOM      4  C   UNL     1       9.163   5.591   2.270  1.00  0.00     0.177 C 
ATOM      5  C   UNL     1       9.460   4.418   3.242  1.00  0.00     0.178 C 
ATOM      6  O   UNL     1       9.345   3.164   2.583  1.00  0.00    -0.341 OA
ENDROOT
BRANCH   1   7
ATOM      7  O   UNL     1       7.104   2.901   3.227  1.00  0.00    -0.350 OA
BRANCH   7   8
ATOM      8  C   UNL     1       6.650   1.584   3.482  1.00  0.00     0.160 C 
ATOM      9  C   UNL     1       5.174   1.461   3.128  1.00  0.00     0.035 C 
ENDBRANCH   7   8
ENDBRANCH   1   7
BRANCH   2  10
ATOM     10  O   UNL     1       6.285   3.765   0.622  1.00  0.00    -0.385 OA
ATOM     11  H   UNL     1       5.882   4.642   0.395  1.00  0.00     0.211 HD
ENDBRANCH   2  10
BRANCH   3  12
ATOM     12  O   UNL     1       6.789   5.712   2.603  1.00  0.00    -0.387 OA
ATOM     13  H   UNL     1       6.068   5.037   2.501  1.00  0.00     0.211 HD
ENDBRANCH   3  12
BRANCH   5  14
ATOM     14  C   UNL     1      10.869   4.540   3.840  1.00  0.00     0.191 C 
BRANCH  14  15
ATOM     15  O   UNL     1      11.823   4.024   2.952  1.00  0.00    -0.394 OA
ATOM     16  H   UNL     1      12.691   4.443   3.192  1.00  0.00     0.210 HD
ENDBRANCH  14  15
ENDBRANCH   5  14
BRANCH   4  17
ATOM     17  O   UNL     1      10.153   5.721   1.277  1.00  0.00    -0.387 OA
ATOM     18  H   UNL     1       9.905   6.478   0.686  1.00  0.00     0.211 HD
ENDBRANCH   4  17
TORSDOF 7
ENDMDL
MODEL 2
REMARK VINA RESULT:    -3.556      1.345      4.274
REMARK INTER + INTRA:          -5.046
REMARK INTER:                  -4.605
REMARK INTRA:                  -0.441
REMARK UNBOUND:                -0.451
REMARK SMILES CCO[C@@H]1O[C@@H](CO)[C@@H](O)[C@H](O)[C@@H]1O
REMARK SMILES IDX 4 1 13 2 11 3 9 4 6 5 5 6 3 7 2 8 1 9 14 10 12 12 7 14 8 15
REMARK SMILES IDX 10 17
REMARK H PARENT 14 11 12 13 8 16 10 18
REMARK Flexibility Score: inf
ROOT
ATOM      1  C   UNL     1       8.795   4.377   3.322  1.00  0.00     0.281 C 
ATOM      2  C   UNL     1       8.201   5.091   2.085  1.00  0.00     0.202 C 
ATOM      3  C   UNL     1       7.529   4.092   1.117  1.00  0.00     0.179 C 
ATOM      4  C   UNL     1       6.591   3.145   1.891  1.00  0.00     0.177 C 
ATOM      5  C   UNL     1       7.313   2.562   3.133  1.00  0.00     0.178 C 
ATOM      6  O   UNL     1       7.802   3.596   3.977  1.00  0.00    -0.341 OA
ENDROOT
BRANCH   1   7
ATOM      7  O   UNL     1       9.916   3.584   2.957  1.00  0.00    -0.350 OA
BRANCH   7   8
ATOM      8  C   UNL     1      10.982   3.754   3.874  1.00  0.00     0.160 C 
ATOM      9  C   UNL     1      12.057   4.646   3.268  1.00  0.00     0.035 C 
ENDBRANCH   7   8
ENDBRANCH   1   7
BRANCH   2  10
ATOM     10  O   UNL     1       9.160   5.887   1.431  1.00  0.00    -0.385 OA
ATOM     11  H   UNL     1       9.078   5.735   0.454  1.00  0.00     0.211 HD
ENDBRANCH   2  10
BRANCH   3  12
ATOM     12  O   UNL     1       8.498   3.326   0.445  1.00  0.00    -0.387 OA
ATOM     13  H   UNL     1       8.952   3.928  -0.202  1.00  0.00     0.211 HD
ENDBRANCH   3  12
BRANCH   5  14
ATOM     14  C   UNL     1       6.373   1.659   3.946  1.00  0.00     0.191 C 
BRANCH  14  15
ATOM     15  O   UNL     1       5.469   1.006   3.096  1.00  0.00    -0.394 OA
ATOM     16  H   UNL     1       4.887   1.709   2.705  1.00  0.00     0.210 HD
ENDBRANCH  14  15
ENDBRANCH   5  14
BRANCH   4  17
ATOM     17  O   UNL     1       5.390   3.798   2.232  1.00  0.00    -0.387 OA
ATOM     18  H   UNL     1       4.921   3.253   2.914  1.00  0.00     0.211 HD
ENDBRANCH   4  17
TORSDOF 7
ENDMDL
MODEL 3
REMARK VINA RESULT:    -3.484      1.723      3.053
REMARK INTER + INTRA:          -4.954
REMARK INTER:                  -4.489
REMARK INTRA:                  -0.465
REMARK UNBOUND:                -0.451
REMARK SMILES CCO[C@@H]1O[C@@H](CO)[C@@H](O)[C@H](O)[C@@H]1O
REMARK SMILES IDX 4 1 13 2 11 3 9 4 6 5 5 6 3 7 2 8 1 9 14 10 12 12 7 14 8 15
REMARK SMILES IDX 10 17
REMARK H PARENT 14 11 12 13 8 16 10 18
REMARK Flexibility Score: inf
ROOT
ATOM      1  C   UNL     1       6.641   3.744   2.761  1.00  0.00     0.281 C 
ATOM      2  C   UNL     1       8.111   3.277   2.648  1.00  0.00     0.202 C 
ATOM      3  C   UNL     1       8.906   4.133   1.636  1.00  0.00     0.179 C 
ATOM      4  C   UNL     1       8.671   5.632   1.903  1.00  0.00     0.177 C 
ATOM      5  C   UNL     1       7.155   5.926   2.053  1.00  0.00     0.178 C 
ATOM      6  O   UNL     1       6.577   5.130   3.078  1.00  0.00    -0.341 OA
ENDROOT
BRANCH   1   7
ATOM      7  O   UNL     1       5.926   3.455   1.568  1.00  0.00    -0.350 OA
BRANCH   7   8
ATOM      8  C   UNL     1       4.621   2.987   1.855  1.00  0.00     0.160 C 
ATOM      9  C   UNL     1       4.685   1.838   2.854  1.00  0.00     0.035 C 
ENDBRANCH   7   8
ENDBRANCH   1   7
BRANCH   2  10
ATOM     10  O   UNL     1       8.202   1.904   2.354  1.00  0.00    -0.385 OA
ATOM     11  H   UNL     1       8.098   1.786   1.375  1.00  0.00     0.211 HD
ENDBRANCH   2  10
BRANCH   3  12
ATOM     12  O   UNL     1       8.512   3.836   0.319  1.00  0.00    -0.387 OA
ATOM     13  H   UNL     1       8.269   2.873   0.295  1.00  0.00     0.211 HD
ENDBRANCH   3  12
BRANCH   5  14
ATOM     14  C   UNL     1       6.909   7.407   2.374  1.00  0.00     0.191 C 
BRANCH  14  15
ATOM     15  O   UNL     1       7.839   8.214   1.702  1.00  0.00    -0.394 OA
ATOM     16  H   UNL     1       8.035   7.763   0.840  1.00  0.00     0.210 HD
ENDBRANCH  14  15
ENDBRANCH   5  14
BRANCH   4  17
ATOM     17  O   UNL     1       9.410   6.064   3.022  1.00  0.00    -0.387 OA
ATOM     18  H   UNL     1       8.795   6.125   3.797  1.00  0.00     0.211 HD
ENDBRANCH   4  17
TORSDOF 7
ENDMDL
MODEL 4
REMARK VINA RESULT:    -3.330      1.365      4.436
REMARK INTER + INTRA:          -4.755
REMARK INTER:                  -4.379
REMARK INTRA:                  -0.376
REMARK UNBOUND:                -0.451
REMARK SMILES CCO[C@@H]1O[C@@H](CO)[C@@H](O)[C@H](O)[C@@H]1O
REMARK SMILES IDX 4 1 13 2 11 3 9 4 6 5 5 6 3 7 2 8 1 9 14 10 12 12 7 14 8 15
REMARK SMILES IDX 10 17
REMARK H PARENT 14 11 12 13 8 16 10 18
REMARK Flexibility Score: inf
ROOT
ATOM      1  C   UNL     1      10.300   4.770   3.901  1.00  0.00     0.281 C 
ATOM      2  C   UNL     1       9.846   6.120   3.298  1.00  0.00     0.202 C 
ATOM      3  C   UNL     1       9.253   5.943   1.882  1.00  0.00     0.179 C 
ATOM      4  C   UNL     1       8.222   4.797   1.874  1.00  0.00     0.177 C 
ATOM      5  C   UNL     1       8.806   3.538   2.568  1.00  0.00     0.178 C 
ATOM      6  O   UNL     1       9.230   3.832   3.892  1.00  0.00    -0.341 OA
ENDROOT
BRANCH   1   7
ATOM      7  O   UNL     1      11.434   4.264   3.211  1.00  0.00    -0.350 OA
BRANCH   7   8
ATOM      8  C   UNL     1      12.193   3.402   4.039  1.00  0.00     0.160 C 
ATOM      9  C   UNL     1      13.654   3.833   4.045  1.00  0.00     0.035 C 
ENDBRANCH   7   8
ENDBRANCH   1   7
BRANCH   2  10
ATOM     10  O   UNL     1      10.882   7.073   3.313  1.00  0.00    -0.385 OA
ATOM     11  H   UNL     1      11.748   6.593   3.372  1.00  0.00     0.211 HD
ENDBRANCH   2  10
BRANCH   3  12
ATOM     12  O   UNL     1      10.267   5.652   0.952  1.00  0.00    -0.387 OA
ATOM     13  H   UNL     1      10.067   4.756   0.571  1.00  0.00     0.211 HD
ENDBRANCH   3  12
BRANCH   5  14
ATOM     14  C   UNL     1       7.771   2.404   2.617  1.00  0.00     0.191 C 
BRANCH  14  15
ATOM     15  O   UNL     1       6.961   2.531   3.755  1.00  0.00    -0.394 OA
ATOM     16  H   UNL     1       6.206   1.896   3.638  1.00  0.00     0.210 HD
ENDBRANCH  14  15
ENDBRANCH   5  14
BRANCH   4  17
ATOM     17  O   UNL     1       7.008   5.210   2.456  1.00  0.00    -0.387 OA
ATOM     18  H   UNL     1       6.263   4.858   1.906  1.00  0.00     0.211 HD
ENDBRANCH   4  17
TORSDOF 7
ENDMDL
MODEL 5
REMARK VINA RESULT:    -3.328      8.426     10.995
REMARK INTER + INTRA:          -4.752
REMARK INTER:                  -4.456
REMARK INTRA:                  -0.296
REMARK UNBOUND:                -0.451
REMARK SMILES CCO[C@@H]1O[C@@H](CO)[C@@H](O)[C@H](O)[C@@H]1O
REMARK SMILES IDX 4 1 13 2 11 3 9 4 6 5 5 6 3 7 2 8 1 9 14 10 12 12 7 14 8 15
REMARK SMILES IDX 10 17
REMARK H PARENT 14 11 12 13 8 16 10 18
REMARK Flexibility Score: inf
ROOT
ATOM      1  C   UNL     1      17.378   8.034   0.798  1.00  0.00     0.281 C 
ATOM      2  C   UNL     1      18.106   9.233   1.452  1.00  0.00     0.202 C 
ATOM      3  C   UNL     1      19.204   8.767   2.434  1.00  0.00     0.179 C 
ATOM      4  C   UNL     1      20.090   7.692   1.776  1.00  0.00     0.177 C 
ATOM      5  C   UNL     1      19.212   6.597   1.113  1.00  0.00     0.178 C 
ATOM      6  O   UNL     1      18.312   7.162   0.170  1.00  0.00    -0.341 OA
ENDROOT
BRANCH   1   7
ATOM      7  O   UNL     1      16.587   7.341   1.752  1.00  0.00    -0.350 OA
BRANCH   7   8
ATOM      8  C   UNL     1      15.206   7.503   1.485  1.00  0.00     0.160 C 
ATOM      9  C   UNL     1      14.383   6.668   2.459  1.00  0.00     0.035 C 
ENDBRANCH   7   8
ENDBRANCH   1   7
BRANCH   2  10
ATOM     10  O   UNL     1      17.202  10.122   2.063  1.00  0.00    -0.385 OA
ATOM     11  H   UNL     1      17.542  11.045   1.940  1.00  0.00     0.211 HD
ENDBRANCH   2  10
BRANCH   3  12
ATOM     12  O   UNL     1      18.630   8.234   3.602  1.00  0.00    -0.387 OA
ATOM     13  H   UNL     1      18.422   8.999   4.202  1.00  0.00     0.211 HD
ENDBRANCH   3  12
BRANCH   5  14
ATOM     14  C   UNL     1      20.080   5.547   0.405  1.00  0.00     0.191 C 
BRANCH  14  15
ATOM     15  O   UNL     1      21.385   5.566   0.918  1.00  0.00    -0.394 OA
ATOM     16  H   UNL     1      21.997   5.615   0.137  1.00  0.00     0.210 HD
ENDBRANCH  14  15
ENDBRANCH   5  14
BRANCH   4  17
ATOM     17  O   UNL     1      20.992   8.274   0.864  1.00  0.00    -0.387 OA
ATOM     18  H   UNL     1      21.815   8.523   1.356  1.00  0.00     0.211 HD
ENDBRANCH   4  17
TORSDOF 7
ENDMDL
MODEL 6
REMARK VINA RESULT:    -3.315      7.477     10.361
REMARK INTER + INTRA:          -4.735
REMARK INTER:                  -4.376
REMARK INTRA:                  -0.360
REMARK UNBOUND:                -0.451
REMARK SMILES CCO[C@@H]1O[C@@H](CO)[C@@H](O)[C@H](O)[C@@H]1O
REMARK SMILES IDX 4 1 13 2 11 3 9 4 6 5 5 6 3 7 2 8 1 9 14 10 12 12 7 14 8 15
REMARK SMILES IDX 10 17
REMARK H PARENT 14 11 12 13 8 16 10 18
REMARK Flexibility Score: inf
ROOT
ATOM      1  C   UNL     1      17.961   8.011   1.980  1.00  0.00     0.281 C 
ATOM      2  C   UNL     1      17.670   9.428   1.430  1.00  0.00     0.202 C 
ATOM      3  C   UNL     1      16.438   9.436   0.497  1.00  0.00     0.179 C 
ATOM      4  C   UNL     1      15.262   8.691   1.157  1.00  0.00     0.177 C 
ATOM      5  C   UNL     1      15.730   7.319   1.711  1.00  0.00     0.178 C 
ATOM      6  O   UNL     1      16.810   7.475   2.622  1.00  0.00    -0.341 OA
ENDROOT
BRANCH   1   7
ATOM      7  O   UNL     1      18.420   7.153   0.945  1.00  0.00    -0.350 OA
BRANCH   7   8
ATOM      8  C   UNL     1      19.738   6.702   1.203  1.00  0.00     0.160 C 
ATOM      9  C   UNL     1      20.060   5.499   0.326  1.00  0.00     0.035 C 
ENDBRANCH   7   8
ENDBRANCH   1   7
BRANCH   2  10
ATOM     10  O   UNL     1      18.800   9.989   0.807  1.00  0.00    -0.385 OA
ATOM     11  H   UNL     1      18.498  10.731   0.223  1.00  0.00     0.211 HD
ENDBRANCH   2  10
BRANCH   3  12
ATOM     12  O   UNL     1      16.741   8.817  -0.728  1.00  0.00    -0.387 OA
ATOM     13  H   UNL     1      16.035   9.084  -1.374  1.00  0.00     0.211 HD
ENDBRANCH   3  12
BRANCH   5  14
ATOM     14  C   UNL     1      14.581   6.589   2.421  1.00  0.00     0.191 C 
BRANCH  14  15
ATOM     15  O   UNL     1      13.365   6.843   1.770  1.00  0.00    -0.394 OA
ATOM     16  H   UNL     1      13.081   7.754   2.043  1.00  0.00     0.210 HD
ENDBRANCH  14  15
ENDBRANCH   5  14
BRANCH   4  17
ATOM     17  O   UNL     1      14.658   9.487   2.150  1.00  0.00    -0.387 OA
ATOM     18  H   UNL     1      14.976   9.176   3.036  1.00  0.00     0.211 HD
ENDBRANCH   4  17
TORSDOF 7
ENDMDL
MODEL 7
REMARK VINA RESULT:    -3.209      1.986      4.005
REMARK INTER + INTRA:          -4.598
REMARK INTER:                  -4.185
REMARK INTRA:                  -0.413
REMARK UNBOUND:                -0.451
REMARK SMILES CCO[C@@H]1O[C@@H](CO)[C@@H](O)[C@H](O)[C@@H]1O
REMARK SMILES IDX 4 1 13 2 11 3 9 4 6 5 5 6 3 7 2 8 1 9 14 10 12 12 7 14 8 15
REMARK SMILES IDX 10 17
REMARK H PARENT 14 11 12 13 8 16 10 18
REMARK Flexibility Score: inf
ROOT
ATOM      1  C   UNL     1       9.227   5.181   2.959  1.00  0.00     0.281 C 
ATOM      2  C   UNL     1      10.643   5.783   2.793  1.00  0.00     0.202 C 
ATOM      3  C   UNL     1      10.709   6.763   1.600  1.00  0.00     0.179 C 
ATOM      4  C   UNL     1       9.533   7.757   1.657  1.00  0.00     0.177 C 
ATOM      5  C   UNL     1       8.197   7.003   1.890  1.00  0.00     0.178 C 
ATOM      6  O   UNL     1       8.252   6.212   3.069  1.00  0.00    -0.341 OA
ENDROOT
BRANCH   1   7
ATOM      7  O   UNL     1       8.925   4.298   1.889  1.00  0.00    -0.350 OA
BRANCH   7   8
ATOM      8  C   UNL     1       8.621   3.000   2.368  1.00  0.00     0.160 C 
ATOM      9  C   UNL     1       7.136   2.898   2.695  1.00  0.00     0.035 C 
ENDBRANCH   7   8
ENDBRANCH   1   7
BRANCH   2  10
ATOM     10  O   UNL     1      11.629   4.783   2.703  1.00  0.00    -0.385 OA
ATOM     11  H   UNL     1      11.953   4.749   1.766  1.00  0.00     0.211 HD
ENDBRANCH   2  10
BRANCH   3  12
ATOM     12  O   UNL     1      10.657   6.063   0.381  1.00  0.00    -0.387 OA
ATOM     13  H   UNL     1       9.814   6.329  -0.074  1.00  0.00     0.211 HD
ENDBRANCH   3  12
BRANCH   5  14
ATOM     14  C   UNL     1       7.022   7.985   2.005  1.00  0.00     0.191 C 
BRANCH  14  15
ATOM     15  O   UNL     1       7.206   9.071   1.136  1.00  0.00    -0.394 OA
ATOM     16  H   UNL     1       8.183   9.146   0.978  1.00  0.00     0.210 HD
ENDBRANCH  14  15
ENDBRANCH   5  14
BRANCH   4  17
ATOM     17  O   UNL     1       9.761   8.748   2.632  1.00  0.00    -0.387 OA
ATOM     18  H   UNL     1      10.739   8.828   2.772  1.00  0.00     0.211 HD
ENDBRANCH   4  17
TORSDOF 7
ENDMDL
MODEL 8
REMARK VINA RESULT:    -3.202      1.956      4.698
REMARK INTER + INTRA:          -4.589
REMARK INTER:                  -4.473
REMARK INTRA:                  -0.116
REMARK UNBOUND:                -0.451
REMARK SMILES CCO[C@@H]1O[C@@H](CO)[C@@H](O)[C@H](O)[C@@H]1O
REMARK SMILES IDX 4 1 13 2 11 3 9 4 6 5 5 6 3 7 2 8 1 9 14 10 12 12 7 14 8 15
REMARK SMILES IDX 10 17
REMARK H PARENT 14 11 12 13 8 16 10 18
REMARK Flexibility Score: inf
ROOT
ATOM      1  C   UNL     1       7.218   3.140   3.395  1.00  0.00     0.281 C 
ATOM      2  C   UNL     1       5.800   3.755   3.315  1.00  0.00     0.202 C 
ATOM      3  C   UNL     1       4.845   2.881   2.473  1.00  0.00     0.179 C 
ATOM      4  C   UNL     1       4.939   1.407   2.916  1.00  0.00     0.177 C 
ATOM      5  C   UNL     1       6.422   0.962   3.008  1.00  0.00     0.178 C 
ATOM      6  O   UNL     1       7.158   1.805   3.884  1.00  0.00    -0.341 OA
ENDROOT
BRANCH   1   7
ATOM      7  O   UNL     1       7.866   3.198   2.133  1.00  0.00    -0.350 OA
BRANCH   7   8
ATOM      8  C   UNL     1       8.890   4.176   2.129  1.00  0.00     0.160 C 
ATOM      9  C   UNL     1       9.820   3.965   3.317  1.00  0.00     0.035 C 
ENDBRANCH   7   8
ENDBRANCH   1   7
BRANCH   2  10
ATOM     10  O   UNL     1       5.834   5.085   2.853  1.00  0.00    -0.385 OA
ATOM     11  H   UNL     1       5.412   5.664   3.539  1.00  0.00     0.211 HD
ENDBRANCH   2  10
BRANCH   3  12
ATOM     12  O   UNL     1       5.167   2.968   1.107  1.00  0.00    -0.387 OA
ATOM     13  H   UNL     1       6.036   3.445   1.040  1.00  0.00     0.211 HD
ENDBRANCH   3  12
BRANCH   5  14
ATOM     14  C   UNL     1       6.534  -0.488   3.501  1.00  0.00     0.191 C 
BRANCH  14  15
ATOM     15  O   UNL     1       7.387  -1.224   2.665  1.00  0.00    -0.394 OA
ATOM     16  H   UNL     1       7.870  -1.867   3.248  1.00  0.00     0.210 HD
ENDBRANCH  14  15
ENDBRANCH   5  14
BRANCH   4  17
ATOM     17  O   UNL     1       4.246   1.202   4.125  1.00  0.00    -0.387 OA
ATOM     18  H   UNL     1       4.224   0.229   4.311  1.00  0.00     0.211 HD
ENDBRANCH   4  17
TORSDOF 7
ENDMDL
MODEL 9
REMARK VINA RESULT:    -3.144      3.043      3.890
REMARK INTER + INTRA:          -4.515
REMARK INTER:                  -4.077
REMARK INTRA:                  -0.437
REMARK UNBOUND:                -0.451
REMARK SMILES CCO[C@@H]1O[C@@H](CO)[C@@H](O)[C@H](O)[C@@H]1O
REMARK SMILES IDX 4 1 13 2 11 3 9 4 6 5 5 6 3 7 2 8 1 9 14 10 12 12 7 14 8 15
REMARK SMILES IDX 10 17
REMARK H PARENT 14 11 12 13 8 16 10 18
REMARK Flexibility Score: inf
ROOT
ATOM      1  C   UNL     1       9.783   5.674   2.265  1.00  0.00     0.281 C 
ATOM      2  C   UNL     1      10.657   6.551   1.337  1.00  0.00     0.202 C 
ATOM      3  C   UNL     1      11.988   6.947   2.014  1.00  0.00     0.179 C 
ATOM      4  C   UNL     1      12.661   5.708   2.638  1.00  0.00     0.177 C 
ATOM      5  C   UNL     1      11.639   4.904   3.484  1.00  0.00     0.178 C 
ATOM      6  O   UNL     1      10.508   4.533   2.708  1.00  0.00    -0.341 OA
ENDROOT
BRANCH   1   7
ATOM      7  O   UNL     1       9.293   6.432   3.362  1.00  0.00    -0.350 OA
BRANCH   7   8
ATOM      8  C   UNL     1       7.981   6.032   3.714  1.00  0.00     0.160 C 
ATOM      9  C   UNL     1       6.997   6.453   2.630  1.00  0.00     0.035 C 
ENDBRANCH   7   8
ENDBRANCH   1   7
BRANCH   2  10
ATOM     10  O   UNL     1       9.955   7.677   0.868  1.00  0.00    -0.385 OA
ATOM     11  H   UNL     1       9.674   8.217   1.651  1.00  0.00     0.211 HD
ENDBRANCH   2  10
BRANCH   3  12
ATOM     12  O   UNL     1      11.766   7.902   3.022  1.00  0.00    -0.387 OA
ATOM     13  H   UNL     1      11.656   8.782   2.574  1.00  0.00     0.211 HD
ENDBRANCH   3  12
BRANCH   5  14
ATOM     14  C   UNL     1      12.281   3.637   4.067  1.00  0.00     0.191 C 
BRANCH  14  15
ATOM     15  O   UNL     1      13.675   3.777   4.125  1.00  0.00    -0.394 OA
ATOM     16  H   UNL     1      13.882   4.694   3.805  1.00  0.00     0.210 HD
ENDBRANCH  14  15
ENDBRANCH   5  14
BRANCH   4  17
ATOM     17  O   UNL     1      13.269   4.916   1.645  1.00  0.00    -0.387 OA
ATOM     18  H   UNL     1      12.608   4.248   1.329  1.00  0.00     0.211 HD
ENDBRANCH   4  17
TORSDOF 7
ENDMDL
