MODEL 1
REMARK VINA RESULT:    -6.362      0.000      0.000
REMARK INTER + INTRA:          -6.362
REMARK INTER:                  -6.362
REMARK INTRA:                   0.000
REMARK UNBOUND:                 0.000
REMARK SMILES C=C1CCC[C@]2(C)CC(=O)C(=C(C)C)C[C@H]12
REMARK SMILES IDX 13 1 12 2 11 3 15 4 16 5 2 6 1 7 3 8 4 9 5 10 6 11 8 12 9 13
REMARK SMILES IDX 10 14 7 15 14 16
REMARK H PARENT
REMARK Flexibility Score: inf
ROOT
ATOM      1  C   UNL     1      13.414  18.086  59.965  1.00  0.00     0.039 C 
ATOM      2  C   UNL     1      12.991  18.589  58.603  1.00  0.00    -0.070 C 
ATOM      3  C   UNL     1      11.682  18.861  58.329  1.00  0.00    -0.006 C 
ATOM      4  C   UNL     1      10.577  18.612  59.344  1.00  0.00     0.047 C 
ATOM      5  C   UNL     1       9.439  19.657  59.212  1.00  0.00     0.025 C 
ATOM      6  C   UNL     1       8.382  19.363  60.271  1.00  0.00    -0.073 C 
ATOM      7  C   UNL     1       8.499  19.887  61.502  1.00  0.00     0.008 C 
ATOM      8  C   UNL     1       7.240  18.414  59.991  1.00  0.00     0.031 C 
ATOM      9  C   UNL     1       7.187  17.995  58.522  1.00  0.00     0.005 C 
ATOM     10  C   UNL     1       7.396  19.213  57.623  1.00  0.00     0.008 C 
ATOM     11  C   UNL     1       8.841  19.792  57.742  1.00  0.00    -0.018 C 
ATOM     12  C   UNL     1       9.741  19.080  56.685  1.00  0.00     0.088 C 
ATOM     13  C   UNL     1      11.193  19.276  56.989  1.00  0.00     0.159 C 
ATOM     14  O   UNL     1      11.942  19.818  56.132  1.00  0.00    -0.295 OA
ATOM     15  C   UNL     1       8.772  21.295  57.369  1.00  0.00     0.012 C 
ATOM     16  C   UNL     1      14.072  18.738  57.558  1.00  0.00     0.039 C 
ENDROOT
TORSDOF 0
ENDMDL
MODEL 2
REMARK VINA RESULT:    -6.178     11.963     13.922
REMARK INTER + INTRA:          -6.178
REMARK INTER:                  -6.178
REMARK INTRA:                   0.000
REMARK UNBOUND:                 0.000
REMARK SMILES C=C1CCC[C@]2(C)CC(=O)C(=C(C)C)C[C@H]12
REMARK SMILES IDX 13 1 12 2 11 3 15 4 16 5 2 6 1 7 3 8 4 9 5 10 6 11 8 12 9 13
REMARK SMILES IDX 10 14 7 15 14 16
REMARK H PARENT
REMARK Flexibility Score: inf
ROOT
ATOM      1  C   UNL     1      17.986   7.630  54.874  1.00  0.00     0.039 C 
ATOM      2  C   UNL     1      17.032   8.580  54.186  1.00  0.00    -0.070 C 
ATOM      3  C   UNL     1      17.491   9.682  53.524  1.00  0.00    -0.006 C 
ATOM      4  C   UNL     1      18.966  10.051  53.498  1.00  0.00     0.047 C 
ATOM      5  C   UNL     1      19.359  10.725  52.158  1.00  0.00     0.025 C 
ATOM      6  C   UNL     1      20.850  11.044  52.191  1.00  0.00    -0.073 C 
ATOM      7  C   UNL     1      21.744  10.121  51.801  1.00  0.00     0.008 C 
ATOM      8  C   UNL     1      21.353  12.357  52.743  1.00  0.00     0.031 C 
ATOM      9  C   UNL     1      20.215  13.333  53.038  1.00  0.00     0.005 C 
ATOM     10  C   UNL     1      19.214  13.332  51.883  1.00  0.00     0.008 C 
ATOM     11  C   UNL     1      18.453  11.974  51.764  1.00  0.00    -0.018 C 
ATOM     12  C   UNL     1      17.167  12.056  52.643  1.00  0.00     0.088 C 
ATOM     13  C   UNL     1      16.600  10.696  52.903  1.00  0.00     0.159 C 
ATOM     14  O   UNL     1      15.417  10.437  52.555  1.00  0.00    -0.295 OA
ATOM     15  C   UNL     1      18.007  11.819  50.288  1.00  0.00     0.012 C 
ATOM     16  C   UNL     1      15.556   8.275  54.299  1.00  0.00     0.039 C 
ENDROOT
TORSDOF 0
ENDMDL
MODEL 3
REMARK VINA RESULT:    -5.941      2.006      3.584
REMARK INTER + INTRA:          -5.941
REMARK INTER:                  -5.941
REMARK INTRA:                   0.000
REMARK UNBOUND:                 0.000
REMARK SMILES C=C1CCC[C@]2(C)CC(=O)C(=C(C)C)C[C@H]12
REMARK SMILES IDX 13 1 12 2 11 3 15 4 16 5 2 6 1 7 3 8 4 9 5 10 6 11 8 12 9 13
REMARK SMILES IDX 10 14 7 15 14 16
REMARK H PARENT
REMARK Flexibility Score: inf
ROOT
ATOM      1  C   UNL     1      13.517  17.733  54.028  1.00  0.00     0.039 C 
ATOM      2  C   UNL     1      13.699  18.317  55.411  1.00  0.00    -0.070 C 
ATOM      3  C   UNL     1      12.624  18.690  56.165  1.00  0.00    -0.006 C 
ATOM      4  C   UNL     1      11.201  18.605  55.637  1.00  0.00     0.047 C 
ATOM      5  C   UNL     1      10.195  18.272  56.769  1.00  0.00     0.025 C 
ATOM      6  C   UNL     1       8.797  18.177  56.167  1.00  0.00    -0.073 C 
ATOM      7  C   UNL     1       8.360  17.014  55.659  1.00  0.00     0.008 C 
ATOM      8  C   UNL     1       7.916  19.399  56.048  1.00  0.00     0.031 C 
ATOM      9  C   UNL     1       8.509  20.610  56.768  1.00  0.00     0.005 C 
ATOM     10  C   UNL     1       9.042  20.192  58.139  1.00  0.00     0.008 C 
ATOM     11  C   UNL     1      10.278  19.246  58.027  1.00  0.00    -0.018 C 
ATOM     12  C   UNL     1      11.566  20.126  57.991  1.00  0.00     0.088 C 
ATOM     13  C   UNL     1      12.742  19.346  57.493  1.00  0.00     0.159 C 
ATOM     14  O   UNL     1      13.766  19.233  58.217  1.00  0.00    -0.295 OA
ATOM     15  C   UNL     1      10.326  18.389  59.317  1.00  0.00     0.012 C 
ATOM     16  C   UNL     1      15.118  18.501  55.899  1.00  0.00     0.039 C 
ENDROOT
TORSDOF 0
ENDMDL
MODEL 4
REMARK VINA RESULT:    -5.832     12.167     13.598
REMARK INTER + INTRA:          -5.832
REMARK INTER:                  -5.832
REMARK INTRA:                   0.000
REMARK UNBOUND:                 0.000
REMARK SMILES C=C1CCC[C@]2(C)CC(=O)C(=C(C)C)C[C@H]12
REMARK SMILES IDX 13 1 12 2 11 3 15 4 16 5 2 6 1 7 3 8 4 9 5 10 6 11 8 12 9 13
REMARK SMILES IDX 10 14 7 15 14 16
REMARK H PARENT
REMARK Flexibility Score: inf
ROOT
ATOM      1  C   UNL     1      19.833  13.566  52.586  1.00  0.00     0.039 C 
ATOM      2  C   UNL     1      20.342  12.227  53.070  1.00  0.00    -0.070 C 
ATOM      3  C   UNL     1      19.495  11.167  53.224  1.00  0.00    -0.006 C 
ATOM      4  C   UNL     1      17.999  11.289  52.985  1.00  0.00     0.047 C 
ATOM      5  C   UNL     1      17.405   9.973  52.420  1.00  0.00     0.025 C 
ATOM      6  C   UNL     1      15.912  10.173  52.182  1.00  0.00    -0.073 C 
ATOM      7  C   UNL     1      15.478  10.679  51.016  1.00  0.00     0.008 C 
ATOM      8  C   UNL     1      14.905   9.896  53.274  1.00  0.00     0.031 C 
ATOM      9  C   UNL     1      15.544   9.226  54.490  1.00  0.00     0.005 C 
ATOM     10  C   UNL     1      16.492   8.116  54.037  1.00  0.00     0.008 C 
ATOM     11  C   UNL     1      17.740   8.678  53.286  1.00  0.00    -0.018 C 
ATOM     12  C   UNL     1      18.858   8.959  54.337  1.00  0.00     0.088 C 
ATOM     13  C   UNL     1      19.918   9.853  53.775  1.00  0.00     0.159 C 
ATOM     14  O   UNL     1      21.114   9.458  53.745  1.00  0.00    -0.295 OA
ATOM     15  C   UNL     1      18.252   7.564  52.337  1.00  0.00     0.012 C 
ATOM     16  C   UNL     1      21.811  12.130  53.409  1.00  0.00     0.039 C 
ENDROOT
TORSDOF 0
ENDMDL
MODEL 5
REMARK VINA RESULT:    -5.714      5.648      8.206
REMARK INTER + INTRA:          -5.714
REMARK INTER:                  -5.714
REMARK INTRA:                   0.000
REMARK UNBOUND:                 0.000
REMARK SMILES C=C1CCC[C@]2(C)CC(=O)C(=C(C)C)C[C@H]12
REMARK SMILES IDX 13 1 12 2 11 3 15 4 16 5 2 6 1 7 3 8 4 9 5 10 6 11 8 12 9 13
REMARK SMILES IDX 10 14 7 15 14 16
REMARK H PARENT
REMARK Flexibility Score: inf
ROOT
ATOM      1  C   UNL     1       5.561  22.629  50.396  1.00  0.00     0.039 C 
ATOM      2  C   UNL     1       6.842  22.389  51.163  1.00  0.00    -0.070 C 
ATOM      3  C   UNL     1       7.063  22.990  52.368  1.00  0.00    -0.006 C 
ATOM      4  C   UNL     1       6.076  23.978  52.970  1.00  0.00     0.047 C 
ATOM      5  C   UNL     1       6.060  23.892  54.518  1.00  0.00     0.025 C 
ATOM      6  C   UNL     1       5.034  24.888  55.051  1.00  0.00    -0.073 C 
ATOM      7  C   UNL     1       3.748  24.526  55.180  1.00  0.00     0.008 C 
ATOM      8  C   UNL     1       5.422  26.316  55.357  1.00  0.00     0.031 C 
ATOM      9  C   UNL     1       6.931  26.536  55.266  1.00  0.00     0.005 C 
ATOM     10  C   UNL     1       7.668  25.388  55.956  1.00  0.00     0.008 C 
ATOM     11  C   UNL     1       7.493  24.035  55.197  1.00  0.00    -0.018 C 
ATOM     12  C   UNL     1       8.643  23.909  54.151  1.00  0.00     0.088 C 
ATOM     13  C   UNL     1       8.334  22.861  53.128  1.00  0.00     0.159 C 
ATOM     14  O   UNL     1       9.123  21.891  52.972  1.00  0.00    -0.295 OA
ATOM     15  C   UNL     1       7.669  22.896  56.233  1.00  0.00     0.012 C 
ATOM     16  C   UNL     1       7.872  21.489  50.520  1.00  0.00     0.039 C 
ENDROOT
TORSDOF 0
ENDMDL
MODEL 6
REMARK VINA RESULT:    -5.668      2.289      4.009
REMARK INTER + INTRA:          -5.668
REMARK INTER:                  -5.668
REMARK INTRA:                   0.000
REMARK UNBOUND:                 0.000
REMARK SMILES C=C1CCC[C@]2(C)CC(=O)C(=C(C)C)C[C@H]12
REMARK SMILES IDX 13 1 12 2 11 3 15 4 16 5 2 6 1 7 3 8 4 9 5 10 6 11 8 12 9 13
REMARK SMILES IDX 10 14 7 15 14 16
REMARK H PARENT
REMARK Flexibility Score: inf
ROOT
ATOM      1  C   UNL     1       8.790  15.780  54.903  1.00  0.00     0.039 C 
ATOM      2  C   UNL     1      10.223  16.256  54.807  1.00  0.00    -0.070 C 
ATOM      3  C   UNL     1      10.682  17.268  55.600  1.00  0.00    -0.006 C 
ATOM      4  C   UNL     1       9.774  18.012  56.565  1.00  0.00     0.047 C 
ATOM      5  C   UNL     1      10.541  18.456  57.838  1.00  0.00     0.025 C 
ATOM      6  C   UNL     1       9.568  19.172  58.769  1.00  0.00    -0.073 C 
ATOM      7  C   UNL     1       8.840  18.468  59.651  1.00  0.00     0.008 C 
ATOM      8  C   UNL     1       9.337  20.661  58.659  1.00  0.00     0.031 C 
ATOM      9  C   UNL     1      10.315  21.327  57.693  1.00  0.00     0.005 C 
ATOM     10  C   UNL     1      11.729  20.796  57.933  1.00  0.00     0.008 C 
ATOM     11  C   UNL     1      11.867  19.290  57.546  1.00  0.00    -0.018 C 
ATOM     12  C   UNL     1      12.283  19.207  56.045  1.00  0.00     0.088 C 
ATOM     13  C   UNL     1      12.052  17.835  55.493  1.00  0.00     0.159 C 
ATOM     14  O   UNL     1      13.017  17.192  55.001  1.00  0.00    -0.295 OA
ATOM     15  C   UNL     1      13.023  18.697  58.391  1.00  0.00     0.012 C 
ATOM     16  C   UNL     1      11.102  15.590  53.774  1.00  0.00     0.039 C 
ENDROOT
TORSDOF 0
ENDMDL
MODEL 7
REMARK VINA RESULT:    -5.635      1.786      3.891
REMARK INTER + INTRA:          -5.635
REMARK INTER:                  -5.635
REMARK INTRA:                   0.000
REMARK UNBOUND:                 0.000
REMARK SMILES C=C1CCC[C@]2(C)CC(=O)C(=C(C)C)C[C@H]12
REMARK SMILES IDX 13 1 12 2 11 3 15 4 16 5 2 6 1 7 3 8 4 9 5 10 6 11 8 12 9 13
REMARK SMILES IDX 10 14 7 15 14 16
REMARK H PARENT
REMARK Flexibility Score: inf
ROOT
ATOM      1  C   UNL     1      14.145  19.176  57.688  1.00  0.00     0.039 C 
ATOM      2  C   UNL     1      12.901  18.856  58.487  1.00  0.00    -0.070 C 
ATOM      3  C   UNL     1      11.675  19.304  58.087  1.00  0.00    -0.006 C 
ATOM      4  C   UNL     1      11.500  20.196  56.869  1.00  0.00     0.047 C 
ATOM      5  C   UNL     1      10.155  19.915  56.149  1.00  0.00     0.025 C 
ATOM      6  C   UNL     1      10.057  20.823  54.928  1.00  0.00    -0.073 C 
ATOM      7  C   UNL     1      10.580  20.433  53.754  1.00  0.00     0.008 C 
ATOM      8  C   UNL     1       9.457  22.206  55.032  1.00  0.00     0.031 C 
ATOM      9  C   UNL     1       8.812  22.454  56.395  1.00  0.00     0.005 C 
ATOM     10  C   UNL     1       7.985  21.237  56.810  1.00  0.00     0.008 C 
ATOM     11  C   UNL     1       8.877  19.988  57.097  1.00  0.00    -0.018 C 
ATOM     12  C   UNL     1       9.276  20.008  58.604  1.00  0.00     0.088 C 
ATOM     13  C   UNL     1      10.430  19.094  58.872  1.00  0.00     0.159 C 
ATOM     14  O   UNL     1      10.305  18.161  59.709  1.00  0.00    -0.295 OA
ATOM     15  C   UNL     1       8.006  18.729  56.855  1.00  0.00     0.012 C 
ATOM     16  C   UNL     1      13.084  18.057  59.756  1.00  0.00     0.039 C 
ENDROOT
TORSDOF 0
ENDMDL
MODEL 8
REMARK VINA RESULT:    -5.558      5.438      8.260
REMARK INTER + INTRA:          -5.558
REMARK INTER:                  -5.558
REMARK INTRA:                   0.000
REMARK UNBOUND:                 0.000
REMARK SMILES C=C1CCC[C@]2(C)CC(=O)C(=C(C)C)C[C@H]12
REMARK SMILES IDX 13 1 12 2 11 3 15 4 16 5 2 6 1 7 3 8 4 9 5 10 6 11 8 12 9 13
REMARK SMILES IDX 10 14 7 15 14 16
REMARK H PARENT
REMARK Flexibility Score: inf
ROOT
ATOM      1  C   UNL     1       6.763  26.734  55.844  1.00  0.00     0.039 C 
ATOM      2  C   UNL     1       5.991  26.053  54.736  1.00  0.00    -0.070 C 
ATOM      3  C   UNL     1       6.465  24.919  54.143  1.00  0.00    -0.006 C 
ATOM      4  C   UNL     1       7.813  24.320  54.511  1.00  0.00     0.047 C 
ATOM      5  C   UNL     1       7.795  22.773  54.402  1.00  0.00     0.025 C 
ATOM      6  C   UNL     1       9.166  22.240  54.807  1.00  0.00    -0.073 C 
ATOM      7  C   UNL     1       9.434  21.983  56.098  1.00  0.00     0.008 C 
ATOM      8  C   UNL     1      10.270  22.076  53.789  1.00  0.00     0.031 C 
ATOM      9  C   UNL     1       9.775  22.300  52.361  1.00  0.00     0.005 C 
ATOM     10  C   UNL     1       8.441  21.584  52.152  1.00  0.00     0.008 C 
ATOM     11  C   UNL     1       7.292  22.221  52.996  1.00  0.00    -0.018 C 
ATOM     12  C   UNL     1       6.621  23.341  52.142  1.00  0.00     0.088 C 
ATOM     13  C   UNL     1       5.796  24.253  52.995  1.00  0.00     0.159 C 
ATOM     14  O   UNL     1       4.569  24.396  52.749  1.00  0.00    -0.295 OA
ATOM     15  C   UNL     1       6.232  21.118  53.245  1.00  0.00     0.012 C 
ATOM     16  C   UNL     1       4.701  26.704  54.295  1.00  0.00     0.039 C 
ENDROOT
TORSDOF 0
ENDMDL
MODEL 9
REMARK VINA RESULT:    -5.528      6.121      8.363
REMARK INTER + INTRA:          -5.528
REMARK INTER:                  -5.528
REMARK INTRA:                   0.000
REMARK UNBOUND:                 0.000
REMARK SMILES C=C1CCC[C@]2(C)CC(=O)C(=C(C)C)C[C@H]12
REMARK SMILES IDX 13 1 12 2 11 3 15 4 16 5 2 6 1 7 3 8 4 9 5 10 6 11 8 12 9 13
REMARK SMILES IDX 10 14 7 15 14 16
REMARK H PARENT
REMARK Flexibility Score: inf
ROOT
ATOM      1  C   UNL     1       5.832  19.566  55.457  1.00  0.00     0.039 C 
ATOM      2  C   UNL     1       4.764  20.419  54.809  1.00  0.00    -0.070 C 
ATOM      3  C   UNL     1       4.974  21.746  54.570  1.00  0.00    -0.006 C 
ATOM      4  C   UNL     1       6.250  22.452  54.999  1.00  0.00     0.047 C 
ATOM      5  C   UNL     1       6.640  23.575  54.003  1.00  0.00     0.025 C 
ATOM      6  C   UNL     1       7.937  24.220  54.479  1.00  0.00    -0.073 C 
ATOM      7  C   UNL     1       9.121  23.706  54.109  1.00  0.00     0.008 C 
ATOM      8  C   UNL     1       7.920  25.385  55.442  1.00  0.00     0.031 C 
ATOM      9  C   UNL     1       6.508  25.919  55.675  1.00  0.00     0.005 C 
ATOM     10  C   UNL     1       5.763  26.026  54.345  1.00  0.00     0.008 C 
ATOM     11  C   UNL     1       5.479  24.626  53.715  1.00  0.00    -0.018 C 
ATOM     12  C   UNL     1       4.100  24.123  54.243  1.00  0.00     0.088 C 
ATOM     13  C   UNL     1       3.935  22.653  54.015  1.00  0.00     0.159 C 
ATOM     14  O   UNL     1       2.962  22.234  53.334  1.00  0.00    -0.295 OA
ATOM     15  C   UNL     1       5.355  24.823  52.183  1.00  0.00     0.012 C 
ATOM     16  C   UNL     1       3.453  19.745  54.476  1.00  0.00     0.039 C 
ENDROOT
TORSDOF 0
ENDMDL
