MODEL 1
REMARK VINA RESULT:    18.637      0.000      0.000
REMARK INTER + INTRA:          20.653
REMARK INTER:                  20.816
REMARK INTRA:                  -0.163
REMARK UNBOUND:                -0.163
REMARK SMILES O=C([O-])c1ccccc1C(=O)[O-]
REMARK SMILES IDX 4 1 9 2 5 3 8 4 6 5 7 6 2 7 1 8 3 9 10 10 11 11 12 12
REMARK H PARENT
REMARK Flexibility Score: inf
ROOT
ATOM      1  C   UNL     1      -0.528   7.809 -23.975  1.00  0.00     0.006 A 
ATOM      2  C   UNL     1      -0.835   8.939 -24.783  1.00  0.00     0.006 A 
ATOM      3  C   UNL     1       0.419   6.875 -24.435  1.00  0.00     0.010 A 
ATOM      4  C   UNL     1      -0.136   9.128 -25.988  1.00  0.00     0.010 A 
ATOM      5  C   UNL     1       1.084   7.071 -25.646  1.00  0.00     0.001 A 
ATOM      6  C   UNL     1       0.816   8.201 -26.415  1.00  0.00     0.001 A 
ENDROOT
BRANCH   1   7
ATOM      7  C   UNL     1      -1.112   7.605 -22.629  1.00  0.00     0.072 C 
ATOM      8  O   UNL     1      -0.424   7.829 -21.598  1.00  0.00    -0.545 OA
ATOM      9  O   UNL     1      -2.442   7.228 -22.483  1.00  0.00    -0.545 OA
ENDBRANCH   1   7
BRANCH   2  10
ATOM     10  C   UNL     1      -1.912   9.900 -24.448  1.00  0.00     0.072 C 
ATOM     11  O   UNL     1      -1.648  10.989 -23.874  1.00  0.00    -0.545 OA
ATOM     12  O   UNL     1      -3.239   9.577 -24.706  1.00  0.00    -0.545 OA
ENDBRANCH   2  10
TORSDOF 2
ENDMDL
MODEL 2
REMARK VINA RESULT:    18.814      0.100      3.000
REMARK INTER + INTRA:          20.851
REMARK INTER:                  21.000
REMARK INTRA:                  -0.149
REMARK UNBOUND:                -0.163
REMARK SMILES O=C([O-])c1ccccc1C(=O)[O-]
REMARK SMILES IDX 4 1 9 2 5 3 8 4 6 5 7 6 2 7 1 8 3 9 10 10 11 11 12 12
REMARK H PARENT
REMARK Flexibility Score: inf
ROOT
ATOM      1  C   UNL     1      -0.806   8.930 -24.787  1.00  0.00     0.006 A 
ATOM      2  C   UNL     1      -0.475   7.819 -23.963  1.00  0.00     0.006 A 
ATOM      3  C   UNL     1      -0.144   9.091 -26.019  1.00  0.00     0.010 A 
ATOM      4  C   UNL     1       0.457   6.875 -24.430  1.00  0.00     0.010 A 
ATOM      5  C   UNL     1       0.794   8.153 -26.451  1.00  0.00     0.001 A 
ATOM      6  C   UNL     1       1.085   7.042 -25.664  1.00  0.00     0.001 A 
ENDROOT
BRANCH   1   7
ATOM      7  C   UNL     1      -1.875   9.896 -24.439  1.00  0.00     0.072 C 
ATOM      8  O   UNL     1      -3.080   9.623 -24.684  1.00  0.00    -0.545 OA
ATOM      9  O   UNL     1      -1.572  11.081 -23.780  1.00  0.00    -0.545 OA
ENDBRANCH   1   7
BRANCH   2  10
ATOM     10  C   UNL     1      -1.017   7.641 -22.595  1.00  0.00     0.072 C 
ATOM     11  O   UNL     1      -0.272   7.759 -21.587  1.00  0.00    -0.545 OA
ATOM     12  O   UNL     1      -2.345   7.273 -22.415  1.00  0.00    -0.545 OA
ENDBRANCH   2  10
TORSDOF 2
ENDMDL
