MODEL 1
REMARK VINA RESULT:    -4.819      0.000      0.000
REMARK INTER + INTRA:          -5.118
REMARK INTER:                  -5.101
REMARK INTRA:                  -0.017
REMARK UNBOUND:                -0.017
REMARK SMILES O=C([O-])c1cccnc1
REMARK SMILES IDX 4 1 5 2 9 3 6 4 8 5 7 6 2 7 1 8 3 9
REMARK H PARENT
REMARK Flexibility Score: inf
ROOT
ATOM      1  C   UNL     1     -19.068  14.688 -28.053  1.00  0.00     0.016 A 
ATOM      2  C   UNL     1     -19.628  14.421 -29.313  1.00  0.00     0.013 A 
ATOM      3  C   UNL     1     -19.067  16.016 -27.591  1.00  0.00     0.120 A 
ATOM      4  C   UNL     1     -20.168  15.460 -30.075  1.00  0.00     0.021 A 
ATOM      5  N   UNL     1     -19.600  17.009 -28.352  1.00  0.00    -0.264 NA
ATOM      6  C   UNL     1     -20.145  16.761 -29.572  1.00  0.00     0.111 A 
ENDROOT
BRANCH   1   7
ATOM      7  C   UNL     1     -18.493  13.597 -27.238  1.00  0.00     0.073 C 
ATOM      8  O   UNL     1     -17.260  13.574 -26.978  1.00  0.00    -0.545 OA
ATOM      9  O   UNL     1     -19.306  12.583 -26.746  1.00  0.00    -0.545 OA
ENDBRANCH   1   7
TORSDOF 1
ENDMDL
MODEL 2
REMARK VINA RESULT:    -4.806      2.850      3.983
REMARK INTER + INTRA:          -5.104
REMARK INTER:                  -5.084
REMARK INTRA:                  -0.020
REMARK UNBOUND:                -0.017
REMARK SMILES O=C([O-])c1cccnc1
REMARK SMILES IDX 4 1 5 2 9 3 6 4 8 5 7 6 2 7 1 8 3 9
REMARK H PARENT
REMARK Flexibility Score: inf
ROOT
ATOM      1  C   UNL     1     -19.267  14.597 -28.314  1.00  0.00     0.016 A 
ATOM      2  C   UNL     1     -18.089  14.671 -27.554  1.00  0.00     0.013 A 
ATOM      3  C   UNL     1     -19.895  13.347 -28.454  1.00  0.00     0.120 A 
ATOM      4  C   UNL     1     -17.566  13.522 -26.956  1.00  0.00     0.021 A 
ATOM      5  N   UNL     1     -19.366  12.243 -27.862  1.00  0.00    -0.264 NA
ATOM      6  C   UNL     1     -18.227  12.304 -27.123  1.00  0.00     0.111 A 
ENDROOT
BRANCH   1   7
ATOM      7  C   UNL     1     -19.829  15.807 -28.951  1.00  0.00     0.073 C 
ATOM      8  O   UNL     1     -20.308  15.753 -30.116  1.00  0.00    -0.545 OA
ATOM      9  O   UNL     1     -19.837  17.021 -28.274  1.00  0.00    -0.545 OA
ENDBRANCH   1   7
TORSDOF 1
ENDMDL
MODEL 3
REMARK VINA RESULT:    -4.672      0.945      1.605
REMARK INTER + INTRA:          -4.962
REMARK INTER:                  -4.944
REMARK INTRA:                  -0.018
REMARK UNBOUND:                -0.017
REMARK SMILES O=C([O-])c1cccnc1
REMARK SMILES IDX 4 1 5 2 9 3 6 4 8 5 7 6 2 7 1 8 3 9
REMARK H PARENT
REMARK Flexibility Score: inf
ROOT
ATOM      1  C   UNL     1     -19.073  14.626 -28.106  1.00  0.00     0.016 A 
ATOM      2  C   UNL     1     -19.043  15.975 -27.718  1.00  0.00     0.013 A 
ATOM      3  C   UNL     1     -19.668  14.299 -29.338  1.00  0.00     0.120 A 
ATOM      4  C   UNL     1     -19.595  16.956 -28.545  1.00  0.00     0.021 A 
ATOM      5  N   UNL     1     -20.198  15.273 -30.125  1.00  0.00    -0.264 NA
ATOM      6  C   UNL     1     -20.173  16.581 -29.757  1.00  0.00     0.111 A 
ENDROOT
BRANCH   1   7
ATOM      7  C   UNL     1     -18.492  13.580 -27.239  1.00  0.00     0.073 C 
ATOM      8  O   UNL     1     -17.271  13.609 -26.930  1.00  0.00    -0.545 OA
ATOM      9  O   UNL     1     -19.286  12.548 -26.751  1.00  0.00    -0.545 OA
ENDBRANCH   1   7
TORSDOF 1
ENDMDL
MODEL 4
REMARK VINA RESULT:    -4.517      2.785      3.736
REMARK INTER + INTRA:          -4.798
REMARK INTER:                  -4.779
REMARK INTRA:                  -0.020
REMARK UNBOUND:                -0.017
REMARK SMILES O=C([O-])c1cccnc1
REMARK SMILES IDX 4 1 5 2 9 3 6 4 8 5 7 6 2 7 1 8 3 9
REMARK H PARENT
REMARK Flexibility Score: inf
ROOT
ATOM      1  C   UNL     1     -19.180  14.552 -28.196  1.00  0.00     0.016 A 
ATOM      2  C   UNL     1     -19.860  13.324 -28.242  1.00  0.00     0.013 A 
ATOM      3  C   UNL     1     -17.968  14.618 -27.485  1.00  0.00     0.120 A 
ATOM      4  C   UNL     1     -19.333  12.206 -27.593  1.00  0.00     0.021 A 
ATOM      5  N   UNL     1     -17.476  13.514 -26.861  1.00  0.00    -0.264 NA
ATOM      6  C   UNL     1     -18.128  12.322 -26.901  1.00  0.00     0.111 A 
ENDROOT
BRANCH   1   7
ATOM      7  C   UNL     1     -19.727  15.743 -28.880  1.00  0.00     0.073 C 
ATOM      8  O   UNL     1     -20.144  15.665 -30.067  1.00  0.00    -0.545 OA
ATOM      9  O   UNL     1     -19.792  16.965 -28.222  1.00  0.00    -0.545 OA
ENDBRANCH   1   7
TORSDOF 1
ENDMDL
MODEL 5
REMARK VINA RESULT:    -4.290      1.690      2.423
REMARK INTER + INTRA:          -4.558
REMARK INTER:                  -4.539
REMARK INTRA:                  -0.019
REMARK UNBOUND:                -0.017
REMARK SMILES O=C([O-])c1cccnc1
REMARK SMILES IDX 4 1 5 2 9 3 6 4 8 5 7 6 2 7 1 8 3 9
REMARK H PARENT
REMARK Flexibility Score: inf
ROOT
ATOM      1  C   UNL     1     -18.616  13.040 -27.330  1.00  0.00     0.016 A 
ATOM      2  C   UNL     1     -17.982  14.268 -27.079  1.00  0.00     0.013 A 
ATOM      3  C   UNL     1     -19.702  13.020 -28.223  1.00  0.00     0.120 A 
ATOM      4  C   UNL     1     -18.431  15.431 -27.708  1.00  0.00     0.021 A 
ATOM      5  N   UNL     1     -20.120  14.166 -28.823  1.00  0.00    -0.264 NA
ATOM      6  C   UNL     1     -19.513  15.359 -28.587  1.00  0.00     0.111 A 
ENDROOT
BRANCH   1   7
ATOM      7  C   UNL     1     -18.149  11.803 -26.670  1.00  0.00     0.073 C 
ATOM      8  O   UNL     1     -16.923  11.510 -26.653  1.00  0.00    -0.545 OA
ATOM      9  O   UNL     1     -19.056  10.946 -26.057  1.00  0.00    -0.545 OA
ENDBRANCH   1   7
TORSDOF 1
ENDMDL
MODEL 6
REMARK VINA RESULT:    -4.269     10.239     11.383
REMARK INTER + INTRA:          -4.536
REMARK INTER:                  -4.517
REMARK INTRA:                  -0.019
REMARK UNBOUND:                -0.017
REMARK SMILES O=C([O-])c1cccnc1
REMARK SMILES IDX 4 1 5 2 9 3 6 4 8 5 7 6 2 7 1 8 3 9
REMARK H PARENT
REMARK Flexibility Score: inf
ROOT
ATOM      1  C   UNL     1     -13.268  15.484 -19.380  1.00  0.00     0.016 A 
ATOM      2  C   UNL     1     -12.327  15.155 -18.392  1.00  0.00     0.013 A 
ATOM      3  C   UNL     1     -14.172  14.490 -19.797  1.00  0.00     0.120 A 
ATOM      4  C   UNL     1     -12.301  13.869 -17.846  1.00  0.00     0.021 A 
ATOM      5  N   UNL     1     -14.128  13.246 -19.251  1.00  0.00    -0.264 NA
ATOM      6  C   UNL     1     -13.220  12.919 -18.293  1.00  0.00     0.111 A 
ENDROOT
BRANCH   1   7
ATOM      7  C   UNL     1     -13.304  16.841 -19.964  1.00  0.00     0.073 C 
ATOM      8  O   UNL     1     -12.248  17.385 -20.385  1.00  0.00    -0.545 OA
ATOM      9  O   UNL     1     -14.505  17.535 -20.059  1.00  0.00    -0.545 OA
ENDBRANCH   1   7
TORSDOF 1
ENDMDL
MODEL 7
REMARK VINA RESULT:    -4.029      2.525      3.137
REMARK INTER + INTRA:          -4.282
REMARK INTER:                  -4.263
REMARK INTRA:                  -0.019
REMARK UNBOUND:                -0.017
REMARK SMILES O=C([O-])c1cccnc1
REMARK SMILES IDX 4 1 5 2 9 3 6 4 8 5 7 6 2 7 1 8 3 9
REMARK H PARENT
REMARK Flexibility Score: inf
ROOT
ATOM      1  C   UNL     1     -19.432  13.990 -28.344  1.00  0.00     0.016 A 
ATOM      2  C   UNL     1     -20.243  14.281 -29.453  1.00  0.00     0.013 A 
ATOM      3  C   UNL     1     -19.319  12.650 -27.932  1.00  0.00     0.120 A 
ATOM      4  C   UNL     1     -20.915  13.254 -30.119  1.00  0.00     0.021 A 
ATOM      5  N   UNL     1     -19.984  11.668 -28.598  1.00  0.00    -0.264 NA
ATOM      6  C   UNL     1     -20.771  11.940 -29.672  1.00  0.00     0.111 A 
ENDROOT
BRANCH   1   7
ATOM      7  C   UNL     1     -18.716  15.068 -27.631  1.00  0.00     0.073 C 
ATOM      8  O   UNL     1     -17.501  14.936 -27.324  1.00  0.00    -0.545 OA
ATOM      9  O   UNL     1     -19.373  16.245 -27.291  1.00  0.00    -0.545 OA
ENDBRANCH   1   7
TORSDOF 1
ENDMDL
MODEL 8
REMARK VINA RESULT:    -3.981     10.218     10.786
REMARK INTER + INTRA:          -4.230
REMARK INTER:                  -4.212
REMARK INTRA:                  -0.019
REMARK UNBOUND:                -0.017
REMARK SMILES O=C([O-])c1cccnc1
REMARK SMILES IDX 4 1 5 2 9 3 6 4 8 5 7 6 2 7 1 8 3 9
REMARK H PARENT
REMARK Flexibility Score: inf
ROOT
ATOM      1  C   UNL     1     -13.133  14.886 -19.515  1.00  0.00     0.016 A 
ATOM      2  C   UNL     1     -11.794  14.989 -19.924  1.00  0.00     0.013 A 
ATOM      3  C   UNL     1     -13.934  16.041 -19.554  1.00  0.00     0.120 A 
ATOM      4  C   UNL     1     -11.284  16.216 -20.356  1.00  0.00     0.021 A 
ATOM      5  N   UNL     1     -13.415  17.224 -19.980  1.00  0.00    -0.264 NA
ATOM      6  C   UNL     1     -12.120  17.333 -20.378  1.00  0.00     0.111 A 
ENDROOT
BRANCH   1   7
ATOM      7  C   UNL     1     -13.682  13.594 -19.054  1.00  0.00     0.073 C 
ATOM      8  O   UNL     1     -14.749  13.139 -19.549  1.00  0.00    -0.545 OA
ATOM      9  O   UNL     1     -13.030  12.861 -18.070  1.00  0.00    -0.545 OA
ENDBRANCH   1   7
TORSDOF 1
ENDMDL
MODEL 9
REMARK VINA RESULT:    -3.781     10.456     11.399
REMARK INTER + INTRA:          -4.019
REMARK INTER:                  -4.002
REMARK INTRA:                  -0.017
REMARK UNBOUND:                -0.017
REMARK SMILES O=C([O-])c1cccnc1
REMARK SMILES IDX 4 1 5 2 9 3 6 4 8 5 7 6 2 7 1 8 3 9
REMARK H PARENT
REMARK Flexibility Score: inf
ROOT
ATOM      1  C   UNL     1     -13.120  16.644 -19.610  1.00  0.00     0.016 A 
ATOM      2  C   UNL     1     -11.966  16.877 -20.374  1.00  0.00     0.013 A 
ATOM      3  C   UNL     1     -13.143  15.524 -18.759  1.00  0.00     0.120 A 
ATOM      4  C   UNL     1     -10.875  16.010 -20.281  1.00  0.00     0.021 A 
ATOM      5  N   UNL     1     -12.067  14.695 -18.686  1.00  0.00    -0.264 NA
ATOM      6  C   UNL     1     -10.946  14.913 -19.422  1.00  0.00     0.111 A 
ENDROOT
BRANCH   1   7
ATOM      7  C   UNL     1     -14.281  17.554 -19.701  1.00  0.00     0.073 C 
ATOM      8  O   UNL     1     -14.991  17.584 -20.742  1.00  0.00    -0.545 OA
ATOM      9  O   UNL     1     -14.606  18.390 -18.639  1.00  0.00    -0.545 OA
ENDBRANCH   1   7
TORSDOF 1
ENDMDL
