MODEL 1
REMARK VINA RESULT:     4.286      0.000      0.000
REMARK INTER + INTRA:           4.492
REMARK INTER:                   4.536
REMARK INTRA:                  -0.044
REMARK UNBOUND:                -0.044
REMARK SMILES CC1=CC[C@H]2[C@H]3[C@@H]1[C@]2(C)CC[C@H]3C(C)C
REMARK SMILES IDX 1 1 2 2 3 3 4 4 5 5 6 6 7 7 8 8 10 9 11 10 12 11 9 12 13 13
REMARK SMILES IDX 14 14 15 15
REMARK H PARENT
REMARK Flexibility Score: inf
ROOT
ATOM      1  C   UNL     1     -14.902  -5.725  15.497  1.00  0.00     0.039 C 
ATOM      2  C   UNL     1     -14.494  -4.301  15.731  1.00  0.00    -0.073 C 
ATOM      3  C   UNL     1     -13.657  -3.658  14.876  1.00  0.00    -0.027 C 
ATOM      4  C   UNL     1     -13.256  -2.209  15.179  1.00  0.00     0.031 C 
ATOM      5  C   UNL     1     -13.960  -1.712  16.484  1.00  0.00     0.003 C 
ATOM      6  C   UNL     1     -15.448  -2.117  16.386  1.00  0.00     0.004 C 
ATOM      7  C   UNL     1     -15.014  -3.501  16.929  1.00  0.00     0.024 C 
ATOM      8  C   UNL     1     -13.848  -2.754  17.620  1.00  0.00    -0.022 C 
ATOM      9  C   UNL     1     -14.328  -2.102  18.950  1.00  0.00     0.008 C 
ATOM     10  C   UNL     1     -15.797  -1.606  18.883  1.00  0.00     0.005 C 
ATOM     11  C   UNL     1     -16.319  -1.345  17.428  1.00  0.00    -0.005 C 
ATOM     12  C   UNL     1     -12.503  -3.491  17.824  1.00  0.00     0.012 C 
ENDROOT
BRANCH  11  13
ATOM     13  C   UNL     1     -16.452   0.185  17.122  1.00  0.00    -0.014 C 
ATOM     14  C   UNL     1     -17.833   0.754  17.496  1.00  0.00     0.007 C 
ATOM     15  C   UNL     1     -15.373   0.991  17.870  1.00  0.00     0.007 C 
ENDBRANCH  11  13
TORSDOF 1
ENDMDL
MODEL 2
REMARK VINA RESULT:     4.321      1.405      3.552
REMARK INTER + INTRA:           4.530
REMARK INTER:                   4.821
REMARK INTRA:                  -0.291
REMARK UNBOUND:                -0.044
REMARK SMILES CC1=CC[C@H]2[C@H]3[C@@H]1[C@]2(C)CC[C@H]3C(C)C
REMARK SMILES IDX 1 1 2 2 3 3 4 4 5 5 6 6 7 7 8 8 10 9 11 10 12 11 9 12 13 13
REMARK SMILES IDX 14 14 15 15
REMARK H PARENT
REMARK Flexibility Score: inf
ROOT
ATOM      1  C   UNL     1     -12.377  -2.101  14.875  1.00  0.00     0.039 C 
ATOM      2  C   UNL     1     -13.420  -2.603  15.829  1.00  0.00    -0.073 C 
ATOM      3  C   UNL     1     -13.883  -3.878  15.760  1.00  0.00    -0.027 C 
ATOM      4  C   UNL     1     -14.968  -4.327  16.747  1.00  0.00     0.031 C 
ATOM      5  C   UNL     1     -15.331  -3.162  17.724  1.00  0.00     0.003 C 
ATOM      6  C   UNL     1     -14.002  -2.556  18.230  1.00  0.00     0.004 C 
ATOM      7  C   UNL     1     -13.997  -1.711  16.933  1.00  0.00     0.024 C 
ATOM      8  C   UNL     1     -15.540  -1.831  16.966  1.00  0.00    -0.022 C 
ATOM      9  C   UNL     1     -16.149  -0.785  17.943  1.00  0.00     0.008 C 
ATOM     10  C   UNL     1     -15.244  -0.511  19.173  1.00  0.00     0.005 C 
ATOM     11  C   UNL     1     -14.228  -1.661  19.490  1.00  0.00    -0.005 C 
ATOM     12  C   UNL     1     -16.317  -1.851  15.628  1.00  0.00     0.012 C 
ENDROOT
BRANCH  11  13
ATOM     13  C   UNL     1     -14.641  -2.468  20.766  1.00  0.00    -0.014 C 
ATOM     14  C   UNL     1     -13.549  -3.445  21.239  1.00  0.00     0.007 C 
ATOM     15  C   UNL     1     -14.983  -1.519  21.930  1.00  0.00     0.007 C 
ENDBRANCH  11  13
TORSDOF 1
ENDMDL
MODEL 3
REMARK VINA RESULT:     5.816      1.237      4.520
REMARK INTER + INTRA:           6.112
REMARK INTER:                   5.714
REMARK INTRA:                   0.397
REMARK UNBOUND:                -0.044
REMARK SMILES CC1=CC[C@H]2[C@H]3[C@@H]1[C@]2(C)CC[C@H]3C(C)C
REMARK SMILES IDX 1 1 2 2 3 3 4 4 5 5 6 6 7 7 8 8 10 9 11 10 12 11 9 12 13 13
REMARK SMILES IDX 14 14 15 15
REMARK H PARENT
REMARK Flexibility Score: inf
ROOT
ATOM      1  C   UNL     1     -15.609  -2.378  20.591  1.00  0.00     0.039 C 
ATOM      2  C   UNL     1     -14.999  -2.365  19.221  1.00  0.00    -0.073 C 
ATOM      3  C   UNL     1     -13.681  -2.087  19.039  1.00  0.00    -0.027 C 
ATOM      4  C   UNL     1     -13.119  -2.065  17.612  1.00  0.00     0.031 C 
ATOM      5  C   UNL     1     -14.239  -2.419  16.580  1.00  0.00     0.003 C 
ATOM      6  C   UNL     1     -14.983  -3.663  17.118  1.00  0.00     0.004 C 
ATOM      7  C   UNL     1     -15.824  -2.680  17.969  1.00  0.00     0.024 C 
ATOM      8  C   UNL     1     -15.540  -1.635  16.864  1.00  0.00    -0.022 C 
ATOM      9  C   UNL     1     -16.515  -1.826  15.666  1.00  0.00     0.008 C 
ATOM     10  C   UNL     1     -16.884  -3.314  15.421  1.00  0.00     0.005 C 
ATOM     11  C   UNL     1     -15.848  -4.335  16.005  1.00  0.00    -0.005 C 
ATOM     12  C   UNL     1     -15.438  -0.141  17.256  1.00  0.00     0.012 C 
ENDROOT
BRANCH  11  13
ATOM     13  C   UNL     1     -15.001  -5.014  14.877  1.00  0.00    -0.014 C 
ATOM     14  C   UNL     1     -13.530  -4.561  14.875  1.00  0.00     0.007 C 
ATOM     15  C   UNL     1     -15.039  -6.549  15.010  1.00  0.00     0.007 C 
ENDBRANCH  11  13
TORSDOF 1
ENDMDL
MODEL 4
REMARK VINA RESULT:     6.002      1.576      3.190
REMARK INTER + INTRA:           6.309
REMARK INTER:                   6.567
REMARK INTRA:                  -0.258
REMARK UNBOUND:                -0.044
REMARK SMILES CC1=CC[C@H]2[C@H]3[C@@H]1[C@]2(C)CC[C@H]3C(C)C
REMARK SMILES IDX 1 1 2 2 3 3 4 4 5 5 6 6 7 7 8 8 10 9 11 10 12 11 9 12 13 13
REMARK SMILES IDX 14 14 15 15
REMARK H PARENT
REMARK Flexibility Score: inf
ROOT
ATOM      1  C   UNL     1     -16.828  -4.070  15.140  1.00  0.00     0.039 C 
ATOM      2  C   UNL     1     -16.234  -2.945  15.933  1.00  0.00    -0.073 C 
ATOM      3  C   UNL     1     -16.674  -1.668  15.785  1.00  0.00    -0.027 C 
ATOM      4  C   UNL     1     -16.012  -0.556  16.607  1.00  0.00     0.031 C 
ATOM      5  C   UNL     1     -14.907  -1.151  17.538  1.00  0.00     0.003 C 
ATOM      6  C   UNL     1     -15.510  -2.394  18.231  1.00  0.00     0.004 C 
ATOM      7  C   UNL     1     -15.119  -3.183  16.957  1.00  0.00     0.024 C 
ATOM      8  C   UNL     1     -13.993  -2.137  16.775  1.00  0.00    -0.022 C 
ATOM      9  C   UNL     1     -12.770  -2.488  17.671  1.00  0.00     0.008 C 
ATOM     10  C   UNL     1     -13.178  -3.142  19.018  1.00  0.00     0.005 C 
ATOM     11  C   UNL     1     -14.651  -2.835  19.459  1.00  0.00    -0.005 C 
ATOM     12  C   UNL     1     -13.537  -1.771  15.342  1.00  0.00     0.012 C 
ENDROOT
BRANCH  11  13
ATOM     13  C   UNL     1     -14.703  -1.827  20.656  1.00  0.00    -0.014 C 
ATOM     14  C   UNL     1     -15.308  -2.441  21.931  1.00  0.00     0.007 C 
ATOM     15  C   UNL     1     -13.296  -1.295  20.989  1.00  0.00     0.007 C 
ENDBRANCH  11  13
TORSDOF 1
ENDMDL
MODEL 5
REMARK VINA RESULT:     6.154      1.099      2.694
REMARK INTER + INTRA:           6.469
REMARK INTER:                   6.758
REMARK INTRA:                  -0.289
REMARK UNBOUND:                -0.044
REMARK SMILES CC1=CC[C@H]2[C@H]3[C@@H]1[C@]2(C)CC[C@H]3C(C)C
REMARK SMILES IDX 1 1 2 2 3 3 4 4 5 5 6 6 7 7 8 8 10 9 11 10 12 11 9 12 13 13
REMARK SMILES IDX 14 14 15 15
REMARK H PARENT
REMARK Flexibility Score: inf
ROOT
ATOM      1  C   UNL     1     -11.747  -2.792  14.875  1.00  0.00     0.039 C 
ATOM      2  C   UNL     1     -12.816  -2.738  15.926  1.00  0.00    -0.073 C 
ATOM      3  C   UNL     1     -12.576  -3.156  17.197  1.00  0.00    -0.027 C 
ATOM      4  C   UNL     1     -13.715  -3.099  18.222  1.00  0.00     0.031 C 
ATOM      5  C   UNL     1     -15.006  -2.505  17.570  1.00  0.00     0.003 C 
ATOM      6  C   UNL     1     -14.585  -1.242  16.785  1.00  0.00     0.004 C 
ATOM      7  C   UNL     1     -14.216  -2.196  15.623  1.00  0.00     0.024 C 
ATOM      8  C   UNL     1     -15.294  -3.149  16.194  1.00  0.00    -0.022 C 
ATOM      9  C   UNL     1     -16.712  -2.716  15.722  1.00  0.00     0.008 C 
ATOM     10  C   UNL     1     -16.857  -1.177  15.583  1.00  0.00     0.005 C 
ATOM     11  C   UNL     1     -15.820  -0.357  16.424  1.00  0.00    -0.005 C 
ATOM     12  C   UNL     1     -15.103  -4.676  16.033  1.00  0.00     0.012 C 
ENDROOT
BRANCH  11  13
ATOM     13  C   UNL     1     -16.486   0.327  17.665  1.00  0.00    -0.014 C 
ATOM     14  C   UNL     1     -16.007   1.773  17.883  1.00  0.00     0.007 C 
ATOM     15  C   UNL     1     -18.021   0.335  17.530  1.00  0.00     0.007 C 
ENDBRANCH  11  13
TORSDOF 1
ENDMDL
