MODEL 1
REMARK VINA RESULT:    -5.181      0.000      0.000
REMARK INTER + INTRA:          -5.484
REMARK INTER:                  -5.484
REMARK INTRA:                   0.000
REMARK UNBOUND:                 0.000
REMARK SMILES O=c1ccc2cc(O)c(O)cc2o1
REMARK SMILES IDX 4 1 3 2 2 3 1 4 13 5 12 6 11 7 9 8 7 9 6 10 5 11 8 12 10 14
REMARK H PARENT 8 13 10 15
REMARK Flexibility Score: inf
ROOT
ATOM      1  C   UNL     1      59.941  22.143  21.169  1.00  0.00     0.019 A 
ATOM      2  C   UNL     1      61.279  22.432  20.908  1.00  0.00     0.094 A 
ATOM      3  C   UNL     1      62.002  23.191  21.835  1.00  0.00     0.336 A 
ATOM      4  O   UNL     1      63.211  23.462  21.619  1.00  0.00    -0.246 OA
ATOM      5  O   UNL     1      61.419  23.628  22.948  1.00  0.00    -0.423 OA
ATOM      6  C   UNL     1      60.143  23.376  23.236  1.00  0.00     0.142 A 
ATOM      7  C   UNL     1      59.584  23.862  24.421  1.00  0.00     0.098 A 
ATOM      8  C   UNL     1      58.244  23.600  24.729  1.00  0.00     0.161 A 
ATOM      9  C   UNL     1      57.454  22.843  23.845  1.00  0.00     0.158 A 
ATOM     10  C   UNL     1      58.011  22.353  22.654  1.00  0.00     0.062 A 
ATOM     11  C   UNL     1      59.353  22.617  22.346  1.00  0.00     0.022 A 
ENDROOT
BRANCH   9  12
ATOM     12  O   UNL     1      56.119  22.582  24.151  1.00  0.00    -0.504 OA
ATOM     13  H   UNL     1      55.420  22.474  23.427  1.00  0.00     0.293 HD
ENDBRANCH   9  12
BRANCH   8  14
ATOM     14  O   UNL     1      57.715  24.099  25.920  1.00  0.00    -0.504 OA
ATOM     15  H   UNL     1      57.290  23.497  26.614  1.00  0.00     0.293 HD
ENDBRANCH   8  14
TORSDOF 2
ENDMDL
MODEL 2
REMARK VINA RESULT:    -5.105      1.197      2.285
REMARK INTER + INTRA:          -5.403
REMARK INTER:                  -5.403
REMARK INTRA:                   0.000
REMARK UNBOUND:                 0.000
REMARK SMILES O=c1ccc2cc(O)c(O)cc2o1
REMARK SMILES IDX 4 1 3 2 2 3 1 4 13 5 12 6 11 7 9 8 7 9 6 10 5 11 8 12 10 14
REMARK H PARENT 8 13 10 15
REMARK Flexibility Score: inf
ROOT
ATOM      1  C   UNL     1      61.439  23.642  22.831  1.00  0.00     0.019 A 
ATOM      2  C   UNL     1      61.903  23.175  21.602  1.00  0.00     0.094 A 
ATOM      3  C   UNL     1      61.026  22.472  20.768  1.00  0.00     0.336 A 
ATOM      4  O   UNL     1      61.426  22.042  19.655  1.00  0.00    -0.246 OA
ATOM      5  O   UNL     1      59.768  22.255  21.144  1.00  0.00    -0.423 OA
ATOM      6  C   UNL     1      59.284  22.683  22.308  1.00  0.00     0.142 A 
ATOM      7  C   UNL     1      57.954  22.425  22.650  1.00  0.00     0.098 A 
ATOM      8  C   UNL     1      57.438  22.872  23.872  1.00  0.00     0.161 A 
ATOM      9  C   UNL     1      58.261  23.587  24.763  1.00  0.00     0.158 A 
ATOM     10  C   UNL     1      59.597  23.848  24.424  1.00  0.00     0.062 A 
ATOM     11  C   UNL     1      60.112  23.399  23.200  1.00  0.00     0.022 A 
ENDROOT
BRANCH   9  12
ATOM     12  O   UNL     1      57.748  24.032  25.980  1.00  0.00    -0.504 OA
ATOM     13  H   UNL     1      57.042  24.758  26.025  1.00  0.00     0.293 HD
ENDBRANCH   9  12
BRANCH   8  14
ATOM     14  O   UNL     1      56.107  22.600  24.184  1.00  0.00    -0.504 OA
ATOM     15  H   UNL     1      55.828  21.749  24.657  1.00  0.00     0.293 HD
ENDBRANCH   8  14
TORSDOF 2
ENDMDL
MODEL 3
REMARK VINA RESULT:    -4.447      1.949      2.911
REMARK INTER + INTRA:          -4.707
REMARK INTER:                  -4.707
REMARK INTRA:                   0.000
REMARK UNBOUND:                 0.000
REMARK SMILES O=c1ccc2cc(O)c(O)cc2o1
REMARK SMILES IDX 4 1 3 2 2 3 1 4 13 5 12 6 11 7 9 8 7 9 6 10 5 11 8 12 10 14
REMARK H PARENT 8 13 10 15
REMARK Flexibility Score: inf
ROOT
ATOM      1  C   UNL     1      59.998  22.003  21.259  1.00  0.00     0.019 A 
ATOM      2  C   UNL     1      60.760  21.607  20.161  1.00  0.00     0.094 A 
ATOM      3  C   UNL     1      62.033  22.160  19.983  1.00  0.00     0.336 A 
ATOM      4  O   UNL     1      62.736  21.815  18.998  1.00  0.00    -0.246 OA
ATOM      5  O   UNL     1      62.508  23.049  20.851  1.00  0.00    -0.423 OA
ATOM      6  C   UNL     1      61.815  23.455  21.913  1.00  0.00     0.142 A 
ATOM      7  C   UNL     1      62.366  24.392  22.791  1.00  0.00     0.098 A 
ATOM      8  C   UNL     1      61.642  24.823  23.910  1.00  0.00     0.161 A 
ATOM      9  C   UNL     1      60.354  24.311  24.154  1.00  0.00     0.158 A 
ATOM     10  C   UNL     1      59.798  23.370  23.275  1.00  0.00     0.062 A 
ATOM     11  C   UNL     1      60.523  22.940  22.155  1.00  0.00     0.022 A 
ENDROOT
BRANCH   9  12
ATOM     12  O   UNL     1      59.634  24.740  25.267  1.00  0.00    -0.504 OA
ATOM     13  H   UNL     1      59.363  25.710  25.383  1.00  0.00     0.293 HD
ENDBRANCH   9  12
BRANCH   8  14
ATOM     14  O   UNL     1      62.219  25.759  24.767  1.00  0.00    -0.504 OA
ATOM     15  H   UNL     1      62.064  26.754  24.662  1.00  0.00     0.293 HD
ENDBRANCH   8  14
TORSDOF 2
ENDMDL
MODEL 4
REMARK VINA RESULT:    -4.362      1.144      5.044
REMARK INTER + INTRA:          -4.617
REMARK INTER:                  -4.617
REMARK INTRA:                   0.000
REMARK UNBOUND:                 0.000
REMARK SMILES O=c1ccc2cc(O)c(O)cc2o1
REMARK SMILES IDX 4 1 3 2 2 3 1 4 13 5 12 6 11 7 9 8 7 9 6 10 5 11 8 12 10 14
REMARK H PARENT 8 13 10 15
REMARK Flexibility Score: inf
ROOT
ATOM      1  C   UNL     1      59.356  23.830  24.552  1.00  0.00     0.019 A 
ATOM      2  C   UNL     1      58.025  23.456  24.727  1.00  0.00     0.094 A 
ATOM      3  C   UNL     1      57.392  22.713  23.724  1.00  0.00     0.336 A 
ATOM      4  O   UNL     1      56.191  22.366  23.863  1.00  0.00    -0.246 OA
ATOM      5  O   UNL     1      58.054  22.368  22.623  1.00  0.00    -0.423 OA
ATOM      6  C   UNL     1      59.325  22.704  22.416  1.00  0.00     0.142 A 
ATOM      7  C   UNL     1      59.969  22.313  21.238  1.00  0.00     0.098 A 
ATOM      8  C   UNL     1      61.306  22.663  21.014  1.00  0.00     0.161 A 
ATOM      9  C   UNL     1      62.008  23.411  21.978  1.00  0.00     0.158 A 
ATOM     10  C   UNL     1      61.366  23.805  23.161  1.00  0.00     0.062 A 
ATOM     11  C   UNL     1      60.027  23.455  23.384  1.00  0.00     0.022 A 
ENDROOT
BRANCH   9  12
ATOM     12  O   UNL     1      63.339  23.759  21.756  1.00  0.00    -0.504 OA
ATOM     13  H   UNL     1      63.897  24.210  22.472  1.00  0.00     0.293 HD
ENDBRANCH   9  12
BRANCH   8  14
ATOM     14  O   UNL     1      61.921  22.258  19.830  1.00  0.00    -0.504 OA
ATOM     15  H   UNL     1      62.551  21.467  19.793  1.00  0.00     0.293 HD
ENDBRANCH   8  14
TORSDOF 2
ENDMDL
MODEL 5
REMARK VINA RESULT:    -4.312      1.104      4.535
REMARK INTER + INTRA:          -4.564
REMARK INTER:                  -4.564
REMARK INTRA:                   0.000
REMARK UNBOUND:                 0.000
REMARK SMILES O=c1ccc2cc(O)c(O)cc2o1
REMARK SMILES IDX 4 1 3 2 2 3 1 4 13 5 12 6 11 7 9 8 7 9 6 10 5 11 8 12 10 14
REMARK H PARENT 8 13 10 15
REMARK Flexibility Score: inf
ROOT
ATOM      1  C   UNL     1      58.124  22.352  22.760  1.00  0.00     0.019 A 
ATOM      2  C   UNL     1      57.624  22.816  23.976  1.00  0.00     0.094 A 
ATOM      3  C   UNL     1      58.469  23.542  24.824  1.00  0.00     0.336 A 
ATOM      4  O   UNL     1      58.036  23.969  25.925  1.00  0.00    -0.246 OA
ATOM      5  O   UNL     1      59.729  23.785  24.473  1.00  0.00    -0.423 OA
ATOM      6  C   UNL     1      60.246  23.360  23.322  1.00  0.00     0.142 A 
ATOM      7  C   UNL     1      61.578  23.645  23.006  1.00  0.00     0.098 A 
ATOM      8  C   UNL     1      62.129  23.202  21.798  1.00  0.00     0.161 A 
ATOM      9  C   UNL     1      61.340  22.467  20.894  1.00  0.00     0.158 A 
ATOM     10  C   UNL     1      60.003  22.178  21.207  1.00  0.00     0.062 A 
ATOM     11  C   UNL     1      59.453  22.621  22.417  1.00  0.00     0.022 A 
ENDROOT
BRANCH   9  12
ATOM     12  O   UNL     1      61.888  22.025  19.691  1.00  0.00    -0.504 OA
ATOM     13  H   UNL     1      61.589  21.159  19.258  1.00  0.00     0.293 HD
ENDBRANCH   9  12
BRANCH   8  14
ATOM     14  O   UNL     1      63.460  23.503  21.512  1.00  0.00    -0.504 OA
ATOM     15  H   UNL     1      64.204  23.341  22.179  1.00  0.00     0.293 HD
ENDBRANCH   8  14
TORSDOF 2
ENDMDL
MODEL 6
REMARK VINA RESULT:    -3.911      1.394      4.341
REMARK INTER + INTRA:          -4.139
REMARK INTER:                  -4.139
REMARK INTRA:                   0.000
REMARK UNBOUND:                 0.000
REMARK SMILES O=c1ccc2cc(O)c(O)cc2o1
REMARK SMILES IDX 4 1 3 2 2 3 1 4 13 5 12 6 11 7 9 8 7 9 6 10 5 11 8 12 10 14
REMARK H PARENT 8 13 10 15
REMARK Flexibility Score: inf
ROOT
ATOM      1  C   UNL     1      58.560  21.074  22.462  1.00  0.00     0.019 A 
ATOM      2  C   UNL     1      57.201  21.006  22.763  1.00  0.00     0.094 A 
ATOM      3  C   UNL     1      56.629  22.015  23.547  1.00  0.00     0.336 A 
ATOM      4  O   UNL     1      55.404  21.972  23.830  1.00  0.00    -0.246 OA
ATOM      5  O   UNL     1      57.373  23.022  23.996  1.00  0.00    -0.423 OA
ATOM      6  C   UNL     1      58.674  23.125  23.732  1.00  0.00     0.142 A 
ATOM      7  C   UNL     1      59.406  24.207  24.231  1.00  0.00     0.098 A 
ATOM      8  C   UNL     1      60.774  24.321  23.957  1.00  0.00     0.161 A 
ATOM      9  C   UNL     1      61.419  23.345  23.175  1.00  0.00     0.158 A 
ATOM     10  C   UNL     1      60.688  22.257  22.673  1.00  0.00     0.062 A 
ATOM     11  C   UNL     1      59.319  22.144  22.948  1.00  0.00     0.022 A 
ENDROOT
BRANCH   9  12
ATOM     12  O   UNL     1      62.781  23.458  22.903  1.00  0.00    -0.504 OA
ATOM     13  H   UNL     1      63.296  24.304  23.115  1.00  0.00     0.293 HD
ENDBRANCH   9  12
BRANCH   8  14
ATOM     14  O   UNL     1      61.476  25.412  24.469  1.00  0.00    -0.504 OA
ATOM     15  H   UNL     1      61.732  26.205  23.895  1.00  0.00     0.293 HD
ENDBRANCH   8  14
TORSDOF 2
ENDMDL
MODEL 7
REMARK VINA RESULT:    -3.834      2.128      2.681
REMARK INTER + INTRA:          -4.058
REMARK INTER:                  -4.058
REMARK INTRA:                   0.000
REMARK UNBOUND:                 0.000
REMARK SMILES O=c1ccc2cc(O)c(O)cc2o1
REMARK SMILES IDX 4 1 3 2 2 3 1 4 13 5 12 6 11 7 9 8 7 9 6 10 5 11 8 12 10 14
REMARK H PARENT 8 13 10 15
REMARK Flexibility Score: inf
ROOT
ATOM      1  C   UNL     1      62.392  21.090  21.959  1.00  0.00     0.019 A 
ATOM      2  C   UNL     1      62.539  21.322  20.592  1.00  0.00     0.094 A 
ATOM      3  C   UNL     1      61.519  21.988  19.903  1.00  0.00     0.336 A 
ATOM      4  O   UNL     1      61.634  22.207  18.670  1.00  0.00    -0.246 OA
ATOM      5  O   UNL     1      60.427  22.394  20.545  1.00  0.00    -0.423 OA
ATOM      6  C   UNL     1      60.246  22.193  21.849  1.00  0.00     0.142 A 
ATOM      7  C   UNL     1      59.077  22.642  22.470  1.00  0.00     0.098 A 
ATOM      8  C   UNL     1      58.879  22.434  23.840  1.00  0.00     0.161 A 
ATOM      9  C   UNL     1      59.862  21.771  24.599  1.00  0.00     0.158 A 
ATOM     10  C   UNL     1      61.037  21.319  23.980  1.00  0.00     0.062 A 
ATOM     11  C   UNL     1      61.233  21.527  22.608  1.00  0.00     0.022 A 
ENDROOT
BRANCH   9  12
ATOM     12  O   UNL     1      59.666  21.563  25.963  1.00  0.00    -0.504 OA
ATOM     13  H   UNL     1      60.178  22.093  26.659  1.00  0.00     0.293 HD
ENDBRANCH   9  12
BRANCH   8  14
ATOM     14  O   UNL     1      57.703  22.894  24.431  1.00  0.00    -0.504 OA
ATOM     15  H   UNL     1      57.019  23.436  23.917  1.00  0.00     0.293 HD
ENDBRANCH   8  14
TORSDOF 2
ENDMDL
MODEL 8
REMARK VINA RESULT:    -3.739      2.483      4.915
REMARK INTER + INTRA:          -3.958
REMARK INTER:                  -3.958
REMARK INTRA:                   0.000
REMARK UNBOUND:                 0.000
REMARK SMILES O=c1ccc2cc(O)c(O)cc2o1
REMARK SMILES IDX 4 1 3 2 2 3 1 4 13 5 12 6 11 7 9 8 7 9 6 10 5 11 8 12 10 14
REMARK H PARENT 8 13 10 15
REMARK Flexibility Score: inf
ROOT
ATOM      1  C   UNL     1      59.810  23.080  25.655  1.00  0.00     0.019 A 
ATOM      2  C   UNL     1      58.830  22.448  24.892  1.00  0.00     0.094 A 
ATOM      3  C   UNL     1      58.777  22.695  23.515  1.00  0.00     0.336 A 
ATOM      4  O   UNL     1      57.900  22.134  22.809  1.00  0.00    -0.246 OA
ATOM      5  O   UNL     1      59.652  23.520  22.946  1.00  0.00    -0.423 OA
ATOM      6  C   UNL     1      60.604  24.144  23.637  1.00  0.00     0.142 A 
ATOM      7  C   UNL     1      61.495  25.001  22.984  1.00  0.00     0.098 A 
ATOM      8  C   UNL     1      62.498  25.660  23.705  1.00  0.00     0.161 A 
ATOM      9  C   UNL     1      62.612  25.461  25.093  1.00  0.00     0.158 A 
ATOM     10  C   UNL     1      61.719  24.603  25.752  1.00  0.00     0.062 A 
ATOM     11  C   UNL     1      60.716  23.944  25.030  1.00  0.00     0.022 A 
ENDROOT
BRANCH   9  12
ATOM     12  O   UNL     1      63.610  26.118  25.811  1.00  0.00    -0.504 OA
ATOM     13  H   UNL     1      63.525  27.095  26.067  1.00  0.00     0.293 HD
ENDBRANCH   9  12
BRANCH   8  14
ATOM     14  O   UNL     1      63.372  26.508  23.025  1.00  0.00    -0.504 OA
ATOM     15  H   UNL     1      63.665  27.398  23.407  1.00  0.00     0.293 HD
ENDBRANCH   8  14
TORSDOF 2
ENDMDL
MODEL 9
REMARK VINA RESULT:    -3.729      2.005      3.292
REMARK INTER + INTRA:          -3.947
REMARK INTER:                  -3.947
REMARK INTRA:                   0.000
REMARK UNBOUND:                 0.000
REMARK SMILES O=c1ccc2cc(O)c(O)cc2o1
REMARK SMILES IDX 4 1 3 2 2 3 1 4 13 5 12 6 11 7 9 8 7 9 6 10 5 11 8 12 10 14
REMARK H PARENT 8 13 10 15
REMARK Flexibility Score: inf
ROOT
ATOM      1  C   UNL     1      63.180  23.102  21.678  1.00  0.00     0.019 A 
ATOM      2  C   UNL     1      62.816  22.497  20.476  1.00  0.00     0.094 A 
ATOM      3  C   UNL     1      61.459  22.277  20.211  1.00  0.00     0.336 A 
ATOM      4  O   UNL     1      61.110  21.733  19.132  1.00  0.00    -0.246 OA
ATOM      5  O   UNL     1      60.533  22.643  21.094  1.00  0.00    -0.423 OA
ATOM      6  C   UNL     1      60.837  23.223  22.253  1.00  0.00     0.142 A 
ATOM      7  C   UNL     1      59.821  23.585  23.141  1.00  0.00     0.098 A 
ATOM      8  C   UNL     1      60.134  24.196  24.362  1.00  0.00     0.161 A 
ATOM      9  C   UNL     1      61.477  24.448  24.698  1.00  0.00     0.158 A 
ATOM     10  C   UNL     1      62.500  24.086  23.809  1.00  0.00     0.062 A 
ATOM     11  C   UNL     1      62.186  23.474  22.588  1.00  0.00     0.022 A 
ENDROOT
BRANCH   9  12
ATOM     12  O   UNL     1      61.789  25.056  25.913  1.00  0.00    -0.504 OA
ATOM     13  H   UNL     1      61.691  26.056  26.047  1.00  0.00     0.293 HD
ENDBRANCH   9  12
BRANCH   8  14
ATOM     14  O   UNL     1      59.098  24.546  25.227  1.00  0.00    -0.504 OA
ATOM     15  H   UNL     1      59.110  25.405  25.763  1.00  0.00     0.293 HD
ENDBRANCH   8  14
TORSDOF 2
ENDMDL
