MODEL 1
REMARK VINA RESULT:    -7.062      0.000      0.000
REMARK INTER + INTRA:         -10.788
REMARK INTER:                  -9.745
REMARK INTRA:                  -1.042
REMARK UNBOUND:                -1.042
REMARK SMILES C[C@@H]1OC(=O)[C@@H](C)[C@@H]1C[C@H](O)[C@@](C)(O)[C@@H]1CC[C@@]2(O)C3=CC(=O)[C@@H]4C[C@@H](O)[C@H](O)C[C@@]4(C)[C@H]3CC[C@@]12C
REMARK SMILES IDX 12 1 13 2 10 3 9 4 8 5 7 6 6 7 4 8 2 9 3 10 5 11 1 12 11 13
REMARK SMILES IDX 15 15 16 16 36 17 17 18 18 19 35 20 37 21 20 22 34 23 33 24
REMARK SMILES IDX 21 25 31 26 22 27 24 28 30 29 32 30 23 31 25 32 28 33 26 34
REMARK SMILES IDX 19 35 29 37 27 39 14 41
REMARK H PARENT 11 14 19 36 29 38 27 40 14 42
REMARK Flexibility Score: inf
ROOT
ATOM      1  C   UNL     1     151.554 145.225 148.455  1.00  0.00     0.091 C 
ATOM      2  C   UNL     1     151.407 145.284 146.915  1.00  0.00     0.045 C 
ENDROOT
BRANCH   1   3
ATOM      3  C   UNL     1     152.964 145.802 148.880  1.00  0.00     0.146 C 
BRANCH   3   4
ATOM      4  C   UNL     1     153.384 147.177 148.294  1.00  0.00     0.043 C 
BRANCH   4   5
ATOM      5  C   UNL     1     153.465 148.336 149.327  1.00  0.00     0.046 C 
ATOM      6  C   UNL     1     155.952 148.872 149.722  1.00  0.00     0.020 C 
ATOM      7  C   UNL     1     154.638 149.307 149.058  1.00  0.00     0.103 C 
ATOM      8  C   UNL     1     154.108 150.564 149.643  1.00  0.00     0.309 C 
ATOM      9  C   UNL     1     152.221 149.261 149.454  1.00  0.00     0.177 C 
ATOM     10  O   UNL     1     152.759 150.487 149.925  1.00  0.00    -0.462 OA
ATOM     11  O   UNL     1     154.774 151.623 149.804  1.00  0.00    -0.252 OA
ATOM     12  C   UNL     1     151.496 149.558 148.131  1.00  0.00     0.053 C 
ENDBRANCH   4   5
ENDBRANCH   3   4
BRANCH   3  13
ATOM     13  O   UNL     1     153.971 144.870 148.589  1.00  0.00    -0.390 OA
ATOM     14  H   UNL     1     153.987 144.749 147.602  1.00  0.00     0.211 HD
ENDBRANCH   3  13
ENDBRANCH   1   3
BRANCH   1  15
ATOM     15  C   UNL     1     150.386 146.093 149.121  1.00  0.00     0.032 C 
ATOM     16  C   UNL     1     150.473 146.177 150.653  1.00  0.00     0.010 C 
ATOM     17  C   UNL     1     148.868 145.811 148.789  1.00  0.00     0.006 C 
ATOM     18  C   UNL     1     149.094 146.496 151.198  1.00  0.00     0.041 C 
ATOM     19  C   UNL     1     148.099 146.440 150.022  1.00  0.00     0.092 C 
ATOM     20  C   UNL     1     148.458 146.510 147.419  1.00  0.00     0.011 C 
ATOM     21  C   UNL     1     148.554 144.295 148.679  1.00  0.00     0.015 C 
ATOM     22  C   UNL     1     147.526 147.786 149.582  1.00  0.00    -0.031 C 
ATOM     23  C   UNL     1     146.972 146.940 147.305  1.00  0.00     0.009 C 
ATOM     24  C   UNL     1     146.394 147.636 148.579  1.00  0.00     0.025 C 
ATOM     25  C   UNL     1     148.197 148.962 149.676  1.00  0.00     0.050 C 
ATOM     26  C   UNL     1     145.596 148.973 148.390  1.00  0.00    -0.013 C 
ATOM     27  C   UNL     1     147.711 150.182 148.994  1.00  0.00     0.159 C 
ATOM     28  C   UNL     1     146.605 150.075 147.969  1.00  0.00     0.070 C 
ATOM     29  C   UNL     1     144.471 148.824 147.315  1.00  0.00     0.042 C 
ATOM     30  C   UNL     1     144.926 149.291 149.768  1.00  0.00     0.013 C 
ATOM     31  O   UNL     1     148.264 151.295 149.238  1.00  0.00    -0.295 OA
ATOM     32  C   UNL     1     145.903 151.415 147.660  1.00  0.00     0.047 C 
ATOM     33  C   UNL     1     143.803 150.161 146.901  1.00  0.00     0.143 C 
ATOM     34  C   UNL     1     144.871 151.242 146.527  1.00  0.00     0.143 C 
BRANCH  19  35
ATOM     35  O   UNL     1     147.032 145.612 150.437  1.00  0.00    -0.385 OA
ATOM     36  H   UNL     1     147.402 144.918 151.049  1.00  0.00     0.211 HD
ENDBRANCH  19  35
BRANCH  33  37
ATOM     37  O   UNL     1     142.875 150.585 147.877  1.00  0.00    -0.390 OA
ATOM     38  H   UNL     1     143.025 150.112 148.737  1.00  0.00     0.211 HD
ENDBRANCH  33  37
BRANCH  34  39
ATOM     39  O   UNL     1     145.557 150.942 145.335  1.00  0.00    -0.390 OA
ATOM     40  H   UNL     1     146.531 150.961 145.496  1.00  0.00     0.211 HD
ENDBRANCH  34  39
ENDBRANCH   1  15
BRANCH   1  41
ATOM     41  O   UNL     1     151.463 143.864 148.818  1.00  0.00    -0.387 OA
ATOM     42  H   UNL     1     150.600 143.698 149.258  1.00  0.00     0.211 HD
ENDBRANCH   1  41
TORSDOF 9
ENDMDL
MODEL 2
REMARK VINA RESULT:    -6.497      2.139      3.001
REMARK INTER + INTRA:         -10.008
REMARK INTER:                  -9.418
REMARK INTRA:                  -0.591
REMARK UNBOUND:                -1.042
REMARK SMILES C[C@@H]1OC(=O)[C@@H](C)[C@@H]1C[C@H](O)[C@@](C)(O)[C@@H]1CC[C@@]2(O)C3=CC(=O)[C@@H]4C[C@@H](O)[C@H](O)C[C@@]4(C)[C@H]3CC[C@@]12C
REMARK SMILES IDX 12 1 13 2 10 3 9 4 8 5 7 6 6 7 4 8 2 9 3 10 5 11 1 12 11 13
REMARK SMILES IDX 15 15 16 16 36 17 17 18 18 19 35 20 37 21 20 22 34 23 33 24
REMARK SMILES IDX 21 25 31 26 22 27 24 28 30 29 32 30 23 31 25 32 28 33 26 34
REMARK SMILES IDX 19 35 29 37 27 39 14 41
REMARK H PARENT 11 14 19 36 29 38 27 40 14 42
REMARK Flexibility Score: inf
ROOT
ATOM      1  C   UNL     1     152.275 145.626 148.369  1.00  0.00     0.091 C 
ATOM      2  C   UNL     1     153.229 146.735 147.863  1.00  0.00     0.045 C 
ENDROOT
BRANCH   1   3
ATOM      3  C   UNL     1     153.040 144.682 149.381  1.00  0.00     0.146 C 
BRANCH   3   4
ATOM      4  C   UNL     1     154.590 144.760 149.405  1.00  0.00     0.043 C 
BRANCH   4   5
ATOM      5  C   UNL     1     155.218 144.956 150.814  1.00  0.00     0.046 C 
ATOM      6  C   UNL     1     156.302 142.729 151.515  1.00  0.00     0.020 C 
ATOM      7  C   UNL     1     156.529 144.160 151.010  1.00  0.00     0.103 C 
ATOM      8  C   UNL     1     157.226 145.001 152.014  1.00  0.00     0.309 C 
ATOM      9  C   UNL     1     155.583 146.409 151.232  1.00  0.00     0.177 C 
ATOM     10  O   UNL     1     156.630 146.237 152.174  1.00  0.00    -0.462 OA
ATOM     11  O   UNL     1     158.288 144.680 152.614  1.00  0.00    -0.252 OA
ATOM     12  C   UNL     1     156.130 147.291 150.097  1.00  0.00     0.053 C 
ENDBRANCH   4   5
ENDBRANCH   3   4
BRANCH   3  13
ATOM     13  O   UNL     1     152.666 143.346 149.166  1.00  0.00    -0.390 OA
ATOM     14  H   UNL     1     151.747 143.234 149.529  1.00  0.00     0.211 HD
ENDBRANCH   3  13
ENDBRANCH   1   3
BRANCH   1  15
ATOM     15  C   UNL     1     151.026 146.311 149.100  1.00  0.00     0.032 C 
ATOM     16  C   UNL     1     151.178 146.406 150.626  1.00  0.00     0.010 C 
ATOM     17  C   UNL     1     149.552 145.805 148.843  1.00  0.00     0.006 C 
ATOM     18  C   UNL     1     149.797 146.516 151.242  1.00  0.00     0.041 C 
ATOM     19  C   UNL     1     148.762 146.312 150.118  1.00  0.00     0.092 C 
ATOM     20  C   UNL     1     148.972 146.435 147.500  1.00  0.00     0.011 C 
ATOM     21  C   UNL     1     149.462 144.259 148.737  1.00  0.00     0.015 C 
ATOM     22  C   UNL     1     147.973 147.557 149.718  1.00  0.00    -0.031 C 
ATOM     23  C   UNL     1     147.435 146.638 147.465  1.00  0.00     0.009 C 
ATOM     24  C   UNL     1     146.826 147.240 148.772  1.00  0.00     0.025 C 
ATOM     25  C   UNL     1     148.465 148.821 149.787  1.00  0.00     0.050 C 
ATOM     26  C   UNL     1     145.829 148.443 148.634  1.00  0.00    -0.013 C 
ATOM     27  C   UNL     1     147.768 149.954 149.140  1.00  0.00     0.159 C 
ATOM     28  C   UNL     1     146.640 149.684 148.171  1.00  0.00     0.070 C 
ATOM     29  C   UNL     1     144.685 148.128 147.617  1.00  0.00     0.042 C 
ATOM     30  C   UNL     1     145.191 148.658 150.047  1.00  0.00     0.013 C 
ATOM     31  O   UNL     1     148.161 151.138 149.364  1.00  0.00    -0.295 OA
ATOM     32  C   UNL     1     145.731 150.904 147.908  1.00  0.00     0.047 C 
ATOM     33  C   UNL     1     143.805 149.350 147.247  1.00  0.00     0.143 C 
ATOM     34  C   UNL     1     144.679 150.579 146.828  1.00  0.00     0.143 C 
BRANCH  19  35
ATOM     35  O   UNL     1     147.853 145.334 150.580  1.00  0.00    -0.385 OA
ATOM     36  H   UNL     1     147.298 145.744 151.299  1.00  0.00     0.211 HD
ENDBRANCH  19  35
BRANCH  33  37
ATOM     37  O   UNL     1     142.876 149.631 148.272  1.00  0.00    -0.390 OA
ATOM     38  H   UNL     1     142.338 150.435 148.051  1.00  0.00     0.211 HD
ENDBRANCH  33  37
BRANCH  34  39
ATOM     39  O   UNL     1     145.341 150.384 145.600  1.00  0.00    -0.390 OA
ATOM     40  H   UNL     1     144.904 150.920 144.896  1.00  0.00     0.211 HD
ENDBRANCH  34  39
ENDBRANCH   1  15
BRANCH   1  41
ATOM     41  O   UNL     1     151.873 144.889 147.234  1.00  0.00    -0.387 OA
ATOM     42  H   UNL     1     151.975 143.928 147.413  1.00  0.00     0.211 HD
ENDBRANCH   1  41
TORSDOF 9
ENDMDL
MODEL 3
REMARK VINA RESULT:    -6.311      2.486      8.611
REMARK INTER + INTRA:          -9.751
REMARK INTER:                  -9.094
REMARK INTRA:                  -0.657
REMARK UNBOUND:                -1.042
REMARK SMILES C[C@@H]1OC(=O)[C@@H](C)[C@@H]1C[C@H](O)[C@@](C)(O)[C@@H]1CC[C@@]2(O)C3=CC(=O)[C@@H]4C[C@@H](O)[C@H](O)C[C@@]4(C)[C@H]3CC[C@@]12C
REMARK SMILES IDX 12 1 13 2 10 3 9 4 8 5 7 6 6 7 4 8 2 9 3 10 5 11 1 12 11 13
REMARK SMILES IDX 15 15 16 16 36 17 17 18 18 19 35 20 37 21 20 22 34 23 33 24
REMARK SMILES IDX 21 25 31 26 22 27 24 28 30 29 32 30 23 31 25 32 28 33 26 34
REMARK SMILES IDX 19 35 29 37 27 39 14 41
REMARK H PARENT 11 14 19 36 29 38 27 40 14 42
REMARK Flexibility Score: inf
ROOT
ATOM      1  C   UNL     1     147.754 145.609 148.881  1.00  0.00     0.091 C 
ATOM      2  C   UNL     1     147.148 145.660 150.304  1.00  0.00     0.045 C 
ENDROOT
BRANCH   1   3
ATOM      3  C   UNL     1     146.838 146.420 147.879  1.00  0.00     0.146 C 
BRANCH   3   4
ATOM      4  C   UNL     1     145.354 146.642 148.281  1.00  0.00     0.043 C 
BRANCH   4   5
ATOM      5  C   UNL     1     144.771 148.033 147.906  1.00  0.00     0.046 C 
ATOM      6  C   UNL     1     146.474 149.825 148.625  1.00  0.00     0.020 C 
ATOM      7  C   UNL     1     145.853 149.043 147.459  1.00  0.00     0.103 C 
ATOM      8  C   UNL     1     145.068 149.921 146.556  1.00  0.00     0.309 C 
ATOM      9  C   UNL     1     143.712 148.074 146.768  1.00  0.00     0.177 C 
ATOM     10  O   UNL     1     143.835 149.386 146.239  1.00  0.00    -0.462 OA
ATOM     11  O   UNL     1     145.484 151.002 146.056  1.00  0.00    -0.252 OA
ATOM     12  C   UNL     1     143.963 147.091 145.613  1.00  0.00     0.053 C 
ENDBRANCH   4   5
ENDBRANCH   3   4
BRANCH   3  13
ATOM     13  O   UNL     1     146.868 145.822 146.610  1.00  0.00    -0.390 OA
ATOM     14  H   UNL     1     146.744 144.844 146.740  1.00  0.00     0.211 HD
ENDBRANCH   3  13
ENDBRANCH   1   3
BRANCH   1  15
ATOM     15  C   UNL     1     149.221 146.250 148.918  1.00  0.00     0.032 C 
ATOM     16  C   UNL     1     149.295 147.660 148.313  1.00  0.00     0.010 C 
ATOM     17  C   UNL     1     150.469 145.468 148.348  1.00  0.00     0.006 C 
ATOM     18  C   UNL     1     150.726 147.926 147.883  1.00  0.00     0.041 C 
ATOM     19  C   UNL     1     151.519 146.616 148.056  1.00  0.00     0.092 C 
ATOM     20  C   UNL     1     151.014 144.428 149.424  1.00  0.00     0.011 C 
ATOM     21  C   UNL     1     150.142 144.695 147.042  1.00  0.00     0.015 C 
ATOM     22  C   UNL     1     152.545 146.614 149.188  1.00  0.00    -0.031 C 
ATOM     23  C   UNL     1     152.534 144.127 149.354  1.00  0.00     0.009 C 
ATOM     24  C   UNL     1     153.440 145.385 149.160  1.00  0.00     0.025 C 
ATOM     25  C   UNL     1     152.409 147.327 150.335  1.00  0.00     0.050 C 
ATOM     26  C   UNL     1     154.687 145.547 150.097  1.00  0.00    -0.013 C 
ATOM     27  C   UNL     1     153.285 147.083 151.502  1.00  0.00     0.159 C 
ATOM     28  C   UNL     1     154.172 145.859 151.528  1.00  0.00     0.070 C 
ATOM     29  C   UNL     1     155.571 144.257 150.104  1.00  0.00     0.042 C 
ATOM     30  C   UNL     1     155.535 146.725 149.512  1.00  0.00     0.013 C 
ATOM     31  O   UNL     1     153.243 147.875 152.490  1.00  0.00    -0.295 OA
ATOM     32  C   UNL     1     155.323 145.939 152.553  1.00  0.00     0.047 C 
ATOM     33  C   UNL     1     156.682 144.251 151.187  1.00  0.00     0.143 C 
ATOM     34  C   UNL     1     156.108 144.611 152.597  1.00  0.00     0.143 C 
BRANCH  19  35
ATOM     35  O   UNL     1     152.197 146.391 146.836  1.00  0.00    -0.385 OA
ATOM     36  H   UNL     1     151.745 146.930 146.130  1.00  0.00     0.211 HD
ENDBRANCH  19  35
BRANCH  33  37
ATOM     37  O   UNL     1     157.776 145.051 150.791  1.00  0.00    -0.390 OA
ATOM     38  H   UNL     1     157.648 145.992 151.080  1.00  0.00     0.211 HD
ENDBRANCH  33  37
BRANCH  34  39
ATOM     39  O   UNL     1     155.266 143.609 153.117  1.00  0.00    -0.390 OA
ATOM     40  H   UNL     1     154.677 143.992 153.809  1.00  0.00     0.211 HD
ENDBRANCH  34  39
ENDBRANCH   1  15
BRANCH   1  41
ATOM     41  O   UNL     1     147.791 144.249 148.505  1.00  0.00    -0.387 OA
ATOM     42  H   UNL     1     147.342 144.135 147.638  1.00  0.00     0.211 HD
ENDBRANCH   1  41
TORSDOF 9
ENDMDL
MODEL 4
REMARK VINA RESULT:    -6.296      1.656      7.125
REMARK INTER + INTRA:          -9.731
REMARK INTER:                  -8.714
REMARK INTRA:                  -1.018
REMARK UNBOUND:                -1.042
REMARK SMILES C[C@@H]1OC(=O)[C@@H](C)[C@@H]1C[C@H](O)[C@@](C)(O)[C@@H]1CC[C@@]2(O)C3=CC(=O)[C@@H]4C[C@@H](O)[C@H](O)C[C@@]4(C)[C@H]3CC[C@@]12C
REMARK SMILES IDX 12 1 13 2 10 3 9 4 8 5 7 6 6 7 4 8 2 9 3 10 5 11 1 12 11 13
REMARK SMILES IDX 15 15 16 16 36 17 17 18 18 19 35 20 37 21 20 22 34 23 33 24
REMARK SMILES IDX 21 25 31 26 22 27 24 28 30 29 32 30 23 31 25 32 28 33 26 34
REMARK SMILES IDX 19 35 29 37 27 39 14 41
REMARK H PARENT 11 14 19 36 29 38 27 40 14 42
REMARK Flexibility Score: inf
ROOT
ATOM      1  C   UNL     1     145.910 146.502 149.328  1.00  0.00     0.091 C 
ATOM      2  C   UNL     1     145.957 146.768 150.852  1.00  0.00     0.045 C 
ENDROOT
BRANCH   1   3
ATOM      3  C   UNL     1     145.061 147.630 148.614  1.00  0.00     0.146 C 
BRANCH   3   4
ATOM      4  C   UNL     1     145.836 148.725 147.832  1.00  0.00     0.043 C 
BRANCH   4   5
ATOM      5  C   UNL     1     146.075 150.047 148.613  1.00  0.00     0.046 C 
ATOM      6  C   UNL     1     148.427 149.937 149.654  1.00  0.00     0.020 C 
ATOM      7  C   UNL     1     147.542 150.532 148.550  1.00  0.00     0.103 C 
ATOM      8  C   UNL     1     147.365 151.997 148.707  1.00  0.00     0.309 C 
ATOM      9  C   UNL     1     145.240 151.286 148.182  1.00  0.00     0.177 C 
ATOM     10  O   UNL     1     146.048 152.388 148.568  1.00  0.00    -0.462 OA
ATOM     11  O   UNL     1     148.302 152.825 148.873  1.00  0.00    -0.252 OA
ATOM     12  C   UNL     1     144.995 151.407 146.669  1.00  0.00     0.053 C 
ENDBRANCH   4   5
ENDBRANCH   3   4
BRANCH   3  13
ATOM     13  O   UNL     1     144.222 148.259 149.545  1.00  0.00    -0.390 OA
ATOM     14  H   UNL     1     144.651 148.171 150.438  1.00  0.00     0.211 HD
ENDBRANCH   3  13
ENDBRANCH   1   3
BRANCH   1  15
ATOM     15  C   UNL     1     147.405 146.500 148.755  1.00  0.00     0.032 C 
ATOM     16  C   UNL     1     147.510 146.022 147.299  1.00  0.00     0.010 C 
ATOM     17  C   UNL     1     148.576 145.780 149.533  1.00  0.00     0.006 C 
ATOM     18  C   UNL     1     148.922 145.524 147.055  1.00  0.00     0.041 C 
ATOM     19  C   UNL     1     149.661 145.524 148.408  1.00  0.00     0.092 C 
ATOM     20  C   UNL     1     149.136 146.718 150.691  1.00  0.00     0.011 C 
ATOM     21  C   UNL     1     148.132 144.433 150.165  1.00  0.00     0.015 C 
ATOM     22  C   UNL     1     150.754 146.581 148.560  1.00  0.00    -0.031 C 
ATOM     23  C   UNL     1     150.633 146.520 151.049  1.00  0.00     0.009 C 
ATOM     24  C   UNL     1     151.584 146.381 149.817  1.00  0.00     0.025 C 
ATOM     25  C   UNL     1     150.724 147.794 147.953  1.00  0.00     0.050 C 
ATOM     26  C   UNL     1     152.894 147.245 149.798  1.00  0.00    -0.013 C 
ATOM     27  C   UNL     1     151.658 148.873 148.342  1.00  0.00     0.159 C 
ATOM     28  C   UNL     1     152.484 148.729 149.600  1.00  0.00     0.070 C 
ATOM     29  C   UNL     1     153.713 147.076 151.118  1.00  0.00     0.042 C 
ATOM     30  C   UNL     1     153.760 146.715 148.606  1.00  0.00     0.013 C 
ATOM     31  O   UNL     1     151.716 149.930 147.646  1.00  0.00    -0.295 OA
ATOM     32  C   UNL     1     153.699 149.679 149.666  1.00  0.00     0.047 C 
ATOM     33  C   UNL     1     154.887 148.077 151.273  1.00  0.00     0.143 C 
ATOM     34  C   UNL     1     154.421 149.549 151.023  1.00  0.00     0.143 C 
BRANCH  19  35
ATOM     35  O   UNL     1     150.249 144.247 148.545  1.00  0.00    -0.385 OA
ATOM     36  H   UNL     1     149.544 143.615 148.857  1.00  0.00     0.211 HD
ENDBRANCH  19  35
BRANCH  33  37
ATOM     37  O   UNL     1     155.992 147.685 150.486  1.00  0.00    -0.390 OA
ATOM     38  H   UNL     1     156.828 147.689 151.022  1.00  0.00     0.211 HD
ENDBRANCH  33  37
BRANCH  34  39
ATOM     39  O   UNL     1     153.565 150.030 152.034  1.00  0.00    -0.390 OA
ATOM     40  H   UNL     1     152.701 149.556 151.993  1.00  0.00     0.211 HD
ENDBRANCH  34  39
ENDBRANCH   1  15
BRANCH   1  41
ATOM     41  O   UNL     1     145.285 145.248 149.155  1.00  0.00    -0.387 OA
ATOM     42  H   UNL     1     145.853 144.671 148.599  1.00  0.00     0.211 HD
ENDBRANCH   1  41
TORSDOF 9
ENDMDL
MODEL 5
REMARK VINA RESULT:    -6.197      2.194      7.485
REMARK INTER + INTRA:          -9.595
REMARK INTER:                  -8.497
REMARK INTRA:                  -1.098
REMARK UNBOUND:                -1.042
REMARK SMILES C[C@@H]1OC(=O)[C@@H](C)[C@@H]1C[C@H](O)[C@@](C)(O)[C@@H]1CC[C@@]2(O)C3=CC(=O)[C@@H]4C[C@@H](O)[C@H](O)C[C@@]4(C)[C@H]3CC[C@@]12C
REMARK SMILES IDX 12 1 13 2 10 3 9 4 8 5 7 6 6 7 4 8 2 9 3 10 5 11 1 12 11 13
REMARK SMILES IDX 15 15 16 16 36 17 17 18 18 19 35 20 37 21 20 22 34 23 33 24
REMARK SMILES IDX 21 25 31 26 22 27 24 28 30 29 32 30 23 31 25 32 28 33 26 34
REMARK SMILES IDX 19 35 29 37 27 39 14 41
REMARK H PARENT 11 14 19 36 29 38 27 40 14 42
REMARK Flexibility Score: inf
ROOT
ATOM      1  C   UNL     1     147.206 146.395 149.160  1.00  0.00     0.091 C 
ATOM      2  C   UNL     1     147.054 146.052 150.662  1.00  0.00     0.045 C 
ENDROOT
BRANCH   1   3
ATOM      3  C   UNL     1     146.871 147.924 148.923  1.00  0.00     0.146 C 
BRANCH   3   4
ATOM      4  C   UNL     1     147.704 148.972 149.709  1.00  0.00     0.043 C 
BRANCH   4   5
ATOM      5  C   UNL     1     148.695 149.804 148.848  1.00  0.00     0.046 C 
ATOM      6  C   UNL     1     147.491 151.958 148.115  1.00  0.00     0.020 C 
ATOM      7  C   UNL     1     148.537 151.329 149.046  1.00  0.00     0.103 C 
ATOM      8  C   UNL     1     149.910 151.801 148.740  1.00  0.00     0.309 C 
ATOM      9  C   UNL     1     150.213 149.543 149.063  1.00  0.00     0.177 C 
ATOM     10  O   UNL     1     150.824 150.766 148.682  1.00  0.00    -0.462 OA
ATOM     11  O   UNL     1     150.249 153.009 148.616  1.00  0.00    -0.252 OA
ATOM     12  C   UNL     1     150.623 149.261 150.518  1.00  0.00     0.053 C 
ENDBRANCH   4   5
ENDBRANCH   3   4
BRANCH   3  13
ATOM     13  O   UNL     1     145.510 148.160 149.175  1.00  0.00    -0.390 OA
ATOM     14  H   UNL     1     145.247 147.586 149.943  1.00  0.00     0.211 HD
ENDBRANCH   3  13
ENDBRANCH   1   3
BRANCH   1  15
ATOM     15  C   UNL     1     148.711 146.092 148.708  1.00  0.00     0.032 C 
ATOM     16  C   UNL     1     148.853 145.757 147.215  1.00  0.00     0.010 C 
ATOM     17  C   UNL     1     149.595 145.031 149.474  1.00  0.00     0.006 C 
ATOM     18  C   UNL     1     150.129 144.961 147.018  1.00  0.00     0.041 C 
ATOM     19  C   UNL     1     150.702 144.640 148.413  1.00  0.00     0.092 C 
ATOM     20  C   UNL     1     150.234 145.680 150.782  1.00  0.00     0.011 C 
ATOM     21  C   UNL     1     148.788 143.774 149.895  1.00  0.00     0.015 C 
ATOM     22  C   UNL     1     151.988 145.378 148.780  1.00  0.00    -0.031 C 
ATOM     23  C   UNL     1     151.598 145.088 151.224  1.00  0.00     0.009 C 
ATOM     24  C   UNL     1     152.615 144.853 150.061  1.00  0.00     0.025 C 
ATOM     25  C   UNL     1     152.304 146.620 148.331  1.00  0.00     0.050 C 
ATOM     26  C   UNL     1     154.084 145.370 150.251  1.00  0.00    -0.013 C 
ATOM     27  C   UNL     1     153.417 147.393 148.924  1.00  0.00     0.159 C 
ATOM     28  C   UNL     1     154.052 146.922 150.212  1.00  0.00     0.070 C 
ATOM     29  C   UNL     1     154.699 144.871 151.599  1.00  0.00     0.042 C 
ATOM     30  C   UNL     1     154.923 144.774 149.072  1.00  0.00     0.013 C 
ATOM     31  O   UNL     1     153.790 148.471 148.373  1.00  0.00    -0.295 OA
ATOM     32  C   UNL     1     155.440 147.537 150.490  1.00  0.00     0.047 C 
ATOM     33  C   UNL     1     156.050 145.536 151.968  1.00  0.00     0.143 C 
ATOM     34  C   UNL     1     155.966 147.095 151.872  1.00  0.00     0.143 C 
BRANCH  19  35
ATOM     35  O   UNL     1     150.962 143.251 148.432  1.00  0.00    -0.385 OA
ATOM     36  H   UNL     1     150.508 142.864 149.231  1.00  0.00     0.211 HD
ENDBRANCH  19  35
BRANCH  33  37
ATOM     37  O   UNL     1     157.110 144.972 151.225  1.00  0.00    -0.390 OA
ATOM     38  H   UNL     1     156.920 144.023 151.002  1.00  0.00     0.211 HD
ENDBRANCH  33  37
BRANCH  34  39
ATOM     39  O   UNL     1     155.145 147.660 152.867  1.00  0.00    -0.390 OA
ATOM     40  H   UNL     1     155.133 147.076 153.662  1.00  0.00     0.211 HD
ENDBRANCH  34  39
ENDBRANCH   1  15
BRANCH   1  41
ATOM     41  O   UNL     1     146.280 145.588 148.465  1.00  0.00    -0.387 OA
ATOM     42  H   UNL     1     145.687 145.140 149.108  1.00  0.00     0.211 HD
ENDBRANCH   1  41
TORSDOF 9
ENDMDL
MODEL 6
REMARK VINA RESULT:    -6.175      4.453      7.935
REMARK INTER + INTRA:          -9.564
REMARK INTER:                  -9.348
REMARK INTRA:                  -0.217
REMARK UNBOUND:                -1.042
REMARK SMILES C[C@@H]1OC(=O)[C@@H](C)[C@@H]1C[C@H](O)[C@@](C)(O)[C@@H]1CC[C@@]2(O)C3=CC(=O)[C@@H]4C[C@@H](O)[C@H](O)C[C@@]4(C)[C@H]3CC[C@@]12C
REMARK SMILES IDX 12 1 13 2 10 3 9 4 8 5 7 6 6 7 4 8 2 9 3 10 5 11 1 12 11 13
REMARK SMILES IDX 15 15 16 16 36 17 17 18 18 19 35 20 37 21 20 22 34 23 33 24
REMARK SMILES IDX 21 25 31 26 22 27 24 28 30 29 32 30 23 31 25 32 28 33 26 34
REMARK SMILES IDX 19 35 29 37 27 39 14 41
REMARK H PARENT 11 14 19 36 29 38 27 40 14 42
REMARK Flexibility Score: inf
ROOT
ATOM      1  C   UNL     1     152.887 149.177 148.821  1.00  0.00     0.091 C 
ATOM      2  C   UNL     1     153.142 148.535 150.206  1.00  0.00     0.045 C 
ENDROOT
BRANCH   1   3
ATOM      3  C   UNL     1     151.337 149.174 148.507  1.00  0.00     0.146 C 
BRANCH   3   4
ATOM      4  C   UNL     1     150.490 148.007 149.082  1.00  0.00     0.043 C 
BRANCH   4   5
ATOM      5  C   UNL     1     149.730 147.160 148.023  1.00  0.00     0.046 C 
ATOM      6  C   UNL     1     151.390 145.461 147.030  1.00  0.00     0.020 C 
ATOM      7  C   UNL     1     150.201 145.688 147.973  1.00  0.00     0.103 C 
ATOM      8  C   UNL     1     148.970 145.011 147.491  1.00  0.00     0.309 C 
ATOM      9  C   UNL     1     148.184 147.066 148.165  1.00  0.00     0.177 C 
ATOM     10  O   UNL     1     147.862 145.833 147.541  1.00  0.00    -0.462 OA
ATOM     11  O   UNL     1     148.900 143.802 147.142  1.00  0.00    -0.252 OA
ATOM     12  C   UNL     1     147.671 146.993 149.613  1.00  0.00     0.053 C 
ENDBRANCH   4   5
ENDBRANCH   3   4
BRANCH   3  13
ATOM     13  O   UNL     1     151.129 149.231 147.120  1.00  0.00    -0.390 OA
ATOM     14  H   UNL     1     151.764 149.902 146.753  1.00  0.00     0.211 HD
ENDBRANCH   3  13
ENDBRANCH   1   3
BRANCH   1  15
ATOM     15  C   UNL     1     153.436 150.681 148.838  1.00  0.00     0.032 C 
ATOM     16  C   UNL     1     154.753 150.852 149.610  1.00  0.00     0.010 C 
ATOM     17  C   UNL     1     152.513 151.882 149.287  1.00  0.00     0.006 C 
ATOM     18  C   UNL     1     154.873 152.300 150.045  1.00  0.00     0.041 C 
ATOM     19  C   UNL     1     153.548 153.006 149.699  1.00  0.00     0.092 C 
ATOM     20  C   UNL     1     151.582 152.350 148.082  1.00  0.00     0.011 C 
ATOM     21  C   UNL     1     151.607 151.518 150.493  1.00  0.00     0.015 C 
ATOM     22  C   UNL     1     153.622 154.020 148.559  1.00  0.00    -0.031 C 
ATOM     23  C   UNL     1     151.180 153.848 148.089  1.00  0.00     0.009 C 
ATOM     24  C   UNL     1     152.346 154.834 148.421  1.00  0.00     0.025 C 
ATOM     25  C   UNL     1     154.478 153.919 147.510  1.00  0.00     0.050 C 
ATOM     26  C   UNL     1     152.543 156.081 147.490  1.00  0.00    -0.013 C 
ATOM     27  C   UNL     1     154.326 154.767 146.308  1.00  0.00     0.159 C 
ATOM     28  C   UNL     1     153.061 155.574 146.117  1.00  0.00     0.070 C 
ATOM     29  C   UNL     1     151.212 156.880 147.310  1.00  0.00     0.042 C 
ATOM     30  C   UNL     1     153.585 157.008 148.200  1.00  0.00     0.013 C 
ATOM     31  O   UNL     1     155.234 154.767 145.425  1.00  0.00    -0.295 OA
ATOM     32  C   UNL     1     153.195 156.718 145.090  1.00  0.00     0.047 C 
ATOM     33  C   UNL     1     151.270 157.978 146.216  1.00  0.00     0.143 C 
ATOM     34  C   UNL     1     151.837 157.416 144.870  1.00  0.00     0.143 C 
BRANCH  19  35
ATOM     35  O   UNL     1     153.133 153.679 150.871  1.00  0.00    -0.385 OA
ATOM     36  H   UNL     1     152.254 154.110 150.683  1.00  0.00     0.211 HD
ENDBRANCH  19  35
BRANCH  33  37
ATOM     37  O   UNL     1     151.946 159.125 146.688  1.00  0.00    -0.390 OA
ATOM     38  H   UNL     1     151.366 159.650 147.299  1.00  0.00     0.211 HD
ENDBRANCH  33  37
BRANCH  34  39
ATOM     39  O   UNL     1     150.960 156.507 144.246  1.00  0.00    -0.390 OA
ATOM     40  H   UNL     1     150.031 156.701 144.515  1.00  0.00     0.211 HD
ENDBRANCH  34  39
ENDBRANCH   1  15
BRANCH   1  41
ATOM     41  O   UNL     1     153.571 148.384 147.875  1.00  0.00    -0.387 OA
ATOM     42  H   UNL     1     154.540 148.496 147.991  1.00  0.00     0.211 HD
ENDBRANCH   1  41
TORSDOF 9
ENDMDL
MODEL 7
REMARK VINA RESULT:    -6.065      2.059      8.599
REMARK INTER + INTRA:          -9.412
REMARK INTER:                  -8.907
REMARK INTRA:                  -0.505
REMARK UNBOUND:                -1.042
REMARK SMILES C[C@@H]1OC(=O)[C@@H](C)[C@@H]1C[C@H](O)[C@@](C)(O)[C@@H]1CC[C@@]2(O)C3=CC(=O)[C@@H]4C[C@@H](O)[C@H](O)C[C@@]4(C)[C@H]3CC[C@@]12C
REMARK SMILES IDX 12 1 13 2 10 3 9 4 8 5 7 6 6 7 4 8 2 9 3 10 5 11 1 12 11 13
REMARK SMILES IDX 15 15 16 16 36 17 17 18 18 19 35 20 37 21 20 22 34 23 33 24
REMARK SMILES IDX 21 25 31 26 22 27 24 28 30 29 32 30 23 31 25 32 28 33 26 34
REMARK SMILES IDX 19 35 29 37 27 39 14 41
REMARK H PARENT 11 14 19 36 29 38 27 40 14 42
REMARK Flexibility Score: inf
ROOT
ATOM      1  C   UNL     1     147.974 147.728 150.211  1.00  0.00     0.091 C 
ATOM      2  C   UNL     1     147.435 147.877 151.654  1.00  0.00     0.045 C 
ENDROOT
BRANCH   1   3
ATOM      3  C   UNL     1     146.936 148.342 149.186  1.00  0.00     0.146 C 
BRANCH   3   4
ATOM      4  C   UNL     1     145.622 148.933 149.762  1.00  0.00     0.043 C 
BRANCH   4   5
ATOM      5  C   UNL     1     144.978 150.062 148.909  1.00  0.00     0.046 C 
ATOM      6  C   UNL     1     146.857 151.647 148.146  1.00  0.00     0.020 C 
ATOM      7  C   UNL     1     145.881 150.532 147.746  1.00  0.00     0.103 C 
ATOM      8  C   UNL     1     144.866 151.003 146.770  1.00  0.00     0.309 C 
ATOM      9  C   UNL     1     143.611 149.749 148.235  1.00  0.00     0.177 C 
ATOM     10  O   UNL     1     143.586 150.611 147.108  1.00  0.00    -0.462 OA
ATOM     11  O   UNL     1     145.123 151.628 145.705  1.00  0.00    -0.252 OA
ATOM     12  C   UNL     1     143.461 148.310 147.714  1.00  0.00     0.053 C 
ENDBRANCH   4   5
ENDBRANCH   3   4
BRANCH   3  13
ATOM     13  O   UNL     1     146.604 147.388 148.211  1.00  0.00    -0.390 OA
ATOM     14  H   UNL     1     145.998 146.726 148.640  1.00  0.00     0.211 HD
ENDBRANCH   3  13
ENDBRANCH   1   3
BRANCH   1  15
ATOM     15  C   UNL     1     149.372 148.498 150.097  1.00  0.00     0.032 C 
ATOM     16  C   UNL     1     149.233 149.988 149.747  1.00  0.00     0.010 C 
ATOM     17  C   UNL     1     150.536 147.946 149.182  1.00  0.00     0.006 C 
ATOM     18  C   UNL     1     150.531 150.460 149.121  1.00  0.00     0.041 C 
ATOM     19  C   UNL     1     151.430 149.225 148.914  1.00  0.00     0.092 C 
ATOM     20  C   UNL     1     151.349 146.807 149.942  1.00  0.00     0.011 C 
ATOM     21  C   UNL     1     150.015 147.365 147.841  1.00  0.00     0.015 C 
ATOM     22  C   UNL     1     152.654 149.144 149.824  1.00  0.00    -0.031 C 
ATOM     23  C   UNL     1     152.843 146.674 149.547  1.00  0.00     0.009 C 
ATOM     24  C   UNL     1     153.607 148.031 149.418  1.00  0.00     0.025 C 
ATOM     25  C   UNL     1     152.695 149.646 151.085  1.00  0.00     0.050 C 
ATOM     26  C   UNL     1     154.999 148.164 150.130  1.00  0.00    -0.013 C 
ATOM     27  C   UNL     1     153.796 149.306 152.013  1.00  0.00     0.159 C 
ATOM     28  C   UNL     1     154.751 148.189 151.662  1.00  0.00     0.070 C 
ATOM     29  C   UNL     1     155.953 146.985 149.750  1.00  0.00     0.042 C 
ATOM     30  C   UNL     1     155.635 149.500 149.620  1.00  0.00     0.013 C 
ATOM     31  O   UNL     1     153.893 149.920 153.117  1.00  0.00    -0.295 OA
ATOM     32  C   UNL     1     156.072 148.217 152.462  1.00  0.00     0.047 C 
ATOM     33  C   UNL     1     157.250 146.915 150.596  1.00  0.00     0.143 C 
ATOM     34  C   UNL     1     156.938 146.985 152.128  1.00  0.00     0.143 C 
BRANCH  19  35
ATOM     35  O   UNL     1     151.871 149.269 147.572  1.00  0.00    -0.385 OA
ATOM     36  H   UNL     1     151.610 150.152 147.191  1.00  0.00     0.211 HD
ENDBRANCH  19  35
BRANCH  33  37
ATOM     37  O   UNL     1     158.190 147.874 150.159  1.00  0.00    -0.390 OA
ATOM     38  H   UNL     1     159.099 147.656 150.491  1.00  0.00     0.211 HD
ENDBRANCH  33  37
BRANCH  34  39
ATOM     39  O   UNL     1     156.284 145.833 152.605  1.00  0.00    -0.390 OA
ATOM     40  H   UNL     1     156.895 145.059 152.563  1.00  0.00     0.211 HD
ENDBRANCH  34  39
ENDBRANCH   1  15
BRANCH   1  41
ATOM     41  O   UNL     1     148.121 146.344 149.975  1.00  0.00    -0.387 OA
ATOM     42  H   UNL     1     148.199 145.871 150.832  1.00  0.00     0.211 HD
ENDBRANCH   1  41
TORSDOF 9
ENDMDL
MODEL 8
REMARK VINA RESULT:    -6.046      4.651      9.134
REMARK INTER + INTRA:          -9.386
REMARK INTER:                  -8.764
REMARK INTRA:                  -0.622
REMARK UNBOUND:                -1.042
REMARK SMILES C[C@@H]1OC(=O)[C@@H](C)[C@@H]1C[C@H](O)[C@@](C)(O)[C@@H]1CC[C@@]2(O)C3=CC(=O)[C@@H]4C[C@@H](O)[C@H](O)C[C@@]4(C)[C@H]3CC[C@@]12C
REMARK SMILES IDX 12 1 13 2 10 3 9 4 8 5 7 6 6 7 4 8 2 9 3 10 5 11 1 12 11 13
REMARK SMILES IDX 15 15 16 16 36 17 17 18 18 19 35 20 37 21 20 22 34 23 33 24
REMARK SMILES IDX 21 25 31 26 22 27 24 28 30 29 32 30 23 31 25 32 28 33 26 34
REMARK SMILES IDX 19 35 29 37 27 39 14 41
REMARK H PARENT 11 14 19 36 29 38 27 40 14 42
REMARK Flexibility Score: inf
ROOT
ATOM      1  C   UNL     1     152.865 154.496 149.920  1.00  0.00     0.091 C 
ATOM      2  C   UNL     1     154.142 155.325 150.197  1.00  0.00     0.045 C 
ENDROOT
BRANCH   1   3
ATOM      3  C   UNL     1     151.918 155.286 148.930  1.00  0.00     0.146 C 
BRANCH   3   4
ATOM      4  C   UNL     1     152.560 156.396 148.055  1.00  0.00     0.043 C 
BRANCH   4   5
ATOM      5  C   UNL     1     151.990 156.510 146.612  1.00  0.00     0.046 C 
ATOM      6  C   UNL     1     149.695 157.666 146.756  1.00  0.00     0.020 C 
ATOM      7  C   UNL     1     151.177 157.804 146.382  1.00  0.00     0.103 C 
ATOM      8  C   UNL     1     151.366 158.004 144.924  1.00  0.00     0.309 C 
ATOM      9  C   UNL     1     153.014 156.483 145.442  1.00  0.00     0.177 C 
ATOM     10  O   UNL     1     152.358 157.195 144.404  1.00  0.00    -0.462 OA
ATOM     11  O   UNL     1     150.759 158.862 144.226  1.00  0.00    -0.252 OA
ATOM     12  C   UNL     1     154.340 157.208 145.725  1.00  0.00     0.053 C 
ENDBRANCH   4   5
ENDBRANCH   3   4
BRANCH   3  13
ATOM     13  O   UNL     1     150.843 155.845 149.638  1.00  0.00    -0.390 OA
ATOM     14  H   UNL     1     150.147 155.140 149.725  1.00  0.00     0.211 HD
ENDBRANCH   3  13
ENDBRANCH   1   3
BRANCH   1  15
ATOM     15  C   UNL     1     153.287 153.095 149.269  1.00  0.00     0.032 C 
ATOM     16  C   UNL     1     153.924 153.226 147.877  1.00  0.00     0.010 C 
ATOM     17  C   UNL     1     152.258 151.902 149.163  1.00  0.00     0.006 C 
ATOM     18  C   UNL     1     153.757 151.910 147.144  1.00  0.00     0.041 C 
ATOM     19  C   UNL     1     152.857 151.002 148.006  1.00  0.00     0.092 C 
ATOM     20  C   UNL     1     152.176 151.112 150.543  1.00  0.00     0.011 C 
ATOM     21  C   UNL     1     150.829 152.379 148.785  1.00  0.00     0.015 C 
ATOM     22  C   UNL     1     153.556 149.808 148.653  1.00  0.00    -0.031 C 
ATOM     23  C   UNL     1     151.823 149.606 150.432  1.00  0.00     0.009 C 
ATOM     24  C   UNL     1     152.577 148.840 149.298  1.00  0.00     0.025 C 
ATOM     25  C   UNL     1     154.859 149.809 149.034  1.00  0.00     0.050 C 
ATOM     26  C   UNL     1     153.256 147.472 149.657  1.00  0.00    -0.013 C 
ATOM     27  C   UNL     1     155.410 148.738 149.894  1.00  0.00     0.159 C 
ATOM     28  C   UNL     1     154.471 147.769 150.576  1.00  0.00     0.070 C 
ATOM     29  C   UNL     1     152.256 146.505 150.370  1.00  0.00     0.042 C 
ATOM     30  C   UNL     1     153.694 146.822 148.303  1.00  0.00     0.013 C 
ATOM     31  O   UNL     1     156.660 148.677 150.091  1.00  0.00    -0.295 OA
ATOM     32  C   UNL     1     155.153 146.476 151.071  1.00  0.00     0.047 C 
ATOM     33  C   UNL     1     152.914 145.235 150.970  1.00  0.00     0.143 C 
ATOM     34  C   UNL     1     154.155 145.597 151.852  1.00  0.00     0.143 C 
BRANCH  19  35
ATOM     35  O   UNL     1     151.839 150.518 147.154  1.00  0.00    -0.385 OA
ATOM     36  H   UNL     1     152.270 150.181 146.321  1.00  0.00     0.211 HD
ENDBRANCH  19  35
BRANCH  33  37
ATOM     37  O   UNL     1     153.185 144.284 149.963  1.00  0.00    -0.390 OA
ATOM     38  H   UNL     1     153.548 143.447 150.355  1.00  0.00     0.211 HD
ENDBRANCH  33  37
BRANCH  34  39
ATOM     39  O   UNL     1     153.804 146.264 153.041  1.00  0.00    -0.390 OA
ATOM     40  H   UNL     1     153.617 147.214 152.849  1.00  0.00     0.211 HD
ENDBRANCH  34  39
ENDBRANCH   1  15
BRANCH   1  41
ATOM     41  O   UNL     1     152.220 154.319 151.163  1.00  0.00    -0.387 OA
ATOM     42  H   UNL     1     152.409 155.089 151.744  1.00  0.00     0.211 HD
ENDBRANCH   1  41
TORSDOF 9
ENDMDL
MODEL 9
REMARK VINA RESULT:    -5.977      2.311      7.154
REMARK INTER + INTRA:          -9.291
REMARK INTER:                  -8.450
REMARK INTRA:                  -0.841
REMARK UNBOUND:                -1.042
REMARK SMILES C[C@@H]1OC(=O)[C@@H](C)[C@@H]1C[C@H](O)[C@@](C)(O)[C@@H]1CC[C@@]2(O)C3=CC(=O)[C@@H]4C[C@@H](O)[C@H](O)C[C@@]4(C)[C@H]3CC[C@@]12C
REMARK SMILES IDX 12 1 13 2 10 3 9 4 8 5 7 6 6 7 4 8 2 9 3 10 5 11 1 12 11 13
REMARK SMILES IDX 15 15 16 16 36 17 17 18 18 19 35 20 37 21 20 22 34 23 33 24
REMARK SMILES IDX 21 25 31 26 22 27 24 28 30 29 32 30 23 31 25 32 28 33 26 34
REMARK SMILES IDX 19 35 29 37 27 39 14 41
REMARK H PARENT 11 14 19 36 29 38 27 40 14 42
REMARK Flexibility Score: inf
ROOT
ATOM      1  C   UNL     1     147.072 146.339 148.765  1.00  0.00     0.091 C 
ATOM      2  C   UNL     1     146.499 146.509 150.193  1.00  0.00     0.045 C 
ENDROOT
BRANCH   1   3
ATOM      3  C   UNL     1     146.055 146.928 147.706  1.00  0.00     0.146 C 
BRANCH   3   4
ATOM      4  C   UNL     1     144.665 147.387 148.224  1.00  0.00     0.043 C 
BRANCH   4   5
ATOM      5  C   UNL     1     144.385 148.911 148.096  1.00  0.00     0.046 C 
ATOM      6  C   UNL     1     146.546 150.168 148.709  1.00  0.00     0.020 C 
ATOM      7  C   UNL     1     145.605 149.711 147.586  1.00  0.00     0.103 C 
ATOM      8  C   UNL     1     144.937 150.856 146.918  1.00  0.00     0.309 C 
ATOM      9  C   UNL     1     143.222 149.341 147.157  1.00  0.00     0.177 C 
ATOM     10  O   UNL     1     143.581 150.654 146.754  1.00  0.00    -0.462 OA
ATOM     11  O   UNL     1     145.528 151.878 146.472  1.00  0.00    -0.252 OA
ATOM     12  C   UNL     1     143.073 148.496 145.881  1.00  0.00     0.053 C 
ENDBRANCH   4   5
ENDBRANCH   3   4
BRANCH   3  13
ATOM     13  O   UNL     1     145.859 146.007 146.666  1.00  0.00    -0.390 OA
ATOM     14  H   UNL     1     146.568 145.314 146.747  1.00  0.00     0.211 HD
ENDBRANCH   3  13
ENDBRANCH   1   3
BRANCH   1  15
ATOM     15  C   UNL     1     148.468 147.117 148.670  1.00  0.00     0.032 C 
ATOM     16  C   UNL     1     149.359 146.653 147.508  1.00  0.00     0.010 C 
ATOM     17  C   UNL     1     149.421 147.238 149.924  1.00  0.00     0.006 C 
ATOM     18  C   UNL     1     150.798 147.003 147.833  1.00  0.00     0.041 C 
ATOM     19  C   UNL     1     150.838 147.531 149.281  1.00  0.00     0.092 C 
ATOM     20  C   UNL     1     148.947 148.427 150.872  1.00  0.00     0.011 C 
ATOM     21  C   UNL     1     149.472 145.933 150.762  1.00  0.00     0.015 C 
ATOM     22  C   UNL     1     151.122 149.024 149.428  1.00  0.00    -0.031 C 
ATOM     23  C   UNL     1     150.069 149.123 151.685  1.00  0.00     0.009 C 
ATOM     24  C   UNL     1     151.368 149.430 150.872  1.00  0.00     0.025 C 
ATOM     25  C   UNL     1     150.755 149.959 148.515  1.00  0.00     0.050 C 
ATOM     26  C   UNL     1     151.983 150.869 150.981  1.00  0.00    -0.013 C 
ATOM     27  C   UNL     1     150.811 151.404 148.827  1.00  0.00     0.159 C 
ATOM     28  C   UNL     1     151.026 151.852 150.255  1.00  0.00     0.070 C 
ATOM     29  C   UNL     1     152.180 151.299 152.471  1.00  0.00     0.042 C 
ATOM     30  C   UNL     1     153.388 150.807 150.294  1.00  0.00     0.013 C 
ATOM     31  O   UNL     1     150.623 152.250 147.903  1.00  0.00    -0.295 OA
ATOM     32  C   UNL     1     151.492 153.318 150.389  1.00  0.00     0.047 C 
ATOM     33  C   UNL     1     152.553 152.792 152.660  1.00  0.00     0.143 C 
ATOM     34  C   UNL     1     151.578 153.730 151.873  1.00  0.00     0.143 C 
BRANCH  19  35
ATOM     35  O   UNL     1     151.859 146.812 149.943  1.00  0.00    -0.385 OA
ATOM     36  H   UNL     1     151.663 145.840 149.846  1.00  0.00     0.211 HD
ENDBRANCH  19  35
BRANCH  33  37
ATOM     37  O   UNL     1     153.918 153.012 152.371  1.00  0.00    -0.390 OA
ATOM     38  H   UNL     1     154.174 152.569 151.521  1.00  0.00     0.211 HD
ENDBRANCH  33  37
BRANCH  34  39
ATOM     39  O   UNL     1     150.277 153.741 152.413  1.00  0.00    -0.390 OA
ATOM     40  H   UNL     1     150.276 153.294 153.293  1.00  0.00     0.211 HD
ENDBRANCH  34  39
ENDBRANCH   1  15
BRANCH   1  41
ATOM     41  O   UNL     1     147.234 144.953 148.556  1.00  0.00    -0.387 OA
ATOM     42  H   UNL     1     146.831 144.458 149.303  1.00  0.00     0.211 HD
ENDBRANCH   1  41
TORSDOF 9
ENDMDL
