MODEL 1
REMARK VINA RESULT:    -4.143      0.000      0.000
REMARK INTER + INTRA:          -5.720
REMARK INTER:                  -6.080
REMARK INTRA:                   0.360
REMARK UNBOUND:                 0.360
REMARK SMILES C=C1CC=CC(C)(C)CC=C(C)CCC1
REMARK SMILES IDX 2 1 1 2 15 3 14 4 13 5 11 6 12 7 10 8 3 10 4 11 5 12 6 13
REMARK SMILES IDX 7 14 8 15 9 16
REMARK H PARENT
REMARK Flexibility Score: 60.00
ROOT
ATOM      1  C   UNL     1      10.236  32.903  24.788  1.00  0.00    -0.074 C 
ATOM      2  C   UNL     1      10.393  32.712  26.108  1.00  0.00     0.008 C 
ENDROOT
BRANCH   1   3
ATOM      3  C   UNL     1       9.094  33.787  24.318  1.00  0.00     0.031 C 
BRANCH   3   4
ATOM      4  C   UNL     1       7.707  33.079  24.244  1.00  0.00     0.009 C 
BRANCH   4   5
ATOM      5  C   UNL     1       7.556  31.956  23.180  1.00  0.00     0.030 C 
BRANCH   5   6
ATOM      6  C   UNL     1       7.514  32.415  21.726  1.00  0.00    -0.077 C 
ATOM      7  C   UNL     1       6.316  33.199  21.251  1.00  0.00     0.039 C 
ATOM      8  C   UNL     1       8.551  32.276  20.862  1.00  0.00    -0.027 CG0
ATOM      9  G   UNL     1       9.749  31.388  21.081  1.00  0.00     0.000 G0
ENDBRANCH   5   6
ENDBRANCH   4   5
ENDBRANCH   3   4
ENDBRANCH   1   3
BRANCH   1  10
ATOM     10  C   UNL     1      11.290  32.335  23.842  1.00  0.00     0.057 C 
BRANCH  10  11
ATOM     11  C   UNL     1      11.741  33.251  22.725  1.00  0.00    -0.026 C 
ATOM     12  C   UNL     1      11.560  33.123  21.385  1.00  0.00    -0.024 C 
BRANCH  12  13
ATOM     13  C   UNL     1      11.131  31.902  20.548  1.00  0.00    -0.014 C 
ATOM     14  C   UNL     1      11.166  32.171  19.022  1.00  0.00     0.016 C 
ATOM     15  C   UNL     1      12.178  30.787  20.806  1.00  0.00     0.016 C 
BRANCH  13  16
ATOM     16  C   UNL     1       9.751  31.399  21.089  1.00  0.00     0.038 CG0
ATOM     17  G   UNL     1       8.546  32.276  20.862  1.00  0.00     0.000 G0
ENDBRANCH  13  16
ENDBRANCH  12  13
ENDBRANCH  10  11
ENDBRANCH   1  10
TORSDOF 0
ENDMDL
MODEL 2
REMARK VINA RESULT:    -4.087      1.749      5.040
REMARK INTER + INTRA:          -5.638
REMARK INTER:                  -5.948
REMARK INTRA:                   0.309
REMARK UNBOUND:                 0.360
REMARK SMILES C=C1CC=CC(C)(C)CC=C(C)CCC1
REMARK SMILES IDX 2 1 1 2 15 3 14 4 13 5 11 6 12 7 10 8 3 10 4 11 5 12 6 13
REMARK SMILES IDX 7 14 8 15 9 16
REMARK H PARENT
REMARK Flexibility Score: 60.00
ROOT
ATOM      1  C   UNL     1       8.931  34.132  19.611  1.00  0.00    -0.074 C 
ATOM      2  C   UNL     1       8.097  33.401  18.855  1.00  0.00     0.008 C 
ENDROOT
BRANCH   1   3
ATOM      3  C   UNL     1      10.220  34.632  18.984  1.00  0.00     0.031 C 
BRANCH   3   4
ATOM      4  C   UNL     1      11.483  33.779  19.314  1.00  0.00     0.009 C 
BRANCH   4   5
ATOM      5  C   UNL     1      11.315  32.683  20.403  1.00  0.00     0.030 C 
BRANCH   5   6
ATOM      6  C   UNL     1      12.019  32.947  21.731  1.00  0.00    -0.077 C 
ATOM      7  C   UNL     1      13.423  33.498  21.706  1.00  0.00     0.039 C 
ATOM      8  C   UNL     1      11.411  32.841  22.939  1.00  0.00    -0.027 CG0
ATOM      9  G   UNL     1      10.092  32.155  23.189  1.00  0.00     0.000 G0
ENDBRANCH   5   6
ENDBRANCH   4   5
ENDBRANCH   3   4
ENDBRANCH   1   3
BRANCH   1  10
ATOM     10  C   UNL     1       8.479  34.533  21.013  1.00  0.00     0.057 C 
BRANCH  10  11
ATOM     11  C   UNL     1       7.586  33.543  21.729  1.00  0.00    -0.026 C 
ATOM     12  C   UNL     1       7.727  32.998  22.964  1.00  0.00    -0.024 C 
BRANCH  12  13
ATOM     13  C   UNL     1       8.950  32.952  23.900  1.00  0.00    -0.014 C 
ATOM     14  C   UNL     1       9.379  34.353  24.406  1.00  0.00     0.016 C 
ATOM     15  C   UNL     1       8.524  32.157  25.163  1.00  0.00     0.016 C 
BRANCH  13  16
ATOM     16  C   UNL     1      10.084  32.144  23.185  1.00  0.00     0.038 CG0
ATOM     17  G   UNL     1      11.393  32.847  22.930  1.00  0.00     0.000 G0
ENDBRANCH  13  16
ENDBRANCH  12  13
ENDBRANCH  10  11
ENDBRANCH   1  10
TORSDOF 0
ENDMDL
MODEL 3
REMARK VINA RESULT:    -4.072      1.810      4.146
REMARK INTER + INTRA:          -5.615
REMARK INTER:                  -6.283
REMARK INTRA:                   0.667
REMARK UNBOUND:                 0.360
REMARK SMILES C=C1CC=CC(C)(C)CC=C(C)CCC1
REMARK SMILES IDX 2 1 1 2 15 3 14 4 13 5 11 6 12 7 10 8 3 10 4 11 5 12 6 13
REMARK SMILES IDX 7 14 8 15 9 16
REMARK H PARENT
REMARK Flexibility Score: 60.00
ROOT
ATOM      1  C   UNL     1      13.119  33.241  21.278  1.00  0.00    -0.074 C 
ATOM      2  C   UNL     1      14.379  32.795  21.401  1.00  0.00     0.008 C 
ENDROOT
BRANCH   1   3
ATOM      3  C   UNL     1      12.532  33.369  19.883  1.00  0.00     0.031 C 
BRANCH   3   4
ATOM      4  C   UNL     1      11.006  33.064  19.785  1.00  0.00     0.009 C 
BRANCH   4   5
ATOM      5  C   UNL     1      10.076  34.269  19.474  1.00  0.00     0.030 C 
BRANCH   5   6
ATOM      6  C   UNL     1       8.628  34.133  19.935  1.00  0.00    -0.077 C 
ATOM      7  C   UNL     1       7.560  33.892  18.897  1.00  0.00     0.039 C 
ATOM      8  C   UNL     1       8.254  34.083  21.239  1.00  0.00    -0.027 CG0
ATOM      9  G   UNL     1       9.126  34.469  22.406  1.00  0.00     0.000 G0
ENDBRANCH   5   6
ENDBRANCH   4   5
ENDBRANCH   3   4
ENDBRANCH   1   3
BRANCH   1  10
ATOM     10  C   UNL     1      12.302  33.468  22.547  1.00  0.00     0.057 C 
BRANCH  10  11
ATOM     11  C   UNL     1      11.415  32.321  22.978  1.00  0.00    -0.026 C 
ATOM     12  C   UNL     1      10.099  32.333  23.312  1.00  0.00    -0.024 C 
BRANCH  12  13
ATOM     13  C   UNL     1       9.168  33.511  23.659  1.00  0.00    -0.014 C 
ATOM     14  C   UNL     1       7.780  33.055  24.176  1.00  0.00     0.016 C 
ATOM     15  C   UNL     1       9.828  34.277  24.835  1.00  0.00     0.016 C 
BRANCH  13  16
ATOM     16  C   UNL     1       9.119  34.475  22.426  1.00  0.00     0.038 CG0
ATOM     17  G   UNL     1       8.257  34.074  21.257  1.00  0.00     0.000 G0
ENDBRANCH  13  16
ENDBRANCH  12  13
ENDBRANCH  10  11
ENDBRANCH   1  10
TORSDOF 0
ENDMDL
MODEL 4
REMARK VINA RESULT:    -4.021      1.643      4.201
REMARK INTER + INTRA:          -5.541
REMARK INTER:                  -5.601
REMARK INTRA:                   0.061
REMARK UNBOUND:                 0.360
REMARK SMILES C=C1CC=CC(C)(C)CC=C(C)CCC1
REMARK SMILES IDX 2 1 1 2 15 3 14 4 13 5 11 6 12 7 10 8 3 10 4 11 5 12 6 13
REMARK SMILES IDX 7 14 8 15 9 16
REMARK H PARENT
REMARK Flexibility Score: 60.00
ROOT
ATOM      1  C   UNL     1      12.442  32.157  22.211  1.00  0.00    -0.074 C 
ATOM      2  C   UNL     1      12.722  30.963  21.665  1.00  0.00     0.008 C 
ENDROOT
BRANCH   1   3
ATOM      3  C   UNL     1      13.212  33.372  21.724  1.00  0.00     0.031 C 
BRANCH   3   4
ATOM      4  C   UNL     1      13.268  33.533  20.174  1.00  0.00     0.009 C 
BRANCH   4   5
ATOM      5  C   UNL     1      11.953  33.976  19.474  1.00  0.00     0.030 C 
BRANCH   5   6
ATOM      6  C   UNL     1      11.098  32.857  18.887  1.00  0.00    -0.077 C 
ATOM      7  C   UNL     1      11.737  31.895  17.917  1.00  0.00     0.039 C 
ATOM      8  C   UNL     1       9.828  32.592  19.285  1.00  0.00    -0.027 CG0
ATOM      9  G   UNL     1       8.964  33.519  20.101  1.00  0.00     0.000 G0
ENDBRANCH   5   6
ENDBRANCH   4   5
ENDBRANCH   3   4
ENDBRANCH   1   3
BRANCH   1  10
ATOM     10  C   UNL     1      11.277  32.252  23.192  1.00  0.00     0.057 C 
BRANCH  10  11
ATOM     11  C   UNL     1      10.494  33.546  23.168  1.00  0.00    -0.026 C 
ATOM     12  C   UNL     1       9.298  33.814  22.583  1.00  0.00    -0.024 C 
BRANCH  12  13
ATOM     13  C   UNL     1       8.507  33.024  21.522  1.00  0.00    -0.014 C 
ATOM     14  C   UNL     1       8.583  31.490  21.729  1.00  0.00     0.016 C 
ATOM     15  C   UNL     1       7.013  33.402  21.698  1.00  0.00     0.016 C 
BRANCH  13  16
ATOM     16  C   UNL     1       8.962  33.513  20.107  1.00  0.00     0.038 CG0
ATOM     17  G   UNL     1       9.805  32.577  19.279  1.00  0.00     0.000 G0
ENDBRANCH  13  16
ENDBRANCH  12  13
ENDBRANCH  10  11
ENDBRANCH   1  10
TORSDOF 0
ENDMDL
MODEL 5
REMARK VINA RESULT:    -4.019      1.017      3.566
REMARK INTER + INTRA:          -5.538
REMARK INTER:                  -5.995
REMARK INTRA:                   0.457
REMARK UNBOUND:                 0.360
REMARK SMILES C=C1CC=CC(C)(C)CC=C(C)CCC1
REMARK SMILES IDX 2 1 1 2 15 3 14 4 13 5 11 6 12 7 10 8 3 10 4 11 5 12 6 13
REMARK SMILES IDX 7 14 8 15 9 16
REMARK H PARENT
REMARK Flexibility Score: 60.00
ROOT
ATOM      1  C   UNL     1       9.678  32.795  25.246  1.00  0.00    -0.074 C 
ATOM      2  C   UNL     1      10.000  32.391  26.485  1.00  0.00     0.008 C 
ENDROOT
BRANCH   1   3
ATOM      3  C   UNL     1      10.756  33.442  24.395  1.00  0.00     0.031 C 
BRANCH   3   4
ATOM      4  C   UNL     1      11.243  32.582  23.189  1.00  0.00     0.009 C 
BRANCH   4   5
ATOM      5  C   UNL     1      11.197  33.258  21.791  1.00  0.00     0.030 C 
BRANCH   5   6
ATOM      6  C   UNL     1      11.048  32.319  20.598  1.00  0.00    -0.077 C 
ATOM      7  C   UNL     1      12.279  31.632  20.062  1.00  0.00     0.039 C 
ATOM      8  C   UNL     1       9.851  31.957  20.069  1.00  0.00    -0.027 CG0
ATOM      9  G   UNL     1       8.539  32.648  20.342  1.00  0.00     0.000 G0
ENDBRANCH   5   6
ENDBRANCH   4   5
ENDBRANCH   3   4
ENDBRANCH   1   3
BRANCH   1  10
ATOM     10  C   UNL     1       8.287  32.463  24.712  1.00  0.00     0.057 C 
BRANCH  10  11
ATOM     11  C   UNL     1       7.697  33.457  23.736  1.00  0.00    -0.026 C 
ATOM     12  C   UNL     1       7.310  33.268  22.448  1.00  0.00    -0.024 C 
BRANCH  12  13
ATOM     13  C   UNL     1       7.612  32.112  21.475  1.00  0.00    -0.014 C 
ATOM     14  C   UNL     1       8.144  30.843  22.188  1.00  0.00     0.016 C 
ATOM     15  C   UNL     1       6.264  31.702  20.827  1.00  0.00     0.016 C 
BRANCH  13  16
ATOM     16  C   UNL     1       8.542  32.659  20.340  1.00  0.00     0.038 CG0
ATOM     17  G   UNL     1       9.844  31.940  20.093  1.00  0.00     0.000 G0
ENDBRANCH  13  16
ENDBRANCH  12  13
ENDBRANCH  10  11
ENDBRANCH   1  10
TORSDOF 0
ENDMDL
MODEL 6
REMARK VINA RESULT:    -3.932      1.495      3.571
REMARK INTER + INTRA:          -5.411
REMARK INTER:                  -5.975
REMARK INTRA:                   0.564
REMARK UNBOUND:                 0.360
REMARK SMILES C=C1CC=CC(C)(C)CC=C(C)CCC1
REMARK SMILES IDX 2 1 1 2 15 3 14 4 13 5 11 6 12 7 10 8 3 10 4 11 5 12 6 13
REMARK SMILES IDX 7 14 8 15 9 16
REMARK H PARENT
REMARK Flexibility Score: 60.00
ROOT
ATOM      1  C   UNL     1      11.886  32.900  21.847  1.00  0.00    -0.074 C 
ATOM      2  C   UNL     1      13.128  33.388  21.991  1.00  0.00     0.008 C 
ENDROOT
BRANCH   1   3
ATOM      3  C   UNL     1      11.168  32.382  23.080  1.00  0.00     0.031 C 
BRANCH   3   4
ATOM      4  C   UNL     1      10.966  33.436  24.211  1.00  0.00     0.009 C 
BRANCH   4   5
ATOM      5  C   UNL     1       9.518  33.960  24.421  1.00  0.00     0.030 C 
BRANCH   5   6
ATOM      6  C   UNL     1       8.397  33.028  23.969  1.00  0.00    -0.077 C 
ATOM      7  C   UNL     1       7.892  31.986  24.934  1.00  0.00     0.039 C 
ATOM      8  C   UNL     1       7.733  33.165  22.793  1.00  0.00    -0.027 CG0
ATOM      9  G   UNL     1       8.187  34.017  21.635  1.00  0.00     0.000 G0
ENDBRANCH   5   6
ENDBRANCH   4   5
ENDBRANCH   3   4
ENDBRANCH   1   3
BRANCH   1  10
ATOM     10  C   UNL     1      11.215  33.014  20.481  1.00  0.00     0.057 C 
BRANCH  10  11
ATOM     11  C   UNL     1      10.105  32.023  20.203  1.00  0.00    -0.026 C 
ATOM     12  C   UNL     1       8.789  32.254  19.959  1.00  0.00    -0.024 C 
BRANCH  12  13
ATOM     13  C   UNL     1       7.942  33.522  20.181  1.00  0.00    -0.014 C 
ATOM     14  C   UNL     1       8.156  34.594  19.082  1.00  0.00     0.016 C 
ATOM     15  C   UNL     1       6.454  33.096  20.074  1.00  0.00     0.016 C 
BRANCH  13  16
ATOM     16  C   UNL     1       8.191  34.029  21.641  1.00  0.00     0.038 CG0
ATOM     17  G   UNL     1       7.727  33.153  22.777  1.00  0.00     0.000 G0
ENDBRANCH  13  16
ENDBRANCH  12  13
ENDBRANCH  10  11
ENDBRANCH   1  10
TORSDOF 0
ENDMDL
MODEL 7
REMARK VINA RESULT:    -3.923      1.407      1.630
REMARK INTER + INTRA:          -5.398
REMARK INTER:                  -5.943
REMARK INTRA:                   0.545
REMARK UNBOUND:                 0.360
REMARK SMILES C=C1CC=CC(C)(C)CC=C(C)CCC1
REMARK SMILES IDX 2 1 1 2 15 3 14 4 13 5 11 6 12 7 10 8 3 10 4 11 5 12 6 13
REMARK SMILES IDX 7 14 8 15 9 16
REMARK H PARENT
REMARK Flexibility Score: 60.00
ROOT
ATOM      1  C   UNL     1      10.333  33.382  24.120  1.00  0.00    -0.074 C 
ATOM      2  C   UNL     1      10.452  33.356  25.457  1.00  0.00     0.008 C 
ENDROOT
BRANCH   1   3
ATOM      3  C   UNL     1       9.379  34.388  23.500  1.00  0.00     0.031 C 
BRANCH   3   4
ATOM      4  C   UNL     1       8.504  33.830  22.337  1.00  0.00     0.009 C 
BRANCH   4   5
ATOM      5  C   UNL     1       8.840  34.343  20.909  1.00  0.00     0.030 C 
BRANCH   5   6
ATOM      6  C   UNL     1       8.576  33.364  19.768  1.00  0.00    -0.077 C 
ATOM      7  C   UNL     1       7.439  33.652  18.820  1.00  0.00     0.039 C 
ATOM      8  C   UNL     1       9.385  32.316  19.473  1.00  0.00    -0.027 CG0
ATOM      9  G   UNL     1      10.454  31.764  20.380  1.00  0.00     0.000 G0
ENDBRANCH   5   6
ENDBRANCH   4   5
ENDBRANCH   3   4
ENDBRANCH   1   3
BRANCH   1  10
ATOM     10  C   UNL     1      11.256  32.493  23.291  1.00  0.00     0.057 C 
BRANCH  10  11
ATOM     11  C   UNL     1      12.257  33.213  22.413  1.00  0.00    -0.026 C 
ATOM     12  C   UNL     1      12.446  33.118  21.072  1.00  0.00    -0.024 C 
BRANCH  12  13
ATOM     13  C   UNL     1      11.947  32.062  20.066  1.00  0.00    -0.014 C 
ATOM     14  C   UNL     1      12.217  32.454  18.592  1.00  0.00     0.016 C 
ATOM     15  C   UNL     1      12.771  30.772  20.320  1.00  0.00     0.016 C 
BRANCH  13  16
ATOM     16  C   UNL     1      10.449  31.745  20.391  1.00  0.00     0.038 CG0
ATOM     17  G   UNL     1       9.397  32.310  19.471  1.00  0.00     0.000 G0
ENDBRANCH  13  16
ENDBRANCH  12  13
ENDBRANCH  10  11
ENDBRANCH   1  10
TORSDOF 0
ENDMDL
MODEL 8
REMARK VINA RESULT:    -3.872      1.837      3.932
REMARK INTER + INTRA:          -5.322
REMARK INTER:                  -5.832
REMARK INTRA:                   0.510
REMARK UNBOUND:                 0.360
REMARK SMILES C=C1CC=CC(C)(C)CC=C(C)CCC1
REMARK SMILES IDX 2 1 1 2 15 3 14 4 13 5 11 6 12 7 10 8 3 10 4 11 5 12 6 13
REMARK SMILES IDX 7 14 8 15 9 16
REMARK H PARENT
REMARK Flexibility Score: 60.00
ROOT
ATOM      1  C   UNL     1      10.317  33.036  23.689  1.00  0.00    -0.074 C 
ATOM      2  C   UNL     1      10.416  33.440  24.966  1.00  0.00     0.008 C 
ENDROOT
BRANCH   1   3
ATOM      3  C   UNL     1      11.512  32.347  23.056  1.00  0.00     0.031 C 
BRANCH   3   4
ATOM      4  C   UNL     1      12.382  33.258  22.138  1.00  0.00     0.009 C 
BRANCH   4   5
ATOM      5  C   UNL     1      12.669  32.728  20.705  1.00  0.00     0.030 C 
BRANCH   5   6
ATOM      6  C   UNL     1      12.104  33.561  19.559  1.00  0.00    -0.077 C 
ATOM      7  C   UNL     1      12.970  34.638  18.954  1.00  0.00     0.039 C 
ATOM      8  C   UNL     1      10.915  33.305  18.957  1.00  0.00    -0.027 CG0
ATOM      9  G   UNL     1       9.841  32.402  19.508  1.00  0.00     0.000 G0
ENDBRANCH   5   6
ENDBRANCH   4   5
ENDBRANCH   3   4
ENDBRANCH   1   3
BRANCH   1  10
ATOM     10  C   UNL     1       8.968  33.170  22.988  1.00  0.00     0.057 C 
BRANCH  10  11
ATOM     11  C   UNL     1       8.859  34.284  21.969  1.00  0.00    -0.026 C 
ATOM     12  C   UNL     1       8.508  34.216  20.659  1.00  0.00    -0.024 C 
BRANCH  12  13
ATOM     13  C   UNL     1       8.410  33.002  19.714  1.00  0.00    -0.014 C 
ATOM     14  C   UNL     1       7.348  31.968  20.165  1.00  0.00     0.016 C 
ATOM     15  C   UNL     1       7.925  33.537  18.341  1.00  0.00     0.016 C 
BRANCH  13  16
ATOM     16  C   UNL     1       9.848  32.416  19.519  1.00  0.00     0.038 CG0
ATOM     17  G   UNL     1      10.911  33.331  18.967  1.00  0.00     0.000 G0
ENDBRANCH  13  16
ENDBRANCH  12  13
ENDBRANCH  10  11
ENDBRANCH   1  10
TORSDOF 0
ENDMDL
MODEL 9
REMARK VINA RESULT:    -3.783      1.259      3.684
REMARK INTER + INTRA:          -5.193
REMARK INTER:                  -5.663
REMARK INTRA:                   0.470
REMARK UNBOUND:                 0.360
REMARK SMILES C=C1CC=CC(C)(C)CC=C(C)CCC1
REMARK SMILES IDX 2 1 1 2 15 3 14 4 13 5 11 6 12 7 10 8 3 10 4 11 5 12 6 13
REMARK SMILES IDX 7 14 8 15 9 16
REMARK H PARENT
REMARK Flexibility Score: 60.00
ROOT
ATOM      1  C   UNL     1       9.964  32.999  24.448  1.00  0.00    -0.074 C 
ATOM      2  C   UNL     1      10.692  32.696  25.534  1.00  0.00     0.008 C 
ENDROOT
BRANCH   1   3
ATOM      3  C   UNL     1      10.694  33.346  23.163  1.00  0.00     0.031 C 
BRANCH   3   4
ATOM      4  C   UNL     1      11.826  32.351  22.764  1.00  0.00     0.009 C 
BRANCH   4   5
ATOM      5  C   UNL     1      11.561  31.461  21.519  1.00  0.00     0.030 C 
BRANCH   5   6
ATOM      6  C   UNL     1      10.432  31.917  20.599  1.00  0.00    -0.077 C 
ATOM      7  C   UNL     1      10.741  32.929  19.524  1.00  0.00     0.039 C 
ATOM      8  C   UNL     1       9.190  31.368  20.602  1.00  0.00    -0.027 CG0
ATOM      9  G   UNL     1       8.637  30.482  21.688  1.00  0.00     0.000 G0
ENDBRANCH   5   6
ENDBRANCH   4   5
ENDBRANCH   3   4
ENDBRANCH   1   3
BRANCH   1  10
ATOM     10  C   UNL     1       8.447  32.850  24.527  1.00  0.00     0.057 C 
BRANCH  10  11
ATOM     11  C   UNL     1       7.683  33.170  23.260  1.00  0.00    -0.026 C 
ATOM     12  C   UNL     1       7.067  32.326  22.393  1.00  0.00    -0.024 C 
BRANCH  12  13
ATOM     13  C   UNL     1       7.193  30.799  22.229  1.00  0.00    -0.014 C 
ATOM     14  C   UNL     1       6.802  30.018  23.509  1.00  0.00     0.016 C 
ATOM     15  C   UNL     1       6.168  30.375  21.144  1.00  0.00     0.016 C 
BRANCH  13  16
ATOM     16  C   UNL     1       8.626  30.481  21.685  1.00  0.00     0.038 CG0
ATOM     17  G   UNL     1       9.185  31.381  20.612  1.00  0.00     0.000 G0
ENDBRANCH  13  16
ENDBRANCH  12  13
ENDBRANCH  10  11
ENDBRANCH   1  10
TORSDOF 0
ENDMDL
