MODEL 1
REMARK VINA RESULT:    -4.408      0.000      0.000
REMARK INTER + INTRA:          -5.937
REMARK INTER:                  -6.212
REMARK INTRA:                   0.275
REMARK UNBOUND:                 0.275
REMARK SMILES CC1=CCC(=C(C)C)C(=O)CC(C)=CCC1
REMARK SMILES IDX 12 1 14 2 13 3 15 4 16 5 2 6 1 7 3 8 11 10 9 11 10 12 5 13
REMARK SMILES IDX 6 14 7 15 8 16 4 17
REMARK H PARENT
REMARK Flexibility Score: 60.00
ROOT
ATOM      1  C   UNL     1      20.595  27.806  36.692  1.00  0.00    -0.070 C 
ATOM      2  C   UNL     1      19.421  28.310  36.251  1.00  0.00    -0.027 C 
ATOM      3  C   UNL     1      20.589  26.421  37.288  1.00  0.00     0.039 C 
ENDROOT
BRANCH   2   4
ATOM      4  C   UNL     1      19.206  29.709  35.716  1.00  0.00     0.032 C 
BRANCH   4   5
ATOM      5  C   UNL     1      19.170  30.815  36.790  1.00  0.00     0.034 C 
BRANCH   5   6
ATOM      6  C   UNL     1      20.168  31.929  36.533  1.00  0.00    -0.077 C 
ATOM      7  C   UNL     1      19.981  32.766  35.293  1.00  0.00     0.039 C 
ATOM      8  C   UNL     1      21.253  32.177  37.306  1.00  0.00    -0.023 CG0
ATOM      9  G   UNL     1      21.631  31.482  38.599  1.00  0.00     0.000 G0
ENDBRANCH   5   6
ENDBRANCH   4   5
ENDBRANCH   2   4
BRANCH   1  10
ATOM     10  C   UNL     1      21.887  28.596  36.701  1.00  0.00     0.111 C 
BRANCH  10  11
ATOM     11  C   UNL     1      22.264  29.031  38.093  1.00  0.00     0.163 C 
ATOM     12  O   UNL     1      22.137  28.198  39.030  1.00  0.00    -0.294 OA
BRANCH  11  13
ATOM     13  C   UNL     1      22.718  30.420  38.404  1.00  0.00    -0.002 C 
ATOM     14  C   UNL     1      24.045  30.699  38.574  1.00  0.00    -0.069 C 
ATOM     15  C   UNL     1      25.108  29.656  38.302  1.00  0.00     0.039 C 
ATOM     16  C   UNL     1      24.523  32.055  39.043  1.00  0.00     0.039 C 
BRANCH  13  17
ATOM     17  C   UNL     1      21.642  31.473  38.611  1.00  0.00     0.066 CG0
ATOM     18  G   UNL     1      21.257  32.167  37.320  1.00  0.00     0.000 G0
ENDBRANCH  13  17
ENDBRANCH  11  13
ENDBRANCH  10  11
ENDBRANCH   1  10
TORSDOF 0
ENDMDL
MODEL 2
REMARK VINA RESULT:    -4.395      1.397      4.180
REMARK INTER + INTRA:          -5.919
REMARK INTER:                  -6.089
REMARK INTRA:                   0.170
REMARK UNBOUND:                 0.275
REMARK SMILES CC1=CCC(=C(C)C)C(=O)CC(C)=CCC1
REMARK SMILES IDX 12 1 14 2 13 3 15 4 16 5 2 6 1 7 3 8 11 10 9 11 10 12 5 13
REMARK SMILES IDX 6 14 7 15 8 16 4 17
REMARK H PARENT
REMARK Flexibility Score: 60.00
ROOT
ATOM      1  C   UNL     1      25.008  29.073  39.604  1.00  0.00    -0.070 C 
ATOM      2  C   UNL     1      25.535  30.318  39.618  1.00  0.00    -0.027 C 
ATOM      3  C   UNL     1      25.515  28.082  40.621  1.00  0.00     0.039 C 
ENDROOT
BRANCH   2   4
ATOM      4  C   UNL     1      25.230  31.417  38.624  1.00  0.00     0.032 C 
BRANCH   4   5
ATOM      5  C   UNL     1      23.892  32.148  38.857  1.00  0.00     0.034 C 
BRANCH   5   6
ATOM      6  C   UNL     1      23.037  32.243  37.607  1.00  0.00    -0.077 C 
ATOM      7  C   UNL     1      23.536  33.113  36.480  1.00  0.00     0.039 C 
ATOM      8  C   UNL     1      21.825  31.654  37.463  1.00  0.00    -0.023 CG0
ATOM      9  G   UNL     1      21.136  30.728  38.446  1.00  0.00     0.000 G0
ENDBRANCH   5   6
ENDBRANCH   4   5
ENDBRANCH   2   4
BRANCH   1  10
ATOM     10  C   UNL     1      24.010  28.605  38.566  1.00  0.00     0.111 C 
BRANCH  10  11
ATOM     11  C   UNL     1      22.594  28.714  39.067  1.00  0.00     0.163 C 
ATOM     12  O   UNL     1      22.337  28.280  40.221  1.00  0.00    -0.294 OA
BRANCH  11  13
ATOM     13  C   UNL     1      21.486  29.258  38.225  1.00  0.00    -0.002 C 
ATOM     14  C   UNL     1      20.902  28.490  37.257  1.00  0.00    -0.069 C 
ATOM     15  C   UNL     1      21.243  27.023  37.107  1.00  0.00     0.039 C 
ATOM     16  C   UNL     1      19.891  29.058  36.286  1.00  0.00     0.039 C 
BRANCH  13  17
ATOM     17  C   UNL     1      21.109  30.716  38.430  1.00  0.00     0.066 CG0
ATOM     18  G   UNL     1      21.842  31.641  37.480  1.00  0.00     0.000 G0
ENDBRANCH  13  17
ENDBRANCH  11  13
ENDBRANCH  10  11
ENDBRANCH   1  10
TORSDOF 0
ENDMDL
MODEL 3
REMARK VINA RESULT:    -4.255      1.871      3.903
REMARK INTER + INTRA:          -5.721
REMARK INTER:                  -5.822
REMARK INTRA:                   0.101
REMARK UNBOUND:                 0.275
REMARK SMILES CC1=CCC(=C(C)C)C(=O)CC(C)=CCC1
REMARK SMILES IDX 12 1 14 2 13 3 15 4 16 5 2 6 1 7 3 8 11 10 9 11 10 12 5 13
REMARK SMILES IDX 6 14 7 15 8 16 4 17
REMARK H PARENT
REMARK Flexibility Score: 60.00
ROOT
ATOM      1  C   UNL     1      18.847  29.162  36.261  1.00  0.00    -0.070 C 
ATOM      2  C   UNL     1      19.650  28.075  36.300  1.00  0.00    -0.027 C 
ATOM      3  C   UNL     1      17.777  29.209  35.198  1.00  0.00     0.039 C 
ENDROOT
BRANCH   2   4
ATOM      4  C   UNL     1      20.835  27.887  37.222  1.00  0.00     0.032 C 
BRANCH   4   5
ATOM      5  C   UNL     1      22.147  28.532  36.732  1.00  0.00     0.034 C 
BRANCH   5   6
ATOM      6  C   UNL     1      22.822  29.388  37.788  1.00  0.00    -0.077 C 
ATOM      7  C   UNL     1      23.464  28.684  38.957  1.00  0.00     0.039 C 
ATOM      8  C   UNL     1      22.827  30.743  37.785  1.00  0.00    -0.023 CG0
ATOM      9  G   UNL     1      22.265  31.657  36.714  1.00  0.00     0.000 G0
ENDBRANCH   5   6
ENDBRANCH   4   5
ENDBRANCH   2   4
BRANCH   1  10
ATOM     10  C   UNL     1      19.029  30.363  37.164  1.00  0.00     0.111 C 
BRANCH  10  11
ATOM     11  C   UNL     1      19.724  31.494  36.453  1.00  0.00     0.163 C 
ATOM     12  O   UNL     1      19.330  31.799  35.296  1.00  0.00    -0.294 OA
BRANCH  11  13
ATOM     13  C   UNL     1      20.890  32.216  37.044  1.00  0.00    -0.002 C 
ATOM     14  C   UNL     1      20.708  33.353  37.782  1.00  0.00    -0.069 C 
ATOM     15  C   UNL     1      19.321  33.830  38.157  1.00  0.00     0.039 C 
ATOM     16  C   UNL     1      21.872  34.192  38.259  1.00  0.00     0.039 C 
BRANCH  13  17
ATOM     17  C   UNL     1      22.276  31.688  36.712  1.00  0.00     0.066 CG0
ATOM     18  G   UNL     1      22.811  30.758  37.782  1.00  0.00     0.000 G0
ENDBRANCH  13  17
ENDBRANCH  11  13
ENDBRANCH  10  11
ENDBRANCH   1  10
TORSDOF 0
ENDMDL
MODEL 4
REMARK VINA RESULT:    -4.138      1.496      4.132
REMARK INTER + INTRA:          -5.557
REMARK INTER:                  -5.960
REMARK INTRA:                   0.403
REMARK UNBOUND:                 0.275
REMARK SMILES CC1=CCC(=C(C)C)C(=O)CC(C)=CCC1
REMARK SMILES IDX 12 1 14 2 13 3 15 4 16 5 2 6 1 7 3 8 11 10 9 11 10 12 5 13
REMARK SMILES IDX 6 14 7 15 8 16 4 17
REMARK H PARENT
REMARK Flexibility Score: 60.00
ROOT
ATOM      1  C   UNL     1      23.837  30.385  38.871  1.00  0.00    -0.070 C 
ATOM      2  C   UNL     1      23.633  31.720  38.936  1.00  0.00    -0.027 C 
ATOM      3  C   UNL     1      25.262  29.890  38.841  1.00  0.00     0.039 C 
ENDROOT
BRANCH   2   4
ATOM      4  C   UNL     1      22.289  32.411  38.877  1.00  0.00     0.032 C 
BRANCH   4   5
ATOM      5  C   UNL     1      22.074  33.307  37.640  1.00  0.00     0.034 C 
BRANCH   5   6
ATOM      6  C   UNL     1      22.476  32.636  36.340  1.00  0.00    -0.077 C 
ATOM      7  C   UNL     1      23.642  33.218  35.581  1.00  0.00     0.039 C 
ATOM      8  C   UNL     1      21.814  31.593  35.782  1.00  0.00    -0.023 CG0
ATOM      9  G   UNL     1      20.636  30.840  36.367  1.00  0.00     0.000 G0
ENDBRANCH   5   6
ENDBRANCH   4   5
ENDBRANCH   2   4
BRANCH   1  10
ATOM     10  C   UNL     1      22.714  29.379  38.734  1.00  0.00     0.111 C 
BRANCH  10  11
ATOM     11  C   UNL     1      22.352  29.141  37.292  1.00  0.00     0.163 C 
ATOM     12  O   UNL     1      23.262  28.766  36.505  1.00  0.00    -0.294 OA
BRANCH  11  13
ATOM     13  C   UNL     1      20.980  29.391  36.758  1.00  0.00    -0.002 C 
ATOM     14  C   UNL     1      20.110  28.357  36.552  1.00  0.00    -0.069 C 
ATOM     15  C   UNL     1      20.444  26.950  37.001  1.00  0.00     0.039 C 
ATOM     16  C   UNL     1      18.777  28.557  35.868  1.00  0.00     0.039 C 
BRANCH  13  17
ATOM     17  C   UNL     1      20.635  30.820  36.371  1.00  0.00     0.066 CG0
ATOM     18  G   UNL     1      21.820  31.562  35.786  1.00  0.00     0.000 G0
ENDBRANCH  13  17
ENDBRANCH  11  13
ENDBRANCH  10  11
ENDBRANCH   1  10
TORSDOF 0
ENDMDL
MODEL 5
REMARK VINA RESULT:    -4.127      2.160      3.922
REMARK INTER + INTRA:          -5.542
REMARK INTER:                  -5.697
REMARK INTRA:                   0.155
REMARK UNBOUND:                 0.275
REMARK SMILES CC1=CCC(=C(C)C)C(=O)CC(C)=CCC1
REMARK SMILES IDX 12 1 14 2 13 3 15 4 16 5 2 6 1 7 3 8 11 10 9 11 10 12 5 13
REMARK SMILES IDX 6 14 7 15 8 16 4 17
REMARK H PARENT
REMARK Flexibility Score: 60.00
ROOT
ATOM      1  C   UNL     1      17.652  31.467  37.480  1.00  0.00    -0.070 C 
ATOM      2  C   UNL     1      17.272  30.315  36.884  1.00  0.00    -0.027 C 
ATOM      3  C   UNL     1      16.772  32.678  37.297  1.00  0.00     0.039 C 
ENDROOT
BRANCH   2   4
ATOM      4  C   UNL     1      18.064  29.026  36.868  1.00  0.00     0.032 C 
BRANCH   4   5
ATOM      5  C   UNL     1      19.215  28.985  35.842  1.00  0.00     0.034 C 
BRANCH   5   6
ATOM      6  C   UNL     1      20.533  28.532  36.442  1.00  0.00    -0.077 C 
ATOM      7  C   UNL     1      20.632  27.106  36.924  1.00  0.00     0.039 C 
ATOM      8  C   UNL     1      21.604  29.341  36.637  1.00  0.00    -0.023 CG0
ATOM      9  G   UNL     1      21.740  30.792  36.220  1.00  0.00     0.000 G0
ENDBRANCH   5   6
ENDBRANCH   4   5
ENDBRANCH   2   4
BRANCH   1  10
ATOM     10  C   UNL     1      18.954  31.620  38.237  1.00  0.00     0.111 C 
BRANCH  10  11
ATOM     11  C   UNL     1      20.014  32.279  37.393  1.00  0.00     0.163 C 
ATOM     12  O   UNL     1      19.680  33.264  36.682  1.00  0.00    -0.294 OA
BRANCH  11  13
ATOM     13  C   UNL     1      21.417  31.769  37.327  1.00  0.00    -0.002 C 
ATOM     14  C   UNL     1      22.368  32.226  38.195  1.00  0.00    -0.069 C 
ATOM     15  C   UNL     1      22.006  33.138  39.347  1.00  0.00     0.039 C 
ATOM     16  C   UNL     1      23.826  31.851  38.054  1.00  0.00     0.039 C 
BRANCH  13  17
ATOM     17  C   UNL     1      21.752  30.803  36.203  1.00  0.00     0.066 CG0
ATOM     18  G   UNL     1      21.637  29.354  36.633  1.00  0.00     0.000 G0
ENDBRANCH  13  17
ENDBRANCH  11  13
ENDBRANCH  10  11
ENDBRANCH   1  10
TORSDOF 0
ENDMDL
MODEL 6
REMARK VINA RESULT:    -3.780      1.678      4.730
REMARK INTER + INTRA:          -5.052
REMARK INTER:                  -5.364
REMARK INTRA:                   0.312
REMARK UNBOUND:                 0.275
REMARK SMILES CC1=CCC(=C(C)C)C(=O)CC(C)=CCC1
REMARK SMILES IDX 12 1 14 2 13 3 15 4 16 5 2 6 1 7 3 8 11 10 9 11 10 12 5 13
REMARK SMILES IDX 6 14 7 15 8 16 4 17
REMARK H PARENT
REMARK Flexibility Score: 60.00
ROOT
ATOM      1  C   UNL     1      21.787  32.603  36.762  1.00  0.00    -0.070 C 
ATOM      2  C   UNL     1      23.080  32.995  36.705  1.00  0.00    -0.027 C 
ATOM      3  C   UNL     1      21.037  32.459  35.462  1.00  0.00     0.039 C 
ENDROOT
BRANCH   2   4
ATOM      4  C   UNL     1      23.966  33.289  37.896  1.00  0.00     0.032 C 
BRANCH   4   5
ATOM      5  C   UNL     1      24.169  32.103  38.861  1.00  0.00     0.034 C 
BRANCH   5   6
ATOM      6  C   UNL     1      24.482  30.800  38.148  1.00  0.00    -0.077 C 
ATOM      7  C   UNL     1      25.768  30.721  37.364  1.00  0.00     0.039 C 
ATOM      8  C   UNL     1      23.652  29.729  38.113  1.00  0.00    -0.023 CG0
ATOM      9  G   UNL     1      22.328  29.575  38.834  1.00  0.00     0.000 G0
ENDBRANCH   5   6
ENDBRANCH   4   5
ENDBRANCH   2   4
BRANCH   1  10
ATOM     10  C   UNL     1      21.039  32.395  38.061  1.00  0.00     0.111 C 
BRANCH  10  11
ATOM     11  C   UNL     1      20.367  31.047  38.106  1.00  0.00     0.163 C 
ATOM     12  O   UNL     1      19.130  31.008  38.345  1.00  0.00    -0.294 OA
BRANCH  11  13
ATOM     13  C   UNL     1      21.123  29.770  37.941  1.00  0.00    -0.002 C 
ATOM     14  C   UNL     1      20.687  28.807  37.075  1.00  0.00    -0.069 C 
ATOM     15  C   UNL     1      19.521  29.060  36.142  1.00  0.00     0.039 C 
ATOM     16  C   UNL     1      21.337  27.443  37.000  1.00  0.00     0.039 C 
BRANCH  13  17
ATOM     17  C   UNL     1      22.330  29.555  38.839  1.00  0.00     0.066 CG0
ATOM     18  G   UNL     1      23.640  29.738  38.099  1.00  0.00     0.000 G0
ENDBRANCH  13  17
ENDBRANCH  11  13
ENDBRANCH  10  11
ENDBRANCH   1  10
TORSDOF 0
ENDMDL
MODEL 7
REMARK VINA RESULT:    -3.685      1.356      4.166
REMARK INTER + INTRA:          -4.919
REMARK INTER:                  -5.327
REMARK INTRA:                   0.408
REMARK UNBOUND:                 0.275
REMARK SMILES CC1=CCC(=C(C)C)C(=O)CC(C)=CCC1
REMARK SMILES IDX 12 1 14 2 13 3 15 4 16 5 2 6 1 7 3 8 11 10 9 11 10 12 5 13
REMARK SMILES IDX 6 14 7 15 8 16 4 17
REMARK H PARENT
REMARK Flexibility Score: 60.00
ROOT
ATOM      1  C   UNL     1      24.779  30.791  38.526  1.00  0.00    -0.070 C 
ATOM      2  C   UNL     1      24.700  32.077  38.115  1.00  0.00    -0.027 C 
ATOM      3  C   UNL     1      25.708  30.473  39.671  1.00  0.00     0.039 C 
ENDROOT
BRANCH   2   4
ATOM      4  C   UNL     1      23.906  32.577  36.929  1.00  0.00     0.032 C 
BRANCH   4   5
ATOM      5  C   UNL     1      22.736  33.518  37.283  1.00  0.00     0.034 C 
BRANCH   5   6
ATOM      6  C   UNL     1      21.932  33.047  38.481  1.00  0.00    -0.077 C 
ATOM      7  C   UNL     1      22.028  33.853  39.752  1.00  0.00     0.039 C 
ATOM      8  C   UNL     1      21.190  31.913  38.505  1.00  0.00    -0.023 CG0
ATOM      9  G   UNL     1      20.934  30.963  37.351  1.00  0.00     0.000 G0
ENDBRANCH   5   6
ENDBRANCH   4   5
ENDBRANCH   2   4
BRANCH   1  10
ATOM     10  C   UNL     1      24.055  29.653  37.838  1.00  0.00     0.111 C 
BRANCH  10  11
ATOM     11  C   UNL     1      22.689  29.424  38.429  1.00  0.00     0.163 C 
ATOM     12  O   UNL     1      22.616  29.064  39.634  1.00  0.00    -0.294 OA
BRANCH  11  13
ATOM     13  C   UNL     1      21.437  29.549  37.624  1.00  0.00    -0.002 C 
ATOM     14  C   UNL     1      20.837  28.444  37.088  1.00  0.00    -0.069 C 
ATOM     15  C   UNL     1      21.325  27.049  37.418  1.00  0.00     0.039 C 
ATOM     16  C   UNL     1      19.663  28.550  36.141  1.00  0.00     0.039 C 
BRANCH  13  17
ATOM     17  C   UNL     1      20.921  30.953  37.355  1.00  0.00     0.066 CG0
ATOM     18  G   UNL     1      21.196  31.900  38.506  1.00  0.00     0.000 G0
ENDBRANCH  13  17
ENDBRANCH  11  13
ENDBRANCH  10  11
ENDBRANCH   1  10
TORSDOF 0
ENDMDL
MODEL 8
REMARK VINA RESULT:    -3.675      1.928      3.681
REMARK INTER + INTRA:          -4.905
REMARK INTER:                  -5.295
REMARK INTRA:                   0.390
REMARK UNBOUND:                 0.275
REMARK SMILES CC1=CCC(=C(C)C)C(=O)CC(C)=CCC1
REMARK SMILES IDX 12 1 14 2 13 3 15 4 16 5 2 6 1 7 3 8 11 10 9 11 10 12 5 13
REMARK SMILES IDX 6 14 7 15 8 16 4 17
REMARK H PARENT
REMARK Flexibility Score: 60.00
ROOT
ATOM      1  C   UNL     1      19.477  31.714  38.163  1.00  0.00    -0.070 C 
ATOM      2  C   UNL     1      18.618  30.857  37.565  1.00  0.00    -0.027 C 
ATOM      3  C   UNL     1      19.101  33.174  38.204  1.00  0.00     0.039 C 
ENDROOT
BRANCH   2   4
ATOM      4  C   UNL     1      18.859  29.381  37.338  1.00  0.00     0.032 C 
BRANCH   4   5
ATOM      5  C   UNL     1      19.864  29.054  36.215  1.00  0.00     0.034 C 
BRANCH   5   6
ATOM      6  C   UNL     1      21.035  28.211  36.687  1.00  0.00    -0.077 C 
ATOM      7  C   UNL     1      20.740  26.822  37.195  1.00  0.00     0.039 C 
ATOM      8  C   UNL     1      22.316  28.649  36.748  1.00  0.00    -0.023 CG0
ATOM      9  G   UNL     1      22.847  29.989  36.280  1.00  0.00     0.000 G0
ENDBRANCH   5   6
ENDBRANCH   4   5
ENDBRANCH   2   4
BRANCH   1  10
ATOM     10  C   UNL     1      20.827  31.294  38.705  1.00  0.00     0.111 C 
BRANCH  10  11
ATOM     11  C   UNL     1      21.955  31.816  37.854  1.00  0.00     0.163 C 
ATOM     12  O   UNL     1      21.891  33.007  37.448  1.00  0.00    -0.294 OA
BRANCH  11  13
ATOM     13  C   UNL     1      23.101  30.958  37.429  1.00  0.00    -0.002 C 
ATOM     14  C   UNL     1      24.334  31.106  37.999  1.00  0.00    -0.069 C 
ATOM     15  C   UNL     1      24.545  32.027  39.182  1.00  0.00     0.039 C 
ATOM     16  C   UNL     1      25.549  30.367  37.484  1.00  0.00     0.039 C 
BRANCH  13  17
ATOM     17  C   UNL     1      22.858  29.991  36.281  1.00  0.00     0.066 CG0
ATOM     18  G   UNL     1      22.315  28.657  36.755  1.00  0.00     0.000 G0
ENDBRANCH  13  17
ENDBRANCH  11  13
ENDBRANCH  10  11
ENDBRANCH   1  10
TORSDOF 0
ENDMDL
MODEL 9
REMARK VINA RESULT:    -3.639      2.479      4.023
REMARK INTER + INTRA:          -4.853
REMARK INTER:                  -5.326
REMARK INTRA:                   0.473
REMARK UNBOUND:                 0.275
REMARK SMILES CC1=CCC(=C(C)C)C(=O)CC(C)=CCC1
REMARK SMILES IDX 12 1 14 2 13 3 15 4 16 5 2 6 1 7 3 8 11 10 9 11 10 12 5 13
REMARK SMILES IDX 6 14 7 15 8 16 4 17
REMARK H PARENT
REMARK Flexibility Score: 60.00
ROOT
ATOM      1  C   UNL     1      19.762  30.948  37.223  1.00  0.00    -0.070 C 
ATOM      2  C   UNL     1      19.748  29.605  37.373  1.00  0.00    -0.027 C 
ATOM      3  C   UNL     1      18.877  31.768  38.129  1.00  0.00     0.039 C 
ENDROOT
BRANCH   2   4
ATOM      4  C   UNL     1      20.486  28.612  36.502  1.00  0.00     0.032 C 
BRANCH   4   5
ATOM      5  C   UNL     1      21.546  27.767  37.239  1.00  0.00     0.034 C 
BRANCH   5   6
ATOM      6  C   UNL     1      22.472  28.596  38.109  1.00  0.00    -0.077 C 
ATOM      7  C   UNL     1      22.448  28.345  39.596  1.00  0.00     0.039 C 
ATOM      8  C   UNL     1      23.266  29.593  37.648  1.00  0.00    -0.023 CG0
ATOM      9  G   UNL     1      23.465  30.008  36.203  1.00  0.00     0.000 G0
ENDBRANCH   5   6
ENDBRANCH   4   5
ENDBRANCH   2   4
BRANCH   1  10
ATOM     10  C   UNL     1      20.545  31.655  36.137  1.00  0.00     0.111 C 
BRANCH  10  11
ATOM     11  C   UNL     1      21.920  32.049  36.609  1.00  0.00     0.163 C 
ATOM     12  O   UNL     1      22.010  32.911  37.523  1.00  0.00    -0.294 OA
BRANCH  11  13
ATOM     13  C   UNL     1      23.165  31.502  35.992  1.00  0.00    -0.002 C 
ATOM     14  C   UNL     1      23.960  32.288  35.207  1.00  0.00    -0.069 C 
ATOM     15  C   UNL     1      23.697  33.772  35.062  1.00  0.00     0.039 C 
ATOM     16  C   UNL     1      25.138  31.726  34.443  1.00  0.00     0.039 C 
BRANCH  13  17
ATOM     17  C   UNL     1      23.452  30.023  36.200  1.00  0.00     0.066 CG0
ATOM     18  G   UNL     1      23.264  29.596  37.642  1.00  0.00     0.000 G0
ENDBRANCH  13  17
ENDBRANCH  11  13
ENDBRANCH  10  11
ENDBRANCH   1  10
TORSDOF 0
ENDMDL
