MODEL 1
REMARK VINA RESULT:    -4.570      0.000      0.000
REMARK INTER + INTRA:          -5.827
REMARK INTER:                  -5.371
REMARK INTRA:                  -0.456
REMARK UNBOUND:                -0.456
REMARK SMILES C=C[C@]1(C)CC[C@@H](C(=C)C)C[C@@H]1C(=C)C
REMARK SMILES IDX 7 1 6 2 5 3 3 4 12 5 11 6 4 7 8 8 10 9 9 10 13 11 14 12
REMARK SMILES IDX 15 13 2 14 1 15
REMARK H PARENT
REMARK Flexibility Score: inf
ROOT
ATOM      1  C   UNL     1       8.633  19.710  25.408  1.00  0.00     0.015 C 
ATOM      2  C   UNL     1       8.548  19.130  26.828  1.00  0.00     0.009 C 
ATOM      3  C   UNL     1       9.923  18.679  27.341  1.00  0.00     0.012 C 
ATOM      4  C   UNL     1      11.006  19.800  27.296  1.00  0.00    -0.008 C 
ATOM      5  C   UNL     1      11.040  20.521  25.886  1.00  0.00     0.024 C 
ATOM      6  C   UNL     1       9.634  20.877  25.343  1.00  0.00     0.017 C 
ATOM      7  C   UNL     1      10.689  20.853  28.391  1.00  0.00     0.016 C 
ENDROOT
BRANCH   1   8
ATOM      8  C   UNL     1       7.258  20.144  24.913  1.00  0.00    -0.077 C 
ATOM      9  C   UNL     1       6.622  19.515  23.697  1.00  0.00     0.039 C 
ATOM     10  C   UNL     1       6.577  21.101  25.566  1.00  0.00     0.008 C 
ENDBRANCH   1   8
BRANCH   5  11
ATOM     11  C   UNL     1      11.914  19.873  24.797  1.00  0.00    -0.077 C 
ATOM     12  C   UNL     1      11.495  18.856  24.025  1.00  0.00     0.008 C 
ATOM     13  C   UNL     1      13.315  20.387  24.561  1.00  0.00     0.039 C 
ENDBRANCH   5  11
BRANCH   4  14
ATOM     14  C   UNL     1      12.380  19.208  27.627  1.00  0.00    -0.028 C 
ATOM     15  C   UNL     1      13.325  19.875  28.303  1.00  0.00     0.004 C 
ENDBRANCH   4  14
TORSDOF 3
ENDMDL
MODEL 2
REMARK VINA RESULT:    -4.433      1.954      3.861
REMARK INTER + INTRA:          -5.667
REMARK INTER:                  -5.176
REMARK INTRA:                  -0.491
REMARK UNBOUND:                -0.456
REMARK SMILES C=C[C@]1(C)CC[C@@H](C(=C)C)C[C@@H]1C(=C)C
REMARK SMILES IDX 7 1 6 2 5 3 3 4 12 5 11 6 4 7 8 8 10 9 9 10 13 11 14 12
REMARK SMILES IDX 15 13 2 14 1 15
REMARK H PARENT
REMARK Flexibility Score: inf
ROOT
ATOM      1  C   UNL     1       7.405  19.251  24.248  1.00  0.00     0.015 C 
ATOM      2  C   UNL     1       6.570  20.526  24.437  1.00  0.00     0.009 C 
ATOM      3  C   UNL     1       6.846  21.191  25.793  1.00  0.00     0.012 C 
ATOM      4  C   UNL     1       8.354  21.509  26.038  1.00  0.00    -0.008 C 
ATOM      5  C   UNL     1       9.271  20.256  25.726  1.00  0.00     0.024 C 
ATOM      6  C   UNL     1       8.908  19.541  24.400  1.00  0.00     0.017 C 
ATOM      7  C   UNL     1       8.779  22.684  25.117  1.00  0.00     0.016 C 
ENDROOT
BRANCH   1   8
ATOM      8  C   UNL     1       7.110  18.601  22.901  1.00  0.00    -0.077 C 
ATOM      9  C   UNL     1       5.701  18.488  22.370  1.00  0.00     0.039 C 
ATOM     10  C   UNL     1       8.115  18.119  22.150  1.00  0.00     0.008 C 
ENDBRANCH   1   8
BRANCH   5  11
ATOM     11  C   UNL     1       9.476  19.245  26.869  1.00  0.00    -0.077 C 
ATOM     12  C   UNL     1      10.669  19.007  27.438  1.00  0.00     0.008 C 
ATOM     13  C   UNL     1       8.292  18.470  27.399  1.00  0.00     0.039 C 
ENDBRANCH   5  11
BRANCH   4  14
ATOM     14  C   UNL     1       8.557  21.974  27.483  1.00  0.00    -0.028 C 
ATOM     15  C   UNL     1       7.568  22.455  28.247  1.00  0.00     0.004 C 
ENDBRANCH   4  14
TORSDOF 3
ENDMDL
MODEL 3
REMARK VINA RESULT:    -4.430      1.720      3.844
REMARK INTER + INTRA:          -5.663
REMARK INTER:                  -5.206
REMARK INTRA:                  -0.457
REMARK UNBOUND:                -0.456
REMARK SMILES C=C[C@]1(C)CC[C@@H](C(=C)C)C[C@@H]1C(=C)C
REMARK SMILES IDX 7 1 6 2 5 3 3 4 12 5 11 6 4 7 8 8 10 9 9 10 13 11 14 12
REMARK SMILES IDX 15 13 2 14 1 15
REMARK H PARENT
REMARK Flexibility Score: inf
ROOT
ATOM      1  C   UNL     1       8.016  19.660  24.063  1.00  0.00     0.015 C 
ATOM      2  C   UNL     1       9.548  19.604  24.149  1.00  0.00     0.009 C 
ATOM      3  C   UNL     1      10.087  20.499  25.274  1.00  0.00     0.012 C 
ATOM      4  C   UNL     1       9.471  20.186  26.672  1.00  0.00    -0.008 C 
ATOM      5  C   UNL     1       7.891  20.100  26.606  1.00  0.00     0.024 C 
ATOM      6  C   UNL     1       7.368  19.274  25.405  1.00  0.00     0.017 C 
ATOM      7  C   UNL     1      10.027  18.827  27.176  1.00  0.00     0.016 C 
ENDROOT
BRANCH   1   8
ATOM      8  C   UNL     1       7.501  18.772  22.936  1.00  0.00    -0.077 C 
ATOM      9  C   UNL     1       6.028  18.675  22.617  1.00  0.00     0.039 C 
ATOM     10  C   UNL     1       8.362  18.057  22.193  1.00  0.00     0.008 C 
ENDBRANCH   1   8
BRANCH   5  11
ATOM     11  C   UNL     1       7.118  21.424  26.754  1.00  0.00    -0.077 C 
ATOM     12  C   UNL     1       7.090  22.371  25.802  1.00  0.00     0.008 C 
ATOM     13  C   UNL     1       6.343  21.696  28.023  1.00  0.00     0.039 C 
ENDBRANCH   5  11
BRANCH   4  14
ATOM     14  C   UNL     1       9.907  21.252  27.682  1.00  0.00    -0.028 C 
ATOM     15  C   UNL     1      10.859  21.047  28.603  1.00  0.00     0.004 C 
ENDBRANCH   4  14
TORSDOF 3
ENDMDL
MODEL 4
REMARK VINA RESULT:    -4.421      1.713      4.060
REMARK INTER + INTRA:          -5.652
REMARK INTER:                  -5.154
REMARK INTRA:                  -0.498
REMARK UNBOUND:                -0.456
REMARK SMILES C=C[C@]1(C)CC[C@@H](C(=C)C)C[C@@H]1C(=C)C
REMARK SMILES IDX 7 1 6 2 5 3 3 4 12 5 11 6 4 7 8 8 10 9 9 10 13 11 14 12
REMARK SMILES IDX 15 13 2 14 1 15
REMARK H PARENT
REMARK Flexibility Score: inf
ROOT
ATOM      1  C   UNL     1       6.697  20.638  23.586  1.00  0.00     0.015 C 
ATOM      2  C   UNL     1       7.965  21.386  23.147  1.00  0.00     0.009 C 
ATOM      3  C   UNL     1       9.020  21.419  24.262  1.00  0.00     0.012 C 
ATOM      4  C   UNL     1       9.404  20.006  24.801  1.00  0.00    -0.008 C 
ATOM      5  C   UNL     1       8.121  19.144  25.142  1.00  0.00     0.024 C 
ATOM      6  C   UNL     1       7.027  19.207  24.047  1.00  0.00     0.017 C 
ATOM      7  C   UNL     1      10.236  19.263  23.721  1.00  0.00     0.016 C 
ENDROOT
BRANCH   1   8
ATOM      8  C   UNL     1       5.659  20.623  22.470  1.00  0.00    -0.077 C 
ATOM      9  C   UNL     1       5.207  19.333  21.829  1.00  0.00     0.039 C 
ATOM     10  C   UNL     1       5.116  21.773  22.038  1.00  0.00     0.008 C 
ENDBRANCH   1   8
BRANCH   5  11
ATOM     11  C   UNL     1       7.518  19.326  26.547  1.00  0.00    -0.077 C 
ATOM     12  C   UNL     1       6.937  20.466  26.958  1.00  0.00     0.008 C 
ATOM     13  C   UNL     1       7.565  18.181  27.532  1.00  0.00     0.039 C 
ENDBRANCH   5  11
BRANCH   4  14
ATOM     14  C   UNL     1      10.298  20.149  26.037  1.00  0.00    -0.028 C 
ATOM     15  C   UNL     1      11.231  19.250  26.378  1.00  0.00     0.004 C 
ENDBRANCH   4  14
TORSDOF 3
ENDMDL
MODEL 5
REMARK VINA RESULT:    -4.386      9.757     12.450
REMARK INTER + INTRA:          -5.611
REMARK INTER:                  -5.542
REMARK INTRA:                  -0.069
REMARK UNBOUND:                -0.456
REMARK SMILES C=C[C@]1(C)CC[C@@H](C(=C)C)C[C@@H]1C(=C)C
REMARK SMILES IDX 7 1 6 2 5 3 3 4 12 5 11 6 4 7 8 8 10 9 9 10 13 11 14 12
REMARK SMILES IDX 15 13 2 14 1 15
REMARK H PARENT
REMARK Flexibility Score: inf
ROOT
ATOM      1  C   UNL     1      12.262  15.565  38.024  1.00  0.00     0.015 C 
ATOM      2  C   UNL     1      11.483  16.851  37.713  1.00  0.00     0.009 C 
ATOM      3  C   UNL     1      12.411  17.977  37.237  1.00  0.00     0.012 C 
ATOM      4  C   UNL     1      13.290  17.586  36.009  1.00  0.00    -0.008 C 
ATOM      5  C   UNL     1      14.012  16.194  36.230  1.00  0.00     0.024 C 
ATOM      6  C   UNL     1      13.078  15.100  36.805  1.00  0.00     0.017 C 
ATOM      7  C   UNL     1      12.385  17.489  34.751  1.00  0.00     0.016 C 
ENDROOT
BRANCH   1   8
ATOM      8  C   UNL     1      11.325  14.462  38.503  1.00  0.00    -0.077 C 
ATOM      9  C   UNL     1      10.805  14.428  39.920  1.00  0.00     0.039 C 
ATOM     10  C   UNL     1      10.936  13.493  37.658  1.00  0.00     0.008 C 
ENDBRANCH   1   8
BRANCH   5  11
ATOM     11  C   UNL     1      15.362  16.224  36.969  1.00  0.00    -0.077 C 
ATOM     12  C   UNL     1      15.656  17.113  37.932  1.00  0.00     0.008 C 
ATOM     13  C   UNL     1      16.428  15.212  36.614  1.00  0.00     0.039 C 
ENDBRANCH   5  11
BRANCH   4  14
ATOM     14  C   UNL     1      14.320  18.686  35.737  1.00  0.00    -0.028 C 
ATOM     15  C   UNL     1      14.073  19.751  34.962  1.00  0.00     0.004 C 
ENDBRANCH   4  14
TORSDOF 3
ENDMDL
MODEL 6
REMARK VINA RESULT:    -4.377      1.598      5.630
REMARK INTER + INTRA:          -5.600
REMARK INTER:                  -5.120
REMARK INTRA:                  -0.481
REMARK UNBOUND:                -0.456
REMARK SMILES C=C[C@]1(C)CC[C@@H](C(=C)C)C[C@@H]1C(=C)C
REMARK SMILES IDX 7 1 6 2 5 3 3 4 12 5 11 6 4 7 8 8 10 9 9 10 13 11 14 12
REMARK SMILES IDX 15 13 2 14 1 15
REMARK H PARENT
REMARK Flexibility Score: inf
ROOT
ATOM      1  C   UNL     1       9.383  19.921  25.013  1.00  0.00     0.015 C 
ATOM      2  C   UNL     1       9.242  21.450  24.982  1.00  0.00     0.009 C 
ATOM      3  C   UNL     1       8.226  21.906  23.926  1.00  0.00     0.012 C 
ATOM      4  C   UNL     1       6.819  21.252  24.089  1.00  0.00    -0.008 C 
ATOM      5  C   UNL     1       6.923  19.681  24.259  1.00  0.00     0.024 C 
ATOM      6  C   UNL     1       8.024  19.242  25.256  1.00  0.00     0.017 C 
ATOM      7  C   UNL     1       6.127  21.849  25.344  1.00  0.00     0.016 C 
ENDROOT
BRANCH   1   8
ATOM      8  C   UNL     1      10.402  19.489  26.061  1.00  0.00    -0.077 C 
ATOM      9  C   UNL     1       9.974  18.876  27.373  1.00  0.00     0.039 C 
ATOM     10  C   UNL     1      11.717  19.641  25.828  1.00  0.00     0.008 C 
ENDBRANCH   1   8
BRANCH   5  11
ATOM     11  C   UNL     1       6.971  18.846  22.967  1.00  0.00    -0.077 C 
ATOM     12  C   UNL     1       8.077  18.715  22.214  1.00  0.00     0.008 C 
ATOM     13  C   UNL     1       5.729  18.125  22.500  1.00  0.00     0.039 C 
ENDBRANCH   5  11
BRANCH   4  14
ATOM     14  C   UNL     1       5.942  21.603  22.883  1.00  0.00    -0.028 C 
ATOM     15  C   UNL     1       4.611  21.743  22.957  1.00  0.00     0.004 C 
ENDBRANCH   4  14
TORSDOF 3
ENDMDL
MODEL 7
REMARK VINA RESULT:    -4.336      1.352      5.278
REMARK INTER + INTRA:          -5.552
REMARK INTER:                  -4.986
REMARK INTRA:                  -0.565
REMARK UNBOUND:                -0.456
REMARK SMILES C=C[C@]1(C)CC[C@@H](C(=C)C)C[C@@H]1C(=C)C
REMARK SMILES IDX 7 1 6 2 5 3 3 4 12 5 11 6 4 7 8 8 10 9 9 10 13 11 14 12
REMARK SMILES IDX 15 13 2 14 1 15
REMARK H PARENT
REMARK Flexibility Score: inf
ROOT
ATOM      1  C   UNL     1      11.132  19.650  25.900  1.00  0.00     0.015 C 
ATOM      2  C   UNL     1      11.490  19.230  24.467  1.00  0.00     0.009 C 
ATOM      3  C   UNL     1      10.239  19.058  23.595  1.00  0.00     0.012 C 
ATOM      4  C   UNL     1       9.323  20.320  23.559  1.00  0.00    -0.008 C 
ATOM      5  C   UNL     1       9.033  20.871  25.015  1.00  0.00     0.024 C 
ATOM      6  C   UNL     1      10.296  20.942  25.909  1.00  0.00     0.017 C 
ATOM      7  C   UNL     1      10.025  21.430  22.731  1.00  0.00     0.016 C 
ENDROOT
BRANCH   1   8
ATOM      8  C   UNL     1      12.386  19.808  26.752  1.00  0.00    -0.077 C 
ATOM      9  C   UNL     1      12.405  19.414  28.209  1.00  0.00     0.039 C 
ATOM     10  C   UNL     1      13.512  20.301  26.210  1.00  0.00     0.008 C 
ENDBRANCH   1   8
BRANCH   5  11
ATOM     11  C   UNL     1       7.847  20.244  25.770  1.00  0.00    -0.077 C 
ATOM     12  C   UNL     1       7.906  19.043  26.369  1.00  0.00     0.008 C 
ATOM     13  C   UNL     1       6.539  20.996  25.858  1.00  0.00     0.039 C 
ENDBRANCH   5  11
BRANCH   4  14
ATOM     14  C   UNL     1       8.011  19.988  22.841  1.00  0.00    -0.028 C 
ATOM     15  C   UNL     1       7.721  18.770  22.363  1.00  0.00     0.004 C 
ENDBRANCH   4  14
TORSDOF 3
ENDMDL
MODEL 8
REMARK VINA RESULT:    -4.253      1.597      4.872
REMARK INTER + INTRA:          -5.454
REMARK INTER:                  -4.930
REMARK INTRA:                  -0.524
REMARK UNBOUND:                -0.456
REMARK SMILES C=C[C@]1(C)CC[C@@H](C(=C)C)C[C@@H]1C(=C)C
REMARK SMILES IDX 7 1 6 2 5 3 3 4 12 5 11 6 4 7 8 8 10 9 9 10 13 11 14 12
REMARK SMILES IDX 15 13 2 14 1 15
REMARK H PARENT
REMARK Flexibility Score: inf
ROOT
ATOM      1  C   UNL     1      12.621  20.514  24.438  1.00  0.00     0.015 C 
ATOM      2  C   UNL     1      12.460  20.924  25.910  1.00  0.00     0.009 C 
ATOM      3  C   UNL     1      10.983  21.029  26.313  1.00  0.00     0.012 C 
ATOM      4  C   UNL     1      10.166  19.729  26.038  1.00  0.00    -0.008 C 
ATOM      5  C   UNL     1      10.405  19.191  24.569  1.00  0.00     0.024 C 
ATOM      6  C   UNL     1      11.896  19.188  24.148  1.00  0.00     0.017 C 
ATOM      7  C   UNL     1      10.601  18.636  27.051  1.00  0.00     0.016 C 
ENDROOT
BRANCH   1   8
ATOM      8  C   UNL     1      14.093  20.423  24.055  1.00  0.00    -0.077 C 
ATOM      9  C   UNL     1      15.182  20.401  25.101  1.00  0.00     0.039 C 
ATOM     10  C   UNL     1      14.451  20.353  22.762  1.00  0.00     0.008 C 
ENDBRANCH   1   8
BRANCH   5  11
ATOM     11  C   UNL     1       9.512  19.780  23.461  1.00  0.00    -0.077 C 
ATOM     12  C   UNL     1       9.594  21.055  23.048  1.00  0.00     0.008 C 
ATOM     13  C   UNL     1       8.484  18.900  22.787  1.00  0.00     0.039 C 
ENDBRANCH   5  11
BRANCH   4  14
ATOM     14  C   UNL     1       8.676  19.993  26.276  1.00  0.00    -0.028 C 
ATOM     15  C   UNL     1       7.824  19.058  26.719  1.00  0.00     0.004 C 
ENDBRANCH   4  14
TORSDOF 3
ENDMDL
MODEL 9
REMARK VINA RESULT:    -4.164      1.177      3.319
REMARK INTER + INTRA:          -5.350
REMARK INTER:                  -4.838
REMARK INTRA:                  -0.512
REMARK UNBOUND:                -0.456
REMARK SMILES C=C[C@]1(C)CC[C@@H](C(=C)C)C[C@@H]1C(=C)C
REMARK SMILES IDX 7 1 6 2 5 3 3 4 12 5 11 6 4 7 8 8 10 9 9 10 13 11 14 12
REMARK SMILES IDX 15 13 2 14 1 15
REMARK H PARENT
REMARK Flexibility Score: inf
ROOT
ATOM      1  C   UNL     1       9.337  20.114  25.454  1.00  0.00     0.015 C 
ATOM      2  C   UNL     1       9.582  20.568  24.008  1.00  0.00     0.009 C 
ATOM      3  C   UNL     1      11.011  21.096  23.812  1.00  0.00     0.012 C 
ATOM      4  C   UNL     1      12.116  20.081  24.239  1.00  0.00    -0.008 C 
ATOM      5  C   UNL     1      11.832  19.481  25.676  1.00  0.00     0.024 C 
ATOM      6  C   UNL     1      10.360  19.047  25.884  1.00  0.00     0.017 C 
ATOM      7  C   UNL     1      12.159  18.919  23.209  1.00  0.00     0.016 C 
ENDROOT
BRANCH   1   8
ATOM      8  C   UNL     1       7.912  19.601  25.630  1.00  0.00    -0.077 C 
ATOM      9  C   UNL     1       7.433  19.035  26.946  1.00  0.00     0.039 C 
ATOM     10  C   UNL     1       7.044  19.654  24.606  1.00  0.00     0.008 C 
ENDBRANCH   1   8
BRANCH   5  11
ATOM     11  C   UNL     1      12.353  20.288  26.879  1.00  0.00    -0.077 C 
ATOM     12  C   UNL     1      11.900  21.513  27.197  1.00  0.00     0.008 C 
ATOM     13  C   UNL     1      13.426  19.698  27.765  1.00  0.00     0.039 C 
ENDBRANCH   5  11
BRANCH   4  14
ATOM     14  C   UNL     1      13.487  20.762  24.204  1.00  0.00    -0.028 C 
ATOM     15  C   UNL     1      14.629  20.106  23.959  1.00  0.00     0.004 C 
ENDBRANCH   4  14
TORSDOF 3
ENDMDL
