MODEL 1
REMARK VINA RESULT:    -6.234      0.000      0.000
REMARK INTER + INTRA:         -13.426
REMARK INTER:                 -11.700
REMARK INTRA:                  -1.726
REMARK UNBOUND:                -1.726
REMARK SMILES CCCCCCCCC=CCCCCCCCC(=O)[O-]
REMARK SMILES IDX 10 1 9 2 11 3 12 4 13 5 14 6 15 7 16 8 17 9 18 10 19 11
REMARK SMILES IDX 20 12 8 13 7 14 6 15 5 16 4 17 3 18 2 19 1 20
REMARK H PARENT
REMARK Flexibility Score: inf
ROOT
ATOM      1  C   UNL     1       3.168   9.642  17.462  1.00  0.00    -0.031 C 
ATOM      2  C   UNL     1       2.529   8.465  17.525  1.00  0.00    -0.031 C 
ENDROOT
BRANCH   1   3
ATOM      3  C   UNL     1       2.921  10.736  18.466  1.00  0.00     0.027 C 
BRANCH   3   4
ATOM      4  C   UNL     1       3.967  11.858  18.387  1.00  0.00     0.004 C 
BRANCH   4   5
ATOM      5  C   UNL     1       5.197  11.459  17.553  1.00  0.00     0.000 C 
BRANCH   5   6
ATOM      6  C   UNL     1       5.391  12.377  16.332  1.00  0.00     0.000 C 
BRANCH   6   7
ATOM      7  C   UNL     1       4.067  12.867  15.718  1.00  0.00     0.000 C 
BRANCH   7   8
ATOM      8  C   UNL     1       3.881  12.381  14.269  1.00  0.00     0.006 C 
BRANCH   8   9
ATOM      9  C   UNL     1       3.024  11.113  14.188  1.00  0.00     0.053 C 
BRANCH   9  10
ATOM     10  C   UNL     1       3.809   9.940  13.688  1.00  0.00     0.041 C 
ATOM     11  O   UNL     1       5.051  10.044  13.510  1.00  0.00    -0.550 OA
ATOM     12  O   UNL     1       3.173   8.733  13.426  1.00  0.00    -0.550 OA
ENDBRANCH   9  10
ENDBRANCH   8   9
ENDBRANCH   7   8
ENDBRANCH   6   7
ENDBRANCH   5   6
ENDBRANCH   4   5
ENDBRANCH   3   4
ENDBRANCH   1   3
BRANCH   2  13
ATOM     13  C   UNL     1       2.726   7.409  16.473  1.00  0.00     0.027 C 
BRANCH  13  14
ATOM     14  C   UNL     1       2.154   6.063  16.928  1.00  0.00     0.004 C 
BRANCH  14  15
ATOM     15  C   UNL     1       0.807   6.255  17.641  1.00  0.00     0.000 C 
BRANCH  15  16
ATOM     16  C   UNL     1       0.530   5.169  18.693  1.00  0.00     0.000 C 
BRANCH  16  17
ATOM     17  C   UNL     1       1.592   4.057  18.771  1.00  0.00    -0.000 C 
BRANCH  17  18
ATOM     18  C   UNL     1       2.507   4.110  20.013  1.00  0.00    -0.000 C 
BRANCH  18  19
ATOM     19  C   UNL     1       3.023   5.515  20.376  1.00  0.00    -0.003 C 
ATOM     20  C   UNL     1       3.364   5.656  21.858  1.00  0.00     0.004 C 
ENDBRANCH  18  19
ENDBRANCH  17  18
ENDBRANCH  16  17
ENDBRANCH  15  16
ENDBRANCH  14  15
ENDBRANCH  13  14
ENDBRANCH   2  13
TORSDOF 15
ENDMDL
MODEL 2
REMARK VINA RESULT:    -6.191      0.746      1.256
REMARK INTER + INTRA:         -13.346
REMARK INTER:                 -11.400
REMARK INTRA:                  -1.945
REMARK UNBOUND:                -1.726
REMARK SMILES CCCCCCCCC=CCCCCCCCC(=O)[O-]
REMARK SMILES IDX 10 1 9 2 11 3 12 4 13 5 14 6 15 7 16 8 17 9 18 10 19 11
REMARK SMILES IDX 20 12 8 13 7 14 6 15 5 16 4 17 3 18 2 19 1 20
REMARK H PARENT
REMARK Flexibility Score: inf
ROOT
ATOM      1  C   UNL     1       3.072  10.336  18.164  1.00  0.00    -0.031 C 
ATOM      2  C   UNL     1       3.142   9.418  17.189  1.00  0.00    -0.031 C 
ENDROOT
BRANCH   1   3
ATOM      3  C   UNL     1       3.828  11.636  18.089  1.00  0.00     0.027 C 
BRANCH   3   4
ATOM      4  C   UNL     1       5.046  11.559  17.156  1.00  0.00     0.004 C 
BRANCH   4   5
ATOM      5  C   UNL     1       5.024  12.646  16.067  1.00  0.00     0.000 C 
BRANCH   5   6
ATOM      6  C   UNL     1       3.678  13.394  16.024  1.00  0.00     0.000 C 
BRANCH   6   7
ATOM      7  C   UNL     1       2.785  12.980  14.841  1.00  0.00     0.000 C 
BRANCH   7   8
ATOM      8  C   UNL     1       3.490  11.987  13.899  1.00  0.00     0.006 C 
BRANCH   8   9
ATOM      9  C   UNL     1       2.760  10.640  13.826  1.00  0.00     0.053 C 
BRANCH   9  10
ATOM     10  C   UNL     1       3.704   9.508  13.561  1.00  0.00     0.041 C 
ATOM     11  O   UNL     1       4.945   9.716  13.538  1.00  0.00    -0.550 OA
ATOM     12  O   UNL     1       3.216   8.226  13.348  1.00  0.00    -0.550 OA
ENDBRANCH   9  10
ENDBRANCH   8   9
ENDBRANCH   7   8
ENDBRANCH   6   7
ENDBRANCH   5   6
ENDBRANCH   4   5
ENDBRANCH   3   4
ENDBRANCH   1   3
BRANCH   2  13
ATOM     13  C   UNL     1       2.444   8.092  17.310  1.00  0.00     0.027 C 
BRANCH  13  14
ATOM     14  C   UNL     1       0.985   8.273  17.739  1.00  0.00     0.004 C 
BRANCH  14  15
ATOM     15  C   UNL     1       0.383   6.938  18.202  1.00  0.00     0.000 C 
BRANCH  15  16
ATOM     16  C   UNL     1       1.173   5.721  17.695  1.00  0.00     0.000 C 
BRANCH  16  17
ATOM     17  C   UNL     1       1.029   4.451  18.554  1.00  0.00    -0.000 C 
BRANCH  17  18
ATOM     18  C   UNL     1       2.285   4.061  19.363  1.00  0.00    -0.000 C 
BRANCH  18  19
ATOM     19  C   UNL     1       3.243   5.226  19.671  1.00  0.00    -0.003 C 
ATOM     20  C   UNL     1       3.189   5.668  21.132  1.00  0.00     0.004 C 
ENDBRANCH  18  19
ENDBRANCH  17  18
ENDBRANCH  16  17
ENDBRANCH  15  16
ENDBRANCH  14  15
ENDBRANCH  13  14
ENDBRANCH   2  13
TORSDOF 15
ENDMDL
MODEL 3
REMARK VINA RESULT:    -6.121      2.482      7.529
REMARK INTER + INTRA:         -13.214
REMARK INTER:                 -11.269
REMARK INTRA:                  -1.944
REMARK UNBOUND:                -1.726
REMARK SMILES CCCCCCCCC=CCCCCCCCC(=O)[O-]
REMARK SMILES IDX 10 1 9 2 11 3 12 4 13 5 14 6 15 7 16 8 17 9 18 10 19 11
REMARK SMILES IDX 20 12 8 13 7 14 6 15 5 16 4 17 3 18 2 19 1 20
REMARK H PARENT
REMARK Flexibility Score: inf
ROOT
ATOM      1  C   UNL     1       3.077   9.779  17.464  1.00  0.00    -0.031 C 
ATOM      2  C   UNL     1       3.131  10.741  18.397  1.00  0.00    -0.031 C 
ENDROOT
BRANCH   1   3
ATOM      3  C   UNL     1       2.186   8.575  17.615  1.00  0.00     0.027 C 
BRANCH   3   4
ATOM      4  C   UNL     1       2.750   7.329  16.915  1.00  0.00     0.004 C 
BRANCH   4   5
ATOM      5  C   UNL     1       1.698   6.218  16.750  1.00  0.00     0.000 C 
BRANCH   5   6
ATOM      6  C   UNL     1       0.577   6.324  17.800  1.00  0.00     0.000 C 
BRANCH   6   7
ATOM      7  C   UNL     1       0.240   4.981  18.473  1.00  0.00     0.000 C 
BRANCH   7   8
ATOM      8  C   UNL     1       1.471   4.065  18.594  1.00  0.00     0.006 C 
BRANCH   8   9
ATOM      9  C   UNL     1       2.032   4.033  20.020  1.00  0.00     0.053 C 
BRANCH   9  10
ATOM     10  C   UNL     1       3.069   5.092  20.235  1.00  0.00     0.041 C 
ATOM     11  O   UNL     1       3.872   5.384  19.310  1.00  0.00    -0.550 OA
ATOM     12  O   UNL     1       3.146   5.760  21.450  1.00  0.00    -0.550 OA
ENDBRANCH   9  10
ENDBRANCH   8   9
ENDBRANCH   7   8
ENDBRANCH   6   7
ENDBRANCH   5   6
ENDBRANCH   4   5
ENDBRANCH   3   4
ENDBRANCH   1   3
BRANCH   2  13
ATOM     13  C   UNL     1       4.081  11.899  18.272  1.00  0.00     0.027 C 
BRANCH  13  14
ATOM     14  C   UNL     1       5.207  11.586  17.281  1.00  0.00     0.004 C 
BRANCH  14  15
ATOM     15  C   UNL     1       5.278  12.655  16.181  1.00  0.00     0.000 C 
BRANCH  15  16
ATOM     16  C   UNL     1       3.891  13.094  15.686  1.00  0.00     0.000 C 
BRANCH  16  17
ATOM     17  C   UNL     1       3.514  12.588  14.281  1.00  0.00    -0.000 C 
BRANCH  17  18
ATOM     18  C   UNL     1       2.983  11.139  14.228  1.00  0.00    -0.000 C 
BRANCH  18  19
ATOM     19  C   UNL     1       4.038  10.076  13.871  1.00  0.00    -0.003 C 
ATOM     20  C   UNL     1       3.420   8.736  13.481  1.00  0.00     0.004 C 
ENDBRANCH  18  19
ENDBRANCH  17  18
ENDBRANCH  16  17
ENDBRANCH  15  16
ENDBRANCH  14  15
ENDBRANCH  13  14
ENDBRANCH   2  13
TORSDOF 15
ENDMDL
MODEL 4
REMARK VINA RESULT:    -6.077      1.419      2.006
REMARK INTER + INTRA:         -13.132
REMARK INTER:                 -11.859
REMARK INTRA:                  -1.273
REMARK UNBOUND:                -1.726
REMARK SMILES CCCCCCCCC=CCCCCCCCC(=O)[O-]
REMARK SMILES IDX 10 1 9 2 11 3 12 4 13 5 14 6 15 7 16 8 17 9 18 10 19 11
REMARK SMILES IDX 20 12 8 13 7 14 6 15 5 16 4 17 3 18 2 19 1 20
REMARK H PARENT
REMARK Flexibility Score: inf
ROOT
ATOM      1  C   UNL     1       2.555   8.924  17.586  1.00  0.00    -0.031 C 
ATOM      2  C   UNL     1       2.742   7.807  16.869  1.00  0.00    -0.031 C 
ENDROOT
BRANCH   1   3
ATOM      3  C   UNL     1       3.356  10.174  17.334  1.00  0.00     0.027 C 
BRANCH   3   4
ATOM      4  C   UNL     1       3.123  11.253  18.403  1.00  0.00     0.004 C 
BRANCH   4   5
ATOM      5  C   UNL     1       4.358  12.145  18.618  1.00  0.00     0.000 C 
BRANCH   5   6
ATOM      6  C   UNL     1       5.634  11.519  18.027  1.00  0.00     0.000 C 
BRANCH   6   7
ATOM      7  C   UNL     1       6.074  12.163  16.700  1.00  0.00     0.000 C 
BRANCH   7   8
ATOM      8  C   UNL     1       4.967  13.037  16.082  1.00  0.00     0.006 C 
BRANCH   8   9
ATOM      9  C   UNL     1       4.536  12.536  14.698  1.00  0.00     0.053 C 
BRANCH   9  10
ATOM     10  C   UNL     1       3.051  12.597  14.521  1.00  0.00     0.041 C 
ATOM     11  O   UNL     1       2.456  11.694  13.875  1.00  0.00    -0.550 OA
ATOM     12  O   UNL     1       2.323  13.643  15.073  1.00  0.00    -0.550 OA
ENDBRANCH   9  10
ENDBRANCH   8   9
ENDBRANCH   7   8
ENDBRANCH   6   7
ENDBRANCH   5   6
ENDBRANCH   4   5
ENDBRANCH   3   4
ENDBRANCH   1   3
BRANCH   2  13
ATOM     13  C   UNL     1       1.991   6.542  17.181  1.00  0.00     0.027 C 
BRANCH  13  14
ATOM     14  C   UNL     1       0.617   6.851  17.782  1.00  0.00     0.004 C 
BRANCH  14  15
ATOM     15  C   UNL     1      -0.005   5.588  18.397  1.00  0.00     0.000 C 
BRANCH  15  16
ATOM     16  C   UNL     1       0.902   4.354  18.268  1.00  0.00     0.000 C 
BRANCH  16  17
ATOM     17  C   UNL     1       1.548   3.884  19.585  1.00  0.00    -0.000 C 
BRANCH  17  18
ATOM     18  C   UNL     1       2.972   4.419  19.844  1.00  0.00    -0.000 C 
BRANCH  18  19
ATOM     19  C   UNL     1       3.034   5.736  20.638  1.00  0.00    -0.003 C 
ATOM     20  C   UNL     1       3.440   5.531  22.096  1.00  0.00     0.004 C 
ENDBRANCH  18  19
ENDBRANCH  17  18
ENDBRANCH  16  17
ENDBRANCH  15  16
ENDBRANCH  14  15
ENDBRANCH  13  14
ENDBRANCH   2  13
TORSDOF 15
ENDMDL
MODEL 5
REMARK VINA RESULT:    -5.851      2.044      3.378
REMARK INTER + INTRA:         -12.707
REMARK INTER:                 -11.420
REMARK INTRA:                  -1.287
REMARK UNBOUND:                -1.726
REMARK SMILES CCCCCCCCC=CCCCCCCCC(=O)[O-]
REMARK SMILES IDX 10 1 9 2 11 3 12 4 13 5 14 6 15 7 16 8 17 9 18 10 19 11
REMARK SMILES IDX 20 12 8 13 7 14 6 15 5 16 4 17 3 18 2 19 1 20
REMARK H PARENT
REMARK Flexibility Score: inf
ROOT
ATOM      1  C   UNL     1       3.470   9.270  14.939  1.00  0.00    -0.031 C 
ATOM      2  C   UNL     1       3.253   9.169  16.258  1.00  0.00    -0.031 C 
ENDROOT
BRANCH   1   3
ATOM      3  C   UNL     1       3.945  10.552  14.307  1.00  0.00     0.027 C 
BRANCH   3   4
ATOM      4  C   UNL     1       2.787  11.471  13.889  1.00  0.00     0.004 C 
BRANCH   4   5
ATOM      5  C   UNL     1       2.876  12.863  14.539  1.00  0.00     0.000 C 
BRANCH   5   6
ATOM      6  C   UNL     1       3.788  12.866  15.779  1.00  0.00     0.000 C 
BRANCH   6   7
ATOM      7  C   UNL     1       3.116  13.455  17.032  1.00  0.00     0.000 C 
BRANCH   7   8
ATOM      8  C   UNL     1       3.222  12.515  18.247  1.00  0.00     0.006 C 
BRANCH   8   9
ATOM      9  C   UNL     1       4.220  11.375  18.013  1.00  0.00     0.053 C 
BRANCH   9  10
ATOM     10  C   UNL     1       5.595  11.733  18.487  1.00  0.00     0.041 C 
ATOM     11  O   UNL     1       6.480  12.068  17.656  1.00  0.00    -0.550 OA
ATOM     12  O   UNL     1       5.897  11.703  19.842  1.00  0.00    -0.550 OA
ENDBRANCH   9  10
ENDBRANCH   8   9
ENDBRANCH   7   8
ENDBRANCH   6   7
ENDBRANCH   5   6
ENDBRANCH   4   5
ENDBRANCH   3   4
ENDBRANCH   1   3
BRANCH   2  13
ATOM     13  C   UNL     1       2.705   7.908  16.866  1.00  0.00     0.027 C 
BRANCH  13  14
ATOM     14  C   UNL     1       1.657   8.222  17.938  1.00  0.00     0.004 C 
BRANCH  14  15
ATOM     15  C   UNL     1       0.582   7.127  17.987  1.00  0.00     0.000 C 
BRANCH  15  16
ATOM     16  C   UNL     1       1.105   5.757  17.526  1.00  0.00     0.000 C 
BRANCH  16  17
ATOM     17  C   UNL     1       0.679   4.569  18.410  1.00  0.00    -0.000 C 
BRANCH  17  18
ATOM     18  C   UNL     1       1.777   4.021  19.346  1.00  0.00    -0.000 C 
BRANCH  18  19
ATOM     19  C   UNL     1       3.018   4.922  19.484  1.00  0.00    -0.003 C 
ATOM     20  C   UNL     1       3.123   5.580  20.858  1.00  0.00     0.004 C 
ENDBRANCH  18  19
ENDBRANCH  17  18
ENDBRANCH  16  17
ENDBRANCH  15  16
ENDBRANCH  14  15
ENDBRANCH  13  14
ENDBRANCH   2  13
TORSDOF 15
ENDMDL
MODEL 6
REMARK VINA RESULT:    -5.757      1.164      2.501
REMARK INTER + INTRA:         -12.531
REMARK INTER:                 -11.043
REMARK INTRA:                  -1.488
REMARK UNBOUND:                -1.726
REMARK SMILES CCCCCCCCC=CCCCCCCCC(=O)[O-]
REMARK SMILES IDX 10 1 9 2 11 3 12 4 13 5 14 6 15 7 16 8 17 9 18 10 19 11
REMARK SMILES IDX 20 12 8 13 7 14 6 15 5 16 4 17 3 18 2 19 1 20
REMARK H PARENT
REMARK Flexibility Score: inf
ROOT
ATOM      1  C   UNL     1       2.197   7.291  17.471  1.00  0.00    -0.031 C 
ATOM      2  C   UNL     1       0.938   7.387  17.922  1.00  0.00    -0.031 C 
ENDROOT
BRANCH   1   3
ATOM      3  C   UNL     1       2.938   8.480  16.920  1.00  0.00     0.027 C 
BRANCH   3   4
ATOM      4  C   UNL     1       2.311   9.817  17.345  1.00  0.00     0.004 C 
BRANCH   4   5
ATOM      5  C   UNL     1       3.102  10.507  18.470  1.00  0.00     0.000 C 
BRANCH   5   6
ATOM      6  C   UNL     1       3.725  11.837  18.009  1.00  0.00     0.000 C 
BRANCH   6   7
ATOM      7  C   UNL     1       5.103  11.670  17.344  1.00  0.00     0.000 C 
BRANCH   7   8
ATOM      8  C   UNL     1       5.175  12.361  15.970  1.00  0.00     0.006 C 
BRANCH   8   9
ATOM      9  C   UNL     1       3.787  12.579  15.358  1.00  0.00     0.053 C 
BRANCH   9  10
ATOM     10  C   UNL     1       3.439  11.507  14.371  1.00  0.00     0.041 C 
ATOM     11  O   UNL     1       4.204  10.519  14.220  1.00  0.00    -0.550 OA
ATOM     12  O   UNL     1       2.271  11.596  13.625  1.00  0.00    -0.550 OA
ENDBRANCH   9  10
ENDBRANCH   8   9
ENDBRANCH   7   8
ENDBRANCH   6   7
ENDBRANCH   5   6
ENDBRANCH   4   5
ENDBRANCH   3   4
ENDBRANCH   1   3
BRANCH   2  13
ATOM     13  C   UNL     1       0.183   6.178  18.398  1.00  0.00     0.027 C 
BRANCH  13  14
ATOM     14  C   UNL     1       0.961   4.891  18.108  1.00  0.00     0.004 C 
BRANCH  14  15
ATOM     15  C   UNL     1       1.323   4.167  19.413  1.00  0.00     0.000 C 
BRANCH  15  16
ATOM     16  C   UNL     1       2.817   4.275  19.759  1.00  0.00     0.000 C 
BRANCH  16  17
ATOM     17  C   UNL     1       3.210   5.537  20.550  1.00  0.00    -0.000 C 
BRANCH  17  18
ATOM     18  C   UNL     1       3.512   5.305  22.046  1.00  0.00    -0.000 C 
BRANCH  18  19
ATOM     19  C   UNL     1       2.986   6.403  22.989  1.00  0.00    -0.003 C 
ATOM     20  C   UNL     1       3.525   6.270  24.412  1.00  0.00     0.004 C 
ENDBRANCH  18  19
ENDBRANCH  17  18
ENDBRANCH  16  17
ENDBRANCH  15  16
ENDBRANCH  14  15
ENDBRANCH  13  14
ENDBRANCH   2  13
TORSDOF 15
ENDMDL
MODEL 7
REMARK VINA RESULT:    -5.752      2.540      7.244
REMARK INTER + INTRA:         -12.522
REMARK INTER:                 -10.832
REMARK INTRA:                  -1.690
REMARK UNBOUND:                -1.726
REMARK SMILES CCCCCCCCC=CCCCCCCCC(=O)[O-]
REMARK SMILES IDX 10 1 9 2 11 3 12 4 13 5 14 6 15 7 16 8 17 9 18 10 19 11
REMARK SMILES IDX 20 12 8 13 7 14 6 15 5 16 4 17 3 18 2 19 1 20
REMARK H PARENT
REMARK Flexibility Score: inf
ROOT
ATOM      1  C   UNL     1       3.621   9.485  16.329  1.00  0.00    -0.031 C 
ATOM      2  C   UNL     1       3.130   9.766  15.113  1.00  0.00    -0.031 C 
ENDROOT
BRANCH   1   3
ATOM      3  C   UNL     1       2.740   8.999  17.449  1.00  0.00     0.027 C 
BRANCH   3   4
ATOM      4  C   UNL     1       2.275   7.548  17.249  1.00  0.00     0.004 C 
BRANCH   4   5
ATOM      5  C   UNL     1       0.939   7.256  17.956  1.00  0.00     0.000 C 
BRANCH   5   6
ATOM      6  C   UNL     1       0.267   5.980  17.417  1.00  0.00     0.000 C 
BRANCH   6   7
ATOM      7  C   UNL     1       0.212   4.836  18.445  1.00  0.00     0.000 C 
BRANCH   7   8
ATOM      8  C   UNL     1       1.501   3.994  18.450  1.00  0.00     0.006 C 
BRANCH   8   9
ATOM      9  C   UNL     1       2.156   3.945  19.836  1.00  0.00     0.053 C 
BRANCH   9  10
ATOM     10  C   UNL     1       3.096   5.091  20.049  1.00  0.00     0.041 C 
ATOM     11  O   UNL     1       3.880   5.442  19.128  1.00  0.00    -0.550 OA
ATOM     12  O   UNL     1       3.102   5.774  21.257  1.00  0.00    -0.550 OA
ENDBRANCH   9  10
ENDBRANCH   8   9
ENDBRANCH   7   8
ENDBRANCH   6   7
ENDBRANCH   5   6
ENDBRANCH   4   5
ENDBRANCH   3   4
ENDBRANCH   1   3
BRANCH   2  13
ATOM     13  C   UNL     1       4.005  10.324  14.026  1.00  0.00     0.027 C 
BRANCH  13  14
ATOM     14  C   UNL     1       4.405  11.771  14.327  1.00  0.00     0.004 C 
BRANCH  14  15
ATOM     15  C   UNL     1       3.173  12.687  14.338  1.00  0.00     0.000 C 
BRANCH  15  16
ATOM     16  C   UNL     1       2.946  13.365  15.699  1.00  0.00     0.000 C 
BRANCH  16  17
ATOM     17  C   UNL     1       3.894  12.899  16.820  1.00  0.00    -0.000 C 
BRANCH  17  18
ATOM     18  C   UNL     1       3.207  12.563  18.161  1.00  0.00    -0.000 C 
BRANCH  18  19
ATOM     19  C   UNL     1       4.097  11.822  19.175  1.00  0.00    -0.003 C 
ATOM     20  C   UNL     1       5.534  11.648  18.687  1.00  0.00     0.004 C 
ENDBRANCH  18  19
ENDBRANCH  17  18
ENDBRANCH  16  17
ENDBRANCH  15  16
ENDBRANCH  14  15
ENDBRANCH  13  14
ENDBRANCH   2  13
TORSDOF 15
ENDMDL
MODEL 8
REMARK VINA RESULT:    -5.731      2.177      3.197
REMARK INTER + INTRA:         -12.483
REMARK INTER:                 -11.095
REMARK INTRA:                  -1.388
REMARK UNBOUND:                -1.726
REMARK SMILES CCCCCCCCC=CCCCCCCCC(=O)[O-]
REMARK SMILES IDX 10 1 9 2 11 3 12 4 13 5 14 6 15 7 16 8 17 9 18 10 19 11
REMARK SMILES IDX 20 12 8 13 7 14 6 15 5 16 4 17 3 18 2 19 1 20
REMARK H PARENT
REMARK Flexibility Score: inf
ROOT
ATOM      1  C   UNL     1       3.160   8.823  15.983  1.00  0.00    -0.031 C 
ATOM      2  C   UNL     1       2.823   9.222  17.217  1.00  0.00    -0.031 C 
ENDROOT
BRANCH   1   3
ATOM      3  C   UNL     1       4.110   9.614  15.122  1.00  0.00     0.027 C 
BRANCH   3   4
ATOM      4  C   UNL     1       3.467  10.086  13.810  1.00  0.00     0.004 C 
BRANCH   4   5
ATOM      5  C   UNL     1       2.866  11.498  13.923  1.00  0.00     0.000 C 
BRANCH   5   6
ATOM      6  C   UNL     1       3.885  12.519  14.461  1.00  0.00     0.000 C 
BRANCH   6   7
ATOM      7  C   UNL     1       3.355  13.350  15.643  1.00  0.00     0.000 C 
BRANCH   7   8
ATOM      8  C   UNL     1       3.551  12.635  16.992  1.00  0.00     0.006 C 
BRANCH   8   9
ATOM      9  C   UNL     1       4.963  12.056  17.141  1.00  0.00     0.053 C 
BRANCH   9  10
ATOM     10  C   UNL     1       5.283  11.727  18.567  1.00  0.00     0.041 C 
ATOM     11  O   UNL     1       6.478  11.547  18.919  1.00  0.00    -0.550 OA
ATOM     12  O   UNL     1       4.264  11.625  19.506  1.00  0.00    -0.550 OA
ENDBRANCH   9  10
ENDBRANCH   8   9
ENDBRANCH   7   8
ENDBRANCH   6   7
ENDBRANCH   5   6
ENDBRANCH   4   5
ENDBRANCH   3   4
ENDBRANCH   1   3
BRANCH   2  13
ATOM     13  C   UNL     1       1.815   8.466  18.037  1.00  0.00     0.027 C 
BRANCH  13  14
ATOM     14  C   UNL     1       1.667   7.025  17.537  1.00  0.00     0.004 C 
BRANCH  14  15
ATOM     15  C   UNL     1       0.420   6.364  18.142  1.00  0.00     0.000 C 
BRANCH  15  16
ATOM     16  C   UNL     1       0.475   4.828  18.089  1.00  0.00     0.000 C 
BRANCH  16  17
ATOM     17  C   UNL     1       1.811   4.212  18.546  1.00  0.00    -0.000 C 
BRANCH  17  18
ATOM     18  C   UNL     1       2.115   4.351  20.053  1.00  0.00    -0.000 C 
BRANCH  18  19
ATOM     19  C   UNL     1       3.116   5.465  20.410  1.00  0.00    -0.003 C 
ATOM     20  C   UNL     1       3.462   5.495  21.897  1.00  0.00     0.004 C 
ENDBRANCH  18  19
ENDBRANCH  17  18
ENDBRANCH  16  17
ENDBRANCH  15  16
ENDBRANCH  14  15
ENDBRANCH  13  14
ENDBRANCH   2  13
TORSDOF 15
ENDMDL
MODEL 9
REMARK VINA RESULT:    -5.070      2.992      6.934
REMARK INTER + INTRA:         -11.242
REMARK INTER:                  -9.617
REMARK INTRA:                  -1.625
REMARK UNBOUND:                -1.726
REMARK SMILES CCCCCCCCC=CCCCCCCCC(=O)[O-]
REMARK SMILES IDX 10 1 9 2 11 3 12 4 13 5 14 6 15 7 16 8 17 9 18 10 19 11
REMARK SMILES IDX 20 12 8 13 7 14 6 15 5 16 4 17 3 18 2 19 1 20
REMARK H PARENT
REMARK Flexibility Score: inf
ROOT
ATOM      1  C   UNL     1       3.770  11.101  14.458  1.00  0.00    -0.031 C 
ATOM      2  C   UNL     1       2.738  11.924  14.223  1.00  0.00    -0.031 C 
ENDROOT
BRANCH   1   3
ATOM      3  C   UNL     1       3.800   9.692  13.927  1.00  0.00     0.027 C 
BRANCH   3   4
ATOM      4  C   UNL     1       3.323   8.660  14.960  1.00  0.00     0.004 C 
BRANCH   4   5
ATOM      5  C   UNL     1       3.274   9.234  16.387  1.00  0.00     0.000 C 
BRANCH   5   6
ATOM      6  C   UNL     1       2.685   8.230  17.394  1.00  0.00     0.000 C 
BRANCH   6   7
ATOM      7  C   UNL     1       2.519   6.811  16.820  1.00  0.00     0.000 C 
BRANCH   7   8
ATOM      8  C   UNL     1       2.511   5.734  17.920  1.00  0.00     0.006 C 
BRANCH   8   9
ATOM      9  C   UNL     1       2.603   6.340  19.325  1.00  0.00     0.053 C 
BRANCH   9  10
ATOM     10  C   UNL     1       2.934   5.307  20.357  1.00  0.00     0.041 C 
ATOM     11  O   UNL     1       3.260   5.661  21.520  1.00  0.00    -0.550 OA
ATOM     12  O   UNL     1       2.878   3.957  20.037  1.00  0.00    -0.550 OA
ENDBRANCH   9  10
ENDBRANCH   8   9
ENDBRANCH   7   8
ENDBRANCH   6   7
ENDBRANCH   5   6
ENDBRANCH   4   5
ENDBRANCH   3   4
ENDBRANCH   1   3
BRANCH   2  13
ATOM     13  C   UNL     1       2.684  13.302  14.822  1.00  0.00     0.027 C 
BRANCH  13  14
ATOM     14  C   UNL     1       3.501  13.373  16.116  1.00  0.00     0.004 C 
BRANCH  14  15
ATOM     15  C   UNL     1       2.686  14.028  17.241  1.00  0.00     0.000 C 
BRANCH  15  16
ATOM     16  C   UNL     1       2.577  13.141  18.492  1.00  0.00     0.000 C 
BRANCH  16  17
ATOM     17  C   UNL     1       3.494  11.903  18.490  1.00  0.00    -0.000 C 
BRANCH  17  18
ATOM     18  C   UNL     1       4.809  12.061  19.282  1.00  0.00    -0.000 C 
BRANCH  18  19
ATOM     19  C   UNL     1       6.046  11.435  18.613  1.00  0.00    -0.003 C 
ATOM     20  C   UNL     1       6.348  12.039  17.243  1.00  0.00     0.004 C 
ENDBRANCH  18  19
ENDBRANCH  17  18
ENDBRANCH  16  17
ENDBRANCH  15  16
ENDBRANCH  14  15
ENDBRANCH  13  14
ENDBRANCH   2  13
TORSDOF 15
ENDMDL
