MODEL 1
REMARK VINA RESULT:    -4.553      0.000      0.000
REMARK INTER + INTRA:          -9.187
REMARK INTER:                  -8.279
REMARK INTRA:                  -0.908
REMARK UNBOUND:                -0.908
REMARK SMILES CCCCCCCCCCCCCCCC(=O)[O-]
REMARK SMILES IDX 9 1 10 2 11 3 12 4 13 5 14 6 15 7 16 8 17 9 18 10 8 11 7 12
REMARK SMILES IDX 6 13 5 14 4 15 3 16 2 17 1 18
REMARK H PARENT
REMARK Flexibility Score: inf
ROOT
ATOM      1  C   UNL     1      32.642  26.531  71.082  1.00  0.00     0.000 C 
ENDROOT
BRANCH   1   2
ATOM      2  C   UNL     1      31.384  25.650  71.012  1.00  0.00     0.000 C 
BRANCH   2   3
ATOM      3  C   UNL     1      31.613  24.347  70.231  1.00  0.00     0.000 C 
BRANCH   3   4
ATOM      4  C   UNL     1      31.575  24.603  68.716  1.00  0.00     0.000 C 
BRANCH   4   5
ATOM      5  C   UNL     1      30.343  23.980  68.041  1.00  0.00     0.000 C 
BRANCH   5   6
ATOM      6  C   UNL     1      30.372  24.123  66.509  1.00  0.00     0.006 C 
BRANCH   6   7
ATOM      7  C   UNL     1      31.721  24.649  66.001  1.00  0.00     0.053 C 
BRANCH   7   8
ATOM      8  C   UNL     1      31.655  25.054  64.560  1.00  0.00     0.041 C 
ATOM      9  O   UNL     1      32.667  25.543  63.992  1.00  0.00    -0.550 OA
ATOM     10  O   UNL     1      30.469  24.914  63.850  1.00  0.00    -0.550 OA
ENDBRANCH   7   8
ENDBRANCH   6   7
ENDBRANCH   5   6
ENDBRANCH   4   5
ENDBRANCH   3   4
ENDBRANCH   2   3
ENDBRANCH   1   2
BRANCH   1  11
ATOM     11  C   UNL     1      33.931  25.711  71.262  1.00  0.00     0.000 C 
BRANCH  11  12
ATOM     12  C   UNL     1      35.125  26.291  70.479  1.00  0.00    -0.000 C 
BRANCH  12  13
ATOM     13  C   UNL     1      35.604  25.443  69.287  1.00  0.00    -0.000 C 
BRANCH  13  14
ATOM     14  C   UNL     1      35.982  24.007  69.690  1.00  0.00    -0.000 C 
BRANCH  14  15
ATOM     15  C   UNL     1      37.461  23.875  70.088  1.00  0.00    -0.000 C 
BRANCH  15  16
ATOM     16  C   UNL     1      37.735  24.349  71.527  1.00  0.00    -0.000 C 
BRANCH  16  17
ATOM     17  C   UNL     1      39.203  24.159  71.939  1.00  0.00    -0.003 C 
ATOM     18  C   UNL     1      39.581  24.981  73.171  1.00  0.00     0.004 C 
ENDBRANCH  16  17
ENDBRANCH  15  16
ENDBRANCH  14  15
ENDBRANCH  13  14
ENDBRANCH  12  13
ENDBRANCH  11  12
ENDBRANCH   1  11
TORSDOF 14
ENDMDL
MODEL 2
REMARK VINA RESULT:    -4.380      1.590      3.172
REMARK INTER + INTRA:          -8.873
REMARK INTER:                  -8.078
REMARK INTRA:                  -0.796
REMARK UNBOUND:                -0.908
REMARK SMILES CCCCCCCCCCCCCCCC(=O)[O-]
REMARK SMILES IDX 9 1 10 2 11 3 12 4 13 5 14 6 15 7 16 8 17 9 18 10 8 11 7 12
REMARK SMILES IDX 6 13 5 14 4 15 3 16 2 17 1 18
REMARK H PARENT
REMARK Flexibility Score: inf
ROOT
ATOM      1  C   UNL     1      31.491  24.624  68.954  1.00  0.00     0.000 C 
ENDROOT
BRANCH   1   2
ATOM      2  C   UNL     1      30.411  24.190  67.950  1.00  0.00     0.000 C 
BRANCH   2   3
ATOM      3  C   UNL     1      30.959  24.006  66.527  1.00  0.00     0.000 C 
BRANCH   3   4
ATOM      4  C   UNL     1      32.431  24.440  66.447  1.00  0.00     0.000 C 
BRANCH   4   5
ATOM      5  C   UNL     1      32.918  24.615  65.000  1.00  0.00     0.000 C 
BRANCH   5   6
ATOM      6  C   UNL     1      31.992  25.521  64.169  1.00  0.00     0.006 C 
BRANCH   6   7
ATOM      7  C   UNL     1      32.722  26.160  62.979  1.00  0.00     0.053 C 
BRANCH   7   8
ATOM      8  C   UNL     1      31.999  27.366  62.463  1.00  0.00     0.041 C 
ATOM      9  O   UNL     1      32.407  27.955  61.428  1.00  0.00    -0.550 OA
ATOM     10  O   UNL     1      30.888  27.855  63.139  1.00  0.00    -0.550 OA
ENDBRANCH   7   8
ENDBRANCH   6   7
ENDBRANCH   5   6
ENDBRANCH   4   5
ENDBRANCH   3   4
ENDBRANCH   2   3
ENDBRANCH   1   2
BRANCH   1  11
ATOM     11  C   UNL     1      30.957  24.720  70.394  1.00  0.00     0.000 C 
BRANCH  11  12
ATOM     12  C   UNL     1      31.637  25.835  71.212  1.00  0.00    -0.000 C 
BRANCH  12  13
ATOM     13  C   UNL     1      32.909  26.430  70.582  1.00  0.00    -0.000 C 
BRANCH  13  14
ATOM     14  C   UNL     1      34.201  25.893  71.225  1.00  0.00    -0.000 C 
BRANCH  14  15
ATOM     15  C   UNL     1      34.553  24.476  70.746  1.00  0.00    -0.000 C 
BRANCH  15  16
ATOM     16  C   UNL     1      36.010  24.354  70.264  1.00  0.00    -0.000 C 
BRANCH  16  17
ATOM     17  C   UNL     1      36.987  24.062  71.413  1.00  0.00    -0.003 C 
ATOM     18  C   UNL     1      38.447  24.060  70.960  1.00  0.00     0.004 C 
ENDBRANCH  16  17
ENDBRANCH  15  16
ENDBRANCH  14  15
ENDBRANCH  13  14
ENDBRANCH  12  13
ENDBRANCH  11  12
ENDBRANCH   1  11
TORSDOF 14
ENDMDL
MODEL 3
REMARK VINA RESULT:    -4.379      3.776      7.435
REMARK INTER + INTRA:          -8.871
REMARK INTER:                  -7.470
REMARK INTRA:                  -1.401
REMARK UNBOUND:                -0.908
REMARK SMILES CCCCCCCCCCCCCCCC(=O)[O-]
REMARK SMILES IDX 9 1 10 2 11 3 12 4 13 5 14 6 15 7 16 8 17 9 18 10 8 11 7 12
REMARK SMILES IDX 6 13 5 14 4 15 3 16 2 17 1 18
REMARK H PARENT
REMARK Flexibility Score: inf
ROOT
ATOM      1  C   UNL     1      33.148  26.376  71.795  1.00  0.00     0.000 C 
ENDROOT
BRANCH   1   2
ATOM      2  C   UNL     1      34.249  25.497  71.181  1.00  0.00     0.000 C 
BRANCH   2   3
ATOM      3  C   UNL     1      35.031  26.211  70.068  1.00  0.00     0.000 C 
BRANCH   3   4
ATOM      4  C   UNL     1      35.491  25.212  68.995  1.00  0.00     0.000 C 
BRANCH   4   5
ATOM      5  C   UNL     1      35.960  23.876  69.592  1.00  0.00     0.000 C 
BRANCH   5   6
ATOM      6  C   UNL     1      37.448  23.892  69.983  1.00  0.00     0.006 C 
BRANCH   6   7
ATOM      7  C   UNL     1      37.648  23.902  71.505  1.00  0.00     0.053 C 
BRANCH   7   8
ATOM      8  C   UNL     1      39.041  24.304  71.882  1.00  0.00     0.041 C 
ATOM      9  O   UNL     1      39.292  24.696  73.052  1.00  0.00    -0.550 OA
ATOM     10  O   UNL     1      40.057  24.270  70.936  1.00  0.00    -0.550 OA
ENDBRANCH   7   8
ENDBRANCH   6   7
ENDBRANCH   5   6
ENDBRANCH   4   5
ENDBRANCH   3   4
ENDBRANCH   2   3
ENDBRANCH   1   2
BRANCH   1  11
ATOM     11  C   UNL     1      31.826  26.305  71.011  1.00  0.00     0.000 C 
BRANCH  11  12
ATOM     12  C   UNL     1      31.063  24.987  71.241  1.00  0.00    -0.000 C 
BRANCH  12  13
ATOM     13  C   UNL     1      30.674  24.220  69.964  1.00  0.00    -0.000 C 
BRANCH  13  14
ATOM     14  C   UNL     1      31.882  23.911  69.062  1.00  0.00    -0.000 C 
BRANCH  14  15
ATOM     15  C   UNL     1      31.797  24.616  67.699  1.00  0.00    -0.000 C 
BRANCH  15  16
ATOM     16  C   UNL     1      30.623  24.114  66.840  1.00  0.00    -0.000 C 
BRANCH  16  17
ATOM     17  C   UNL     1      30.740  24.548  65.371  1.00  0.00    -0.003 C 
ATOM     18  C   UNL     1      32.155  24.991  64.998  1.00  0.00     0.004 C 
ENDBRANCH  16  17
ENDBRANCH  15  16
ENDBRANCH  14  15
ENDBRANCH  13  14
ENDBRANCH  12  13
ENDBRANCH  11  12
ENDBRANCH   1  11
TORSDOF 14
ENDMDL
MODEL 4
REMARK VINA RESULT:    -4.369      2.781      7.687
REMARK INTER + INTRA:          -8.853
REMARK INTER:                  -7.704
REMARK INTRA:                  -1.149
REMARK UNBOUND:                -0.908
REMARK SMILES CCCCCCCCCCCCCCCC(=O)[O-]
REMARK SMILES IDX 9 1 10 2 11 3 12 4 13 5 14 6 15 7 16 8 17 9 18 10 8 11 7 12
REMARK SMILES IDX 6 13 5 14 4 15 3 16 2 17 1 18
REMARK H PARENT
REMARK Flexibility Score: inf
ROOT
ATOM      1  C   UNL     1      32.215  24.643  67.978  1.00  0.00     0.000 C 
ENDROOT
BRANCH   1   2
ATOM      2  C   UNL     1      31.315  24.057  69.078  1.00  0.00     0.000 C 
BRANCH   2   3
ATOM      3  C   UNL     1      31.093  25.029  70.247  1.00  0.00     0.000 C 
BRANCH   3   4
ATOM      4  C   UNL     1      32.338  25.099  71.145  1.00  0.00     0.000 C 
BRANCH   4   5
ATOM      5  C   UNL     1      33.096  26.428  71.001  1.00  0.00     0.000 C 
BRANCH   5   6
ATOM      6  C   UNL     1      34.603  26.228  70.765  1.00  0.00     0.006 C 
BRANCH   6   7
ATOM      7  C   UNL     1      34.968  24.750  70.571  1.00  0.00     0.053 C 
BRANCH   7   8
ATOM      8  C   UNL     1      36.010  24.567  69.510  1.00  0.00     0.041 C 
ATOM      9  O   UNL     1      35.704  24.678  68.295  1.00  0.00    -0.550 OA
ATOM     10  O   UNL     1      37.315  24.249  69.864  1.00  0.00    -0.550 OA
ENDBRANCH   7   8
ENDBRANCH   6   7
ENDBRANCH   5   6
ENDBRANCH   4   5
ENDBRANCH   3   4
ENDBRANCH   2   3
ENDBRANCH   1   2
BRANCH   1  11
ATOM     11  C   UNL     1      31.674  24.374  66.563  1.00  0.00     0.000 C 
BRANCH  11  12
ATOM     12  C   UNL     1      32.783  24.023  65.553  1.00  0.00    -0.000 C 
BRANCH  12  13
ATOM     13  C   UNL     1      32.393  24.166  64.071  1.00  0.00    -0.000 C 
BRANCH  13  14
ATOM     14  C   UNL     1      32.627  25.586  63.526  1.00  0.00    -0.000 C 
BRANCH  14  15
ATOM     15  C   UNL     1      31.318  26.369  63.336  1.00  0.00    -0.000 C 
BRANCH  15  16
ATOM     16  C   UNL     1      30.076  25.460  63.333  1.00  0.00    -0.000 C 
BRANCH  16  17
ATOM     17  C   UNL     1      28.787  26.227  62.998  1.00  0.00    -0.003 C 
ATOM     18  C   UNL     1      28.970  27.743  63.058  1.00  0.00     0.004 C 
ENDBRANCH  16  17
ENDBRANCH  15  16
ENDBRANCH  14  15
ENDBRANCH  13  14
ENDBRANCH  12  13
ENDBRANCH  11  12
ENDBRANCH   1  11
TORSDOF 14
ENDMDL
MODEL 5
REMARK VINA RESULT:    -4.324      4.753     10.553
REMARK INTER + INTRA:          -8.771
REMARK INTER:                  -7.806
REMARK INTRA:                  -0.965
REMARK UNBOUND:                -0.908
REMARK SMILES CCCCCCCCCCCCCCCC(=O)[O-]
REMARK SMILES IDX 9 1 10 2 11 3 12 4 13 5 14 6 15 7 16 8 17 9 18 10 8 11 7 12
REMARK SMILES IDX 6 13 5 14 4 15 3 16 2 17 1 18
REMARK H PARENT
REMARK Flexibility Score: inf
ROOT
ATOM      1  C   UNL     1      29.392  27.628  62.897  1.00  0.00     0.000 C 
ENDROOT
BRANCH   1   2
ATOM      2  C   UNL     1      30.734  27.324  62.213  1.00  0.00     0.000 C 
BRANCH   2   3
ATOM      3  C   UNL     1      31.915  27.313  63.195  1.00  0.00     0.000 C 
BRANCH   3   4
ATOM      4  C   UNL     1      32.490  25.896  63.345  1.00  0.00     0.000 C 
BRANCH   4   5
ATOM      5  C   UNL     1      31.882  25.134  64.533  1.00  0.00     0.000 C 
BRANCH   5   6
ATOM      6  C   UNL     1      32.950  24.476  65.425  1.00  0.00     0.006 C 
BRANCH   6   7
ATOM      7  C   UNL     1      32.496  24.362  66.886  1.00  0.00     0.053 C 
BRANCH   7   8
ATOM      8  C   UNL     1      33.658  24.248  67.825  1.00  0.00     0.041 C 
ATOM      9  O   UNL     1      33.480  24.343  69.067  1.00  0.00    -0.550 OA
ATOM     10  O   UNL     1      34.940  24.061  67.326  1.00  0.00    -0.550 OA
ENDBRANCH   7   8
ENDBRANCH   6   7
ENDBRANCH   5   6
ENDBRANCH   4   5
ENDBRANCH   3   4
ENDBRANCH   2   3
ENDBRANCH   1   2
BRANCH   1  11
ATOM     11  C   UNL     1      28.607  26.353  63.254  1.00  0.00     0.000 C 
BRANCH  11  12
ATOM     12  C   UNL     1      28.928  25.170  62.321  1.00  0.00    -0.000 C 
BRANCH  12  13
ATOM     13  C   UNL     1      27.735  24.257  61.982  1.00  0.00    -0.000 C 
BRANCH  13  14
ATOM     14  C   UNL     1      26.398  25.016  61.931  1.00  0.00    -0.000 C 
BRANCH  14  15
ATOM     15  C   UNL     1      25.233  24.129  61.463  1.00  0.00    -0.000 C 
BRANCH  15  16
ATOM     16  C   UNL     1      23.868  24.611  61.987  1.00  0.00    -0.000 C 
BRANCH  16  17
ATOM     17  C   UNL     1      23.885  24.897  63.496  1.00  0.00    -0.003 C 
ATOM     18  C   UNL     1      22.545  24.597  64.169  1.00  0.00     0.004 C 
ENDBRANCH  16  17
ENDBRANCH  15  16
ENDBRANCH  14  15
ENDBRANCH  13  14
ENDBRANCH  12  13
ENDBRANCH  11  12
ENDBRANCH   1  11
TORSDOF 14
ENDMDL
MODEL 6
REMARK VINA RESULT:    -4.242      4.570      9.936
REMARK INTER + INTRA:          -8.622
REMARK INTER:                  -7.317
REMARK INTRA:                  -1.305
REMARK UNBOUND:                -0.908
REMARK SMILES CCCCCCCCCCCCCCCC(=O)[O-]
REMARK SMILES IDX 9 1 10 2 11 3 12 4 13 5 14 6 15 7 16 8 17 9 18 10 8 11 7 12
REMARK SMILES IDX 6 13 5 14 4 15 3 16 2 17 1 18
REMARK H PARENT
REMARK Flexibility Score: inf
ROOT
ATOM      1  C   UNL     1      31.611  27.431  63.119  1.00  0.00     0.000 C 
ENDROOT
BRANCH   1   2
ATOM      2  C   UNL     1      32.489  26.170  63.089  1.00  0.00     0.000 C 
BRANCH   2   3
ATOM      3  C   UNL     1      31.669  24.875  62.976  1.00  0.00     0.000 C 
BRANCH   3   4
ATOM      4  C   UNL     1      31.824  24.017  64.241  1.00  0.00     0.000 C 
BRANCH   4   5
ATOM      5  C   UNL     1      30.946  24.510  65.402  1.00  0.00     0.000 C 
BRANCH   5   6
ATOM      6  C   UNL     1      31.723  24.625  66.725  1.00  0.00     0.006 C 
BRANCH   6   7
ATOM      7  C   UNL     1      30.854  24.272  67.940  1.00  0.00     0.053 C 
BRANCH   7   8
ATOM      8  C   UNL     1      31.522  24.640  69.230  1.00  0.00     0.041 C 
ATOM      9  O   UNL     1      32.778  24.642  69.315  1.00  0.00    -0.550 OA
ATOM     10  O   UNL     1      30.757  24.957  70.345  1.00  0.00    -0.550 OA
ENDBRANCH   7   8
ENDBRANCH   6   7
ENDBRANCH   5   6
ENDBRANCH   4   5
ENDBRANCH   3   4
ENDBRANCH   2   3
ENDBRANCH   1   2
BRANCH   1  11
ATOM     11  C   UNL     1      30.370  27.311  62.218  1.00  0.00     0.000 C 
BRANCH  11  12
ATOM     12  C   UNL     1      29.049  27.509  62.988  1.00  0.00    -0.000 C 
BRANCH  12  13
ATOM     13  C   UNL     1      28.240  26.225  63.247  1.00  0.00    -0.000 C 
BRANCH  13  14
ATOM     14  C   UNL     1      28.183  25.297  62.020  1.00  0.00    -0.000 C 
BRANCH  14  15
ATOM     15  C   UNL     1      26.984  24.336  62.061  1.00  0.00    -0.000 C 
BRANCH  15  16
ATOM     16  C   UNL     1      25.632  25.066  61.976  1.00  0.00    -0.000 C 
BRANCH  16  17
ATOM     17  C   UNL     1      24.477  24.234  62.553  1.00  0.00    -0.003 C 
ATOM     18  C   UNL     1      23.671  24.994  63.607  1.00  0.00     0.004 C 
ENDBRANCH  16  17
ENDBRANCH  15  16
ENDBRANCH  14  15
ENDBRANCH  13  14
ENDBRANCH  12  13
ENDBRANCH  11  12
ENDBRANCH   1  11
TORSDOF 14
ENDMDL
MODEL 7
REMARK VINA RESULT:    -3.907      2.732      7.380
REMARK INTER + INTRA:          -8.012
REMARK INTER:                  -6.893
REMARK INTRA:                  -1.119
REMARK UNBOUND:                -0.908
REMARK SMILES CCCCCCCCCCCCCCCC(=O)[O-]
REMARK SMILES IDX 9 1 10 2 11 3 12 4 13 5 14 6 15 7 16 8 17 9 18 10 8 11 7 12
REMARK SMILES IDX 6 13 5 14 4 15 3 16 2 17 1 18
REMARK H PARENT
REMARK Flexibility Score: inf
ROOT
ATOM      1  C   UNL     1      35.251  24.555  67.883  1.00  0.00     0.000 C 
ENDROOT
BRANCH   1   2
ATOM      2  C   UNL     1      36.159  23.946  68.964  1.00  0.00     0.000 C 
BRANCH   2   3
ATOM      3  C   UNL     1      36.032  24.658  70.319  1.00  0.00     0.000 C 
BRANCH   3   4
ATOM      4  C   UNL     1      35.324  26.013  70.162  1.00  0.00     0.000 C 
BRANCH   4   5
ATOM      5  C   UNL     1      34.193  26.211  71.182  1.00  0.00     0.000 C 
BRANCH   5   6
ATOM      6  C   UNL     1      33.169  25.062  71.163  1.00  0.00     0.006 C 
BRANCH   6   7
ATOM      7  C   UNL     1      31.861  25.463  70.468  1.00  0.00     0.053 C 
BRANCH   7   8
ATOM      8  C   UNL     1      30.833  24.376  70.545  1.00  0.00     0.041 C 
ATOM      9  O   UNL     1      30.521  23.875  71.657  1.00  0.00    -0.550 OA
ATOM     10  O   UNL     1      30.236  23.899  69.385  1.00  0.00    -0.550 OA
ENDBRANCH   7   8
ENDBRANCH   6   7
ENDBRANCH   5   6
ENDBRANCH   4   5
ENDBRANCH   3   4
ENDBRANCH   2   3
ENDBRANCH   1   2
BRANCH   1  11
ATOM     11  C   UNL     1      33.872  23.876  67.815  1.00  0.00     0.000 C 
BRANCH  11  12
ATOM     12  C   UNL     1      33.165  24.088  66.463  1.00  0.00    -0.000 C 
BRANCH  12  13
ATOM     13  C   UNL     1      31.655  24.376  66.547  1.00  0.00    -0.000 C 
BRANCH  13  14
ATOM     14  C   UNL     1      30.991  24.491  65.163  1.00  0.00    -0.000 C 
BRANCH  14  15
ATOM     15  C   UNL     1      31.992  24.865  64.058  1.00  0.00    -0.000 C 
BRANCH  15  16
ATOM     16  C   UNL     1      31.343  25.661  62.911  1.00  0.00    -0.000 C 
BRANCH  16  17
ATOM     17  C   UNL     1      29.858  25.956  63.167  1.00  0.00    -0.003 C 
ATOM     18  C   UNL     1      29.477  27.398  62.832  1.00  0.00     0.004 C 
ENDBRANCH  16  17
ENDBRANCH  15  16
ENDBRANCH  14  15
ENDBRANCH  13  14
ENDBRANCH  12  13
ENDBRANCH  11  12
ENDBRANCH   1  11
TORSDOF 14
ENDMDL
MODEL 8
REMARK VINA RESULT:    -3.903      3.888      6.607
REMARK INTER + INTRA:          -8.006
REMARK INTER:                  -7.158
REMARK INTRA:                  -0.847
REMARK UNBOUND:                -0.908
REMARK SMILES CCCCCCCCCCCCCCCC(=O)[O-]
REMARK SMILES IDX 9 1 10 2 11 3 12 4 13 5 14 6 15 7 16 8 17 9 18 10 8 11 7 12
REMARK SMILES IDX 6 13 5 14 4 15 3 16 2 17 1 18
REMARK H PARENT
REMARK Flexibility Score: inf
ROOT
ATOM      1  C   UNL     1      32.123  26.118  63.056  1.00  0.00     0.000 C 
ENDROOT
BRANCH   1   2
ATOM      2  C   UNL     1      30.948  26.971  63.561  1.00  0.00     0.000 C 
BRANCH   2   3
ATOM      3  C   UNL     1      29.778  27.022  62.567  1.00  0.00     0.000 C 
BRANCH   3   4
ATOM      4  C   UNL     1      28.610  26.149  63.051  1.00  0.00     0.000 C 
BRANCH   4   5
ATOM      5  C   UNL     1      28.580  24.770  62.372  1.00  0.00     0.000 C 
BRANCH   5   6
ATOM      6  C   UNL     1      27.158  24.335  61.977  1.00  0.00     0.006 C 
BRANCH   6   7
ATOM      7  C   UNL     1      26.102  25.375  62.375  1.00  0.00     0.053 C 
BRANCH   7   8
ATOM      8  C   UNL     1      24.815  25.176  61.633  1.00  0.00     0.041 C 
ATOM      9  O   UNL     1      24.021  24.262  61.976  1.00  0.00    -0.550 OA
ATOM     10  O   UNL     1      24.505  25.986  60.549  1.00  0.00    -0.550 OA
ENDBRANCH   7   8
ENDBRANCH   6   7
ENDBRANCH   5   6
ENDBRANCH   4   5
ENDBRANCH   3   4
ENDBRANCH   2   3
ENDBRANCH   1   2
BRANCH   1  11
ATOM     11  C   UNL     1      32.009  24.643  63.478  1.00  0.00     0.000 C 
BRANCH  11  12
ATOM     12  C   UNL     1      31.505  24.470  64.924  1.00  0.00    -0.000 C 
BRANCH  12  13
ATOM     13  C   UNL     1      32.576  24.051  65.948  1.00  0.00    -0.000 C 
BRANCH  13  14
ATOM     14  C   UNL     1      32.315  24.625  67.352  1.00  0.00    -0.000 C 
BRANCH  14  15
ATOM     15  C   UNL     1      33.497  24.403  68.309  1.00  0.00    -0.000 C 
BRANCH  15  16
ATOM     16  C   UNL     1      33.116  24.607  69.786  1.00  0.00    -0.000 C 
BRANCH  16  17
ATOM     17  C   UNL     1      34.338  24.871  70.679  1.00  0.00    -0.003 C 
ATOM     18  C   UNL     1      34.625  26.361  70.860  1.00  0.00     0.004 C 
ENDBRANCH  16  17
ENDBRANCH  15  16
ENDBRANCH  14  15
ENDBRANCH  13  14
ENDBRANCH  12  13
ENDBRANCH  11  12
ENDBRANCH   1  11
TORSDOF 14
ENDMDL
