MODEL 1
REMARK VINA RESULT:    -4.499      0.000      0.000
REMARK INTER + INTRA:          -6.593
REMARK INTER:                  -6.077
REMARK INTRA:                  -0.517
REMARK UNBOUND:                -0.517
REMARK SMILES O=c1c(-c2ccc(O)cc2)coc2c([C@@H]3O[C@H](CO)[C@H](O)[C@@H](O)[C@H]3O)c(O)ccc12
REMARK SMILES IDX 3 1 11 2 12 3 13 4 30 5 2 6 1 7 29 8 28 9 26 10 14 11 4 12
REMARK SMILES IDX 5 13 6 14 7 15 10 16 9 17 8 18 15 20 24 21 16 22 22 23 17 24
REMARK SMILES IDX 20 25 25 26 23 28 18 30 19 31 21 33 27 35
REMARK H PARENT 8 19 25 27 23 29 19 32 21 34 27 36
REMARK Flexibility Score: inf
ROOT
ATOM      1  C   UNL     1       2.944  -6.367 -31.481  1.00  0.00     0.065 A 
ATOM      2  C   UNL     1       4.237  -6.734 -31.857  1.00  0.00     0.208 A 
ATOM      3  O   UNL     1       5.259  -6.549 -31.029  1.00  0.00    -0.463 OA
ATOM      4  C   UNL     1       5.141  -5.995 -29.824  1.00  0.00     0.147 A 
ATOM      5  C   UNL     1       3.862  -5.607 -29.358  1.00  0.00     0.066 A 
ATOM      6  C   UNL     1       2.745  -5.816 -30.204  1.00  0.00     0.200 A 
ATOM      7  O   UNL     1       1.571  -5.534 -29.822  1.00  0.00    -0.288 OA
ATOM      8  C   UNL     1       3.738  -5.038 -28.084  1.00  0.00     0.020 A 
ATOM      9  C   UNL     1       4.867  -4.849 -27.285  1.00  0.00     0.047 A 
ATOM     10  C   UNL     1       6.140  -5.211 -27.749  1.00  0.00     0.125 A 
ATOM     11  C   UNL     1       6.292  -5.776 -29.033  1.00  0.00     0.069 A 
ENDROOT
BRANCH   1  12
ATOM     12  C   UNL     1       1.833  -6.556 -32.444  1.00  0.00    -0.011 A 
ATOM     13  C   UNL     1       0.593  -7.067 -32.013  1.00  0.00     0.013 A 
ATOM     14  C   UNL     1      -0.490  -7.123 -32.894  1.00  0.00     0.047 A 
ATOM     15  C   UNL     1      -0.342  -6.698 -34.221  1.00  0.00     0.115 A 
ATOM     16  C   UNL     1       1.980  -6.154 -33.777  1.00  0.00     0.013 A 
ATOM     17  C   UNL     1       0.899  -6.231 -34.663  1.00  0.00     0.047 A 
BRANCH  15  18
ATOM     18  O   UNL     1      -1.430  -6.715 -35.102  1.00  0.00    -0.508 OA
ATOM     19  H   UNL     1      -2.075  -7.490 -35.118  1.00  0.00     0.293 HD
ENDBRANCH  15  18
ENDBRANCH   1  12
BRANCH  11  20
ATOM     20  C   UNL     1       7.676  -6.078 -29.588  1.00  0.00     0.188 C 
ATOM     21  C   UNL     1       8.165  -4.906 -30.484  1.00  0.00     0.179 C 
ATOM     22  O   UNL     1       8.555  -6.289 -28.493  1.00  0.00    -0.362 OA
ATOM     23  C   UNL     1       9.641  -5.089 -30.913  1.00  0.00     0.177 C 
ATOM     24  C   UNL     1       9.862  -6.636 -28.906  1.00  0.00     0.176 C 
ATOM     25  C   UNL     1      10.509  -5.465 -29.698  1.00  0.00     0.177 C 
BRANCH  21  26
ATOM     26  O   UNL     1       7.336  -4.688 -31.599  1.00  0.00    -0.387 OA
ATOM     27  H   UNL     1       7.325  -3.714 -31.806  1.00  0.00     0.211 HD
ENDBRANCH  21  26
BRANCH  23  28
ATOM     28  O   UNL     1       9.822  -6.033 -31.946  1.00  0.00    -0.387 OA
ATOM     29  H   UNL     1       8.955  -6.203 -32.391  1.00  0.00     0.211 HD
ENDBRANCH  23  28
BRANCH  24  30
ATOM     30  C   UNL     1      10.679  -6.971 -27.645  1.00  0.00     0.191 C 
BRANCH  30  31
ATOM     31  O   UNL     1      10.208  -6.238 -26.543  1.00  0.00    -0.394 OA
ATOM     32  H   UNL     1       9.930  -6.901 -25.858  1.00  0.00     0.210 HD
ENDBRANCH  30  31
ENDBRANCH  24  30
BRANCH  25  33
ATOM     33  O   UNL     1      10.733  -4.335 -28.890  1.00  0.00    -0.388 OA
ATOM     34  H   UNL     1       9.931  -4.173 -28.330  1.00  0.00     0.211 HD
ENDBRANCH  25  33
ENDBRANCH  11  20
BRANCH  10  35
ATOM     35  O   UNL     1       7.257  -5.007 -26.945  1.00  0.00    -0.507 OA
ATOM     36  H   UNL     1       8.195  -5.070 -27.317  1.00  0.00     0.293 HD
ENDBRANCH  10  35
TORSDOF 9
ENDMDL
MODEL 2
REMARK VINA RESULT:    -4.208      1.532      2.937
REMARK INTER + INTRA:          -6.201
REMARK INTER:                  -6.025
REMARK INTRA:                  -0.176
REMARK UNBOUND:                -0.517
REMARK SMILES O=c1c(-c2ccc(O)cc2)coc2c([C@@H]3O[C@H](CO)[C@H](O)[C@@H](O)[C@H]3O)c(O)ccc12
REMARK SMILES IDX 3 1 11 2 12 3 13 4 30 5 2 6 1 7 29 8 28 9 26 10 14 11 4 12
REMARK SMILES IDX 5 13 6 14 7 15 10 16 9 17 8 18 15 20 24 21 16 22 22 23 17 24
REMARK SMILES IDX 20 25 25 26 23 28 18 30 19 31 21 33 27 35
REMARK H PARENT 8 19 25 27 23 29 19 32 21 34 27 36
REMARK Flexibility Score: inf
ROOT
ATOM      1  C   UNL     1       3.961  -5.950 -31.605  1.00  0.00     0.065 A 
ATOM      2  C   UNL     1       5.197  -6.118 -32.231  1.00  0.00     0.208 A 
ATOM      3  O   UNL     1       6.324  -5.854 -31.580  1.00  0.00    -0.463 OA
ATOM      4  C   UNL     1       6.364  -5.398 -30.329  1.00  0.00     0.147 A 
ATOM      5  C   UNL     1       5.157  -5.213 -29.617  1.00  0.00     0.066 A 
ATOM      6  C   UNL     1       3.936  -5.513 -30.270  1.00  0.00     0.200 A 
ATOM      7  O   UNL     1       2.827  -5.414 -29.666  1.00  0.00    -0.288 OA
ATOM      8  C   UNL     1       5.202  -4.748 -28.296  1.00  0.00     0.020 A 
ATOM      9  C   UNL     1       6.428  -4.462 -27.692  1.00  0.00     0.047 A 
ATOM     10  C   UNL     1       7.628  -4.622 -28.400  1.00  0.00     0.125 A 
ATOM     11  C   UNL     1       7.608  -5.079 -29.735  1.00  0.00     0.069 A 
ENDROOT
BRANCH   1  12
ATOM     12  C   UNL     1       2.723  -6.222 -32.372  1.00  0.00    -0.011 A 
ATOM     13  C   UNL     1       1.594  -6.777 -31.736  1.00  0.00     0.013 A 
ATOM     14  C   UNL     1       0.390  -6.913 -32.430  1.00  0.00     0.047 A 
ATOM     15  C   UNL     1       0.303  -6.525 -33.773  1.00  0.00     0.115 A 
ATOM     16  C   UNL     1       2.635  -5.858 -33.721  1.00  0.00     0.013 A 
ATOM     17  C   UNL     1       1.432  -6.015 -34.420  1.00  0.00     0.047 A 
BRANCH  15  18
ATOM     18  O   UNL     1      -0.910  -6.621 -34.468  1.00  0.00    -0.508 OA
ATOM     19  H   UNL     1      -1.142  -7.448 -34.997  1.00  0.00     0.293 HD
ENDBRANCH  15  18
ENDBRANCH   1  12
BRANCH  11  20
ATOM     20  C   UNL     1       8.892  -5.160 -30.547  1.00  0.00     0.188 C 
ATOM     21  C   UNL     1       9.449  -6.611 -30.531  1.00  0.00     0.179 C 
ATOM     22  O   UNL     1       8.605  -4.735 -31.870  1.00  0.00    -0.362 OA
ATOM     23  C   UNL     1      10.647  -6.776 -31.497  1.00  0.00     0.177 C 
ATOM     24  C   UNL     1       9.754  -4.718 -32.696  1.00  0.00     0.176 C 
ATOM     25  C   UNL     1      10.318  -6.156 -32.868  1.00  0.00     0.177 C 
BRANCH  21  26
ATOM     26  O   UNL     1       9.776  -7.056 -29.237  1.00  0.00    -0.387 OA
ATOM     27  H   UNL     1      10.621  -7.581 -29.282  1.00  0.00     0.211 HD
ENDBRANCH  21  26
BRANCH  23  28
ATOM     28  O   UNL     1      11.856  -6.243 -31.003  1.00  0.00    -0.387 OA
ATOM     29  H   UNL     1      12.378  -6.962 -30.568  1.00  0.00     0.211 HD
ENDBRANCH  23  28
BRANCH  24  30
ATOM     30  C   UNL     1       9.348  -4.115 -34.052  1.00  0.00     0.191 C 
BRANCH  30  31
ATOM     31  O   UNL     1       7.998  -4.385 -34.329  1.00  0.00    -0.394 OA
ATOM     32  H   UNL     1       7.865  -5.358 -34.176  1.00  0.00     0.210 HD
ENDBRANCH  30  31
ENDBRANCH  24  30
BRANCH  25  33
ATOM     33  O   UNL     1       9.439  -6.991 -33.582  1.00  0.00    -0.388 OA
ATOM     34  H   UNL     1       9.946  -7.470 -34.287  1.00  0.00     0.211 HD
ENDBRANCH  25  33
ENDBRANCH  11  20
BRANCH  10  35
ATOM     35  O   UNL     1       8.841  -4.325 -27.789  1.00  0.00    -0.507 OA
ATOM     36  H   UNL     1       9.672  -4.126 -28.330  1.00  0.00     0.293 HD
ENDBRANCH  10  35
TORSDOF 9
ENDMDL
MODEL 3
REMARK VINA RESULT:    -4.206      2.730      4.675
REMARK INTER + INTRA:          -6.198
REMARK INTER:                  -5.676
REMARK INTRA:                  -0.522
REMARK UNBOUND:                -0.517
REMARK SMILES O=c1c(-c2ccc(O)cc2)coc2c([C@@H]3O[C@H](CO)[C@H](O)[C@@H](O)[C@H]3O)c(O)ccc12
REMARK SMILES IDX 3 1 11 2 12 3 13 4 30 5 2 6 1 7 29 8 28 9 26 10 14 11 4 12
REMARK SMILES IDX 5 13 6 14 7 15 10 16 9 17 8 18 15 20 24 21 16 22 22 23 17 24
REMARK SMILES IDX 20 25 25 26 23 28 18 30 19 31 21 33 27 35
REMARK H PARENT 8 19 25 27 23 29 19 32 21 34 27 36
REMARK Flexibility Score: inf
ROOT
ATOM      1  C   UNL     1       5.389  -6.195 -30.927  1.00  0.00     0.065 A 
ATOM      2  C   UNL     1       6.533  -5.624 -30.367  1.00  0.00     0.208 A 
ATOM      3  O   UNL     1       7.657  -5.539 -31.069  1.00  0.00    -0.463 OA
ATOM      4  C   UNL     1       7.787  -5.998 -32.313  1.00  0.00     0.147 A 
ATOM      5  C   UNL     1       6.672  -6.578 -32.961  1.00  0.00     0.066 A 
ATOM      6  C   UNL     1       5.448  -6.659 -32.252  1.00  0.00     0.200 A 
ATOM      7  O   UNL     1       4.403  -7.123 -32.797  1.00  0.00    -0.288 OA
ATOM      8  C   UNL     1       6.806  -7.046 -34.274  1.00  0.00     0.020 A 
ATOM      9  C   UNL     1       8.032  -6.948 -34.935  1.00  0.00     0.047 A 
ATOM     10  C   UNL     1       9.148  -6.394 -34.290  1.00  0.00     0.125 A 
ATOM     11  C   UNL     1       9.041  -5.925 -32.964  1.00  0.00     0.069 A 
ENDROOT
BRANCH   1  12
ATOM     12  C   UNL     1       4.163  -6.305 -30.103  1.00  0.00    -0.011 A 
ATOM     13  C   UNL     1       4.161  -7.075 -28.923  1.00  0.00     0.013 A 
ATOM     14  C   UNL     1       3.045  -7.074 -28.082  1.00  0.00     0.047 A 
ATOM     15  C   UNL     1       1.909  -6.328 -28.420  1.00  0.00     0.115 A 
ATOM     16  C   UNL     1       3.015  -5.580 -30.446  1.00  0.00     0.013 A 
ATOM     17  C   UNL     1       1.890  -5.597 -29.612  1.00  0.00     0.047 A 
BRANCH  15  18
ATOM     18  O   UNL     1       0.800  -6.289 -27.567  1.00  0.00    -0.508 OA
ATOM     19  H   UNL     1      -0.104  -5.991 -27.901  1.00  0.00     0.293 HD
ENDBRANCH  15  18
ENDBRANCH   1  12
BRANCH  11  20
ATOM     20  C   UNL     1      10.266  -5.416 -32.220  1.00  0.00     0.188 C 
ATOM     21  C   UNL     1      10.047  -3.946 -31.763  1.00  0.00     0.179 C 
ATOM     22  O   UNL     1      10.494  -6.270 -31.109  1.00  0.00    -0.362 OA
ATOM     23  C   UNL     1      11.190  -3.456 -30.841  1.00  0.00     0.177 C 
ATOM     24  C   UNL     1      11.653  -5.915 -30.380  1.00  0.00     0.176 C 
ATOM     25  C   UNL     1      11.485  -4.503 -29.751  1.00  0.00     0.177 C 
BRANCH  21  26
ATOM     26  O   UNL     1       9.850  -3.063 -32.840  1.00  0.00    -0.387 OA
ATOM     27  H   UNL     1       9.952  -3.568 -33.691  1.00  0.00     0.211 HD
ENDBRANCH  21  26
BRANCH  23  28
ATOM     28  O   UNL     1      12.377  -3.128 -31.529  1.00  0.00    -0.387 OA
ATOM     29  H   UNL     1      12.586  -3.842 -32.181  1.00  0.00     0.211 HD
ENDBRANCH  23  28
BRANCH  24  30
ATOM     30  C   UNL     1      11.871  -6.984 -29.295  1.00  0.00     0.191 C 
BRANCH  30  31
ATOM     31  O   UNL     1      12.541  -6.436 -28.190  1.00  0.00    -0.394 OA
ATOM     32  H   UNL     1      12.717  -5.483 -28.407  1.00  0.00     0.210 HD
ENDBRANCH  30  31
ENDBRANCH  24  30
BRANCH  25  33
ATOM     33  O   UNL     1      10.482  -4.476 -28.765  1.00  0.00    -0.388 OA
ATOM     34  H   UNL     1       9.596  -4.401 -29.204  1.00  0.00     0.211 HD
ENDBRANCH  25  33
ENDBRANCH  11  20
BRANCH  10  35
ATOM     35  O   UNL     1      10.366  -6.311 -34.957  1.00  0.00    -0.507 OA
ATOM     36  H   UNL     1      11.233  -6.161 -34.460  1.00  0.00     0.293 HD
ENDBRANCH  10  35
TORSDOF 9
ENDMDL
MODEL 4
REMARK VINA RESULT:    -4.196      1.979      3.779
REMARK INTER + INTRA:          -6.185
REMARK INTER:                  -6.319
REMARK INTRA:                   0.134
REMARK UNBOUND:                -0.517
REMARK SMILES O=c1c(-c2ccc(O)cc2)coc2c([C@@H]3O[C@H](CO)[C@H](O)[C@@H](O)[C@H]3O)c(O)ccc12
REMARK SMILES IDX 3 1 11 2 12 3 13 4 30 5 2 6 1 7 29 8 28 9 26 10 14 11 4 12
REMARK SMILES IDX 5 13 6 14 7 15 10 16 9 17 8 18 15 20 24 21 16 22 22 23 17 24
REMARK SMILES IDX 20 25 25 26 23 28 18 30 19 31 21 33 27 35
REMARK H PARENT 8 19 25 27 23 29 19 32 21 34 27 36
REMARK Flexibility Score: inf
ROOT
ATOM      1  C   UNL     1       3.041  -6.085 -32.873  1.00  0.00     0.065 A 
ATOM      2  C   UNL     1       3.482  -5.875 -31.565  1.00  0.00     0.208 A 
ATOM      3  O   UNL     1       4.775  -5.717 -31.307  1.00  0.00    -0.463 OA
ATOM      4  C   UNL     1       5.726  -5.767 -32.239  1.00  0.00     0.147 A 
ATOM      5  C   UNL     1       5.364  -5.961 -33.592  1.00  0.00     0.066 A 
ATOM      6  C   UNL     1       3.990  -6.105 -33.908  1.00  0.00     0.200 A 
ATOM      7  O   UNL     1       3.602  -6.232 -35.108  1.00  0.00    -0.288 OA
ATOM      8  C   UNL     1       6.363  -5.999 -34.572  1.00  0.00     0.020 A 
ATOM      9  C   UNL     1       7.705  -5.855 -34.216  1.00  0.00     0.047 A 
ATOM     10  C   UNL     1       8.073  -5.684 -32.873  1.00  0.00     0.125 A 
ATOM     11  C   UNL     1       7.085  -5.653 -31.866  1.00  0.00     0.069 A 
ENDROOT
BRANCH   1  12
ATOM     12  C   UNL     1       1.595  -6.292 -33.119  1.00  0.00    -0.011 A 
ATOM     13  C   UNL     1       0.746  -6.720 -32.079  1.00  0.00     0.013 A 
ATOM     14  C   UNL     1      -0.634  -6.792 -32.280  1.00  0.00     0.047 A 
ATOM     15  C   UNL     1      -1.183  -6.465 -33.527  1.00  0.00     0.115 A 
ATOM     16  C   UNL     1       1.042  -5.989 -34.369  1.00  0.00     0.013 A 
ATOM     17  C   UNL     1      -0.340  -6.082 -34.574  1.00  0.00     0.047 A 
BRANCH  15  18
ATOM     18  O   UNL     1      -2.568  -6.496 -33.728  1.00  0.00    -0.508 OA
ATOM     19  H   UNL     1      -3.208  -6.290 -32.977  1.00  0.00     0.293 HD
ENDBRANCH  15  18
ENDBRANCH   1  12
BRANCH  11  20
ATOM     20  C   UNL     1       7.476  -5.572 -30.398  1.00  0.00     0.188 C 
ATOM     21  C   UNL     1       7.623  -4.087 -29.961  1.00  0.00     0.179 C 
ATOM     22  O   UNL     1       6.478  -6.234 -29.637  1.00  0.00    -0.362 OA
ATOM     23  C   UNL     1       7.834  -3.957 -28.434  1.00  0.00     0.177 C 
ATOM     24  C   UNL     1       6.780  -6.265 -28.256  1.00  0.00     0.176 C 
ATOM     25  C   UNL     1       6.810  -4.823 -27.676  1.00  0.00     0.177 C 
BRANCH  21  26
ATOM     26  O   UNL     1       8.627  -3.405 -30.672  1.00  0.00    -0.387 OA
ATOM     27  H   UNL     1       8.460  -2.426 -30.605  1.00  0.00     0.211 HD
ENDBRANCH  21  26
BRANCH  23  28
ATOM     28  O   UNL     1       9.141  -4.272 -28.009  1.00  0.00    -0.387 OA
ATOM     29  H   UNL     1       9.099  -4.968 -27.307  1.00  0.00     0.211 HD
ENDBRANCH  23  28
BRANCH  24  30
ATOM     30  C   UNL     1       5.705  -7.120 -27.560  1.00  0.00     0.191 C 
BRANCH  30  31
ATOM     31  O   UNL     1       4.422  -6.741 -27.984  1.00  0.00    -0.394 OA
ATOM     32  H   UNL     1       3.784  -7.377 -27.566  1.00  0.00     0.210 HD
ENDBRANCH  30  31
ENDBRANCH  24  30
BRANCH  25  33
ATOM     33  O   UNL     1       5.543  -4.212 -27.700  1.00  0.00    -0.388 OA
ATOM     34  H   UNL     1       5.075  -4.468 -28.536  1.00  0.00     0.211 HD
ENDBRANCH  25  33
ENDBRANCH  11  20
BRANCH  10  35
ATOM     35  O   UNL     1       9.414  -5.551 -32.531  1.00  0.00    -0.507 OA
ATOM     36  H   UNL     1      10.046  -6.340 -32.549  1.00  0.00     0.293 HD
ENDBRANCH  10  35
TORSDOF 9
ENDMDL
MODEL 5
REMARK VINA RESULT:    -4.108      2.388      4.555
REMARK INTER + INTRA:          -6.066
REMARK INTER:                  -6.033
REMARK INTRA:                  -0.032
REMARK UNBOUND:                -0.517
REMARK SMILES O=c1c(-c2ccc(O)cc2)coc2c([C@@H]3O[C@H](CO)[C@H](O)[C@@H](O)[C@H]3O)c(O)ccc12
REMARK SMILES IDX 3 1 11 2 12 3 13 4 30 5 2 6 1 7 29 8 28 9 26 10 14 11 4 12
REMARK SMILES IDX 5 13 6 14 7 15 10 16 9 17 8 18 15 20 24 21 16 22 22 23 17 24
REMARK SMILES IDX 20 25 25 26 23 28 18 30 19 31 21 33 27 35
REMARK H PARENT 8 19 25 27 23 29 19 32 21 34 27 36
REMARK Flexibility Score: inf
ROOT
ATOM      1  C   UNL     1       4.597  -5.733 -30.324  1.00  0.00     0.065 A 
ATOM      2  C   UNL     1       5.600  -5.224 -29.499  1.00  0.00     0.208 A 
ATOM      3  O   UNL     1       6.818  -4.998 -29.977  1.00  0.00    -0.463 OA
ATOM      4  C   UNL     1       7.176  -5.253 -31.235  1.00  0.00     0.147 A 
ATOM      5  C   UNL     1       6.216  -5.757 -32.143  1.00  0.00     0.066 A 
ATOM      6  C   UNL     1       4.898  -5.983 -31.673  1.00  0.00     0.200 A 
ATOM      7  O   UNL     1       3.984  -6.387 -32.453  1.00  0.00    -0.288 OA
ATOM      8  C   UNL     1       6.590  -6.011 -33.468  1.00  0.00     0.020 A 
ATOM      9  C   UNL     1       7.901  -5.776 -33.887  1.00  0.00     0.047 A 
ATOM     10  C   UNL     1       8.863  -5.297 -32.986  1.00  0.00     0.125 A 
ATOM     11  C   UNL     1       8.513  -5.044 -31.643  1.00  0.00     0.069 A 
ENDROOT
BRANCH   1  12
ATOM     12  C   UNL     1       3.259  -6.005 -29.748  1.00  0.00    -0.011 A 
ATOM     13  C   UNL     1       2.312  -6.762 -30.466  1.00  0.00     0.013 A 
ATOM     14  C   UNL     1       1.102  -7.125 -29.869  1.00  0.00     0.047 A 
ATOM     15  C   UNL     1       0.810  -6.715 -28.562  1.00  0.00     0.115 A 
ATOM     16  C   UNL     1       2.951  -5.580 -28.450  1.00  0.00     0.013 A 
ATOM     17  C   UNL     1       1.728  -5.928 -27.862  1.00  0.00     0.047 A 
BRANCH  15  18
ATOM     18  O   UNL     1      -0.383  -7.105 -27.940  1.00  0.00    -0.508 OA
ATOM     19  H   UNL     1      -0.463  -8.001 -27.483  1.00  0.00     0.293 HD
ENDBRANCH  15  18
ENDBRANCH   1  12
BRANCH  11  20
ATOM     20  C   UNL     1       9.569  -4.622 -30.633  1.00  0.00     0.188 C 
ATOM     21  C   UNL     1      10.007  -5.839 -29.770  1.00  0.00     0.179 C 
ATOM     22  O   UNL     1      10.669  -4.076 -31.345  1.00  0.00    -0.362 OA
ATOM     23  C   UNL     1      11.212  -5.495 -28.862  1.00  0.00     0.177 C 
ATOM     24  C   UNL     1      11.688  -3.597 -30.488  1.00  0.00     0.176 C 
ATOM     25  C   UNL     1      12.303  -4.769 -29.671  1.00  0.00     0.177 C 
BRANCH  21  26
ATOM     26  O   UNL     1       8.949  -6.387 -29.023  1.00  0.00    -0.387 OA
ATOM     27  H   UNL     1       9.185  -6.351 -28.057  1.00  0.00     0.211 HD
ENDBRANCH  21  26
BRANCH  23  28
ATOM     28  O   UNL     1      10.869  -4.735 -27.723  1.00  0.00    -0.387 OA
ATOM     29  H   UNL     1       9.886  -4.642 -27.674  1.00  0.00     0.211 HD
ENDBRANCH  23  28
BRANCH  24  30
ATOM     30  C   UNL     1      12.753  -2.912 -31.362  1.00  0.00     0.191 C 
BRANCH  30  31
ATOM     31  O   UNL     1      12.677  -3.373 -32.686  1.00  0.00    -0.394 OA
ATOM     32  H   UNL     1      13.457  -3.971 -32.825  1.00  0.00     0.210 HD
ENDBRANCH  30  31
ENDBRANCH  24  30
BRANCH  25  33
ATOM     33  O   UNL     1      12.993  -5.683 -30.488  1.00  0.00    -0.388 OA
ATOM     34  H   UNL     1      13.899  -5.328 -30.679  1.00  0.00     0.211 HD
ENDBRANCH  25  33
ENDBRANCH  11  20
BRANCH  10  35
ATOM     35  O   UNL     1      10.168  -5.076 -33.415  1.00  0.00    -0.507 OA
ATOM     36  H   UNL     1      10.868  -4.684 -32.800  1.00  0.00     0.293 HD
ENDBRANCH  10  35
TORSDOF 9
ENDMDL
MODEL 6
REMARK VINA RESULT:    -4.088      2.250      4.598
REMARK INTER + INTRA:          -6.039
REMARK INTER:                  -6.096
REMARK INTRA:                   0.057
REMARK UNBOUND:                -0.517
REMARK SMILES O=c1c(-c2ccc(O)cc2)coc2c([C@@H]3O[C@H](CO)[C@H](O)[C@@H](O)[C@H]3O)c(O)ccc12
REMARK SMILES IDX 3 1 11 2 12 3 13 4 30 5 2 6 1 7 29 8 28 9 26 10 14 11 4 12
REMARK SMILES IDX 5 13 6 14 7 15 10 16 9 17 8 18 15 20 24 21 16 22 22 23 17 24
REMARK SMILES IDX 20 25 25 26 23 28 18 30 19 31 21 33 27 35
REMARK H PARENT 8 19 25 27 23 29 19 32 21 34 27 36
REMARK Flexibility Score: inf
ROOT
ATOM      1  C   UNL     1       5.677  -5.623 -30.763  1.00  0.00     0.065 A 
ATOM      2  C   UNL     1       6.488  -5.635 -31.899  1.00  0.00     0.208 A 
ATOM      3  O   UNL     1       7.793  -5.405 -31.798  1.00  0.00    -0.463 OA
ATOM      4  C   UNL     1       8.407  -5.129 -30.649  1.00  0.00     0.147 A 
ATOM      5  C   UNL     1       7.660  -5.111 -29.448  1.00  0.00     0.066 A 
ATOM      6  C   UNL     1       6.271  -5.380 -29.514  1.00  0.00     0.200 A 
ATOM      7  O   UNL     1       5.561  -5.426 -28.465  1.00  0.00    -0.288 OA
ATOM      8  C   UNL     1       8.311  -4.835 -28.238  1.00  0.00     0.020 A 
ATOM      9  C   UNL     1       9.682  -4.573 -28.220  1.00  0.00     0.047 A 
ATOM     10  C   UNL     1      10.424  -4.568 -29.410  1.00  0.00     0.125 A 
ATOM     11  C   UNL     1       9.789  -4.832 -30.642  1.00  0.00     0.069 A 
ENDROOT
BRANCH   1  12
ATOM     12  C   UNL     1       4.220  -5.849 -30.918  1.00  0.00    -0.011 A 
ATOM     13  C   UNL     1       3.342  -5.610 -29.842  1.00  0.00     0.013 A 
ATOM     14  C   UNL     1       1.960  -5.700 -30.027  1.00  0.00     0.047 A 
ATOM     15  C   UNL     1       1.439  -6.057 -31.277  1.00  0.00     0.115 A 
ATOM     16  C   UNL     1       3.693  -6.227 -32.158  1.00  0.00     0.013 A 
ATOM     17  C   UNL     1       2.308  -6.337 -32.335  1.00  0.00     0.047 A 
BRANCH  15  18
ATOM     18  O   UNL     1       0.055  -6.113 -31.485  1.00  0.00    -0.508 OA
ATOM     19  H   UNL     1      -0.327  -6.426 -32.364  1.00  0.00     0.293 HD
ENDBRANCH  15  18
ENDBRANCH   1  12
BRANCH  11  20
ATOM     20  C   UNL     1      10.561  -4.730 -31.949  1.00  0.00     0.188 C 
ATOM     21  C   UNL     1      11.086  -6.129 -32.376  1.00  0.00     0.179 C 
ATOM     22  O   UNL     1       9.694  -4.186 -32.933  1.00  0.00    -0.362 OA
ATOM     23  C   UNL     1      11.711  -6.100 -33.792  1.00  0.00     0.177 C 
ATOM     24  C   UNL     1      10.336  -3.994 -34.178  1.00  0.00     0.176 C 
ATOM     25  C   UNL     1      10.782  -5.360 -34.773  1.00  0.00     0.177 C 
BRANCH  21  26
ATOM     26  O   UNL     1      11.976  -6.687 -31.441  1.00  0.00    -0.387 OA
ATOM     27  H   UNL     1      12.761  -7.059 -31.926  1.00  0.00     0.211 HD
ENDBRANCH  21  26
BRANCH  23  28
ATOM     28  O   UNL     1      13.004  -5.536 -33.833  1.00  0.00    -0.387 OA
ATOM     29  H   UNL     1      13.531  -5.865 -33.064  1.00  0.00     0.211 HD
ENDBRANCH  23  28
BRANCH  24  30
ATOM     30  C   UNL     1       9.345  -3.279 -35.113  1.00  0.00     0.191 C 
BRANCH  30  31
ATOM     31  O   UNL     1       8.048  -3.788 -34.940  1.00  0.00    -0.394 OA
ATOM     32  H   UNL     1       7.423  -3.106 -35.301  1.00  0.00     0.210 HD
ENDBRANCH  30  31
ENDBRANCH  24  30
BRANCH  25  33
ATOM     33  O   UNL     1       9.687  -6.175 -35.114  1.00  0.00    -0.388 OA
ATOM     34  H   UNL     1       9.755  -6.426 -36.071  1.00  0.00     0.211 HD
ENDBRANCH  25  33
ENDBRANCH  11  20
BRANCH  10  35
ATOM     35  O   UNL     1      11.787  -4.296 -29.378  1.00  0.00    -0.507 OA
ATOM     36  H   UNL     1      12.197  -3.731 -28.646  1.00  0.00     0.293 HD
ENDBRANCH  10  35
TORSDOF 9
ENDMDL
MODEL 7
REMARK VINA RESULT:    -3.888      1.833      2.659
REMARK INTER + INTRA:          -5.768
REMARK INTER:                  -5.102
REMARK INTRA:                  -0.666
REMARK UNBOUND:                -0.517
REMARK SMILES O=c1c(-c2ccc(O)cc2)coc2c([C@@H]3O[C@H](CO)[C@H](O)[C@@H](O)[C@H]3O)c(O)ccc12
REMARK SMILES IDX 3 1 11 2 12 3 13 4 30 5 2 6 1 7 29 8 28 9 26 10 14 11 4 12
REMARK SMILES IDX 5 13 6 14 7 15 10 16 9 17 8 18 15 20 24 21 16 22 22 23 17 24
REMARK SMILES IDX 20 25 25 26 23 28 18 30 19 31 21 33 27 35
REMARK H PARENT 8 19 25 27 23 29 19 32 21 34 27 36
REMARK Flexibility Score: inf
ROOT
ATOM      1  C   UNL     1       4.326  -6.270 -30.633  1.00  0.00     0.065 A 
ATOM      2  C   UNL     1       5.316  -6.725 -31.506  1.00  0.00     0.208 A 
ATOM      3  O   UNL     1       6.596  -6.464 -31.269  1.00  0.00    -0.463 OA
ATOM      4  C   UNL     1       7.024  -5.751 -30.229  1.00  0.00     0.147 A 
ATOM      5  C   UNL     1       6.088  -5.265 -29.286  1.00  0.00     0.066 A 
ATOM      6  C   UNL     1       4.715  -5.549 -29.492  1.00  0.00     0.200 A 
ATOM      7  O   UNL     1       3.836  -5.181 -28.657  1.00  0.00    -0.288 OA
ATOM      8  C   UNL     1       6.541  -4.527 -28.185  1.00  0.00     0.020 A 
ATOM      9  C   UNL     1       7.903  -4.269 -28.023  1.00  0.00     0.047 A 
ATOM     10  C   UNL     1       8.834  -4.729 -28.965  1.00  0.00     0.125 A 
ATOM     11  C   UNL     1       8.402  -5.465 -30.089  1.00  0.00     0.069 A 
ENDROOT
BRANCH   1  12
ATOM     12  C   UNL     1       2.905  -6.550 -30.947  1.00  0.00    -0.011 A 
ATOM     13  C   UNL     1       2.023  -6.985 -29.938  1.00  0.00     0.013 A 
ATOM     14  C   UNL     1       0.659  -7.125 -30.208  1.00  0.00     0.047 A 
ATOM     15  C   UNL     1       0.164  -6.861 -31.491  1.00  0.00     0.115 A 
ATOM     16  C   UNL     1       2.407  -6.310 -32.233  1.00  0.00     0.013 A 
ATOM     17  C   UNL     1       1.043  -6.471 -32.505  1.00  0.00     0.047 A 
BRANCH  15  18
ATOM     18  O   UNL     1      -1.207  -6.960 -31.763  1.00  0.00    -0.508 OA
ATOM     19  H   UNL     1      -1.610  -7.824 -32.092  1.00  0.00     0.293 HD
ENDBRANCH  15  18
ENDBRANCH   1  12
BRANCH  11  20
ATOM     20  C   UNL     1       9.388  -5.882 -31.169  1.00  0.00     0.188 C 
ATOM     21  C   UNL     1       9.495  -4.777 -32.258  1.00  0.00     0.179 C 
ATOM     22  O   UNL     1      10.645  -6.118 -30.553  1.00  0.00    -0.362 OA
ATOM     23  C   UNL     1      10.624  -5.078 -33.272  1.00  0.00     0.177 C 
ATOM     24  C   UNL     1      11.622  -6.571 -31.469  1.00  0.00     0.176 C 
ATOM     25  C   UNL     1      11.916  -5.475 -32.533  1.00  0.00     0.177 C 
BRANCH  21  26
ATOM     26  O   UNL     1       8.274  -4.537 -32.914  1.00  0.00    -0.387 OA
ATOM     27  H   UNL     1       8.425  -3.873 -33.640  1.00  0.00     0.211 HD
ENDBRANCH  21  26
BRANCH  23  28
ATOM     28  O   UNL     1      10.290  -6.065 -34.222  1.00  0.00    -0.387 OA
ATOM     29  H   UNL     1      11.039  -6.176 -34.858  1.00  0.00     0.211 HD
ENDBRANCH  23  28
BRANCH  24  30
ATOM     30  C   UNL     1      12.889  -6.921 -30.669  1.00  0.00     0.191 C 
BRANCH  30  31
ATOM     31  O   UNL     1      12.980  -6.126 -29.516  1.00  0.00    -0.394 OA
ATOM     32  H   UNL     1      12.816  -5.189 -29.802  1.00  0.00     0.210 HD
ENDBRANCH  30  31
ENDBRANCH  24  30
BRANCH  25  33
ATOM     33  O   UNL     1      12.525  -4.338 -31.971  1.00  0.00    -0.388 OA
ATOM     34  H   UNL     1      13.257  -4.625 -31.368  1.00  0.00     0.211 HD
ENDBRANCH  25  33
ENDBRANCH  11  20
BRANCH  10  35
ATOM     35  O   UNL     1      10.188  -4.456 -28.796  1.00  0.00    -0.507 OA
ATOM     36  H   UNL     1      10.892  -5.170 -28.925  1.00  0.00     0.293 HD
ENDBRANCH  10  35
TORSDOF 9
ENDMDL
MODEL 8
REMARK VINA RESULT:    -3.826      2.572      7.725
REMARK INTER + INTRA:          -5.685
REMARK INTER:                  -5.767
REMARK INTRA:                   0.082
REMARK UNBOUND:                -0.517
REMARK SMILES O=c1c(-c2ccc(O)cc2)coc2c([C@@H]3O[C@H](CO)[C@H](O)[C@@H](O)[C@H]3O)c(O)ccc12
REMARK SMILES IDX 3 1 11 2 12 3 13 4 30 5 2 6 1 7 29 8 28 9 26 10 14 11 4 12
REMARK SMILES IDX 5 13 6 14 7 15 10 16 9 17 8 18 15 20 24 21 16 22 22 23 17 24
REMARK SMILES IDX 20 25 25 26 23 28 18 30 19 31 21 33 27 35
REMARK H PARENT 8 19 25 27 23 29 19 32 21 34 27 36
REMARK Flexibility Score: inf
ROOT
ATOM      1  C   UNL     1       8.211  -6.255 -28.581  1.00  0.00     0.065 A 
ATOM      2  C   UNL     1       8.148  -6.054 -29.960  1.00  0.00     0.208 A 
ATOM      3  O   UNL     1       6.992  -6.158 -30.606  1.00  0.00    -0.463 OA
ATOM      4  C   UNL     1       5.842  -6.475 -30.013  1.00  0.00     0.147 A 
ATOM      5  C   UNL     1       5.814  -6.680 -28.614  1.00  0.00     0.066 A 
ATOM      6  C   UNL     1       7.025  -6.550 -27.889  1.00  0.00     0.200 A 
ATOM      7  O   UNL     1       7.052  -6.675 -26.628  1.00  0.00    -0.288 OA
ATOM      8  C   UNL     1       4.601  -6.999 -27.990  1.00  0.00     0.020 A 
ATOM      9  C   UNL     1       3.432  -7.120 -28.743  1.00  0.00     0.047 A 
ATOM     10  C   UNL     1       3.457  -6.939 -30.134  1.00  0.00     0.125 A 
ATOM     11  C   UNL     1       4.668  -6.628 -30.787  1.00  0.00     0.069 A 
ENDROOT
BRANCH   1  12
ATOM     12  C   UNL     1       9.524  -6.166 -27.900  1.00  0.00    -0.011 A 
ATOM     13  C   UNL     1      10.433  -5.141 -28.230  1.00  0.00     0.013 A 
ATOM     14  C   UNL     1      11.613  -4.983 -27.499  1.00  0.00     0.047 A 
ATOM     15  C   UNL     1      11.915  -5.860 -26.450  1.00  0.00     0.115 A 
ATOM     16  C   UNL     1       9.844  -7.053 -26.865  1.00  0.00     0.013 A 
ATOM     17  C   UNL     1      11.037  -6.905 -26.148  1.00  0.00     0.047 A 
BRANCH  15  18
ATOM     18  O   UNL     1      13.076  -5.688 -25.686  1.00  0.00    -0.508 OA
ATOM     19  H   UNL     1      13.682  -4.896 -25.832  1.00  0.00     0.293 HD
ENDBRANCH  15  18
ENDBRANCH   1  12
BRANCH  11  20
ATOM     20  C   UNL     1       4.729  -6.529 -32.304  1.00  0.00     0.188 C 
ATOM     21  C   UNL     1       4.225  -5.136 -32.774  1.00  0.00     0.179 C 
ATOM     22  O   UNL     1       6.071  -6.752 -32.708  1.00  0.00    -0.362 OA
ATOM     23  C   UNL     1       4.447  -4.927 -34.291  1.00  0.00     0.177 C 
ATOM     24  C   UNL     1       6.224  -6.739 -34.114  1.00  0.00     0.176 C 
ATOM     25  C   UNL     1       5.880  -5.333 -34.683  1.00  0.00     0.177 C 
BRANCH  21  26
ATOM     26  O   UNL     1       2.885  -4.892 -32.419  1.00  0.00    -0.387 OA
ATOM     27  H   UNL     1       2.756  -3.911 -32.309  1.00  0.00     0.211 HD
ENDBRANCH  21  26
BRANCH  23  28
ATOM     28  O   UNL     1       3.514  -5.605 -35.103  1.00  0.00    -0.387 OA
ATOM     29  H   UNL     1       2.921  -6.154 -34.534  1.00  0.00     0.211 HD
ENDBRANCH  23  28
BRANCH  24  30
ATOM     30  C   UNL     1       7.680  -7.125 -34.431  1.00  0.00     0.191 C 
BRANCH  30  31
ATOM     31  O   UNL     1       8.529  -6.762 -33.373  1.00  0.00    -0.394 OA
ATOM     32  H   UNL     1       9.332  -7.343 -33.439  1.00  0.00     0.210 HD
ENDBRANCH  30  31
ENDBRANCH  24  30
BRANCH  25  33
ATOM     33  O   UNL     1       6.797  -4.351 -34.265  1.00  0.00    -0.388 OA
ATOM     34  H   UNL     1       6.928  -3.697 -34.998  1.00  0.00     0.211 HD
ENDBRANCH  25  33
ENDBRANCH  11  20
BRANCH  10  35
ATOM     35  O   UNL     1       2.286  -7.071 -30.873  1.00  0.00    -0.507 OA
ATOM     36  H   UNL     1       1.676  -6.284 -31.044  1.00  0.00     0.293 HD
ENDBRANCH  10  35
TORSDOF 9
ENDMDL
