MODEL 1
REMARK VINA RESULT:    -5.874      0.000      0.000
REMARK INTER + INTRA:          -6.729
REMARK INTER:                  -6.561
REMARK INTRA:                  -0.168
REMARK UNBOUND:                -0.168
REMARK SMILES C=CCc1ccc2c(c1)OCO2
REMARK SMILES IDX 3 1 2 2 1 3 4 4 9 5 5 6 8 7 6 8 7 9 10 10 12 11 11 12
REMARK H PARENT
REMARK Flexibility Score: inf
ROOT
ATOM      1  C   UNL     1      24.848  38.016  29.016  1.00  0.00     0.062 C 
ENDROOT
BRANCH   1   2
ATOM      2  C   UNL     1      25.368  36.726  29.586  1.00  0.00    -0.030 C 
ATOM      3  C   UNL     1      26.261  35.979  28.931  1.00  0.00     0.004 C 
ENDBRANCH   1   2
BRANCH   1   4
ATOM      4  C   UNL     1      25.171  39.170  29.928  1.00  0.00    -0.040 A 
ATOM      5  C   UNL     1      24.278  40.258  30.042  1.00  0.00     0.054 A 
ATOM      6  C   UNL     1      26.396  39.188  30.644  1.00  0.00     0.008 A 
ATOM      7  C   UNL     1      24.636  41.313  30.876  1.00  0.00     0.166 A 
ATOM      8  C   UNL     1      26.719  40.275  31.477  1.00  0.00     0.051 A 
ATOM      9  C   UNL     1      25.806  41.321  31.564  1.00  0.00     0.165 A 
ATOM     10  O   UNL     1      23.935  42.472  31.148  1.00  0.00    -0.454 OA
ATOM     11  O   UNL     1      25.897  42.484  32.304  1.00  0.00    -0.454 OA
ATOM     12  C   UNL     1      24.711  43.256  32.065  1.00  0.00     0.468 C 
ENDBRANCH   1   4
TORSDOF 2
ENDMDL
MODEL 2
REMARK VINA RESULT:    -5.872      4.133      6.397
REMARK INTER + INTRA:          -6.726
REMARK INTER:                  -6.556
REMARK INTRA:                  -0.170
REMARK UNBOUND:                -0.168
REMARK SMILES C=CCc1ccc2c(c1)OCO2
REMARK SMILES IDX 3 1 2 2 1 3 4 4 9 5 5 6 8 7 6 8 7 9 10 10 12 11 11 12
REMARK H PARENT
REMARK Flexibility Score: inf
ROOT
ATOM      1  C   UNL     1      24.512  38.388  29.612  1.00  0.00     0.062 C 
ENDROOT
BRANCH   1   2
ATOM      2  C   UNL     1      25.298  39.668  29.616  1.00  0.00    -0.030 C 
ATOM      3  C   UNL     1      25.394  40.430  30.709  1.00  0.00     0.004 C 
ENDBRANCH   1   2
BRANCH   1   4
ATOM      4  C   UNL     1      25.392  37.223  29.247  1.00  0.00    -0.040 A 
ATOM      5  C   UNL     1      24.853  36.108  28.567  1.00  0.00     0.054 A 
ATOM      6  C   UNL     1      26.760  37.221  29.624  1.00  0.00     0.008 A 
ATOM      7  C   UNL     1      25.703  35.045  28.279  1.00  0.00     0.166 A 
ATOM      8  C   UNL     1      27.585  36.125  29.313  1.00  0.00     0.051 A 
ATOM      9  C   UNL     1      27.012  35.053  28.635  1.00  0.00     0.165 A 
ATOM     10  O   UNL     1      25.411  33.862  27.628  1.00  0.00    -0.454 OA
ATOM     11  O   UNL     1      27.609  33.876  28.225  1.00  0.00    -0.454 OA
ATOM     12  C   UNL     1      26.612  33.078  27.571  1.00  0.00     0.468 C 
ENDBRANCH   1   4
TORSDOF 2
ENDMDL
MODEL 3
REMARK VINA RESULT:    -5.652      2.908      4.683
REMARK INTER + INTRA:          -6.481
REMARK INTER:                  -6.321
REMARK INTRA:                  -0.159
REMARK UNBOUND:                -0.168
REMARK SMILES C=CCc1ccc2c(c1)OCO2
REMARK SMILES IDX 3 1 2 2 1 3 4 4 9 5 5 6 8 7 6 8 7 9 10 10 12 11 11 12
REMARK H PARENT
REMARK Flexibility Score: inf
ROOT
ATOM      1  C   UNL     1      25.758  33.627  27.340  1.00  0.00     0.062 C 
ENDROOT
BRANCH   1   2
ATOM      2  C   UNL     1      24.765  33.807  26.227  1.00  0.00    -0.030 C 
ATOM      3  C   UNL     1      24.094  32.773  25.710  1.00  0.00     0.004 C 
ENDBRANCH   1   2
BRANCH   1   4
ATOM      4  C   UNL     1      25.913  34.901  28.127  1.00  0.00    -0.040 A 
ATOM      5  C   UNL     1      24.838  35.813  28.224  1.00  0.00     0.054 A 
ATOM      6  C   UNL     1      27.155  35.211  28.740  1.00  0.00     0.008 A 
ATOM      7  C   UNL     1      25.042  36.989  28.940  1.00  0.00     0.166 A 
ATOM      8  C   UNL     1      27.318  36.412  29.455  1.00  0.00     0.051 A 
ATOM      9  C   UNL     1      26.230  37.276  29.530  1.00  0.00     0.165 A 
ATOM     10  O   UNL     1      24.152  38.019  29.173  1.00  0.00    -0.454 OA
ATOM     11  O   UNL     1      26.145  38.500  30.165  1.00  0.00    -0.454 OA
ATOM     12  C   UNL     1      24.822  39.015  29.960  1.00  0.00     0.468 C 
ENDBRANCH   1   4
TORSDOF 2
ENDMDL
MODEL 4
REMARK VINA RESULT:    -5.607      2.221      4.855
REMARK INTER + INTRA:          -6.430
REMARK INTER:                  -6.274
REMARK INTRA:                  -0.157
REMARK UNBOUND:                -0.168
REMARK SMILES C=CCc1ccc2c(c1)OCO2
REMARK SMILES IDX 3 1 2 2 1 3 4 4 9 5 5 6 8 7 6 8 7 9 10 10 12 11 11 12
REMARK H PARENT
REMARK Flexibility Score: inf
ROOT
ATOM      1  C   UNL     1      23.936  43.064  31.809  1.00  0.00     0.062 C 
ENDROOT
BRANCH   1   2
ATOM      2  C   UNL     1      22.448  42.866  31.872  1.00  0.00    -0.030 C 
ATOM      3  C   UNL     1      21.602  43.900  31.895  1.00  0.00     0.004 C 
ENDBRANCH   1   2
BRANCH   1   4
ATOM      4  C   UNL     1      24.623  41.805  31.350  1.00  0.00    -0.040 A 
ATOM      5  C   UNL     1      23.984  40.939  30.435  1.00  0.00     0.054 A 
ATOM      6  C   UNL     1      25.898  41.462  31.870  1.00  0.00     0.008 A 
ATOM      7  C   UNL     1      24.649  39.774  30.065  1.00  0.00     0.166 A 
ATOM      8  C   UNL     1      26.535  40.273  31.469  1.00  0.00     0.051 A 
ATOM      9  C   UNL     1      25.872  39.455  30.559  1.00  0.00     0.165 A 
ATOM     10  O   UNL     1      24.233  38.785  29.194  1.00  0.00    -0.454 OA
ATOM     11  O   UNL     1      26.286  38.252  30.023  1.00  0.00    -0.454 OA
ATOM     12  C   UNL     1      25.260  37.784  29.136  1.00  0.00     0.468 C 
ENDBRANCH   1   4
TORSDOF 2
ENDMDL
MODEL 5
REMARK VINA RESULT:    -5.595      1.451      2.960
REMARK INTER + INTRA:          -6.417
REMARK INTER:                  -6.244
REMARK INTRA:                  -0.174
REMARK UNBOUND:                -0.168
REMARK SMILES C=CCc1ccc2c(c1)OCO2
REMARK SMILES IDX 3 1 2 2 1 3 4 4 9 5 5 6 8 7 6 8 7 9 10 10 12 11 11 12
REMARK H PARENT
REMARK Flexibility Score: inf
ROOT
ATOM      1  C   UNL     1      26.693  35.720  28.903  1.00  0.00     0.062 C 
ENDROOT
BRANCH   1   2
ATOM      2  C   UNL     1      25.774  34.843  28.100  1.00  0.00    -0.030 C 
ATOM      3  C   UNL     1      26.123  33.605  27.738  1.00  0.00     0.004 C 
ENDBRANCH   1   2
BRANCH   1   4
ATOM      4  C   UNL     1      26.026  37.027  29.237  1.00  0.00    -0.040 A 
ATOM      5  C   UNL     1      26.670  37.960  30.080  1.00  0.00     0.054 A 
ATOM      6  C   UNL     1      24.727  37.310  28.739  1.00  0.00     0.008 A 
ATOM      7  C   UNL     1      25.998  39.142  30.380  1.00  0.00     0.166 A 
ATOM      8  C   UNL     1      24.084  38.517  29.068  1.00  0.00     0.051 A 
ATOM      9  C   UNL     1      24.760  39.409  29.895  1.00  0.00     0.165 A 
ATOM     10  O   UNL     1      26.419  40.193  31.171  1.00  0.00    -0.454 OA
ATOM     11  O   UNL     1      24.341  40.642  30.354  1.00  0.00    -0.454 OA
ATOM     12  C   UNL     1      25.381  41.184  31.181  1.00  0.00     0.468 C 
ENDBRANCH   1   4
TORSDOF 2
ENDMDL
MODEL 6
REMARK VINA RESULT:    -5.552      3.102      5.592
REMARK INTER + INTRA:          -6.369
REMARK INTER:                  -6.196
REMARK INTRA:                  -0.174
REMARK UNBOUND:                -0.168
REMARK SMILES C=CCc1ccc2c(c1)OCO2
REMARK SMILES IDX 3 1 2 2 1 3 4 4 9 5 5 6 8 7 6 8 7 9 10 10 12 11 11 12
REMARK H PARENT
REMARK Flexibility Score: inf
ROOT
ATOM      1  C   UNL     1      26.099  40.477  31.124  1.00  0.00     0.062 C 
ENDROOT
BRANCH   1   2
ATOM      2  C   UNL     1      24.957  41.453  31.111  1.00  0.00    -0.030 C 
ATOM      3  C   UNL     1      25.025  42.623  31.752  1.00  0.00     0.004 C 
ENDBRANCH   1   2
BRANCH   1   4
ATOM      4  C   UNL     1      25.745  39.230  30.359  1.00  0.00    -0.040 A 
ATOM      5  C   UNL     1      26.659  38.156  30.285  1.00  0.00     0.054 A 
ATOM      6  C   UNL     1      24.505  39.146  29.673  1.00  0.00     0.008 A 
ATOM      7  C   UNL     1      26.294  37.037  29.541  1.00  0.00     0.166 A 
ATOM      8  C   UNL     1      24.176  37.997  28.932  1.00  0.00     0.051 A 
ATOM      9  C   UNL     1      25.105  36.960  28.894  1.00  0.00     0.165 A 
ATOM     10  O   UNL     1      27.011  35.876  29.326  1.00  0.00    -0.454 OA
ATOM     11  O   UNL     1      25.013  35.747  28.240  1.00  0.00    -0.454 OA
ATOM     12  C   UNL     1      26.221  35.015  28.493  1.00  0.00     0.468 C 
ENDBRANCH   1   4
TORSDOF 2
ENDMDL
MODEL 7
REMARK VINA RESULT:    -5.476     16.636     17.923
REMARK INTER + INTRA:          -6.283
REMARK INTER:                  -6.121
REMARK INTRA:                  -0.163
REMARK UNBOUND:                -0.168
REMARK SMILES C=CCc1ccc2c(c1)OCO2
REMARK SMILES IDX 3 1 2 2 1 3 4 4 9 5 5 6 8 7 6 8 7 9 10 10 12 11 11 12
REMARK H PARENT
REMARK Flexibility Score: inf
ROOT
ATOM      1  C   UNL     1      10.569  38.556  23.578  1.00  0.00     0.062 C 
ENDROOT
BRANCH   1   2
ATOM      2  C   UNL     1       9.174  37.999  23.639  1.00  0.00    -0.030 C 
ATOM      3  C   UNL     1       8.875  36.934  24.389  1.00  0.00     0.004 C 
ENDBRANCH   1   2
BRANCH   1   4
ATOM      4  C   UNL     1      10.949  38.886  22.160  1.00  0.00    -0.040 A 
ATOM      5  C   UNL     1      10.017  39.505  21.298  1.00  0.00     0.054 A 
ATOM      6  C   UNL     1      12.235  38.538  21.670  1.00  0.00     0.008 A 
ATOM      7  C   UNL     1      10.409  39.763  19.988  1.00  0.00     0.166 A 
ATOM      8  C   UNL     1      12.591  38.817  20.338  1.00  0.00     0.051 A 
ATOM      9  C   UNL     1      11.643  39.434  19.528  1.00  0.00     0.165 A 
ATOM     10  O   UNL     1       9.683  40.354  18.972  1.00  0.00    -0.454 OA
ATOM     11  O   UNL     1      11.753  39.803  18.201  1.00  0.00    -0.454 OA
ATOM     12  C   UNL     1      10.512  40.401  17.802  1.00  0.00     0.468 C 
ENDBRANCH   1   4
TORSDOF 2
ENDMDL
MODEL 8
REMARK VINA RESULT:    -5.407     16.256     17.512
REMARK INTER + INTRA:          -6.207
REMARK INTER:                  -6.007
REMARK INTRA:                  -0.200
REMARK UNBOUND:                -0.168
REMARK SMILES C=CCc1ccc2c(c1)OCO2
REMARK SMILES IDX 3 1 2 2 1 3 4 4 9 5 5 6 8 7 6 8 7 9 10 10 12 11 11 12
REMARK H PARENT
REMARK Flexibility Score: inf
ROOT
ATOM      1  C   UNL     1      12.168  37.631  21.843  1.00  0.00     0.062 C 
ENDROOT
BRANCH   1   2
ATOM      2  C   UNL     1      11.886  38.076  23.249  1.00  0.00    -0.030 C 
ATOM      3  C   UNL     1      12.868  38.411  24.091  1.00  0.00     0.004 C 
ENDBRANCH   1   2
BRANCH   1   4
ATOM      4  C   UNL     1      11.982  38.769  20.875  1.00  0.00    -0.040 A 
ATOM      5  C   UNL     1      10.689  39.113  20.421  1.00  0.00     0.054 A 
ATOM      6  C   UNL     1      13.110  39.474  20.382  1.00  0.00     0.008 A 
ATOM      7  C   UNL     1      10.574  40.155  19.506  1.00  0.00     0.166 A 
ATOM      8  C   UNL     1      12.949  40.521  19.456  1.00  0.00     0.051 A 
ATOM      9  C   UNL     1      11.657  40.830  19.044  1.00  0.00     0.165 A 
ATOM     10  O   UNL     1       9.431  40.669  18.926  1.00  0.00    -0.454 OA
ATOM     11  O   UNL     1      11.248  41.803  18.152  1.00  0.00    -0.454 OA
ATOM     12  C   UNL     1       9.818  41.735  18.047  1.00  0.00     0.468 C 
ENDBRANCH   1   4
TORSDOF 2
ENDMDL
MODEL 9
REMARK VINA RESULT:    -5.398     16.660     18.047
REMARK INTER + INTRA:          -6.197
REMARK INTER:                  -6.006
REMARK INTRA:                  -0.191
REMARK UNBOUND:                -0.168
REMARK SMILES C=CCc1ccc2c(c1)OCO2
REMARK SMILES IDX 3 1 2 2 1 3 4 4 9 5 5 6 8 7 6 8 7 9 10 10 12 11 11 12
REMARK H PARENT
REMARK Flexibility Score: inf
ROOT
ATOM      1  C   UNL     1      11.431  38.254  23.347  1.00  0.00     0.062 C 
ENDROOT
BRANCH   1   2
ATOM      2  C   UNL     1      10.446  38.388  24.474  1.00  0.00    -0.030 C 
ATOM      3  C   UNL     1      10.766  38.999  25.618  1.00  0.00     0.004 C 
ENDBRANCH   1   2
BRANCH   1   4
ATOM      4  C   UNL     1      10.882  38.863  22.085  1.00  0.00    -0.040 A 
ATOM      5  C   UNL     1      11.630  38.814  20.887  1.00  0.00     0.054 A 
ATOM      6  C   UNL     1       9.629  39.528  22.103  1.00  0.00     0.008 A 
ATOM      7  C   UNL     1      11.091  39.417  19.754  1.00  0.00     0.166 A 
ATOM      8  C   UNL     1       9.120  40.125  20.935  1.00  0.00     0.051 A 
ATOM      9  C   UNL     1       9.888  40.044  19.777  1.00  0.00     0.165 A 
ATOM     10  O   UNL     1      11.627  39.496  18.484  1.00  0.00    -0.454 OA
ATOM     11  O   UNL     1       9.607  40.548  18.522  1.00  0.00    -0.454 OA
ATOM     12  C   UNL     1      10.702  40.216  17.656  1.00  0.00     0.468 C 
ENDBRANCH   1   4
TORSDOF 2
ENDMDL
