MODEL 1
REMARK VINA RESULT:    -4.844      0.000      0.000
REMARK INTER + INTRA:          -6.312
REMARK INTER:                  -5.835
REMARK INTRA:                  -0.477
REMARK UNBOUND:                -0.477
REMARK SMILES O=c1ccn([C@@H]2O[C@@H](CO)[C@@H](O)[C@H]2O)c(=O)[nH]1
REMARK SMILES IDX 6 1 13 2 11 3 8 4 7 5 5 6 3 7 4 8 2 9 17 10 1 11 15 12 16 14
REMARK SMILES IDX 14 15 12 17 9 19 10 20
REMARK H PARENT 17 13 14 16 12 18 10 21
REMARK Flexibility Score: inf
ROOT
ATOM      1  C   UNL     1      -7.279  15.199   0.339  1.00  0.00     0.255 C 
ATOM      2  C   UNL     1      -6.161  16.150   0.786  1.00  0.00     0.196 C 
ATOM      3  C   UNL     1      -6.852  17.048   1.780  1.00  0.00     0.179 C 
ATOM      4  C   UNL     1      -8.043  16.209   2.242  1.00  0.00     0.178 C 
ATOM      5  O   UNL     1      -8.408  15.357   1.181  1.00  0.00    -0.347 OA
ENDROOT
BRANCH   1   6
ATOM      6  N   UNL     1      -7.650  15.461  -1.068  1.00  0.00    -0.271 N 
ATOM      7  C   UNL     1      -8.929  16.704  -2.674  1.00  0.00     0.090 A 
ATOM      8  C   UNL     1      -8.588  16.417  -1.355  1.00  0.00     0.099 A 
ATOM      9  C   UNL     1      -8.284  16.014  -3.695  1.00  0.00     0.253 A 
ATOM     10  N   UNL     1      -7.338  15.088  -3.391  1.00  0.00    -0.274 N 
ATOM     11  O   UNL     1      -8.572  16.253  -4.898  1.00  0.00    -0.269 OA
ATOM     12  C   UNL     1      -7.011  14.814  -2.098  1.00  0.00     0.330 A 
ATOM     13  H   UNL     1      -6.850  14.580  -4.165  1.00  0.00     0.175 HD
ATOM     14  O   UNL     1      -6.109  13.962  -1.860  1.00  0.00    -0.248 OA
ENDBRANCH   1   6
BRANCH   2  15
ATOM     15  O   UNL     1      -5.121  15.432   1.401  1.00  0.00    -0.386 OA
ATOM     16  H   UNL     1      -4.276  15.896   1.158  1.00  0.00     0.211 HD
ENDBRANCH   2  15
BRANCH   3  17
ATOM     17  O   UNL     1      -5.998  17.432   2.829  1.00  0.00    -0.387 OA
ATOM     18  H   UNL     1      -5.112  17.033   2.627  1.00  0.00     0.211 HD
ENDBRANCH   3  17
BRANCH   4  19
ATOM     19  C   UNL     1      -7.762  15.369   3.500  1.00  0.00     0.191 C 
BRANCH  19  20
ATOM     20  O   UNL     1      -7.641  16.213   4.612  1.00  0.00    -0.394 OA
ATOM     21  H   UNL     1      -8.447  16.054   5.168  1.00  0.00     0.210 HD
ENDBRANCH  19  20
ENDBRANCH   4  19
TORSDOF 5
ENDMDL
MODEL 2
REMARK VINA RESULT:    -4.738      2.498      6.913
REMARK INTER + INTRA:          -6.185
REMARK INTER:                  -5.759
REMARK INTRA:                  -0.425
REMARK UNBOUND:                -0.477
REMARK SMILES O=c1ccn([C@@H]2O[C@@H](CO)[C@@H](O)[C@H]2O)c(=O)[nH]1
REMARK SMILES IDX 6 1 13 2 11 3 8 4 7 5 5 6 3 7 4 8 2 9 17 10 1 11 15 12 16 14
REMARK SMILES IDX 14 15 12 17 9 19 10 20
REMARK H PARENT 17 13 14 16 12 18 10 21
REMARK Flexibility Score: inf
ROOT
ATOM      1  C   UNL     1      -7.564  14.693  -4.478  1.00  0.00     0.255 C 
ATOM      2  C   UNL     1      -8.557  13.553  -4.741  1.00  0.00     0.196 C 
ATOM      3  C   UNL     1      -9.394  14.084  -5.877  1.00  0.00     0.179 C 
ATOM      4  C   UNL     1      -8.486  15.129  -6.524  1.00  0.00     0.178 C 
ATOM      5  O   UNL     1      -7.644  15.649  -5.521  1.00  0.00    -0.347 OA
ENDROOT
BRANCH   1   6
ATOM      6  N   UNL     1      -7.844  15.333  -3.175  1.00  0.00    -0.271 N 
ATOM      7  C   UNL     1      -9.018  16.986  -1.891  1.00  0.00     0.090 A 
ATOM      8  C   UNL     1      -8.713  16.390  -3.111  1.00  0.00     0.099 A 
ATOM      9  C   UNL     1      -8.436  16.477  -0.736  1.00  0.00     0.253 A 
ATOM     10  N   UNL     1      -7.595  15.413  -0.816  1.00  0.00    -0.274 N 
ATOM     11  O   UNL     1      -8.692  16.998   0.382  1.00  0.00    -0.269 OA
ATOM     12  C   UNL     1      -7.304  14.835  -2.014  1.00  0.00     0.330 A 
ATOM     13  H   UNL     1      -7.169  15.029   0.059  1.00  0.00     0.175 HD
ATOM     14  O   UNL     1      -6.536  13.833  -2.042  1.00  0.00    -0.248 OA
ENDBRANCH   1   6
BRANCH   2  15
ATOM     15  O   UNL     1      -7.876  12.386  -5.126  1.00  0.00    -0.386 OA
ATOM     16  H   UNL     1      -7.277  12.644  -5.876  1.00  0.00     0.211 HD
ENDBRANCH   2  15
BRANCH   3  17
ATOM     17  O   UNL     1      -9.792  13.066  -6.761  1.00  0.00    -0.387 OA
ATOM     18  H   UNL     1      -9.075  12.993  -7.443  1.00  0.00     0.211 HD
ENDBRANCH   3  17
BRANCH   4  19
ATOM     19  C   UNL     1      -7.628  14.580  -7.678  1.00  0.00     0.191 C 
BRANCH  19  20
ATOM     20  O   UNL     1      -8.227  14.900  -8.903  1.00  0.00    -0.394 OA
ATOM     21  H   UNL     1      -7.727  14.395  -9.595  1.00  0.00     0.210 HD
ENDBRANCH  19  20
ENDBRANCH   4  19
TORSDOF 5
ENDMDL
MODEL 3
REMARK VINA RESULT:    -4.687      2.194      5.679
REMARK INTER + INTRA:          -6.123
REMARK INTER:                  -5.888
REMARK INTRA:                  -0.235
REMARK UNBOUND:                -0.477
REMARK SMILES O=c1ccn([C@@H]2O[C@@H](CO)[C@@H](O)[C@H]2O)c(=O)[nH]1
REMARK SMILES IDX 6 1 13 2 11 3 8 4 7 5 5 6 3 7 4 8 2 9 17 10 1 11 15 12 16 14
REMARK SMILES IDX 14 15 12 17 9 19 10 20
REMARK H PARENT 17 13 14 16 12 18 10 21
REMARK Flexibility Score: inf
ROOT
ATOM      1  C   UNL     1      -8.065  15.962  -0.149  1.00  0.00     0.255 C 
ATOM      2  C   UNL     1      -9.475  15.357  -0.098  1.00  0.00     0.196 C 
ATOM      3  C   UNL     1     -10.247  16.204  -1.077  1.00  0.00     0.179 C 
ATOM      4  C   UNL     1      -9.157  16.767  -1.989  1.00  0.00     0.178 C 
ATOM      5  O   UNL     1      -7.972  16.870  -1.232  1.00  0.00    -0.347 OA
ENDROOT
BRANCH   1   6
ATOM      6  N   UNL     1      -7.750  16.648   1.122  1.00  0.00    -0.271 N 
ATOM      7  C   UNL     1      -8.496  17.754   3.117  1.00  0.00     0.090 A 
ATOM      8  C   UNL     1      -8.767  17.134   1.900  1.00  0.00     0.099 A 
ATOM      9  C   UNL     1      -7.173  17.855   3.535  1.00  0.00     0.253 A 
ATOM     10  N   UNL     1      -6.180  17.344   2.761  1.00  0.00    -0.274 N 
ATOM     11  O   UNL     1      -6.899  18.411   4.631  1.00  0.00    -0.269 OA
ATOM     12  C   UNL     1      -6.455  16.738   1.572  1.00  0.00     0.330 A 
ATOM     13  H   UNL     1      -5.189  17.414   3.086  1.00  0.00     0.175 HD
ATOM     14  O   UNL     1      -5.504  16.257   0.895  1.00  0.00    -0.248 OA
ENDBRANCH   1   6
BRANCH   2  15
ATOM     15  O   UNL     1      -9.450  14.014  -0.511  1.00  0.00    -0.386 OA
ATOM     16  H   UNL     1      -8.572  13.648  -0.225  1.00  0.00     0.211 HD
ENDBRANCH   2  15
BRANCH   3  17
ATOM     17  O   UNL     1     -11.221  15.461  -1.765  1.00  0.00    -0.387 OA
ATOM     18  H   UNL     1     -10.830  15.239  -2.649  1.00  0.00     0.211 HD
ENDBRANCH   3  17
BRANCH   4  19
ATOM     19  C   UNL     1      -8.892  15.916  -3.243  1.00  0.00     0.191 C 
BRANCH  19  20
ATOM     20  O   UNL     1      -8.474  16.743  -4.293  1.00  0.00    -0.394 OA
ATOM     21  H   UNL     1      -8.231  16.138  -5.041  1.00  0.00     0.210 HD
ENDBRANCH  19  20
ENDBRANCH   4  19
TORSDOF 5
ENDMDL
MODEL 4
REMARK VINA RESULT:    -4.664      1.564      2.573
REMARK INTER + INTRA:          -6.096
REMARK INTER:                  -5.713
REMARK INTRA:                  -0.382
REMARK UNBOUND:                -0.477
REMARK SMILES O=c1ccn([C@@H]2O[C@@H](CO)[C@@H](O)[C@H]2O)c(=O)[nH]1
REMARK SMILES IDX 6 1 13 2 11 3 8 4 7 5 5 6 3 7 4 8 2 9 17 10 1 11 15 12 16 14
REMARK SMILES IDX 14 15 12 17 9 19 10 20
REMARK H PARENT 17 13 14 16 12 18 10 21
REMARK Flexibility Score: inf
ROOT
ATOM      1  C   UNL     1      -8.056  15.501  -0.520  1.00  0.00     0.255 C 
ATOM      2  C   UNL     1      -7.575  14.143   0.010  1.00  0.00     0.196 C 
ATOM      3  C   UNL     1      -6.303  14.491   0.740  1.00  0.00     0.179 C 
ATOM      4  C   UNL     1      -6.481  15.973   1.069  1.00  0.00     0.178 C 
ATOM      5  O   UNL     1      -7.296  16.542   0.069  1.00  0.00    -0.347 OA
ENDROOT
BRANCH   1   6
ATOM      6  N   UNL     1      -7.937  15.552  -1.993  1.00  0.00    -0.271 N 
ATOM      7  C   UNL     1      -7.179  14.563  -4.044  1.00  0.00     0.090 A 
ATOM      8  C   UNL     1      -7.274  14.553  -2.655  1.00  0.00     0.099 A 
ATOM      9  C   UNL     1      -7.785  15.598  -4.747  1.00  0.00     0.253 A 
ATOM     10  N   UNL     1      -8.459  16.567  -4.074  1.00  0.00    -0.274 N 
ATOM     11  O   UNL     1      -7.714  15.633  -6.004  1.00  0.00    -0.269 OA
ATOM     12  C   UNL     1      -8.548  16.548  -2.715  1.00  0.00     0.330 A 
ATOM     13  H   UNL     1      -8.922  17.337  -4.611  1.00  0.00     0.175 HD
ATOM     14  O   UNL     1      -9.205  17.455  -2.131  1.00  0.00    -0.248 OA
ENDBRANCH   1   6
BRANCH   2  15
ATOM     15  O   UNL     1      -8.523  13.596   0.892  1.00  0.00    -0.386 OA
ATOM     16  H   UNL     1      -8.014  13.054   1.551  1.00  0.00     0.211 HD
ENDBRANCH   2  15
BRANCH   3  17
ATOM     17  O   UNL     1      -6.109  13.687   1.876  1.00  0.00    -0.387 OA
ATOM     18  H   UNL     1      -6.993  13.614   2.321  1.00  0.00     0.211 HD
ENDBRANCH   3  17
BRANCH   4  19
ATOM     19  C   UNL     1      -7.108  16.235   2.450  1.00  0.00     0.191 C 
BRANCH  19  20
ATOM     20  O   UNL     1      -6.158  15.995   3.450  1.00  0.00    -0.394 OA
ATOM     21  H   UNL     1      -5.439  15.460   3.025  1.00  0.00     0.210 HD
ENDBRANCH  19  20
ENDBRANCH   4  19
TORSDOF 5
ENDMDL
MODEL 5
REMARK VINA RESULT:    -4.657      3.139      6.497
REMARK INTER + INTRA:          -6.087
REMARK INTER:                  -5.716
REMARK INTRA:                  -0.371
REMARK UNBOUND:                -0.477
REMARK SMILES O=c1ccn([C@@H]2O[C@@H](CO)[C@@H](O)[C@H]2O)c(=O)[nH]1
REMARK SMILES IDX 6 1 13 2 11 3 8 4 7 5 5 6 3 7 4 8 2 9 17 10 1 11 15 12 16 14
REMARK SMILES IDX 14 15 12 17 9 19 10 20
REMARK H PARENT 17 13 14 16 12 18 10 21
REMARK Flexibility Score: inf
ROOT
ATOM      1  C   UNL     1      -8.164  14.183  -3.963  1.00  0.00     0.255 C 
ATOM      2  C   UNL     1      -8.525  14.898  -5.273  1.00  0.00     0.196 C 
ATOM      3  C   UNL     1      -7.180  15.293  -5.828  1.00  0.00     0.179 C 
ATOM      4  C   UNL     1      -6.221  14.307  -5.162  1.00  0.00     0.178 C 
ATOM      5  O   UNL     1      -6.767  13.954  -3.911  1.00  0.00    -0.347 OA
ENDROOT
BRANCH   1   6
ATOM      6  N   UNL     1      -8.594  14.988  -2.800  1.00  0.00    -0.271 N 
ATOM      7  C   UNL     1      -9.126  17.124  -1.844  1.00  0.00     0.090 A 
ATOM      8  C   UNL     1      -8.691  16.350  -2.916  1.00  0.00     0.099 A 
ATOM      9  C   UNL     1      -9.475  16.487  -0.658  1.00  0.00     0.253 A 
ATOM     10  N   UNL     1      -9.396  15.134  -0.571  1.00  0.00    -0.274 N 
ATOM     11  O   UNL     1      -9.871  17.163   0.328  1.00  0.00    -0.269 OA
ATOM     12  C   UNL     1      -8.971  14.384  -1.625  1.00  0.00     0.330 A 
ATOM     13  H   UNL     1      -9.671  14.661   0.321  1.00  0.00     0.175 HD
ATOM     14  O   UNL     1      -8.934  13.127  -1.508  1.00  0.00    -0.248 OA
ENDBRANCH   1   6
BRANCH   2  15
ATOM     15  O   UNL     1      -9.187  14.019  -6.147  1.00  0.00    -0.386 OA
ATOM     16  H   UNL     1      -9.560  14.578  -6.879  1.00  0.00     0.211 HD
ENDBRANCH   2  15
BRANCH   3  17
ATOM     17  O   UNL     1      -7.152  15.236  -7.233  1.00  0.00    -0.387 OA
ATOM     18  H   UNL     1      -8.050  15.526  -7.542  1.00  0.00     0.211 HD
ENDBRANCH   3  17
BRANCH   4  19
ATOM     19  C   UNL     1      -5.963  13.033  -5.986  1.00  0.00     0.191 C 
BRANCH  19  20
ATOM     20  O   UNL     1      -4.747  13.155  -6.669  1.00  0.00    -0.394 OA
ATOM     21  H   UNL     1      -4.080  12.647  -6.138  1.00  0.00     0.210 HD
ENDBRANCH  19  20
ENDBRANCH   4  19
TORSDOF 5
ENDMDL
MODEL 6
REMARK VINA RESULT:    -4.627      3.078      5.184
REMARK INTER + INTRA:          -6.051
REMARK INTER:                  -5.724
REMARK INTRA:                  -0.327
REMARK UNBOUND:                -0.477
REMARK SMILES O=c1ccn([C@@H]2O[C@@H](CO)[C@@H](O)[C@H]2O)c(=O)[nH]1
REMARK SMILES IDX 6 1 13 2 11 3 8 4 7 5 5 6 3 7 4 8 2 9 17 10 1 11 15 12 16 14
REMARK SMILES IDX 14 15 12 17 9 19 10 20
REMARK H PARENT 17 13 14 16 12 18 10 21
REMARK Flexibility Score: inf
ROOT
ATOM      1  C   UNL     1      -7.410  14.951  -4.145  1.00  0.00     0.255 C 
ATOM      2  C   UNL     1      -8.678  15.737  -3.783  1.00  0.00     0.196 C 
ATOM      3  C   UNL     1      -9.126  15.091  -2.497  1.00  0.00     0.179 C 
ATOM      4  C   UNL     1      -7.842  14.464  -1.954  1.00  0.00     0.178 C 
ATOM      5  O   UNL     1      -7.024  14.135  -3.054  1.00  0.00    -0.347 OA
ENDROOT
BRANCH   1   6
ATOM      6  N   UNL     1      -7.642  14.122  -5.347  1.00  0.00    -0.271 N 
ATOM      7  C   UNL     1      -8.473  12.100  -6.337  1.00  0.00     0.090 A 
ATOM      8  C   UNL     1      -8.215  12.884  -5.217  1.00  0.00     0.099 A 
ATOM      9  C   UNL     1      -8.153  12.605  -7.594  1.00  0.00     0.253 A 
ATOM     10  N   UNL     1      -7.609  13.844  -7.704  1.00  0.00    -0.274 N 
ATOM     11  O   UNL     1      -8.375  11.917  -8.625  1.00  0.00    -0.269 OA
ATOM     12  C   UNL     1      -7.361  14.605  -6.602  1.00  0.00     0.330 A 
ATOM     13  H   UNL     1      -7.381  14.222  -8.653  1.00  0.00     0.175 HD
ATOM     14  O   UNL     1      -6.875  15.761  -6.751  1.00  0.00    -0.248 OA
ENDBRANCH   1   6
BRANCH   2  15
ATOM     15  O   UNL     1      -8.375  17.094  -3.580  1.00  0.00    -0.386 OA
ATOM     16  H   UNL     1      -7.697  17.126  -2.855  1.00  0.00     0.211 HD
ENDBRANCH   2  15
BRANCH   3  17
ATOM     17  O   UNL     1      -9.711  16.017  -1.616  1.00  0.00    -0.387 OA
ATOM     18  H   UNL     1      -9.742  16.883  -2.101  1.00  0.00     0.211 HD
ENDBRANCH   3  17
BRANCH   4  19
ATOM     19  C   UNL     1      -7.062  15.375  -0.990  1.00  0.00     0.191 C 
BRANCH  19  20
ATOM     20  O   UNL     1      -5.751  14.902  -0.854  1.00  0.00    -0.394 OA
ATOM     21  H   UNL     1      -5.820  14.021  -0.404  1.00  0.00     0.210 HD
ENDBRANCH  19  20
ENDBRANCH   4  19
TORSDOF 5
ENDMDL
MODEL 7
REMARK VINA RESULT:    -4.587      2.275      5.857
REMARK INTER + INTRA:          -6.002
REMARK INTER:                  -5.531
REMARK INTRA:                  -0.471
REMARK UNBOUND:                -0.477
REMARK SMILES O=c1ccn([C@@H]2O[C@@H](CO)[C@@H](O)[C@H]2O)c(=O)[nH]1
REMARK SMILES IDX 6 1 13 2 11 3 8 4 7 5 5 6 3 7 4 8 2 9 17 10 1 11 15 12 16 14
REMARK SMILES IDX 14 15 12 17 9 19 10 20
REMARK H PARENT 17 13 14 16 12 18 10 21
REMARK Flexibility Score: inf
ROOT
ATOM      1  C   UNL     1      -8.787  15.937   0.093  1.00  0.00     0.255 C 
ATOM      2  C   UNL     1      -9.260  16.894  -1.010  1.00  0.00     0.196 C 
ATOM      3  C   UNL     1      -8.207  16.732  -2.077  1.00  0.00     0.179 C 
ATOM      4  C   UNL     1      -7.617  15.353  -1.781  1.00  0.00     0.178 C 
ATOM      5  O   UNL     1      -7.739  15.120  -0.397  1.00  0.00    -0.347 OA
ENDROOT
BRANCH   1   6
ATOM      6  N   UNL     1      -8.331  16.698   1.276  1.00  0.00    -0.271 N 
ATOM      7  C   UNL     1      -6.551  17.720   2.520  1.00  0.00     0.090 A 
ATOM      8  C   UNL     1      -6.999  16.977   1.432  1.00  0.00     0.099 A 
ATOM      9  C   UNL     1      -7.485  18.189   3.438  1.00  0.00     0.253 A 
ATOM     10  N   UNL     1      -8.805  17.923   3.254  1.00  0.00    -0.274 N 
ATOM     11  O   UNL     1      -7.109  18.864   4.433  1.00  0.00    -0.269 OA
ATOM     12  C   UNL     1      -9.234  17.196   2.185  1.00  0.00     0.330 A 
ATOM     13  H   UNL     1      -9.503  18.288   3.943  1.00  0.00     0.175 HD
ATOM     14  O   UNL     1     -10.471  16.991   2.039  1.00  0.00    -0.248 OA
ENDBRANCH   1   6
BRANCH   2  15
ATOM     15  O   UNL     1     -10.522  16.505  -1.491  1.00  0.00    -0.386 OA
ATOM     16  H   UNL     1     -10.704  15.606  -1.107  1.00  0.00     0.211 HD
ENDBRANCH   2  15
BRANCH   3  17
ATOM     17  O   UNL     1      -8.745  16.843  -3.371  1.00  0.00    -0.387 OA
ATOM     18  H   UNL     1      -9.387  17.600  -3.342  1.00  0.00     0.211 HD
ENDBRANCH   3  17
BRANCH   4  19
ATOM     19  C   UNL     1      -8.291  14.207  -2.555  1.00  0.00     0.191 C 
BRANCH  19  20
ATOM     20  O   UNL     1      -7.766  14.143  -3.852  1.00  0.00    -0.394 OA
ATOM     21  H   UNL     1      -7.136  13.376  -3.857  1.00  0.00     0.210 HD
ENDBRANCH  19  20
ENDBRANCH   4  19
TORSDOF 5
ENDMDL
MODEL 8
REMARK VINA RESULT:    -4.540      4.426      7.310
REMARK INTER + INTRA:          -5.946
REMARK INTER:                  -5.452
REMARK INTRA:                  -0.494
REMARK UNBOUND:                -0.477
REMARK SMILES O=c1ccn([C@@H]2O[C@@H](CO)[C@@H](O)[C@H]2O)c(=O)[nH]1
REMARK SMILES IDX 6 1 13 2 11 3 8 4 7 5 5 6 3 7 4 8 2 9 17 10 1 11 15 12 16 14
REMARK SMILES IDX 14 15 12 17 9 19 10 20
REMARK H PARENT 17 13 14 16 12 18 10 21
REMARK Flexibility Score: inf
ROOT
ATOM      1  C   UNL     1      -9.006  14.220  -4.713  1.00  0.00     0.255 C 
ATOM      2  C   UNL     1      -7.913  15.289  -4.849  1.00  0.00     0.196 C 
ATOM      3  C   UNL     1      -7.117  14.814  -6.038  1.00  0.00     0.179 C 
ATOM      4  C   UNL     1      -8.109  13.933  -6.796  1.00  0.00     0.178 C 
ATOM      5  O   UNL     1      -9.002  13.382  -5.854  1.00  0.00    -0.347 OA
ENDROOT
BRANCH   1   6
ATOM      6  N   UNL     1      -8.794  13.418  -3.489  1.00  0.00    -0.271 N 
ATOM      7  C   UNL     1      -7.631  11.661  -2.342  1.00  0.00     0.090 A 
ATOM      8  C   UNL     1      -7.871  12.407  -3.492  1.00  0.00     0.099 A 
ATOM      9  C   UNL     1      -8.335  11.973  -1.184  1.00  0.00     0.253 A 
ATOM     10  N   UNL     1      -9.230  12.996  -1.194  1.00  0.00    -0.274 N 
ATOM     11  O   UNL     1      -8.139  11.314  -0.129  1.00  0.00    -0.269 OA
ATOM     12  C   UNL     1      -9.457  13.722  -2.324  1.00  0.00     0.330 A 
ATOM     13  H   UNL     1      -9.748  13.232  -0.317  1.00  0.00     0.175 HD
ATOM     14  O   UNL     1     -10.279  14.679  -2.283  1.00  0.00    -0.248 OA
ENDBRANCH   1   6
BRANCH   2  15
ATOM     15  O   UNL     1      -8.485  16.548  -5.102  1.00  0.00    -0.386 OA
ATOM     16  H   UNL     1      -9.415  16.509  -4.755  1.00  0.00     0.211 HD
ENDBRANCH   2  15
BRANCH   3  17
ATOM     17  O   UNL     1      -6.623  15.884  -6.804  1.00  0.00    -0.387 OA
ATOM     18  H   UNL     1      -5.820  15.542  -7.277  1.00  0.00     0.211 HD
ENDBRANCH   3  17
BRANCH   4  19
ATOM     19  C   UNL     1      -8.905  14.679  -7.881  1.00  0.00     0.191 C 
BRANCH  19  20
ATOM     20  O   UNL     1      -8.087  14.899  -8.996  1.00  0.00    -0.394 OA
ATOM     21  H   UNL     1      -7.692  15.801  -8.874  1.00  0.00     0.210 HD
ENDBRANCH  19  20
ENDBRANCH   4  19
TORSDOF 5
ENDMDL
MODEL 9
REMARK VINA RESULT:    -4.539      2.474      6.902
REMARK INTER + INTRA:          -5.945
REMARK INTER:                  -5.523
REMARK INTRA:                  -0.422
REMARK UNBOUND:                -0.477
REMARK SMILES O=c1ccn([C@@H]2O[C@@H](CO)[C@@H](O)[C@H]2O)c(=O)[nH]1
REMARK SMILES IDX 6 1 13 2 11 3 8 4 7 5 5 6 3 7 4 8 2 9 17 10 1 11 15 12 16 14
REMARK SMILES IDX 14 15 12 17 9 19 10 20
REMARK H PARENT 17 13 14 16 12 18 10 21
REMARK Flexibility Score: inf
ROOT
ATOM      1  C   UNL     1      -7.983  15.295  -4.401  1.00  0.00     0.255 C 
ATOM      2  C   UNL     1      -6.898  14.606  -5.241  1.00  0.00     0.196 C 
ATOM      3  C   UNL     1      -7.586  13.359  -5.732  1.00  0.00     0.179 C 
ATOM      4  C   UNL     1      -9.069  13.722  -5.654  1.00  0.00     0.178 C 
ATOM      5  O   UNL     1      -9.229  14.657  -4.612  1.00  0.00    -0.347 OA
ENDROOT
BRANCH   1   6
ATOM      6  N   UNL     1      -7.626  15.260  -2.967  1.00  0.00    -0.271 N 
ATOM      7  C   UNL     1      -6.264  14.388  -1.193  1.00  0.00     0.090 A 
ATOM      8  C   UNL     1      -6.640  14.414  -2.533  1.00  0.00     0.099 A 
ATOM      9  C   UNL     1      -6.899  15.250  -0.306  1.00  0.00     0.253 A 
ATOM     10  N   UNL     1      -7.859  16.098  -0.758  1.00  0.00    -0.274 N 
ATOM     11  O   UNL     1      -6.581  15.247   0.913  1.00  0.00    -0.269 OA
ATOM     12  C   UNL     1      -8.218  16.118  -2.072  1.00  0.00     0.330 A 
ATOM     13  H   UNL     1      -8.324  16.752  -0.087  1.00  0.00     0.175 HD
ATOM     14  O   UNL     1      -9.098  16.939  -2.455  1.00  0.00    -0.248 OA
ENDBRANCH   1   6
BRANCH   2  15
ATOM     15  O   UNL     1      -6.517  15.424  -6.319  1.00  0.00    -0.386 OA
ATOM     16  H   UNL     1      -5.601  15.751  -6.114  1.00  0.00     0.211 HD
ENDBRANCH   2  15
BRANCH   3  17
ATOM     17  O   UNL     1      -7.166  12.998  -7.024  1.00  0.00    -0.387 OA
ATOM     18  H   UNL     1      -7.122  12.006  -7.037  1.00  0.00     0.211 HD
ENDBRANCH   3  17
BRANCH   4  19
ATOM     19  C   UNL     1      -9.637  14.307  -6.959  1.00  0.00     0.191 C 
BRANCH  19  20
ATOM     20  O   UNL     1      -9.904  13.271  -7.862  1.00  0.00    -0.394 OA
ATOM     21  H   UNL     1     -10.264  12.520  -7.322  1.00  0.00     0.210 HD
ENDBRANCH  19  20
ENDBRANCH   4  19
TORSDOF 5
ENDMDL
