MODEL 1
REMARK VINA RESULT:    -4.322      0.000      0.000
REMARK INTER + INTRA:          -4.575
REMARK INTER:                  -4.575
REMARK INTRA:                   0.000
REMARK UNBOUND:                 0.000
REMARK SMILES Cc1cc(O)c(C)c(C)c1O
REMARK SMILES IDX 1 1 2 2 3 3 4 4 6 5 8 6 10 7 9 8 7 9 11 10 5 12
REMARK H PARENT 11 11 5 13
REMARK Flexibility Score: inf
ROOT
ATOM      1  C   UNL     1     -31.854 -21.497 -33.913  1.00  0.00     0.048 C 
ATOM      2  C   UNL     1     -31.017 -20.760 -32.903  1.00  0.00    -0.005 A 
ATOM      3  C   UNL     1     -31.496 -20.571 -31.604  1.00  0.00     0.053 A 
ATOM      4  C   UNL     1     -30.723 -19.923 -30.642  1.00  0.00     0.119 A 
ATOM      5  C   UNL     1     -29.427 -19.459 -30.968  1.00  0.00    -0.003 A 
ATOM      6  C   UNL     1     -28.983 -19.536 -32.318  1.00  0.00    -0.002 A 
ATOM      7  C   UNL     1     -29.757 -20.254 -33.264  1.00  0.00     0.121 A 
ATOM      8  C   UNL     1     -27.693 -18.875 -32.754  1.00  0.00     0.049 C 
ATOM      9  C   UNL     1     -28.544 -18.877 -29.885  1.00  0.00     0.049 C 
ENDROOT
BRANCH   7  10
ATOM     10  O   UNL     1     -29.298 -20.492 -34.565  1.00  0.00    -0.507 OA
ATOM     11  H   UNL     1     -29.246 -21.411 -34.983  1.00  0.00     0.293 HD
ENDBRANCH   7  10
BRANCH   4  12
ATOM     12  O   UNL     1     -31.284 -19.748 -29.374  1.00  0.00    -0.508 OA
ATOM     13  H   UNL     1     -32.264 -19.550 -29.217  1.00  0.00     0.293 HD
ENDBRANCH   4  12
TORSDOF 2
ENDMDL
MODEL 2
REMARK VINA RESULT:    -3.585      1.780      3.336
REMARK INTER + INTRA:          -3.795
REMARK INTER:                  -3.795
REMARK INTRA:                   0.000
REMARK UNBOUND:                 0.000
REMARK SMILES Cc1cc(O)c(C)c(C)c1O
REMARK SMILES IDX 1 1 2 2 3 3 4 4 6 5 8 6 10 7 9 8 7 9 11 10 5 12
REMARK H PARENT 11 11 5 13
REMARK Flexibility Score: inf
ROOT
ATOM      1  C   UNL     1     -28.171 -19.039 -31.606  1.00  0.00     0.048 C 
ATOM      2  C   UNL     1     -29.663 -19.065 -31.422  1.00  0.00    -0.005 A 
ATOM      3  C   UNL     1     -30.207 -19.147 -30.138  1.00  0.00     0.053 A 
ATOM      4  C   UNL     1     -31.587 -19.135 -29.941  1.00  0.00     0.119 A 
ATOM      5  C   UNL     1     -32.460 -19.022 -31.048  1.00  0.00    -0.003 A 
ATOM      6  C   UNL     1     -31.920 -19.064 -32.365  1.00  0.00    -0.002 A 
ATOM      7  C   UNL     1     -30.513 -19.012 -32.539  1.00  0.00     0.121 A 
ATOM      8  C   UNL     1     -32.821 -19.148 -33.577  1.00  0.00     0.049 C 
ATOM      9  C   UNL     1     -33.949 -18.876 -30.818  1.00  0.00     0.049 C 
ENDROOT
BRANCH   7  10
ATOM     10  O   UNL     1     -29.931 -18.896 -33.807  1.00  0.00    -0.507 OA
ATOM     11  H   UNL     1     -30.029 -19.590 -34.536  1.00  0.00     0.293 HD
ENDBRANCH   7  10
BRANCH   4  12
ATOM     12  O   UNL     1     -32.052 -19.251 -28.629  1.00  0.00    -0.508 OA
ATOM     13  H   UNL     1     -32.877 -18.778 -28.283  1.00  0.00     0.293 HD
ENDBRANCH   4  12
TORSDOF 2
ENDMDL
MODEL 3
REMARK VINA RESULT:    -3.490      1.361      2.830
REMARK INTER + INTRA:          -3.694
REMARK INTER:                  -3.694
REMARK INTRA:                   0.000
REMARK UNBOUND:                 0.000
REMARK SMILES Cc1cc(O)c(C)c(C)c1O
REMARK SMILES IDX 1 1 2 2 3 3 4 4 6 5 8 6 10 7 9 8 7 9 11 10 5 12
REMARK H PARENT 11 11 5 13
REMARK Flexibility Score: inf
ROOT
ATOM      1  C   UNL     1     -28.539 -18.876 -34.208  1.00  0.00     0.048 C 
ATOM      2  C   UNL     1     -29.118 -19.449 -32.944  1.00  0.00    -0.005 A 
ATOM      3  C   UNL     1     -28.735 -18.933 -31.704  1.00  0.00     0.053 A 
ATOM      4  C   UNL     1     -29.286 -19.424 -30.521  1.00  0.00     0.119 A 
ATOM      5  C   UNL     1     -30.260 -20.450 -30.565  1.00  0.00    -0.003 A 
ATOM      6  C   UNL     1     -30.562 -21.066 -31.812  1.00  0.00    -0.002 A 
ATOM      7  C   UNL     1     -30.039 -20.508 -33.007  1.00  0.00     0.121 A 
ATOM      8  C   UNL     1     -31.442 -22.295 -31.883  1.00  0.00     0.049 C 
ATOM      9  C   UNL     1     -30.949 -20.885 -29.290  1.00  0.00     0.049 C 
ENDROOT
BRANCH   7  10
ATOM     10  O   UNL     1     -30.422 -20.977 -34.269  1.00  0.00    -0.507 OA
ATOM     11  H   UNL     1     -31.384 -21.056 -34.571  1.00  0.00     0.293 HD
ENDBRANCH   7  10
BRANCH   4  12
ATOM     12  O   UNL     1     -28.830 -18.875 -29.320  1.00  0.00    -0.508 OA
ATOM     13  H   UNL     1     -28.962 -19.313 -28.418  1.00  0.00     0.293 HD
ENDBRANCH   4  12
TORSDOF 2
ENDMDL
MODEL 4
REMARK VINA RESULT:    -3.399      1.364      3.446
REMARK INTER + INTRA:          -3.598
REMARK INTER:                  -3.598
REMARK INTRA:                   0.000
REMARK UNBOUND:                 0.000
REMARK SMILES Cc1cc(O)c(C)c(C)c1O
REMARK SMILES IDX 1 1 2 2 3 3 4 4 6 5 8 6 10 7 9 8 7 9 11 10 5 12
REMARK H PARENT 11 11 5 13
REMARK Flexibility Score: inf
ROOT
ATOM      1  C   UNL     1     -33.174 -18.888 -31.534  1.00  0.00     0.048 C 
ATOM      2  C   UNL     1     -31.676 -18.952 -31.658  1.00  0.00    -0.005 A 
ATOM      3  C   UNL     1     -31.082 -19.007 -32.922  1.00  0.00     0.053 A 
ATOM      4  C   UNL     1     -29.696 -19.031 -33.062  1.00  0.00     0.119 A 
ATOM      5  C   UNL     1     -28.866 -18.983 -31.917  1.00  0.00    -0.003 A 
ATOM      6  C   UNL     1     -29.462 -19.054 -30.626  1.00  0.00    -0.002 A 
ATOM      7  C   UNL     1     -30.872 -18.964 -30.507  1.00  0.00     0.121 A 
ATOM      8  C   UNL     1     -28.615 -19.208 -29.382  1.00  0.00     0.049 C 
ATOM      9  C   UNL     1     -27.366 -18.875 -32.081  1.00  0.00     0.049 C 
ENDROOT
BRANCH   7  10
ATOM     10  O   UNL     1     -31.503 -18.875 -29.260  1.00  0.00    -0.507 OA
ATOM     11  H   UNL     1     -31.122 -18.367 -28.473  1.00  0.00     0.293 HD
ENDBRANCH   7  10
BRANCH   4  12
ATOM     12  O   UNL     1     -29.179 -19.115 -34.358  1.00  0.00    -0.508 OA
ATOM     13  H   UNL     1     -28.660 -18.371 -34.803  1.00  0.00     0.293 HD
ENDBRANCH   4  12
TORSDOF 2
ENDMDL
MODEL 5
REMARK VINA RESULT:    -3.364      2.194      3.882
REMARK INTER + INTRA:          -3.561
REMARK INTER:                  -3.561
REMARK INTRA:                   0.000
REMARK UNBOUND:                 0.000
REMARK SMILES Cc1cc(O)c(C)c(C)c1O
REMARK SMILES IDX 1 1 2 2 3 3 4 4 6 5 8 6 10 7 9 8 7 9 11 10 5 12
REMARK H PARENT 11 11 5 13
REMARK Flexibility Score: inf
ROOT
ATOM      1  C   UNL     1     -33.006 -18.876 -28.664  1.00  0.00     0.048 C 
ATOM      2  C   UNL     1     -32.137 -19.004 -29.885  1.00  0.00    -0.005 A 
ATOM      3  C   UNL     1     -30.753 -19.140 -29.746  1.00  0.00     0.053 A 
ATOM      4  C   UNL     1     -29.932 -19.296 -30.862  1.00  0.00     0.119 A 
ATOM      5  C   UNL     1     -30.498 -19.335 -32.158  1.00  0.00    -0.003 A 
ATOM      6  C   UNL     1     -31.888 -19.073 -32.317  1.00  0.00    -0.002 A 
ATOM      7  C   UNL     1     -32.712 -18.980 -31.166  1.00  0.00     0.121 A 
ATOM      8  C   UNL     1     -32.499 -18.905 -33.690  1.00  0.00     0.049 C 
ATOM      9  C   UNL     1     -29.618 -19.638 -33.352  1.00  0.00     0.049 C 
ENDROOT
BRANCH   7  10
ATOM     10  O   UNL     1     -34.104 -18.875 -31.263  1.00  0.00    -0.507 OA
ATOM     11  H   UNL     1     -34.615 -18.959 -32.132  1.00  0.00     0.293 HD
ENDBRANCH   7  10
BRANCH   4  12
ATOM     12  O   UNL     1     -28.556 -19.397 -30.642  1.00  0.00    -0.508 OA
ATOM     13  H   UNL     1     -27.896 -19.690 -31.349  1.00  0.00     0.293 HD
ENDBRANCH   4  12
TORSDOF 2
ENDMDL
MODEL 6
REMARK VINA RESULT:    -3.313      1.898      2.416
REMARK INTER + INTRA:          -3.506
REMARK INTER:                  -3.506
REMARK INTRA:                   0.000
REMARK UNBOUND:                 0.000
REMARK SMILES Cc1cc(O)c(C)c(C)c1O
REMARK SMILES IDX 1 1 2 2 3 3 4 4 6 5 8 6 10 7 9 8 7 9 11 10 5 12
REMARK H PARENT 11 11 5 13
REMARK Flexibility Score: inf
ROOT
ATOM      1  C   UNL     1     -33.324 -19.082 -30.952  1.00  0.00     0.048 C 
ATOM      2  C   UNL     1     -31.835 -19.041 -31.158  1.00  0.00    -0.005 A 
ATOM      3  C   UNL     1     -30.979 -18.975 -30.055  1.00  0.00     0.053 A 
ATOM      4  C   UNL     1     -29.595 -18.973 -30.220  1.00  0.00     0.119 A 
ATOM      5  C   UNL     1     -29.036 -19.054 -31.517  1.00  0.00    -0.003 A 
ATOM      6  C   UNL     1     -29.897 -18.996 -32.649  1.00  0.00    -0.002 A 
ATOM      7  C   UNL     1     -31.300 -19.062 -32.456  1.00  0.00     0.121 A 
ATOM      8  C   UNL     1     -29.339 -18.877 -34.050  1.00  0.00     0.049 C 
ATOM      9  C   UNL     1     -27.537 -19.185 -31.681  1.00  0.00     0.049 C 
ENDROOT
BRANCH   7  10
ATOM     10  O   UNL     1     -32.188 -19.162 -33.534  1.00  0.00    -0.507 OA
ATOM     11  H   UNL     1     -33.032 -19.720 -33.518  1.00  0.00     0.293 HD
ENDBRANCH   7  10
BRANCH   4  12
ATOM     12  O   UNL     1     -28.808 -18.875 -29.070  1.00  0.00    -0.508 OA
ATOM     13  H   UNL     1     -28.252 -18.062 -28.838  1.00  0.00     0.293 HD
ENDBRANCH   4  12
TORSDOF 2
ENDMDL
MODEL 7
REMARK VINA RESULT:    -3.193      3.847      6.774
REMARK INTER + INTRA:          -3.380
REMARK INTER:                  -3.380
REMARK INTRA:                   0.000
REMARK UNBOUND:                 0.000
REMARK SMILES Cc1cc(O)c(C)c(C)c1O
REMARK SMILES IDX 1 1 2 2 3 3 4 4 6 5 8 6 10 7 9 8 7 9 11 10 5 12
REMARK H PARENT 11 11 5 13
REMARK Flexibility Score: inf
ROOT
ATOM      1  C   UNL     1     -31.619 -21.547 -33.617  1.00  0.00     0.048 C 
ATOM      2  C   UNL     1     -31.935 -21.839 -35.058  1.00  0.00    -0.005 A 
ATOM      3  C   UNL     1     -31.267 -22.870 -35.725  1.00  0.00     0.053 A 
ATOM      4  C   UNL     1     -31.571 -23.182 -37.049  1.00  0.00     0.119 A 
ATOM      5  C   UNL     1     -32.578 -22.462 -37.734  1.00  0.00    -0.003 A 
ATOM      6  C   UNL     1     -33.173 -21.332 -37.105  1.00  0.00    -0.002 A 
ATOM      7  C   UNL     1     -32.896 -21.074 -35.739  1.00  0.00     0.121 A 
ATOM      8  C   UNL     1     -34.104 -20.415 -37.867  1.00  0.00     0.049 C 
ATOM      9  C   UNL     1     -32.993 -22.893 -39.125  1.00  0.00     0.049 C 
ENDROOT
BRANCH   7  10
ATOM     10  O   UNL     1     -33.567 -20.071 -35.028  1.00  0.00    -0.507 OA
ATOM     11  H   UNL     1     -34.378 -19.580 -35.379  1.00  0.00     0.293 HD
ENDBRANCH   7  10
BRANCH   4  12
ATOM     12  O   UNL     1     -30.838 -24.207 -37.654  1.00  0.00    -0.508 OA
ATOM     13  H   UNL     1     -31.176 -24.748 -38.439  1.00  0.00     0.293 HD
ENDBRANCH   4  12
TORSDOF 2
ENDMDL
MODEL 8
REMARK VINA RESULT:    -2.893      1.076      4.373
REMARK INTER + INTRA:          -3.062
REMARK INTER:                  -3.062
REMARK INTRA:                   0.000
REMARK UNBOUND:                 0.000
REMARK SMILES Cc1cc(O)c(C)c(C)c1O
REMARK SMILES IDX 1 1 2 2 3 3 4 4 6 5 8 6 10 7 9 8 7 9 11 10 5 12
REMARK H PARENT 11 11 5 13
REMARK Flexibility Score: inf
ROOT
ATOM      1  C   UNL     1     -28.288 -19.112 -29.795  1.00  0.00     0.048 C 
ATOM      2  C   UNL     1     -29.298 -19.270 -30.899  1.00  0.00    -0.005 A 
ATOM      3  C   UNL     1     -28.872 -19.553 -32.199  1.00  0.00     0.053 A 
ATOM      4  C   UNL     1     -29.792 -19.739 -33.230  1.00  0.00     0.119 A 
ATOM      5  C   UNL     1     -31.179 -19.658 -32.966  1.00  0.00    -0.003 A 
ATOM      6  C   UNL     1     -31.616 -19.248 -31.675  1.00  0.00    -0.002 A 
ATOM      7  C   UNL     1     -30.668 -19.126 -30.627  1.00  0.00     0.121 A 
ATOM      8  C   UNL     1     -33.075 -18.953 -31.402  1.00  0.00     0.049 C 
ATOM      9  C   UNL     1     -32.172 -19.992 -34.059  1.00  0.00     0.049 C 
ENDROOT
BRANCH   7  10
ATOM     10  O   UNL     1     -31.057 -18.875 -29.306  1.00  0.00    -0.507 OA
ATOM     11  H   UNL     1     -31.579 -19.530 -28.740  1.00  0.00     0.293 HD
ENDBRANCH   7  10
BRANCH   4  12
ATOM     12  O   UNL     1     -29.286 -19.990 -34.508  1.00  0.00    -0.508 OA
ATOM     13  H   UNL     1     -29.707 -19.636 -35.357  1.00  0.00     0.293 HD
ENDBRANCH   4  12
TORSDOF 2
ENDMDL
