MODEL 1
REMARK VINA RESULT:    -5.155      0.000      0.000
REMARK INTER + INTRA:          -5.583
REMARK INTER:                  -5.456
REMARK INTRA:                  -0.126
REMARK UNBOUND:                -0.126
REMARK SMILES C=C(C)[C@@H]1CC=C(C)CC1
REMARK SMILES IDX 8 1 7 2 6 3 5 4 4 5 10 6 9 7 2 8 1 9 3 10
REMARK H PARENT
REMARK Flexibility Score: inf
ROOT
ATOM      1  C   UNL     1      38.490 -23.196  -3.742  1.00  0.00     0.039 C 
ATOM      2  C   UNL     1      38.965 -23.774  -2.437  1.00  0.00    -0.077 C 
ATOM      3  C   UNL     1      38.182 -24.663  -1.791  1.00  0.00    -0.027 C 
ATOM      4  C   UNL     1      38.592 -25.338  -0.506  1.00  0.00     0.035 C 
ATOM      5  C   UNL     1      39.666 -24.540   0.254  1.00  0.00     0.018 C 
ATOM      6  C   UNL     1      40.796 -24.139  -0.708  1.00  0.00     0.013 C 
ATOM      7  C   UNL     1      40.247 -23.242  -1.824  1.00  0.00     0.031 C 
ENDROOT
BRANCH   5   8
ATOM      8  C   UNL     1      40.196 -25.313   1.455  1.00  0.00    -0.077 C 
ATOM      9  C   UNL     1      41.482 -25.697   1.528  1.00  0.00     0.008 C 
ATOM     10  C   UNL     1      39.275 -25.660   2.596  1.00  0.00     0.039 C 
ENDBRANCH   5   8
TORSDOF 1
ENDMDL
MODEL 2
REMARK VINA RESULT:    -5.147      9.944     11.250
REMARK INTER + INTRA:          -5.574
REMARK INTER:                  -5.446
REMARK INTRA:                  -0.128
REMARK UNBOUND:                -0.126
REMARK SMILES C=C(C)[C@@H]1CC=C(C)CC1
REMARK SMILES IDX 8 1 7 2 6 3 5 4 4 5 10 6 9 7 2 8 1 9 3 10
REMARK H PARENT
REMARK Flexibility Score: inf
ROOT
ATOM      1  C   UNL     1      49.252 -26.630   4.791  1.00  0.00     0.039 C 
ATOM      2  C   UNL     1      48.177 -27.019   5.768  1.00  0.00    -0.077 C 
ATOM      3  C   UNL     1      48.423 -26.911   7.091  1.00  0.00    -0.027 C 
ATOM      4  C   UNL     1      47.393 -27.225   8.147  1.00  0.00     0.035 C 
ATOM      5  C   UNL     1      46.297 -28.172   7.627  1.00  0.00     0.018 C 
ATOM      6  C   UNL     1      45.769 -27.667   6.275  1.00  0.00     0.013 C 
ATOM      7  C   UNL     1      46.901 -27.646   5.240  1.00  0.00     0.031 C 
ENDROOT
BRANCH   5   8
ATOM      8  C   UNL     1      45.174 -28.343   8.643  1.00  0.00    -0.077 C 
ATOM      9  C   UNL     1      43.902 -28.537   8.254  1.00  0.00     0.008 C 
ATOM     10  C   UNL     1      45.477 -28.299  10.118  1.00  0.00     0.039 C 
ENDBRANCH   5   8
TORSDOF 1
ENDMDL
MODEL 3
REMARK VINA RESULT:    -4.995      9.893     11.419
REMARK INTER + INTRA:          -5.413
REMARK INTER:                  -5.288
REMARK INTRA:                  -0.125
REMARK UNBOUND:                -0.126
REMARK SMILES C=C(C)[C@@H]1CC=C(C)CC1
REMARK SMILES IDX 8 1 7 2 6 3 5 4 4 5 10 6 9 7 2 8 1 9 3 10
REMARK H PARENT
REMARK Flexibility Score: inf
ROOT
ATOM      1  C   UNL     1      44.483 -28.276   8.988  1.00  0.00     0.039 C 
ATOM      2  C   UNL     1      45.551 -28.022   7.960  1.00  0.00    -0.077 C 
ATOM      3  C   UNL     1      46.748 -27.547   8.364  1.00  0.00    -0.027 C 
ATOM      4  C   UNL     1      47.900 -27.310   7.418  1.00  0.00     0.035 C 
ATOM      5  C   UNL     1      47.430 -27.124   5.965  1.00  0.00     0.018 C 
ATOM      6  C   UNL     1      46.444 -28.241   5.588  1.00  0.00     0.013 C 
ATOM      7  C   UNL     1      45.206 -28.181   6.492  1.00  0.00     0.031 C 
ENDROOT
BRANCH   5   8
ATOM      8  C   UNL     1      48.606 -27.060   4.998  1.00  0.00    -0.077 C 
ATOM      9  C   UNL     1      48.559 -26.305   3.888  1.00  0.00     0.008 C 
ATOM     10  C   UNL     1      49.857 -27.851   5.279  1.00  0.00     0.039 C 
ENDBRANCH   5   8
TORSDOF 1
ENDMDL
MODEL 4
REMARK VINA RESULT:    -4.987      0.942      1.724
REMARK INTER + INTRA:          -5.405
REMARK INTER:                  -5.276
REMARK INTRA:                  -0.128
REMARK UNBOUND:                -0.126
REMARK SMILES C=C(C)[C@@H]1CC=C(C)CC1
REMARK SMILES IDX 8 1 7 2 6 3 5 4 4 5 10 6 9 7 2 8 1 9 3 10
REMARK H PARENT
REMARK Flexibility Score: inf
ROOT
ATOM      1  C   UNL     1      38.495 -22.168  -2.873  1.00  0.00     0.039 C 
ATOM      2  C   UNL     1      38.896 -22.982  -1.674  1.00  0.00    -0.077 C 
ATOM      3  C   UNL     1      40.173 -23.406  -1.568  1.00  0.00    -0.027 C 
ATOM      4  C   UNL     1      40.685 -24.182  -0.379  1.00  0.00     0.035 C 
ATOM      5  C   UNL     1      39.554 -24.898   0.379  1.00  0.00     0.018 C 
ATOM      6  C   UNL     1      38.399 -23.917   0.639  1.00  0.00     0.013 C 
ATOM      7  C   UNL     1      37.825 -23.412  -0.690  1.00  0.00     0.031 C 
ENDROOT
BRANCH   5   8
ATOM      8  C   UNL     1      40.057 -25.531   1.671  1.00  0.00    -0.077 C 
ATOM      9  C   UNL     1      41.294 -26.048   1.761  1.00  0.00     0.008 C 
ATOM     10  C   UNL     1      39.165 -25.583   2.884  1.00  0.00     0.039 C 
ENDBRANCH   5   8
TORSDOF 1
ENDMDL
MODEL 5
REMARK VINA RESULT:    -4.981      1.461      4.544
REMARK INTER + INTRA:          -5.399
REMARK INTER:                  -5.277
REMARK INTRA:                  -0.122
REMARK UNBOUND:                -0.126
REMARK SMILES C=C(C)[C@@H]1CC=C(C)CC1
REMARK SMILES IDX 8 1 7 2 6 3 5 4 4 5 10 6 9 7 2 8 1 9 3 10
REMARK H PARENT
REMARK Flexibility Score: inf
ROOT
ATOM      1  C   UNL     1      39.608 -26.413   2.638  1.00  0.00     0.039 C 
ATOM      2  C   UNL     1      39.541 -25.330   1.597  1.00  0.00    -0.077 C 
ATOM      3  C   UNL     1      40.593 -25.152   0.769  1.00  0.00    -0.027 C 
ATOM      4  C   UNL     1      40.601 -24.130  -0.340  1.00  0.00     0.035 C 
ATOM      5  C   UNL     1      39.597 -22.991  -0.091  1.00  0.00     0.018 C 
ATOM      6  C   UNL     1      38.230 -23.577   0.299  1.00  0.00     0.013 C 
ATOM      7  C   UNL     1      38.352 -24.388   1.595  1.00  0.00     0.031 C 
ENDROOT
BRANCH   5   8
ATOM      8  C   UNL     1      39.490 -22.063  -1.294  1.00  0.00    -0.077 C 
ATOM      9  C   UNL     1      39.798 -20.758  -1.201  1.00  0.00     0.008 C 
ATOM     10  C   UNL     1      39.035 -22.602  -2.625  1.00  0.00     0.039 C 
ENDBRANCH   5   8
TORSDOF 1
ENDMDL
MODEL 6
REMARK VINA RESULT:    -4.951      9.799     11.319
REMARK INTER + INTRA:          -5.367
REMARK INTER:                  -5.240
REMARK INTRA:                  -0.127
REMARK UNBOUND:                -0.126
REMARK SMILES C=C(C)[C@@H]1CC=C(C)CC1
REMARK SMILES IDX 8 1 7 2 6 3 5 4 4 5 10 6 9 7 2 8 1 9 3 10
REMARK H PARENT
REMARK Flexibility Score: inf
ROOT
ATOM      1  C   UNL     1      43.994 -28.554   8.321  1.00  0.00     0.039 C 
ATOM      2  C   UNL     1      45.250 -28.141   7.605  1.00  0.00    -0.077 C 
ATOM      3  C   UNL     1      45.278 -28.181   6.256  1.00  0.00    -0.027 C 
ATOM      4  C   UNL     1      46.470 -27.737   5.445  1.00  0.00     0.035 C 
ATOM      5  C   UNL     1      47.775 -27.778   6.259  1.00  0.00     0.018 C 
ATOM      6  C   UNL     1      47.566 -27.087   7.616  1.00  0.00     0.013 C 
ATOM      7  C   UNL     1      46.487 -27.821   8.423  1.00  0.00     0.031 C 
ENDROOT
BRANCH   5   8
ATOM      8  C   UNL     1      48.937 -27.166   5.488  1.00  0.00    -0.077 C 
ATOM      9  C   UNL     1      50.210 -27.349   5.878  1.00  0.00     0.008 C 
ATOM     10  C   UNL     1      48.674 -26.337   4.257  1.00  0.00     0.039 C 
ENDBRANCH   5   8
TORSDOF 1
ENDMDL
MODEL 7
REMARK VINA RESULT:    -4.865     15.321     16.648
REMARK INTER + INTRA:          -5.276
REMARK INTER:                  -5.155
REMARK INTRA:                  -0.121
REMARK UNBOUND:                -0.126
REMARK SMILES C=C(C)[C@@H]1CC=C(C)CC1
REMARK SMILES IDX 8 1 7 2 6 3 5 4 4 5 10 6 9 7 2 8 1 9 3 10
REMARK H PARENT
REMARK Flexibility Score: inf
ROOT
ATOM      1  C   UNL     1      50.487 -38.123  -5.178  1.00  0.00     0.039 C 
ATOM      2  C   UNL     1      50.464 -36.757  -5.806  1.00  0.00    -0.077 C 
ATOM      3  C   UNL     1      50.137 -35.692  -5.045  1.00  0.00    -0.027 C 
ATOM      4  C   UNL     1      50.138 -34.276  -5.568  1.00  0.00     0.035 C 
ATOM      5  C   UNL     1      49.993 -34.222  -7.098  1.00  0.00     0.018 C 
ATOM      6  C   UNL     1      50.982 -35.201  -7.752  1.00  0.00     0.013 C 
ATOM      7  C   UNL     1      50.679 -36.636  -7.303  1.00  0.00     0.031 C 
ENDROOT
BRANCH   5   8
ATOM      8  C   UNL     1      50.169 -32.805  -7.629  1.00  0.00    -0.077 C 
ATOM      9  C   UNL     1      49.111 -32.043  -7.958  1.00  0.00     0.008 C 
ATOM     10  C   UNL     1      51.551 -32.226  -7.791  1.00  0.00     0.039 C 
ENDBRANCH   5   8
TORSDOF 1
ENDMDL
MODEL 8
REMARK VINA RESULT:    -4.732      6.820      8.816
REMARK INTER + INTRA:          -5.134
REMARK INTER:                  -5.005
REMARK INTRA:                  -0.129
REMARK UNBOUND:                -0.126
REMARK SMILES C=C(C)[C@@H]1CC=C(C)CC1
REMARK SMILES IDX 8 1 7 2 6 3 5 4 4 5 10 6 9 7 2 8 1 9 3 10
REMARK H PARENT
REMARK Flexibility Score: inf
ROOT
ATOM      1  C   UNL     1      42.239 -24.988  -7.559  1.00  0.00     0.039 C 
ATOM      2  C   UNL     1      40.847 -24.533  -7.899  1.00  0.00    -0.077 C 
ATOM      3  C   UNL     1      39.906 -24.525  -6.931  1.00  0.00    -0.027 C 
ATOM      4  C   UNL     1      38.497 -24.035  -7.159  1.00  0.00     0.035 C 
ATOM      5  C   UNL     1      38.096 -24.087  -8.644  1.00  0.00     0.018 C 
ATOM      6  C   UNL     1      39.198 -23.447  -9.504  1.00  0.00     0.013 C 
ATOM      7  C   UNL     1      40.511 -24.223  -9.346  1.00  0.00     0.031 C 
ENDROOT
BRANCH   5   8
ATOM      8  C   UNL     1      36.742 -23.431  -8.883  1.00  0.00    -0.077 C 
ATOM      9  C   UNL     1      36.260 -23.254 -10.125  1.00  0.00     0.008 C 
ATOM     10  C   UNL     1      35.911 -22.967  -7.715  1.00  0.00     0.039 C 
ENDBRANCH   5   8
TORSDOF 1
ENDMDL
MODEL 9
REMARK VINA RESULT:    -4.731      5.266      6.803
REMARK INTER + INTRA:          -5.134
REMARK INTER:                  -5.005
REMARK INTRA:                  -0.129
REMARK UNBOUND:                -0.126
REMARK SMILES C=C(C)[C@@H]1CC=C(C)CC1
REMARK SMILES IDX 8 1 7 2 6 3 5 4 4 5 10 6 9 7 2 8 1 9 3 10
REMARK H PARENT
REMARK Flexibility Score: inf
ROOT
ATOM      1  C   UNL     1      42.132 -25.236  -7.499  1.00  0.00     0.039 C 
ATOM      2  C   UNL     1      40.752 -24.877  -7.021  1.00  0.00    -0.077 C 
ATOM      3  C   UNL     1      40.351 -25.300  -5.804  1.00  0.00    -0.027 C 
ATOM      4  C   UNL     1      39.008 -24.948  -5.213  1.00  0.00     0.035 C 
ATOM      5  C   UNL     1      37.978 -24.571  -6.293  1.00  0.00     0.018 C 
ATOM      6  C   UNL     1      38.593 -23.554  -7.268  1.00  0.00     0.013 C 
ATOM      7  C   UNL     1      39.810 -24.166  -7.973  1.00  0.00     0.031 C 
ENDROOT
BRANCH   5   8
ATOM      8  C   UNL     1      36.685 -24.051  -5.678  1.00  0.00    -0.077 C 
ATOM      9  C   UNL     1      36.240 -24.506  -4.494  1.00  0.00     0.008 C 
ATOM     10  C   UNL     1      35.875 -23.003  -6.396  1.00  0.00     0.039 C 
ENDBRANCH   5   8
TORSDOF 1
ENDMDL
