MODEL 1
REMARK VINA RESULT:    -4.560      0.000      0.000
REMARK INTER + INTRA:          -4.560
REMARK INTER:                  -4.560
REMARK INTRA:                   0.000
REMARK UNBOUND:                 0.000
REMARK SMILES CC(C)=C1CC[C@H](C)CC1=O
REMARK SMILES IDX 8 1 7 2 6 3 5 4 4 5 2 6 1 7 3 8 10 9 11 10 9 11
REMARK H PARENT
REMARK Flexibility Score: inf
ROOT
ATOM      1  C   UNL     1      65.671 -14.010  11.250  1.00  0.00     0.008 C 
ATOM      2  C   UNL     1      66.412 -15.020  12.133  1.00  0.00    -0.006 C 
ATOM      3  C   UNL     1      67.813 -14.499  12.493  1.00  0.00     0.008 C 
ATOM      4  C   UNL     1      68.608 -15.540  13.292  1.00  0.00     0.039 C 
ATOM      5  C   UNL     1      67.843 -16.053  14.506  1.00  0.00    -0.006 C 
ATOM      6  C   UNL     1      68.494 -16.434  15.645  1.00  0.00    -0.070 C 
ATOM      7  C   UNL     1      67.744 -16.890  16.874  1.00  0.00     0.039 C 
ATOM      8  C   UNL     1      70.002 -16.381  15.742  1.00  0.00     0.039 C 
ATOM      9  C   UNL     1      66.369 -16.220  14.331  1.00  0.00     0.159 C 
ATOM     10  O   UNL     1      65.737 -17.125  14.937  1.00  0.00    -0.295 OA
ATOM     11  C   UNL     1      65.613 -15.304  13.413  1.00  0.00     0.084 C 
ENDROOT
TORSDOF 0
ENDMDL
MODEL 2
REMARK VINA RESULT:    -4.393      1.278      4.067
REMARK INTER + INTRA:          -4.393
REMARK INTER:                  -4.393
REMARK INTRA:                   0.000
REMARK UNBOUND:                 0.000
REMARK SMILES CC(C)=C1CC[C@H](C)CC1=O
REMARK SMILES IDX 8 1 7 2 6 3 5 4 4 5 2 6 1 7 3 8 10 9 11 10 9 11
REMARK H PARENT
REMARK Flexibility Score: inf
ROOT
ATOM      1  C   UNL     1      68.160 -16.877  16.919  1.00  0.00     0.008 C 
ATOM      2  C   UNL     1      67.582 -16.195  15.675  1.00  0.00    -0.006 C 
ATOM      3  C   UNL     1      68.668 -16.015  14.602  1.00  0.00     0.008 C 
ATOM      4  C   UNL     1      68.133 -15.241  13.390  1.00  0.00     0.039 C 
ATOM      5  C   UNL     1      66.851 -15.847  12.830  1.00  0.00    -0.006 C 
ATOM      6  C   UNL     1      66.559 -15.780  11.498  1.00  0.00    -0.070 C 
ATOM      7  C   UNL     1      65.320 -16.425  10.923  1.00  0.00     0.039 C 
ATOM      8  C   UNL     1      67.484 -15.086  10.525  1.00  0.00     0.039 C 
ATOM      9  C   UNL     1      65.897 -16.405  13.834  1.00  0.00     0.159 C 
ATOM     10  O   UNL     1      64.652 -16.373  13.642  1.00  0.00    -0.295 OA
ATOM     11  C   UNL     1      66.413 -17.013  15.106  1.00  0.00     0.084 C 
ENDROOT
TORSDOF 0
ENDMDL
MODEL 3
REMARK VINA RESULT:    -4.259      1.647      4.564
REMARK INTER + INTRA:          -4.259
REMARK INTER:                  -4.259
REMARK INTRA:                   0.000
REMARK UNBOUND:                 0.000
REMARK SMILES CC(C)=C1CC[C@H](C)CC1=O
REMARK SMILES IDX 8 1 7 2 6 3 5 4 4 5 2 6 1 7 3 8 10 9 11 10 9 11
REMARK H PARENT
REMARK Flexibility Score: inf
ROOT
ATOM      1  C   UNL     1      68.119 -17.003  16.746  1.00  0.00     0.008 C 
ATOM      2  C   UNL     1      67.582 -16.871  15.317  1.00  0.00    -0.006 C 
ATOM      3  C   UNL     1      66.654 -15.652  15.197  1.00  0.00     0.008 C 
ATOM      4  C   UNL     1      66.026 -15.563  13.800  1.00  0.00     0.039 C 
ATOM      5  C   UNL     1      67.066 -15.618  12.688  1.00  0.00    -0.006 C 
ATOM      6  C   UNL     1      66.879 -14.955  11.509  1.00  0.00    -0.070 C 
ATOM      7  C   UNL     1      67.928 -14.956  10.421  1.00  0.00     0.039 C 
ATOM      8  C   UNL     1      65.625 -14.152  11.250  1.00  0.00     0.039 C 
ATOM      9  C   UNL     1      68.228 -16.527  12.922  1.00  0.00     0.159 C 
ATOM     10  O   UNL     1      68.795 -17.123  11.968  1.00  0.00    -0.295 OA
ATOM     11  C   UNL     1      68.740 -16.749  14.316  1.00  0.00     0.084 C 
ENDROOT
TORSDOF 0
ENDMDL
MODEL 4
REMARK VINA RESULT:    -3.906     15.376     16.917
REMARK INTER + INTRA:          -3.906
REMARK INTER:                  -3.906
REMARK INTRA:                   0.000
REMARK UNBOUND:                 0.000
REMARK SMILES CC(C)=C1CC[C@H](C)CC1=O
REMARK SMILES IDX 8 1 7 2 6 3 5 4 4 5 2 6 1 7 3 8 10 9 11 10 9 11
REMARK H PARENT
REMARK Flexibility Score: inf
ROOT
ATOM      1  C   UNL     1      66.386   2.291   7.564  1.00  0.00     0.008 C 
ATOM      2  C   UNL     1      66.726   1.518   8.843  1.00  0.00    -0.006 C 
ATOM      3  C   UNL     1      67.307   0.136   8.503  1.00  0.00     0.008 C 
ATOM      4  C   UNL     1      67.559  -0.691   9.770  1.00  0.00     0.039 C 
ATOM      5  C   UNL     1      68.395   0.058  10.800  1.00  0.00    -0.006 C 
ATOM      6  C   UNL     1      69.247  -0.603  11.638  1.00  0.00    -0.070 C 
ATOM      7  C   UNL     1      70.123   0.134  12.624  1.00  0.00     0.039 C 
ATOM      8  C   UNL     1      69.382  -2.108  11.592  1.00  0.00     0.039 C 
ATOM      9  C   UNL     1      68.139   1.525  10.911  1.00  0.00     0.159 C 
ATOM     10  O   UNL     1      68.258   2.129  12.011  1.00  0.00    -0.295 OA
ATOM     11  C   UNL     1      67.725   2.311   9.700  1.00  0.00     0.084 C 
ENDROOT
TORSDOF 0
ENDMDL
MODEL 5
REMARK VINA RESULT:    -3.867      2.324      4.259
REMARK INTER + INTRA:          -3.867
REMARK INTER:                  -3.867
REMARK INTRA:                   0.000
REMARK UNBOUND:                 0.000
REMARK SMILES CC(C)=C1CC[C@H](C)CC1=O
REMARK SMILES IDX 8 1 7 2 6 3 5 4 4 5 2 6 1 7 3 8 10 9 11 10 9 11
REMARK H PARENT
REMARK Flexibility Score: inf
ROOT
ATOM      1  C   UNL     1      66.135 -16.202  15.375  1.00  0.00     0.008 C 
ATOM      2  C   UNL     1      66.444 -15.664  13.974  1.00  0.00    -0.006 C 
ATOM      3  C   UNL     1      67.900 -15.180  13.888  1.00  0.00     0.008 C 
ATOM      4  C   UNL     1      68.198 -14.545  12.523  1.00  0.00     0.039 C 
ATOM      5  C   UNL     1      67.813 -15.451  11.360  1.00  0.00    -0.006 C 
ATOM      6  C   UNL     1      68.508 -15.430  10.185  1.00  0.00    -0.070 C 
ATOM      7  C   UNL     1      68.171 -16.364   9.046  1.00  0.00     0.039 C 
ATOM      8  C   UNL     1      69.678 -14.495   9.982  1.00  0.00     0.039 C 
ATOM      9  C   UNL     1      66.573 -16.263  11.546  1.00  0.00     0.159 C 
ATOM     10  O   UNL     1      65.830 -16.555  10.570  1.00  0.00    -0.295 OA
ATOM     11  C   UNL     1      66.187 -16.746  12.914  1.00  0.00     0.084 C 
ENDROOT
TORSDOF 0
ENDMDL
MODEL 6
REMARK VINA RESULT:    -3.776     15.152     16.843
REMARK INTER + INTRA:          -3.776
REMARK INTER:                  -3.776
REMARK INTRA:                   0.000
REMARK UNBOUND:                 0.000
REMARK SMILES CC(C)=C1CC[C@H](C)CC1=O
REMARK SMILES IDX 8 1 7 2 6 3 5 4 4 5 2 6 1 7 3 8 10 9 11 10 9 11
REMARK H PARENT
REMARK Flexibility Score: inf
ROOT
ATOM      1  C   UNL     1      70.124   2.740  13.971  1.00  0.00     0.008 C 
ATOM      2  C   UNL     1      69.280   1.733  13.182  1.00  0.00    -0.006 C 
ATOM      3  C   UNL     1      68.732   2.375  11.897  1.00  0.00     0.008 C 
ATOM      4  C   UNL     1      67.802   1.414  11.146  1.00  0.00     0.039 C 
ATOM      5  C   UNL     1      68.446   0.057  10.892  1.00  0.00    -0.006 C 
ATOM      6  C   UNL     1      68.141  -0.676   9.781  1.00  0.00    -0.070 C 
ATOM      7  C   UNL     1      68.815  -1.997   9.491  1.00  0.00     0.039 C 
ATOM      8  C   UNL     1      67.138  -0.181   8.765  1.00  0.00     0.039 C 
ATOM      9  C   UNL     1      69.328  -0.463  11.980  1.00  0.00     0.159 C 
ATOM     10  O   UNL     1      69.428  -1.699  12.206  1.00  0.00    -0.295 OA
ATOM     11  C   UNL     1      70.113   0.490  12.833  1.00  0.00     0.084 C 
ENDROOT
TORSDOF 0
ENDMDL
MODEL 7
REMARK VINA RESULT:    -3.741      2.524      3.089
REMARK INTER + INTRA:          -3.741
REMARK INTER:                  -3.741
REMARK INTRA:                   0.000
REMARK UNBOUND:                 0.000
REMARK SMILES CC(C)=C1CC[C@H](C)CC1=O
REMARK SMILES IDX 8 1 7 2 6 3 5 4 4 5 2 6 1 7 3 8 10 9 11 10 9 11
REMARK H PARENT
REMARK Flexibility Score: inf
ROOT
ATOM      1  C   UNL     1      68.860 -16.172   8.255  1.00  0.00     0.008 C 
ATOM      2  C   UNL     1      68.368 -16.482   9.673  1.00  0.00    -0.006 C 
ATOM      3  C   UNL     1      69.556 -16.713  10.620  1.00  0.00     0.008 C 
ATOM      4  C   UNL     1      69.082 -17.125  12.020  1.00  0.00     0.039 C 
ATOM      5  C   UNL     1      68.053 -16.160  12.596  1.00  0.00    -0.006 C 
ATOM      6  C   UNL     1      67.972 -15.929  13.940  1.00  0.00    -0.070 C 
ATOM      7  C   UNL     1      66.994 -14.932  14.517  1.00  0.00     0.039 C 
ATOM      8  C   UNL     1      68.888 -16.633  14.914  1.00  0.00     0.039 C 
ATOM      9  C   UNL     1      67.077 -15.584  11.623  1.00  0.00     0.159 C 
ATOM     10  O   UNL     1      65.898 -15.302  11.967  1.00  0.00    -0.295 OA
ATOM     11  C   UNL     1      67.490 -15.337  10.201  1.00  0.00     0.084 C 
ENDROOT
TORSDOF 0
ENDMDL
MODEL 8
REMARK VINA RESULT:    -3.591     14.874     16.648
REMARK INTER + INTRA:          -3.591
REMARK INTER:                  -3.591
REMARK INTRA:                   0.000
REMARK UNBOUND:                 0.000
REMARK SMILES CC(C)=C1CC[C@H](C)CC1=O
REMARK SMILES IDX 8 1 7 2 6 3 5 4 4 5 2 6 1 7 3 8 10 9 11 10 9 11
REMARK H PARENT
REMARK Flexibility Score: inf
ROOT
ATOM      1  C   UNL     1      66.029   2.740   7.860  1.00  0.00     0.008 C 
ATOM      2  C   UNL     1      67.148   1.824   8.370  1.00  0.00    -0.006 C 
ATOM      3  C   UNL     1      66.771   1.215   9.729  1.00  0.00     0.008 C 
ATOM      4  C   UNL     1      67.922   0.376  10.303  1.00  0.00     0.039 C 
ATOM      5  C   UNL     1      68.434  -0.665   9.316  1.00  0.00    -0.006 C 
ATOM      6  C   UNL     1      68.934  -1.862   9.743  1.00  0.00    -0.070 C 
ATOM      7  C   UNL     1      69.392  -2.924   8.772  1.00  0.00     0.039 C 
ATOM      8  C   UNL     1      69.018  -2.196  11.215  1.00  0.00     0.039 C 
ATOM      9  C   UNL     1      68.462  -0.250   7.881  1.00  0.00     0.159 C 
ATOM     10  O   UNL     1      69.342  -0.686   7.091  1.00  0.00    -0.295 OA
ATOM     11  C   UNL     1      67.433   0.708   7.354  1.00  0.00     0.084 C 
ENDROOT
TORSDOF 0
ENDMDL
