MODEL 1
REMARK VINA RESULT:    -5.876      0.000      0.000
REMARK INTER + INTRA:          -8.574
REMARK INTER:                  -7.937
REMARK INTRA:                  -0.637
REMARK UNBOUND:                -0.637
REMARK SMILES CC(=O)CCC=C(C)CCC=C(C)C
REMARK SMILES IDX 7 1 6 2 8 3 9 4 10 5 11 6 13 7 12 8 14 9 5 10 4 11 2 12 3 13
REMARK SMILES IDX 1 14
REMARK H PARENT
REMARK Flexibility Score: inf
ROOT
ATOM      1  C   UNL     1     -33.138 -22.040  21.546  1.00  0.00    -0.077 C 
ATOM      2  C   UNL     1     -32.795 -21.174  20.566  1.00  0.00    -0.028 C 
ATOM      3  C   UNL     1     -32.972 -21.698  23.007  1.00  0.00     0.039 C 
ENDROOT
BRANCH   1   4
ATOM      4  C   UNL     1     -33.686 -23.402  21.167  1.00  0.00     0.034 C 
BRANCH   4   5
ATOM      5  C   UNL     1     -33.607 -24.397  22.334  1.00  0.00     0.032 C 
BRANCH   5   6
ATOM      6  C   UNL     1     -32.628 -25.514  22.051  1.00  0.00    -0.028 C 
ATOM      7  C   UNL     1     -30.687 -24.299  23.067  1.00  0.00     0.039 C 
ATOM      8  C   UNL     1     -31.311 -25.471  22.346  1.00  0.00    -0.080 C 
ATOM      9  C   UNL     1     -30.450 -26.646  21.955  1.00  0.00     0.039 C 
ENDBRANCH   5   6
ENDBRANCH   4   5
ENDBRANCH   1   4
BRANCH   2  10
ATOM     10  C   UNL     1     -32.270 -19.781  20.803  1.00  0.00     0.035 C 
BRANCH  10  11
ATOM     11  C   UNL     1     -30.742 -19.752  20.696  1.00  0.00     0.079 C 
BRANCH  11  12
ATOM     12  C   UNL     1     -30.294 -18.655  19.768  1.00  0.00     0.130 C 
ATOM     13  O   UNL     1     -31.055 -18.239  18.909  1.00  0.00    -0.300 OA
ATOM     14  C   UNL     1     -28.927 -18.055  19.907  1.00  0.00     0.087 C 
ENDBRANCH  11  12
ENDBRANCH  10  11
ENDBRANCH   2  10
TORSDOF 6
ENDMDL
MODEL 2
REMARK VINA RESULT:    -5.851      2.530      4.076
REMARK INTER + INTRA:          -8.540
REMARK INTER:                  -8.064
REMARK INTRA:                  -0.477
REMARK UNBOUND:                -0.637
REMARK SMILES CC(=O)CCC=C(C)CCC=C(C)C
REMARK SMILES IDX 7 1 6 2 8 3 9 4 10 5 11 6 13 7 12 8 14 9 5 10 4 11 2 12 3 13
REMARK SMILES IDX 1 14
REMARK H PARENT
REMARK Flexibility Score: inf
ROOT
ATOM      1  C   UNL     1     -31.798 -25.161  22.360  1.00  0.00    -0.077 C 
ATOM      2  C   UNL     1     -31.614 -23.853  22.650  1.00  0.00    -0.028 C 
ATOM      3  C   UNL     1     -33.176 -25.754  22.187  1.00  0.00     0.039 C 
ENDROOT
BRANCH   1   4
ATOM      4  C   UNL     1     -30.587 -26.063  22.224  1.00  0.00     0.034 C 
BRANCH   4   5
ATOM      5  C   UNL     1     -29.328 -25.429  22.834  1.00  0.00     0.032 C 
BRANCH   5   6
ATOM      6  C   UNL     1     -28.395 -26.473  23.402  1.00  0.00    -0.028 C 
ATOM      7  C   UNL     1     -26.597 -24.817  23.947  1.00  0.00     0.039 C 
ATOM      8  C   UNL     1     -27.156 -26.218  23.876  1.00  0.00    -0.080 C 
ATOM      9  C   UNL     1     -26.323 -27.376  24.364  1.00  0.00     0.039 C 
ENDBRANCH   5   6
ENDBRANCH   4   5
ENDBRANCH   1   4
BRANCH   2  10
ATOM     10  C   UNL     1     -32.726 -22.844  22.781  1.00  0.00     0.035 C 
BRANCH  10  11
ATOM     11  C   UNL     1     -32.953 -22.110  21.455  1.00  0.00     0.079 C 
BRANCH  11  12
ATOM     12  C   UNL     1     -32.468 -20.689  21.543  1.00  0.00     0.130 C 
ATOM     13  O   UNL     1     -32.085 -20.244  22.614  1.00  0.00    -0.300 OA
ATOM     14  C   UNL     1     -32.432 -19.822  20.320  1.00  0.00     0.087 C 
ENDBRANCH  11  12
ENDBRANCH  10  11
ENDBRANCH   2  10
TORSDOF 6
ENDMDL
MODEL 3
REMARK VINA RESULT:    -5.825      2.661      6.540
REMARK INTER + INTRA:          -8.505
REMARK INTER:                  -7.803
REMARK INTRA:                  -0.702
REMARK UNBOUND:                -0.637
REMARK SMILES CC(=O)CCC=C(C)CCC=C(C)C
REMARK SMILES IDX 7 1 6 2 8 3 9 4 10 5 11 6 13 7 12 8 14 9 5 10 4 11 2 12 3 13
REMARK SMILES IDX 1 14
REMARK H PARENT
REMARK Flexibility Score: inf
ROOT
ATOM      1  C   UNL     1     -32.710 -21.308  21.529  1.00  0.00    -0.077 C 
ATOM      2  C   UNL     1     -33.277 -22.533  21.439  1.00  0.00    -0.028 C 
ATOM      3  C   UNL     1     -32.162 -20.778  22.833  1.00  0.00     0.039 C 
ENDROOT
BRANCH   1   4
ATOM      4  C   UNL     1     -32.642 -20.434  20.292  1.00  0.00     0.034 C 
BRANCH   4   5
ATOM      5  C   UNL     1     -31.903 -19.116  20.562  1.00  0.00     0.032 C 
BRANCH   5   6
ATOM      6  C   UNL     1     -32.743 -17.917  20.183  1.00  0.00    -0.028 C 
ATOM      7  C   UNL     1     -32.987 -17.126  22.547  1.00  0.00     0.039 C 
ATOM      8  C   UNL     1     -33.260 -17.034  21.064  1.00  0.00    -0.080 C 
ATOM      9  C   UNL     1     -34.122 -15.916  20.536  1.00  0.00     0.039 C 
ENDBRANCH   5   6
ENDBRANCH   4   5
ENDBRANCH   1   4
BRANCH   2  10
ATOM     10  C   UNL     1     -33.381 -23.512  22.580  1.00  0.00     0.035 C 
BRANCH  10  11
ATOM     11  C   UNL     1     -32.790 -24.869  22.187  1.00  0.00     0.079 C 
BRANCH  11  12
ATOM     12  C   UNL     1     -31.330 -24.939  22.544  1.00  0.00     0.130 C 
ATOM     13  O   UNL     1     -30.813 -24.022  23.164  1.00  0.00    -0.300 OA
ATOM     14  C   UNL     1     -30.512 -26.136  22.165  1.00  0.00     0.087 C 
ENDBRANCH  11  12
ENDBRANCH  10  11
ENDBRANCH   2  10
TORSDOF 6
ENDMDL
MODEL 4
REMARK VINA RESULT:    -5.822      1.460      1.849
REMARK INTER + INTRA:          -8.501
REMARK INTER:                  -7.728
REMARK INTRA:                  -0.773
REMARK UNBOUND:                -0.637
REMARK SMILES CC(=O)CCC=C(C)CCC=C(C)C
REMARK SMILES IDX 7 1 6 2 8 3 9 4 10 5 11 6 13 7 12 8 14 9 5 10 4 11 2 12 3 13
REMARK SMILES IDX 1 14
REMARK H PARENT
REMARK Flexibility Score: inf
ROOT
ATOM      1  C   UNL     1     -33.000 -21.958  21.623  1.00  0.00    -0.077 C 
ATOM      2  C   UNL     1     -32.427 -21.169  20.686  1.00  0.00    -0.028 C 
ATOM      3  C   UNL     1     -32.987 -21.594  23.089  1.00  0.00     0.039 C 
ENDROOT
BRANCH   1   4
ATOM      4  C   UNL     1     -33.656 -23.256  21.194  1.00  0.00     0.034 C 
BRANCH   4   5
ATOM      5  C   UNL     1     -33.636 -24.307  22.313  1.00  0.00     0.032 C 
BRANCH   5   6
ATOM      6  C   UNL     1     -32.653 -25.417  22.020  1.00  0.00    -0.028 C 
ATOM      7  C   UNL     1     -30.732 -24.236  23.110  1.00  0.00     0.039 C 
ATOM      8  C   UNL     1     -31.343 -25.386  22.345  1.00  0.00    -0.080 C 
ATOM      9  C   UNL     1     -30.476 -26.551  21.939  1.00  0.00     0.039 C 
ENDBRANCH   5   6
ENDBRANCH   4   5
ENDBRANCH   1   4
BRANCH   2  10
ATOM     10  C   UNL     1     -31.771 -19.843  20.972  1.00  0.00     0.035 C 
BRANCH  10  11
ATOM     11  C   UNL     1     -32.639 -18.687  20.462  1.00  0.00     0.079 C 
BRANCH  11  12
ATOM     12  C   UNL     1     -32.637 -17.547  21.444  1.00  0.00     0.130 C 
ATOM     13  O   UNL     1     -32.721 -16.398  21.038  1.00  0.00    -0.300 OA
ATOM     14  C   UNL     1     -32.556 -17.813  22.916  1.00  0.00     0.087 C 
ENDBRANCH  11  12
ENDBRANCH  10  11
ENDBRANCH   2  10
TORSDOF 6
ENDMDL
MODEL 5
REMARK VINA RESULT:    -5.794      2.191      5.998
REMARK INTER + INTRA:          -8.463
REMARK INTER:                  -7.829
REMARK INTRA:                  -0.633
REMARK UNBOUND:                -0.637
REMARK SMILES CC(=O)CCC=C(C)CCC=C(C)C
REMARK SMILES IDX 7 1 6 2 8 3 9 4 10 5 11 6 13 7 12 8 14 9 5 10 4 11 2 12 3 13
REMARK SMILES IDX 1 14
REMARK H PARENT
REMARK Flexibility Score: inf
ROOT
ATOM      1  C   UNL     1     -32.763 -21.361  21.534  1.00  0.00    -0.077 C 
ATOM      2  C   UNL     1     -33.326 -22.582  21.392  1.00  0.00    -0.028 C 
ATOM      3  C   UNL     1     -32.293 -20.850  22.875  1.00  0.00     0.039 C 
ENDROOT
BRANCH   1   4
ATOM      4  C   UNL     1     -32.620 -20.469  20.316  1.00  0.00     0.034 C 
BRANCH   4   5
ATOM      5  C   UNL     1     -32.047 -19.091  20.678  1.00  0.00     0.032 C 
BRANCH   5   6
ATOM      6  C   UNL     1     -30.590 -18.974  20.296  1.00  0.00    -0.028 C 
ATOM      7  C   UNL     1     -29.984 -17.660  22.340  1.00  0.00     0.039 C 
ATOM      8  C   UNL     1     -29.660 -18.310  21.016  1.00  0.00    -0.080 C 
ATOM      9  C   UNL     1     -28.253 -18.237  20.477  1.00  0.00     0.039 C 
ENDBRANCH   5   6
ENDBRANCH   4   5
ENDBRANCH   1   4
BRANCH   2  10
ATOM     10  C   UNL     1     -33.499 -23.577  22.511  1.00  0.00     0.035 C 
BRANCH  10  11
ATOM     11  C   UNL     1     -32.870 -24.924  22.142  1.00  0.00     0.079 C 
BRANCH  11  12
ATOM     12  C   UNL     1     -31.423 -24.966  22.551  1.00  0.00     0.130 C 
ATOM     13  O   UNL     1     -30.943 -24.035  23.179  1.00  0.00    -0.300 OA
ATOM     14  C   UNL     1     -30.572 -26.152  22.210  1.00  0.00     0.087 C 
ENDBRANCH  11  12
ENDBRANCH  10  11
ENDBRANCH   2  10
TORSDOF 6
ENDMDL
MODEL 6
REMARK VINA RESULT:    -5.765      2.238      2.986
REMARK INTER + INTRA:          -8.424
REMARK INTER:                  -7.719
REMARK INTRA:                  -0.705
REMARK UNBOUND:                -0.637
REMARK SMILES CC(=O)CCC=C(C)CCC=C(C)C
REMARK SMILES IDX 7 1 6 2 8 3 9 4 10 5 11 6 13 7 12 8 14 9 5 10 4 11 2 12 3 13
REMARK SMILES IDX 1 14
REMARK H PARENT
REMARK Flexibility Score: inf
ROOT
ATOM      1  C   UNL     1     -32.513 -20.573  21.349  1.00  0.00    -0.077 C 
ATOM      2  C   UNL     1     -32.215 -19.908  22.489  1.00  0.00    -0.028 C 
ATOM      3  C   UNL     1     -32.393 -19.921  19.991  1.00  0.00     0.039 C 
ENDROOT
BRANCH   1   4
ATOM      4  C   UNL     1     -33.000 -22.006  21.437  1.00  0.00     0.034 C 
BRANCH   4   5
ATOM      5  C   UNL     1     -32.674 -22.640  22.796  1.00  0.00     0.032 C 
BRANCH   5   6
ATOM      6  C   UNL     1     -31.471 -23.552  22.714  1.00  0.00    -0.028 C 
ATOM      7  C   UNL     1     -32.839 -25.593  22.228  1.00  0.00     0.039 C 
ATOM      8  C   UNL     1     -31.532 -24.883  22.490  1.00  0.00    -0.080 C 
ATOM      9  C   UNL     1     -30.245 -25.668  22.487  1.00  0.00     0.039 C 
ENDBRANCH   5   6
ENDBRANCH   4   5
ENDBRANCH   1   4
BRANCH   2  10
ATOM     10  C   UNL     1     -31.693 -18.495  22.541  1.00  0.00     0.035 C 
BRANCH  10  11
ATOM     11  C   UNL     1     -32.800 -17.522  22.960  1.00  0.00     0.079 C 
BRANCH  11  12
ATOM     12  C   UNL     1     -32.918 -16.393  21.972  1.00  0.00     0.130 C 
ATOM     13  O   UNL     1     -32.309 -15.352  22.165  1.00  0.00    -0.300 OA
ATOM     14  C   UNL     1     -33.762 -16.547  20.743  1.00  0.00     0.087 C 
ENDBRANCH  11  12
ENDBRANCH  10  11
ENDBRANCH   2  10
TORSDOF 6
ENDMDL
MODEL 7
REMARK VINA RESULT:    -5.610      2.610      3.290
REMARK INTER + INTRA:          -8.214
REMARK INTER:                  -7.521
REMARK INTRA:                  -0.693
REMARK UNBOUND:                -0.637
REMARK SMILES CC(=O)CCC=C(C)CCC=C(C)C
REMARK SMILES IDX 7 1 6 2 8 3 9 4 10 5 11 6 13 7 12 8 14 9 5 10 4 11 2 12 3 13
REMARK SMILES IDX 1 14
REMARK H PARENT
REMARK Flexibility Score: inf
ROOT
ATOM      1  C   UNL     1     -31.896 -19.951  21.379  1.00  0.00    -0.077 C 
ATOM      2  C   UNL     1     -32.204 -19.194  22.456  1.00  0.00    -0.028 C 
ATOM      3  C   UNL     1     -30.827 -19.541  20.394  1.00  0.00     0.039 C 
ENDROOT
BRANCH   1   4
ATOM      4  C   UNL     1     -32.660 -21.239  21.140  1.00  0.00     0.034 C 
BRANCH   4   5
ATOM      5  C   UNL     1     -33.055 -21.924  22.456  1.00  0.00     0.032 C 
BRANCH   5   6
ATOM      6  C   UNL     1     -33.548 -23.335  22.226  1.00  0.00    -0.028 C 
ATOM      7  C   UNL     1     -31.293 -24.363  22.591  1.00  0.00     0.039 C 
ATOM      8  C   UNL     1     -32.764 -24.434  22.254  1.00  0.00    -0.080 C 
ATOM      9  C   UNL     1     -33.393 -25.771  21.954  1.00  0.00     0.039 C 
ENDBRANCH   5   6
ENDBRANCH   4   5
ENDBRANCH   1   4
BRANCH   2  10
ATOM     10  C   UNL     1     -31.504 -17.912  22.826  1.00  0.00     0.035 C 
BRANCH  10  11
ATOM     11  C   UNL     1     -30.676 -18.094  24.102  1.00  0.00     0.079 C 
BRANCH  11  12
ATOM     12  C   UNL     1     -29.249 -17.675  23.876  1.00  0.00     0.130 C 
ATOM     13  O   UNL     1     -28.462 -17.672  24.810  1.00  0.00    -0.300 OA
ATOM     14  C   UNL     1     -28.781 -17.283  22.507  1.00  0.00     0.087 C 
ENDBRANCH  11  12
ENDBRANCH  10  11
ENDBRANCH   2  10
TORSDOF 6
ENDMDL
MODEL 8
REMARK VINA RESULT:    -5.572      1.241      1.749
REMARK INTER + INTRA:          -8.163
REMARK INTER:                  -7.524
REMARK INTRA:                  -0.640
REMARK UNBOUND:                -0.637
REMARK SMILES CC(=O)CCC=C(C)CCC=C(C)C
REMARK SMILES IDX 7 1 6 2 8 3 9 4 10 5 11 6 13 7 12 8 14 9 5 10 4 11 2 12 3 13
REMARK SMILES IDX 1 14
REMARK H PARENT
REMARK Flexibility Score: inf
ROOT
ATOM      1  C   UNL     1     -32.582 -20.744  21.369  1.00  0.00    -0.077 C 
ATOM      2  C   UNL     1     -32.514 -20.175  20.144  1.00  0.00    -0.028 C 
ATOM      3  C   UNL     1     -32.138 -20.014  22.615  1.00  0.00     0.039 C 
ENDROOT
BRANCH   1   4
ATOM      4  C   UNL     1     -33.099 -22.164  21.494  1.00  0.00     0.034 C 
BRANCH   4   5
ATOM      5  C   UNL     1     -32.690 -22.809  22.826  1.00  0.00     0.032 C 
BRANCH   5   6
ATOM      6  C   UNL     1     -31.600 -23.839  22.638  1.00  0.00    -0.028 C 
ATOM      7  C   UNL     1     -33.203 -25.688  22.109  1.00  0.00     0.039 C 
ATOM      8  C   UNL     1     -31.816 -25.139  22.346  1.00  0.00    -0.080 C 
ATOM      9  C   UNL     1     -30.626 -26.058  22.239  1.00  0.00     0.039 C 
ENDBRANCH   5   6
ENDBRANCH   4   5
ENDBRANCH   1   4
BRANCH   2  10
ATOM     10  C   UNL     1     -32.050 -18.764  19.884  1.00  0.00     0.035 C 
BRANCH  10  11
ATOM     11  C   UNL     1     -30.738 -18.761  19.094  1.00  0.00     0.079 C 
BRANCH  11  12
ATOM     12  C   UNL     1     -29.672 -17.999  19.835  1.00  0.00     0.130 C 
ATOM     13  O   UNL     1     -28.549 -17.914  19.364  1.00  0.00    -0.300 OA
ATOM     14  C   UNL     1     -29.988 -17.324  21.135  1.00  0.00     0.087 C 
ENDBRANCH  11  12
ENDBRANCH  10  11
ENDBRANCH   2  10
TORSDOF 6
ENDMDL
MODEL 9
REMARK VINA RESULT:    -5.571      1.904      2.895
REMARK INTER + INTRA:          -8.162
REMARK INTER:                  -7.556
REMARK INTRA:                  -0.606
REMARK UNBOUND:                -0.637
REMARK SMILES CC(=O)CCC=C(C)CCC=C(C)C
REMARK SMILES IDX 7 1 6 2 8 3 9 4 10 5 11 6 13 7 12 8 14 9 5 10 4 11 2 12 3 13
REMARK SMILES IDX 1 14
REMARK H PARENT
REMARK Flexibility Score: inf
ROOT
ATOM      1  C   UNL     1     -31.672 -19.870  21.288  1.00  0.00    -0.077 C 
ATOM      2  C   UNL     1     -30.753 -19.430  20.399  1.00  0.00    -0.028 C 
ATOM      3  C   UNL     1     -32.065 -19.056  22.499  1.00  0.00     0.039 C 
ENDROOT
BRANCH   1   4
ATOM      4  C   UNL     1     -32.312 -21.228  21.076  1.00  0.00     0.034 C 
BRANCH   4   5
ATOM      5  C   UNL     1     -32.860 -21.815  22.384  1.00  0.00     0.032 C 
BRANCH   5   6
ATOM      6  C   UNL     1     -33.418 -23.205  22.183  1.00  0.00    -0.028 C 
ATOM      7  C   UNL     1     -31.233 -24.335  22.653  1.00  0.00     0.039 C 
ATOM      8  C   UNL     1     -32.694 -24.342  22.271  1.00  0.00    -0.080 C 
ATOM      9  C   UNL     1     -33.383 -25.653  21.992  1.00  0.00     0.039 C 
ENDBRANCH   5   6
ENDBRANCH   4   5
ENDBRANCH   1   4
BRANCH   2  10
ATOM     10  C   UNL     1     -30.066 -18.090  20.475  1.00  0.00     0.035 C 
BRANCH  10  11
ATOM     11  C   UNL     1     -28.544 -18.257  20.421  1.00  0.00     0.079 C 
BRANCH  11  12
ATOM     12  C   UNL     1     -27.913 -17.818  21.715  1.00  0.00     0.130 C 
ATOM     13  O   UNL     1     -26.711 -17.954  21.879  1.00  0.00    -0.300 OA
ATOM     14  C   UNL     1     -28.748 -17.197  22.793  1.00  0.00     0.087 C 
ENDBRANCH  11  12
ENDBRANCH  10  11
ENDBRANCH   2  10
TORSDOF 6
ENDMDL
