MODEL 1
REMARK VINA RESULT:    -3.337      0.000      0.000
REMARK INTER + INTRA:          -5.737
REMARK INTER:                  -5.093
REMARK INTRA:                  -0.644
REMARK UNBOUND:                -0.644
REMARK SMILES CCCCCCCCCCC(=O)[O-]
REMARK SMILES IDX 7 1 8 2 9 3 10 4 11 5 12 6 13 7 6 8 5 9 4 10 3 11 2 12 1 13
REMARK H PARENT
REMARK Flexibility Score: inf
ROOT
ATOM      1  C   UNL     1      16.812  19.632  49.075  1.00  0.00     0.000 C 
ENDROOT
BRANCH   1   2
ATOM      2  C   UNL     1      17.550  18.630  48.174  1.00  0.00     0.000 C 
BRANCH   2   3
ATOM      3  C   UNL     1      16.715  18.196  46.954  1.00  0.00     0.006 C 
BRANCH   3   4
ATOM      4  C   UNL     1      15.504  19.098  46.663  1.00  0.00     0.053 C 
BRANCH   4   5
ATOM      5  C   UNL     1      14.211  18.349  46.750  1.00  0.00     0.041 C 
ATOM      6  O   UNL     1      14.144  17.152  46.365  1.00  0.00    -0.550 OA
ATOM      7  O   UNL     1      13.070  18.983  47.226  1.00  0.00    -0.550 OA
ENDBRANCH   4   5
ENDBRANCH   3   4
ENDBRANCH   2   3
ENDBRANCH   1   2
BRANCH   1   8
ATOM      8  C   UNL     1      16.977  19.263  50.554  1.00  0.00     0.000 C 
BRANCH   8   9
ATOM      9  C   UNL     1      18.001  18.136  50.730  1.00  0.00    -0.000 C 
BRANCH   9  10
ATOM     10  C   UNL     1      17.948  17.561  52.150  1.00  0.00    -0.000 C 
BRANCH  10  11
ATOM     11  C   UNL     1      16.507  17.513  52.671  1.00  0.00    -0.000 C 
BRANCH  11  12
ATOM     12  C   UNL     1      16.390  18.210  54.031  1.00  0.00    -0.003 C 
ATOM     13  C   UNL     1      17.639  19.032  54.339  1.00  0.00     0.004 C 
ENDBRANCH  11  12
ENDBRANCH  10  11
ENDBRANCH   9  10
ENDBRANCH   8   9
ENDBRANCH   1   8
TORSDOF 9
ENDMDL
MODEL 2
REMARK VINA RESULT:    -3.255     10.812     12.415
REMARK INTER + INTRA:          -5.611
REMARK INTER:                  -5.048
REMARK INTRA:                  -0.563
REMARK UNBOUND:                -0.644
REMARK SMILES CCCCCCCCCCC(=O)[O-]
REMARK SMILES IDX 7 1 8 2 9 3 10 4 11 5 12 6 13 7 6 8 5 9 4 10 3 11 2 12 1 13
REMARK H PARENT
REMARK Flexibility Score: inf
ROOT
ATOM      1  C   UNL     1      18.377  29.109  54.768  1.00  0.00     0.000 C 
ENDROOT
BRANCH   1   2
ATOM      2  C   UNL     1      17.131  29.909  54.360  1.00  0.00     0.000 C 
BRANCH   2   3
ATOM      3  C   UNL     1      15.852  29.424  55.068  1.00  0.00     0.006 C 
BRANCH   3   4
ATOM      4  C   UNL     1      15.420  27.999  54.687  1.00  0.00     0.053 C 
BRANCH   4   5
ATOM      5  C   UNL     1      14.473  27.989  53.527  1.00  0.00     0.041 C 
ATOM      6  O   UNL     1      14.912  27.893  52.351  1.00  0.00    -0.550 OA
ATOM      7  O   UNL     1      13.107  28.121  53.742  1.00  0.00    -0.550 OA
ENDBRANCH   4   5
ENDBRANCH   3   4
ENDBRANCH   2   3
ENDBRANCH   1   2
BRANCH   1   8
ATOM      8  C   UNL     1      19.525  30.047  55.165  1.00  0.00     0.000 C 
BRANCH   8   9
ATOM      9  C   UNL     1      20.589  29.300  55.977  1.00  0.00    -0.000 C 
BRANCH   9  10
ATOM     10  C   UNL     1      19.948  28.241  56.883  1.00  0.00    -0.000 C 
BRANCH  10  11
ATOM     11  C   UNL     1      20.039  28.650  58.357  1.00  0.00    -0.000 C 
BRANCH  11  12
ATOM     12  C   UNL     1      21.182  29.646  58.582  1.00  0.00    -0.003 C 
ATOM     13  C   UNL     1      20.822  30.666  59.659  1.00  0.00     0.004 C 
ENDBRANCH  11  12
ENDBRANCH  10  11
ENDBRANCH   9  10
ENDBRANCH   8   9
ENDBRANCH   1   8
TORSDOF 9
ENDMDL
MODEL 3
REMARK VINA RESULT:    -3.248      3.147      5.946
REMARK INTER + INTRA:          -5.601
REMARK INTER:                  -4.715
REMARK INTRA:                  -0.886
REMARK UNBOUND:                -0.644
REMARK SMILES CCCCCCCCCCC(=O)[O-]
REMARK SMILES IDX 7 1 8 2 9 3 10 4 11 5 12 6 13 7 6 8 5 9 4 10 3 11 2 12 1 13
REMARK H PARENT
REMARK Flexibility Score: inf
ROOT
ATOM      1  C   UNL     1      17.715  19.777  50.341  1.00  0.00     0.000 C 
ENDROOT
BRANCH   1   2
ATOM      2  C   UNL     1      17.764  18.247  50.470  1.00  0.00     0.000 C 
BRANCH   2   3
ATOM      3  C   UNL     1      17.983  17.777  51.921  1.00  0.00     0.006 C 
BRANCH   3   4
ATOM      4  C   UNL     1      16.696  17.356  52.650  1.00  0.00     0.053 C 
BRANCH   4   5
ATOM      5  C   UNL     1      16.309  18.334  53.716  1.00  0.00     0.041 C 
ATOM      6  O   UNL     1      16.531  18.073  54.927  1.00  0.00    -0.550 OA
ATOM      7  O   UNL     1      15.670  19.519  53.373  1.00  0.00    -0.550 OA
ENDBRANCH   4   5
ENDBRANCH   3   4
ENDBRANCH   2   3
ENDBRANCH   1   2
BRANCH   1   8
ATOM      8  C   UNL     1      16.478  20.221  49.551  1.00  0.00     0.000 C 
BRANCH   8   9
ATOM      9  C   UNL     1      15.304  19.262  49.781  1.00  0.00    -0.000 C 
BRANCH   9  10
ATOM     10  C   UNL     1      14.655  18.858  48.452  1.00  0.00    -0.000 C 
BRANCH  10  11
ATOM     11  C   UNL     1      15.591  19.146  47.272  1.00  0.00    -0.000 C 
BRANCH  11  12
ATOM     12  C   UNL     1      15.704  17.927  46.350  1.00  0.00    -0.003 C 
ATOM     13  C   UNL     1      14.429  17.089  46.383  1.00  0.00     0.004 C 
ENDBRANCH  11  12
ENDBRANCH  10  11
ENDBRANCH   9  10
ENDBRANCH   8   9
ENDBRANCH   1   8
TORSDOF 9
ENDMDL
MODEL 4
REMARK VINA RESULT:    -3.180     11.965     13.962
REMARK INTER + INTRA:          -5.497
REMARK INTER:                  -4.928
REMARK INTRA:                  -0.569
REMARK UNBOUND:                -0.644
REMARK SMILES CCCCCCCCCCC(=O)[O-]
REMARK SMILES IDX 7 1 8 2 9 3 10 4 11 5 12 6 13 7 6 8 5 9 4 10 3 11 2 12 1 13
REMARK H PARENT
REMARK Flexibility Score: inf
ROOT
ATOM      1  C   UNL     1      19.909  28.853  54.459  1.00  0.00     0.000 C 
ENDROOT
BRANCH   1   2
ATOM      2  C   UNL     1      21.202  29.093  55.252  1.00  0.00     0.000 C 
BRANCH   2   3
ATOM      3  C   UNL     1      21.043  30.173  56.340  1.00  0.00     0.006 C 
BRANCH   3   4
ATOM      4  C   UNL     1      21.769  29.856  57.657  1.00  0.00     0.053 C 
BRANCH   4   5
ATOM      5  C   UNL     1      20.811  29.614  58.782  1.00  0.00     0.041 C 
ATOM      6  O   UNL     1      20.027  28.629  58.748  1.00  0.00    -0.550 OA
ATOM      7  O   UNL     1      20.760  30.496  59.854  1.00  0.00    -0.550 OA
ENDBRANCH   4   5
ENDBRANCH   3   4
ENDBRANCH   2   3
ENDBRANCH   1   2
BRANCH   1   8
ATOM      8  C   UNL     1      18.708  29.506  55.156  1.00  0.00     0.000 C 
BRANCH   8   9
ATOM      9  C   UNL     1      17.627  29.894  54.140  1.00  0.00    -0.000 C 
BRANCH   9  10
ATOM     10  C   UNL     1      16.235  29.480  54.634  1.00  0.00    -0.000 C 
BRANCH  10  11
ATOM     11  C   UNL     1      16.258  28.065  55.223  1.00  0.00    -0.000 C 
BRANCH  11  12
ATOM     12  C   UNL     1      15.001  27.283  54.826  1.00  0.00    -0.003 C 
ATOM     13  C   UNL     1      14.239  27.994  53.710  1.00  0.00     0.004 C 
ENDBRANCH  11  12
ENDBRANCH  10  11
ENDBRANCH   9  10
ENDBRANCH   8   9
ENDBRANCH   1   8
TORSDOF 9
ENDMDL
MODEL 5
REMARK VINA RESULT:    -3.133     12.022     13.234
REMARK INTER + INTRA:          -5.425
REMARK INTER:                  -4.474
REMARK INTRA:                  -0.951
REMARK UNBOUND:                -0.644
REMARK SMILES CCCCCCCCCCC(=O)[O-]
REMARK SMILES IDX 7 1 8 2 9 3 10 4 11 5 12 6 13 7 6 8 5 9 4 10 3 11 2 12 1 13
REMARK H PARENT
REMARK Flexibility Score: inf
ROOT
ATOM      1  C   UNL     1      21.697  29.525  55.196  1.00  0.00     0.000 C 
ENDROOT
BRANCH   1   2
ATOM      2  C   UNL     1      20.314  30.100  55.534  1.00  0.00     0.000 C 
BRANCH   2   3
ATOM      3  C   UNL     1      19.159  29.232  55.000  1.00  0.00     0.006 C 
BRANCH   3   4
ATOM      4  C   UNL     1      18.108  30.007  54.189  1.00  0.00     0.053 C 
BRANCH   4   5
ATOM      5  C   UNL     1      16.771  29.333  54.213  1.00  0.00     0.041 C 
ATOM      6  O   UNL     1      15.910  29.660  55.071  1.00  0.00    -0.550 OA
ATOM      7  O   UNL     1      16.488  28.318  53.307  1.00  0.00    -0.550 OA
ENDBRANCH   4   5
ENDBRANCH   3   4
ENDBRANCH   2   3
ENDBRANCH   1   2
BRANCH   1   8
ATOM      8  C   UNL     1      22.801  30.260  55.967  1.00  0.00     0.000 C 
BRANCH   8   9
ATOM      9  C   UNL     1      22.756  29.910  57.459  1.00  0.00    -0.000 C 
BRANCH   9  10
ATOM     10  C   UNL     1      23.124  28.439  57.690  1.00  0.00    -0.000 C 
BRANCH  10  11
ATOM     11  C   UNL     1      22.028  27.714  58.479  1.00  0.00    -0.000 C 
BRANCH  11  12
ATOM     12  C   UNL     1      20.946  28.695  58.946  1.00  0.00    -0.003 C 
ATOM     13  C   UNL     1      19.550  28.172  58.620  1.00  0.00     0.004 C 
ENDBRANCH  11  12
ENDBRANCH  10  11
ENDBRANCH   9  10
ENDBRANCH   8   9
ENDBRANCH   1   8
TORSDOF 9
ENDMDL
MODEL 6
REMARK VINA RESULT:    -3.121      1.152      1.896
REMARK INTER + INTRA:          -5.406
REMARK INTER:                  -5.065
REMARK INTRA:                  -0.341
REMARK UNBOUND:                -0.644
REMARK SMILES CCCCCCCCCCC(=O)[O-]
REMARK SMILES IDX 7 1 8 2 9 3 10 4 11 5 12 6 13 7 6 8 5 9 4 10 3 11 2 12 1 13
REMARK H PARENT
REMARK Flexibility Score: inf
ROOT
ATOM      1  C   UNL     1      17.607  18.566  50.564  1.00  0.00     0.000 C 
ENDROOT
BRANCH   1   2
ATOM      2  C   UNL     1      17.205  19.223  49.236  1.00  0.00     0.000 C 
BRANCH   2   3
ATOM      3  C   UNL     1      17.339  18.270  48.033  1.00  0.00     0.006 C 
BRANCH   3   4
ATOM      4  C   UNL     1      16.544  18.703  46.791  1.00  0.00     0.053 C 
BRANCH   4   5
ATOM      5  C   UNL     1      15.213  18.022  46.709  1.00  0.00     0.041 C 
ATOM      6  O   UNL     1      15.098  16.928  46.097  1.00  0.00    -0.550 OA
ATOM      7  O   UNL     1      14.093  18.612  47.281  1.00  0.00    -0.550 OA
ENDBRANCH   4   5
ENDBRANCH   3   4
ENDBRANCH   2   3
ENDBRANCH   1   2
BRANCH   1   8
ATOM      8  C   UNL     1      16.372  18.261  51.422  1.00  0.00     0.000 C 
BRANCH   8   9
ATOM      9  C   UNL     1      16.759  17.490  52.689  1.00  0.00    -0.000 C 
BRANCH   9  10
ATOM     10  C   UNL     1      16.327  18.251  53.949  1.00  0.00    -0.000 C 
BRANCH  10  11
ATOM     11  C   UNL     1      17.522  18.954  54.604  1.00  0.00    -0.000 C 
BRANCH  11  12
ATOM     12  C   UNL     1      17.336  19.055  56.122  1.00  0.00    -0.003 C 
ATOM     13  C   UNL     1      16.599  17.835  56.670  1.00  0.00     0.004 C 
ENDBRANCH  11  12
ENDBRANCH  10  11
ENDBRANCH   9  10
ENDBRANCH   8   9
ENDBRANCH   1   8
TORSDOF 9
ENDMDL
MODEL 7
REMARK VINA RESULT:    -3.112     11.504     12.953
REMARK INTER + INTRA:          -5.392
REMARK INTER:                  -4.453
REMARK INTRA:                  -0.940
REMARK UNBOUND:                -0.644
REMARK SMILES CCCCCCCCCCC(=O)[O-]
REMARK SMILES IDX 7 1 8 2 9 3 10 4 11 5 12 6 13 7 6 8 5 9 4 10 3 11 2 12 1 13
REMARK H PARENT
REMARK Flexibility Score: inf
ROOT
ATOM      1  C   UNL     1      19.411  28.031  55.864  1.00  0.00     0.000 C 
ENDROOT
BRANCH   1   2
ATOM      2  C   UNL     1      19.708  29.353  55.140  1.00  0.00     0.000 C 
BRANCH   2   3
ATOM      3  C   UNL     1      18.458  29.967  54.481  1.00  0.00     0.006 C 
BRANCH   3   4
ATOM      4  C   UNL     1      17.601  28.963  53.692  1.00  0.00     0.053 C 
BRANCH   4   5
ATOM      5  C   UNL     1      16.187  28.924  54.182  1.00  0.00     0.041 C 
ATOM      6  O   UNL     1      15.301  28.327  53.515  1.00  0.00    -0.550 OA
ATOM      7  O   UNL     1      15.840  29.577  55.358  1.00  0.00    -0.550 OA
ENDBRANCH   4   5
ENDBRANCH   3   4
ENDBRANCH   2   3
ENDBRANCH   1   2
BRANCH   1   8
ATOM      8  C   UNL     1      18.623  28.279  57.156  1.00  0.00     0.000 C 
BRANCH   8   9
ATOM      9  C   UNL     1      19.343  27.671  58.365  1.00  0.00    -0.000 C 
BRANCH   9  10
ATOM     10  C   UNL     1      20.759  28.242  58.507  1.00  0.00    -0.000 C 
BRANCH  10  11
ATOM     11  C   UNL     1      20.758  29.512  59.366  1.00  0.00    -0.000 C 
BRANCH  11  12
ATOM     12  C   UNL     1      21.489  30.657  58.656  1.00  0.00    -0.003 C 
ATOM     13  C   UNL     1      22.354  30.134  57.512  1.00  0.00     0.004 C 
ENDBRANCH  11  12
ENDBRANCH  10  11
ENDBRANCH   9  10
ENDBRANCH   8   9
ENDBRANCH   1   8
TORSDOF 9
ENDMDL
MODEL 8
REMARK VINA RESULT:    -3.104      3.102      5.860
REMARK INTER + INTRA:          -5.381
REMARK INTER:                  -4.265
REMARK INTRA:                  -1.117
REMARK UNBOUND:                -0.644
REMARK SMILES CCCCCCCCCCC(=O)[O-]
REMARK SMILES IDX 7 1 8 2 9 3 10 4 11 5 12 6 13 7 6 8 5 9 4 10 3 11 2 12 1 13
REMARK H PARENT
REMARK Flexibility Score: inf
ROOT
ATOM      1  C   UNL     1      16.012  20.152  50.115  1.00  0.00     0.000 C 
ENDROOT
BRANCH   1   2
ATOM      2  C   UNL     1      17.495  19.770  49.998  1.00  0.00     0.000 C 
BRANCH   2   3
ATOM      3  C   UNL     1      17.740  18.262  50.193  1.00  0.00     0.006 C 
BRANCH   3   4
ATOM      4  C   UNL     1      18.419  17.899  51.524  1.00  0.00     0.053 C 
BRANCH   4   5
ATOM      5  C   UNL     1      17.453  17.901  52.667  1.00  0.00     0.041 C 
ATOM      6  O   UNL     1      16.417  17.187  52.623  1.00  0.00    -0.550 OA
ATOM      7  O   UNL     1      17.679  18.719  53.767  1.00  0.00    -0.550 OA
ENDBRANCH   4   5
ENDBRANCH   3   4
ENDBRANCH   2   3
ENDBRANCH   1   2
BRANCH   1   8
ATOM      8  C   UNL     1      15.110  18.964  49.759  1.00  0.00     0.000 C 
BRANCH   8   9
ATOM      9  C   UNL     1      14.271  19.265  48.511  1.00  0.00    -0.000 C 
BRANCH   9  10
ATOM     10  C   UNL     1      14.937  18.701  47.251  1.00  0.00    -0.000 C 
BRANCH  10  11
ATOM     11  C   UNL     1      15.347  19.826  46.294  1.00  0.00    -0.000 C 
BRANCH  11  12
ATOM     12  C   UNL     1      16.694  19.521  45.630  1.00  0.00    -0.003 C 
ATOM     13  C   UNL     1      17.519  18.553  46.475  1.00  0.00     0.004 C 
ENDBRANCH  11  12
ENDBRANCH  10  11
ENDBRANCH   9  10
ENDBRANCH   8   9
ENDBRANCH   1   8
TORSDOF 9
ENDMDL
MODEL 9
REMARK VINA RESULT:    -3.102      1.547      2.480
REMARK INTER + INTRA:          -5.377
REMARK INTER:                  -4.419
REMARK INTRA:                  -0.958
REMARK UNBOUND:                -0.644
REMARK SMILES CCCCCCCCCCC(=O)[O-]
REMARK SMILES IDX 7 1 8 2 9 3 10 4 11 5 12 6 13 7 6 8 5 9 4 10 3 11 2 12 1 13
REMARK H PARENT
REMARK Flexibility Score: inf
ROOT
ATOM      1  C   UNL     1      17.837  18.801  51.094  1.00  0.00     0.000 C 
ENDROOT
BRANCH   1   2
ATOM      2  C   UNL     1      17.737  18.432  49.606  1.00  0.00     0.000 C 
BRANCH   2   3
ATOM      3  C   UNL     1      16.638  19.221  48.869  1.00  0.00     0.006 C 
BRANCH   3   4
ATOM      4  C   UNL     1      15.236  19.080  49.485  1.00  0.00     0.053 C 
BRANCH   4   5
ATOM      5  C   UNL     1      14.173  18.950  48.439  1.00  0.00     0.041 C 
ATOM      6  O   UNL     1      13.080  19.562  48.566  1.00  0.00    -0.550 OA
ATOM      7  O   UNL     1      14.376  18.126  47.339  1.00  0.00    -0.550 OA
ENDBRANCH   4   5
ENDBRANCH   3   4
ENDBRANCH   2   3
ENDBRANCH   1   2
BRANCH   1   8
ATOM      8  C   UNL     1      17.825  17.543  51.972  1.00  0.00     0.000 C 
BRANCH   8   9
ATOM      9  C   UNL     1      16.598  17.526  52.892  1.00  0.00    -0.000 C 
BRANCH   9  10
ATOM     10  C   UNL     1      16.776  18.498  54.064  1.00  0.00    -0.000 C 
BRANCH  10  11
ATOM     11  C   UNL     1      15.462  19.218  54.387  1.00  0.00    -0.000 C 
BRANCH  11  12
ATOM     12  C   UNL     1      14.964  20.021  53.179  1.00  0.00    -0.003 C 
ATOM     13  C   UNL     1      15.821  21.264  52.952  1.00  0.00     0.004 C 
ENDBRANCH  11  12
ENDBRANCH  10  11
ENDBRANCH   9  10
ENDBRANCH   8   9
ENDBRANCH   1   8
TORSDOF 9
ENDMDL
