MODEL 1
REMARK VINA RESULT:    -5.993      0.000      0.000
REMARK INTER + INTRA:          -6.344
REMARK INTER:                  -6.344
REMARK INTRA:                   0.000
REMARK UNBOUND:                 0.000
REMARK SMILES O=c1ccc2cc(O)c(O)cc2o1
REMARK SMILES IDX 4 1 3 2 2 3 1 4 13 5 12 6 11 7 9 8 7 9 6 10 5 11 8 12 10 14
REMARK H PARENT 8 13 10 15
REMARK Flexibility Score: inf
ROOT
ATOM      1  C   UNL     1     -37.282  -8.471 -13.666  1.00  0.00     0.019 A 
ATOM      2  C   UNL     1     -38.523  -9.107 -13.654  1.00  0.00     0.094 A 
ATOM      3  C   UNL     1     -39.679  -8.335 -13.495  1.00  0.00     0.336 A 
ATOM      4  O   UNL     1     -40.808  -8.890 -13.481  1.00  0.00    -0.246 OA
ATOM      5  O   UNL     1     -39.593  -7.014 -13.357  1.00  0.00    -0.423 OA
ATOM      6  C   UNL     1     -38.429  -6.368 -13.363  1.00  0.00     0.142 A 
ATOM      7  C   UNL     1     -38.400  -4.978 -13.215  1.00  0.00     0.098 A 
ATOM      8  C   UNL     1     -37.182  -4.291 -13.219  1.00  0.00     0.161 A 
ATOM      9  C   UNL     1     -35.976  -5.001 -13.375  1.00  0.00     0.158 A 
ATOM     10  C   UNL     1     -36.000  -6.395 -13.525  1.00  0.00     0.062 A 
ATOM     11  C   UNL     1     -37.221  -7.081 -13.519  1.00  0.00     0.022 A 
ENDROOT
BRANCH   9  12
ATOM     12  O   UNL     1     -34.761  -4.317 -13.380  1.00  0.00    -0.504 OA
ATOM     13  H   UNL     1     -34.657  -3.421 -13.844  1.00  0.00     0.293 HD
ENDBRANCH   9  12
BRANCH   8  14
ATOM     14  O   UNL     1     -37.186  -2.904 -13.069  1.00  0.00    -0.504 OA
ATOM     15  H   UNL     1     -37.633  -2.450 -12.281  1.00  0.00     0.293 HD
ENDBRANCH   8  14
TORSDOF 2
ENDMDL
MODEL 2
REMARK VINA RESULT:    -5.819      1.333      4.569
REMARK INTER + INTRA:          -6.159
REMARK INTER:                  -6.159
REMARK INTRA:                   0.000
REMARK UNBOUND:                 0.000
REMARK SMILES O=c1ccc2cc(O)c(O)cc2o1
REMARK SMILES IDX 4 1 3 2 2 3 1 4 13 5 12 6 11 7 9 8 7 9 6 10 5 11 8 12 10 14
REMARK H PARENT 8 13 10 15
REMARK Flexibility Score: inf
ROOT
ATOM      1  C   UNL     1     -36.436  -6.099 -13.511  1.00  0.00     0.019 A 
ATOM      2  C   UNL     1     -36.017  -4.871 -12.999  1.00  0.00     0.094 A 
ATOM      3  C   UNL     1     -36.974  -3.981 -12.501  1.00  0.00     0.336 A 
ATOM      4  O   UNL     1     -36.616  -2.869 -12.035  1.00  0.00    -0.246 OA
ATOM      5  O   UNL     1     -38.266  -4.304 -12.516  1.00  0.00    -0.423 OA
ATOM      6  C   UNL     1     -38.708  -5.465 -12.995  1.00  0.00     0.142 A 
ATOM      7  C   UNL     1     -40.077  -5.749 -12.985  1.00  0.00     0.098 A 
ATOM      8  C   UNL     1     -40.551  -6.966 -13.487  1.00  0.00     0.161 A 
ATOM      9  C   UNL     1     -39.646  -7.912 -14.005  1.00  0.00     0.158 A 
ATOM     10  C   UNL     1     -38.272  -7.631 -14.017  1.00  0.00     0.062 A 
ATOM     11  C   UNL     1     -37.799  -6.412 -13.514  1.00  0.00     0.022 A 
ENDROOT
BRANCH   9  12
ATOM     12  O   UNL     1     -40.117  -9.125 -14.505  1.00  0.00    -0.504 OA
ATOM     13  H   UNL     1     -41.106  -9.347 -14.515  1.00  0.00     0.293 HD
ENDBRANCH   9  12
BRANCH   8  14
ATOM     14  O   UNL     1     -41.922  -7.219 -13.463  1.00  0.00    -0.504 OA
ATOM     15  H   UNL     1     -42.533  -6.947 -14.224  1.00  0.00     0.293 HD
ENDBRANCH   8  14
TORSDOF 2
ENDMDL
MODEL 3
REMARK VINA RESULT:    -5.792      1.782      4.717
REMARK INTER + INTRA:          -6.130
REMARK INTER:                  -6.130
REMARK INTRA:                   0.000
REMARK UNBOUND:                 0.000
REMARK SMILES O=c1ccc2cc(O)c(O)cc2o1
REMARK SMILES IDX 4 1 3 2 2 3 1 4 13 5 12 6 11 7 9 8 7 9 6 10 5 11 8 12 10 14
REMARK H PARENT 8 13 10 15
REMARK Flexibility Score: inf
ROOT
ATOM      1  C   UNL     1     -35.973  -6.644 -16.338  1.00  0.00     0.019 A 
ATOM      2  C   UNL     1     -34.983  -5.689 -16.104  1.00  0.00     0.094 A 
ATOM      3  C   UNL     1     -35.061  -4.900 -14.952  1.00  0.00     0.336 A 
ATOM      4  O   UNL     1     -34.177  -4.033 -14.724  1.00  0.00    -0.246 OA
ATOM      5  O   UNL     1     -36.065  -5.058 -14.093  1.00  0.00    -0.423 OA
ATOM      6  C   UNL     1     -37.030  -5.957 -14.278  1.00  0.00     0.142 A 
ATOM      7  C   UNL     1     -38.060  -6.079 -13.341  1.00  0.00     0.098 A 
ATOM      8  C   UNL     1     -39.079  -7.020 -13.527  1.00  0.00     0.161 A 
ATOM      9  C   UNL     1     -39.068  -7.850 -14.664  1.00  0.00     0.158 A 
ATOM     10  C   UNL     1     -38.036  -7.732 -15.606  1.00  0.00     0.062 A 
ATOM     11  C   UNL     1     -37.017  -6.789 -15.418  1.00  0.00     0.022 A 
ENDROOT
BRANCH   9  12
ATOM     12  O   UNL     1     -40.082  -8.789 -14.851  1.00  0.00    -0.504 OA
ATOM     13  H   UNL     1     -39.898  -9.693 -15.272  1.00  0.00     0.293 HD
ENDBRANCH   9  12
BRANCH   8  14
ATOM     14  O   UNL     1     -40.093  -7.117 -12.575  1.00  0.00    -0.504 OA
ATOM     15  H   UNL     1     -39.964  -6.808 -11.618  1.00  0.00     0.293 HD
ENDBRANCH   8  14
TORSDOF 2
ENDMDL
MODEL 4
REMARK VINA RESULT:    -5.780      2.213      4.927
REMARK INTER + INTRA:          -6.118
REMARK INTER:                  -6.118
REMARK INTRA:                   0.000
REMARK UNBOUND:                 0.000
REMARK SMILES O=c1ccc2cc(O)c(O)cc2o1
REMARK SMILES IDX 4 1 3 2 2 3 1 4 13 5 12 6 11 7 9 8 7 9 6 10 5 11 8 12 10 14
REMARK H PARENT 8 13 10 15
REMARK Flexibility Score: inf
ROOT
ATOM      1  C   UNL     1     -35.917  -4.998 -14.166  1.00  0.00     0.019 A 
ATOM      2  C   UNL     1     -34.907  -4.907 -15.123  1.00  0.00     0.094 A 
ATOM      3  C   UNL     1     -34.942  -5.764 -16.229  1.00  0.00     0.336 A 
ATOM      4  O   UNL     1     -34.039  -5.698 -17.103  1.00  0.00    -0.246 OA
ATOM      5  O   UNL     1     -35.925  -6.651 -16.363  1.00  0.00    -0.423 OA
ATOM      6  C   UNL     1     -36.908  -6.770 -15.472  1.00  0.00     0.142 A 
ATOM      7  C   UNL     1     -37.915  -7.720 -15.666  1.00  0.00     0.098 A 
ATOM      8  C   UNL     1     -38.951  -7.852 -14.735  1.00  0.00     0.161 A 
ATOM      9  C   UNL     1     -38.983  -7.025 -13.597  1.00  0.00     0.158 A 
ATOM     10  C   UNL     1     -37.976  -6.070 -13.399  1.00  0.00     0.062 A 
ATOM     11  C   UNL     1     -36.938  -5.939 -14.332  1.00  0.00     0.022 A 
ENDROOT
BRANCH   9  12
ATOM     12  O   UNL     1     -40.016  -7.155 -12.669  1.00  0.00    -0.504 OA
ATOM     13  H   UNL     1     -40.271  -8.056 -12.282  1.00  0.00     0.293 HD
ENDBRANCH   9  12
BRANCH   8  14
ATOM     14  O   UNL     1     -39.941  -8.810 -14.957  1.00  0.00    -0.504 OA
ATOM     15  H   UNL     1     -39.800  -9.596 -15.580  1.00  0.00     0.293 HD
ENDBRANCH   8  14
TORSDOF 2
ENDMDL
MODEL 5
REMARK VINA RESULT:    -5.647      5.513      7.659
REMARK INTER + INTRA:          -5.977
REMARK INTER:                  -5.977
REMARK INTRA:                   0.000
REMARK UNBOUND:                 0.000
REMARK SMILES O=c1ccc2cc(O)c(O)cc2o1
REMARK SMILES IDX 4 1 3 2 2 3 1 4 13 5 12 6 11 7 9 8 7 9 6 10 5 11 8 12 10 14
REMARK H PARENT 8 13 10 15
REMARK Flexibility Score: inf
ROOT
ATOM      1  C   UNL     1     -32.841  -5.276 -16.699  1.00  0.00     0.019 A 
ATOM      2  C   UNL     1     -31.587  -4.667 -16.706  1.00  0.00     0.094 A 
ATOM      3  C   UNL     1     -31.409  -3.489 -17.441  1.00  0.00     0.336 A 
ATOM      4  O   UNL     1     -30.285  -2.924 -17.460  1.00  0.00    -0.246 OA
ATOM      5  O   UNL     1     -32.424  -2.961 -18.122  1.00  0.00    -0.423 OA
ATOM      6  C   UNL     1     -33.636  -3.511 -18.142  1.00  0.00     0.142 A 
ATOM      7  C   UNL     1     -34.664  -2.911 -18.875  1.00  0.00     0.098 A 
ATOM      8  C   UNL     1     -35.941  -3.482 -18.902  1.00  0.00     0.161 A 
ATOM      9  C   UNL     1     -36.195  -4.668 -18.186  1.00  0.00     0.158 A 
ATOM     10  C   UNL     1     -35.167  -5.272 -17.448  1.00  0.00     0.062 A 
ATOM     11  C   UNL     1     -33.889  -4.700 -17.423  1.00  0.00     0.022 A 
ENDROOT
BRANCH   9  12
ATOM     12  O   UNL     1     -37.467  -5.237 -18.211  1.00  0.00    -0.504 OA
ATOM     13  H   UNL     1     -37.763  -5.843 -18.968  1.00  0.00     0.293 HD
ENDBRANCH   9  12
BRANCH   8  14
ATOM     14  O   UNL     1     -36.945  -2.860 -19.643  1.00  0.00    -0.504 OA
ATOM     15  H   UNL     1     -37.779  -2.483 -19.209  1.00  0.00     0.293 HD
ENDBRANCH   8  14
TORSDOF 2
ENDMDL
MODEL 6
REMARK VINA RESULT:    -5.560      1.887      4.810
REMARK INTER + INTRA:          -5.886
REMARK INTER:                  -5.886
REMARK INTRA:                   0.000
REMARK UNBOUND:                 0.000
REMARK SMILES O=c1ccc2cc(O)c(O)cc2o1
REMARK SMILES IDX 4 1 3 2 2 3 1 4 13 5 12 6 11 7 9 8 7 9 6 10 5 11 8 12 10 14
REMARK H PARENT 8 13 10 15
REMARK Flexibility Score: inf
ROOT
ATOM      1  C   UNL     1     -40.442  -5.180 -11.565  1.00  0.00     0.019 A 
ATOM      2  C   UNL     1     -39.871  -3.999 -11.091  1.00  0.00     0.094 A 
ATOM      3  C   UNL     1     -38.649  -3.574 -11.624  1.00  0.00     0.336 A 
ATOM      4  O   UNL     1     -38.118  -2.512 -11.208  1.00  0.00    -0.246 OA
ATOM      5  O   UNL     1     -38.042  -4.288 -12.569  1.00  0.00    -0.423 OA
ATOM      6  C   UNL     1     -38.552  -5.421 -13.049  1.00  0.00     0.142 A 
ATOM      7  C   UNL     1     -37.869  -6.129 -14.042  1.00  0.00     0.098 A 
ATOM      8  C   UNL     1     -38.398  -7.319 -14.552  1.00  0.00     0.161 A 
ATOM      9  C   UNL     1     -39.624  -7.810 -14.065  1.00  0.00     0.158 A 
ATOM     10  C   UNL     1     -40.313  -7.102 -13.069  1.00  0.00     0.062 A 
ATOM     11  C   UNL     1     -39.782  -5.910 -12.559  1.00  0.00     0.022 A 
ENDROOT
BRANCH   9  12
ATOM     12  O   UNL     1     -40.152  -8.996 -14.573  1.00  0.00    -0.504 OA
ATOM     13  H   UNL     1     -39.584  -9.645 -15.106  1.00  0.00     0.293 HD
ENDBRANCH   9  12
BRANCH   8  14
ATOM     14  O   UNL     1     -37.693  -8.003 -15.543  1.00  0.00    -0.504 OA
ATOM     15  H   UNL     1     -37.137  -7.519 -16.239  1.00  0.00     0.293 HD
ENDBRANCH   8  14
TORSDOF 2
ENDMDL
MODEL 7
REMARK VINA RESULT:    -5.514      1.094      2.360
REMARK INTER + INTRA:          -5.837
REMARK INTER:                  -5.837
REMARK INTRA:                   0.000
REMARK UNBOUND:                 0.000
REMARK SMILES O=c1ccc2cc(O)c(O)cc2o1
REMARK SMILES IDX 4 1 3 2 2 3 1 4 13 5 12 6 11 7 9 8 7 9 6 10 5 11 8 12 10 14
REMARK H PARENT 8 13 10 15
REMARK Flexibility Score: inf
ROOT
ATOM      1  C   UNL     1     -40.183  -5.748 -12.685  1.00  0.00     0.019 A 
ATOM      2  C   UNL     1     -40.559  -7.039 -13.052  1.00  0.00     0.094 A 
ATOM      3  C   UNL     1     -39.588  -7.911 -13.556  1.00  0.00     0.336 A 
ATOM      4  O   UNL     1     -39.908  -9.081 -13.892  1.00  0.00    -0.246 OA
ATOM      5  O   UNL     1     -38.325  -7.512 -13.682  1.00  0.00    -0.423 OA
ATOM      6  C   UNL     1     -37.923  -6.288 -13.344  1.00  0.00     0.142 A 
ATOM      7  C   UNL     1     -36.582  -5.925 -13.498  1.00  0.00     0.098 A 
ATOM      8  C   UNL     1     -36.152  -4.641 -13.146  1.00  0.00     0.161 A 
ATOM      9  C   UNL     1     -37.073  -3.708 -12.632  1.00  0.00     0.158 A 
ATOM     10  C   UNL     1     -38.419  -4.069 -12.474  1.00  0.00     0.062 A 
ATOM     11  C   UNL     1     -38.848  -5.354 -12.828  1.00  0.00     0.022 A 
ENDROOT
BRANCH   9  12
ATOM     12  O   UNL     1     -36.645  -2.429 -12.280  1.00  0.00    -0.504 OA
ATOM     13  H   UNL     1     -37.286  -1.644 -12.249  1.00  0.00     0.293 HD
ENDBRANCH   9  12
BRANCH   8  14
ATOM     14  O   UNL     1     -34.808  -4.309 -13.312  1.00  0.00    -0.504 OA
ATOM     15  H   UNL     1     -34.197  -4.831 -13.929  1.00  0.00     0.293 HD
ENDBRANCH   8  14
TORSDOF 2
ENDMDL
MODEL 8
REMARK VINA RESULT:    -5.512      2.756      3.882
REMARK INTER + INTRA:          -5.834
REMARK INTER:                  -5.834
REMARK INTRA:                   0.000
REMARK UNBOUND:                 0.000
REMARK SMILES O=c1ccc2cc(O)c(O)cc2o1
REMARK SMILES IDX 4 1 3 2 2 3 1 4 13 5 12 6 11 7 9 8 7 9 6 10 5 11 8 12 10 14
REMARK H PARENT 8 13 10 15
REMARK Flexibility Score: inf
ROOT
ATOM      1  C   UNL     1     -36.547  -4.778 -13.476  1.00  0.00     0.019 A 
ATOM      2  C   UNL     1     -37.745  -5.488 -13.396  1.00  0.00     0.094 A 
ATOM      3  C   UNL     1     -38.078  -6.375 -14.425  1.00  0.00     0.336 A 
ATOM      4  O   UNL     1     -39.155  -7.024 -14.372  1.00  0.00    -0.246 OA
ATOM      5  O   UNL     1     -37.262  -6.538 -15.464  1.00  0.00    -0.423 OA
ATOM      6  C   UNL     1     -36.109  -5.881 -15.579  1.00  0.00     0.142 A 
ATOM      7  C   UNL     1     -35.292  -6.093 -16.693  1.00  0.00     0.098 A 
ATOM      8  C   UNL     1     -34.080  -5.406 -16.822  1.00  0.00     0.161 A 
ATOM      9  C   UNL     1     -33.678  -4.496 -15.826  1.00  0.00     0.158 A 
ATOM     10  C   UNL     1     -34.495  -4.281 -14.706  1.00  0.00     0.062 A 
ATOM     11  C   UNL     1     -35.708  -4.969 -14.578  1.00  0.00     0.022 A 
ENDROOT
BRANCH   9  12
ATOM     12  O   UNL     1     -32.470  -3.812 -15.953  1.00  0.00    -0.504 OA
ATOM     13  H   UNL     1     -31.741  -4.133 -16.580  1.00  0.00     0.293 HD
ENDBRANCH   9  12
BRANCH   8  14
ATOM     14  O   UNL     1     -33.287  -5.639 -17.946  1.00  0.00    -0.504 OA
ATOM     15  H   UNL     1     -32.541  -6.326 -17.945  1.00  0.00     0.293 HD
ENDBRANCH   8  14
TORSDOF 2
ENDMDL
MODEL 9
REMARK VINA RESULT:    -5.468      5.598      8.032
REMARK INTER + INTRA:          -5.787
REMARK INTER:                  -5.787
REMARK INTRA:                   0.000
REMARK UNBOUND:                 0.000
REMARK SMILES O=c1ccc2cc(O)c(O)cc2o1
REMARK SMILES IDX 4 1 3 2 2 3 1 4 13 5 12 6 11 7 9 8 7 9 6 10 5 11 8 12 10 14
REMARK H PARENT 8 13 10 15
REMARK Flexibility Score: inf
ROOT
ATOM      1  C   UNL     1     -33.023  -2.739 -19.318  1.00  0.00     0.019 A 
ATOM      2  C   UNL     1     -31.718  -2.458 -18.912  1.00  0.00     0.094 A 
ATOM      3  C   UNL     1     -31.198  -3.120 -17.795  1.00  0.00     0.336 A 
ATOM      4  O   UNL     1     -30.023  -2.879 -17.414  1.00  0.00    -0.246 OA
ATOM      5  O   UNL     1     -31.937  -4.005 -17.131  1.00  0.00    -0.423 OA
ATOM      6  C   UNL     1     -33.186  -4.302 -17.484  1.00  0.00     0.142 A 
ATOM      7  C   UNL     1     -33.916  -5.241 -16.748  1.00  0.00     0.098 A 
ATOM      8  C   UNL     1     -35.229  -5.559 -17.112  1.00  0.00     0.161 A 
ATOM      9  C   UNL     1     -35.821  -4.933 -18.226  1.00  0.00     0.158 A 
ATOM     10  C   UNL     1     -35.092  -3.992 -18.967  1.00  0.00     0.062 A 
ATOM     11  C   UNL     1     -33.778  -3.674 -18.601  1.00  0.00     0.022 A 
ENDROOT
BRANCH   9  12
ATOM     12  O   UNL     1     -37.128  -5.251 -18.590  1.00  0.00    -0.504 OA
ATOM     13  H   UNL     1     -37.417  -6.209 -18.753  1.00  0.00     0.293 HD
ENDBRANCH   9  12
BRANCH   8  14
ATOM     14  O   UNL     1     -35.931  -6.499 -16.358  1.00  0.00    -0.504 OA
ATOM     15  H   UNL     1     -36.898  -6.360 -16.090  1.00  0.00     0.293 HD
ENDBRANCH   8  14
TORSDOF 2
ENDMDL
