MODEL 1
REMARK VINA RESULT:     1.061      0.000      0.000
REMARK INTER + INTRA:           1.614
REMARK INTER:                   1.309
REMARK INTRA:                   0.305
REMARK UNBOUND:                 0.305
REMARK SMILES O=c1c(O)c(-c2cc(O)c(O)c(O)c2)oc2cc(O)cc(O)c12
REMARK SMILES IDX 5 1 3 2 2 3 1 4 23 5 21 6 20 7 18 8 17 9 16 10 15 11 6 12
REMARK SMILES IDX 7 13 8 14 14 15 10 16 12 17 9 18 11 20 13 22 4 24 22 26
REMARK SMILES IDX 19 28
REMARK H PARENT 9 19 11 21 13 23 4 25 22 27 19 29
REMARK Flexibility Score: inf
ROOT
ATOM      1  C   UNL     1     -11.840 -15.933  30.936  1.00  0.00     0.180 A 
ATOM      2  C   UNL     1     -10.842 -16.840  30.536  1.00  0.00     0.208 A 
ATOM      3  C   UNL     1     -10.805 -17.264  29.198  1.00  0.00     0.238 A 
ATOM      4  O   UNL     1      -9.877 -18.033  28.834  1.00  0.00    -0.285 OA
ATOM      5  C   UNL     1     -11.774 -16.790  28.282  1.00  0.00     0.111 A 
ATOM      6  C   UNL     1     -11.855 -17.185  26.912  1.00  0.00     0.134 A 
ATOM      7  C   UNL     1     -12.774 -16.554  26.065  1.00  0.00     0.093 A 
ATOM      8  C   UNL     1     -13.659 -15.589  26.554  1.00  0.00     0.123 A 
ATOM      9  C   UNL     1     -13.627 -15.240  27.901  1.00  0.00     0.094 A 
ATOM     10  C   UNL     1     -12.697 -15.826  28.763  1.00  0.00     0.146 A 
ATOM     11  O   UNL     1     -12.694 -15.457  30.038  1.00  0.00    -0.452 OA
ENDROOT
BRANCH   1  12
ATOM     12  C   UNL     1     -11.958 -15.459  32.335  1.00  0.00     0.029 A 
ATOM     13  C   UNL     1     -13.214 -15.079  32.830  1.00  0.00     0.062 A 
ATOM     14  C   UNL     1     -13.357 -14.648  34.157  1.00  0.00     0.162 A 
ATOM     15  C   UNL     1     -10.847 -15.437  33.196  1.00  0.00     0.062 A 
ATOM     16  C   UNL     1     -12.242 -14.608  35.003  1.00  0.00     0.200 A 
ATOM     17  C   UNL     1     -10.984 -15.009  34.523  1.00  0.00     0.162 A 
BRANCH  14  18
ATOM     18  O   UNL     1     -14.605 -14.257  34.639  1.00  0.00    -0.504 OA
ATOM     19  H   UNL     1     -15.464 -14.618  34.242  1.00  0.00     0.293 HD
ENDBRANCH  14  18
BRANCH  16  20
ATOM     20  O   UNL     1     -12.402 -14.173  36.319  1.00  0.00    -0.502 OA
ATOM     21  H   UNL     1     -13.305 -13.912  36.695  1.00  0.00     0.293 HD
ENDBRANCH  16  20
BRANCH  17  22
ATOM     22  O   UNL     1      -9.875 -14.984  35.368  1.00  0.00    -0.504 OA
ATOM     23  H   UNL     1      -9.714 -15.712  36.054  1.00  0.00     0.293 HD
ENDBRANCH  17  22
ENDBRANCH   1  12
BRANCH   2  24
ATOM     24  O   UNL     1      -9.882 -17.277  31.452  1.00  0.00    -0.502 OA
ATOM     25  H   UNL     1      -9.819 -16.905  32.393  1.00  0.00     0.293 HD
ENDBRANCH   2  24
BRANCH   6  26
ATOM     26  O   UNL     1     -11.082 -18.203  26.347  1.00  0.00    -0.507 OA
ATOM     27  H   UNL     1     -10.409 -18.072  25.609  1.00  0.00     0.293 HD
ENDBRANCH   6  26
BRANCH   8  28
ATOM     28  O   UNL     1     -14.580 -14.976  25.706  1.00  0.00    -0.508 OA
ATOM     29  H   UNL     1     -14.448 -14.960  24.702  1.00  0.00     0.293 HD
ENDBRANCH   8  28
TORSDOF 7
ENDMDL
MODEL 2
REMARK VINA RESULT:     1.088      0.063      1.750
REMARK INTER + INTRA:           1.648
REMARK INTER:                   1.316
REMARK INTRA:                   0.332
REMARK UNBOUND:                 0.305
REMARK SMILES O=c1c(O)c(-c2cc(O)c(O)c(O)c2)oc2cc(O)cc(O)c12
REMARK SMILES IDX 5 1 3 2 2 3 1 4 23 5 21 6 20 7 18 8 17 9 16 10 15 11 6 12
REMARK SMILES IDX 7 13 8 14 14 15 10 16 12 17 9 18 11 20 13 22 4 24 22 26
REMARK SMILES IDX 19 28
REMARK H PARENT 9 19 11 21 13 23 4 25 22 27 19 29
REMARK Flexibility Score: inf
ROOT
ATOM      1  C   UNL     1     -11.890 -15.965  30.904  1.00  0.00     0.180 A 
ATOM      2  C   UNL     1     -10.876 -16.855  30.504  1.00  0.00     0.208 A 
ATOM      3  C   UNL     1     -10.816 -17.257  29.160  1.00  0.00     0.238 A 
ATOM      4  O   UNL     1      -9.875 -18.010  28.797  1.00  0.00    -0.285 OA
ATOM      5  C   UNL     1     -11.777 -16.778  28.237  1.00  0.00     0.111 A 
ATOM      6  C   UNL     1     -11.834 -17.151  26.861  1.00  0.00     0.134 A 
ATOM      7  C   UNL     1     -12.748 -16.516  26.010  1.00  0.00     0.093 A 
ATOM      8  C   UNL     1     -13.649 -15.568  26.502  1.00  0.00     0.123 A 
ATOM      9  C   UNL     1     -13.641 -15.241  27.855  1.00  0.00     0.094 A 
ATOM     10  C   UNL     1     -12.717 -15.831  28.721  1.00  0.00     0.146 A 
ATOM     11  O   UNL     1     -12.736 -15.483  30.001  1.00  0.00    -0.452 OA
ENDROOT
BRANCH   1  12
ATOM     12  C   UNL     1     -12.033 -15.515  32.308  1.00  0.00     0.029 A 
ATOM     13  C   UNL     1     -10.898 -15.448  33.131  1.00  0.00     0.062 A 
ATOM     14  C   UNL     1     -11.004 -15.005  34.456  1.00  0.00     0.162 A 
ATOM     15  C   UNL     1     -13.274 -15.098  32.819  1.00  0.00     0.062 A 
ATOM     16  C   UNL     1     -12.247 -14.611  34.966  1.00  0.00     0.200 A 
ATOM     17  C   UNL     1     -13.385 -14.653  34.143  1.00  0.00     0.162 A 
BRANCH  14  18
ATOM     18  O   UNL     1      -9.875 -14.954  35.273  1.00  0.00    -0.504 OA
ATOM     19  H   UNL     1      -8.947 -14.820  34.888  1.00  0.00     0.293 HD
ENDBRANCH  14  18
BRANCH  16  20
ATOM     20  O   UNL     1     -12.333 -14.176  36.289  1.00  0.00    -0.502 OA
ATOM     21  H   UNL     1     -12.875 -13.363  36.555  1.00  0.00     0.293 HD
ENDBRANCH  16  20
BRANCH  17  22
ATOM     22  O   UNL     1     -14.622 -14.247  34.643  1.00  0.00    -0.504 OA
ATOM     23  H   UNL     1     -15.150 -14.825  35.287  1.00  0.00     0.293 HD
ENDBRANCH  17  22
ENDBRANCH   1  12
BRANCH   2  24
ATOM     24  O   UNL     1      -9.925 -17.297  31.427  1.00  0.00    -0.502 OA
ATOM     25  H   UNL     1      -9.708 -18.278  31.556  1.00  0.00     0.293 HD
ENDBRANCH   2  24
BRANCH   6  26
ATOM     26  O   UNL     1     -11.043 -18.152  26.290  1.00  0.00    -0.507 OA
ATOM     27  H   UNL     1     -10.871 -19.055  26.704  1.00  0.00     0.293 HD
ENDBRANCH   6  26
BRANCH   8  28
ATOM     28  O   UNL     1     -14.565 -14.952  25.651  1.00  0.00    -0.508 OA
ATOM     29  H   UNL     1     -15.405 -15.428  25.342  1.00  0.00     0.293 HD
ENDBRANCH   8  28
TORSDOF 7
ENDMDL
MODEL 3
REMARK VINA RESULT:     1.319      1.515      3.435
REMARK INTER + INTRA:           1.933
REMARK INTER:                   1.421
REMARK INTRA:                   0.512
REMARK UNBOUND:                 0.305
REMARK SMILES O=c1c(O)c(-c2cc(O)c(O)c(O)c2)oc2cc(O)cc(O)c12
REMARK SMILES IDX 5 1 3 2 2 3 1 4 23 5 21 6 20 7 18 8 17 9 16 10 15 11 6 12
REMARK SMILES IDX 7 13 8 14 14 15 10 16 12 17 9 18 11 20 13 22 4 24 22 26
REMARK SMILES IDX 19 28
REMARK H PARENT 9 19 11 21 13 23 4 25 22 27 19 29
REMARK Flexibility Score: inf
ROOT
ATOM      1  C   UNL     1     -12.623 -15.051  32.809  1.00  0.00     0.180 A 
ATOM      2  C   UNL     1     -13.821 -14.644  32.196  1.00  0.00     0.208 A 
ATOM      3  C   UNL     1     -13.996 -14.879  30.822  1.00  0.00     0.238 A 
ATOM      4  O   UNL     1     -15.092 -14.561  30.291  1.00  0.00    -0.285 OA
ATOM      5  C   UNL     1     -12.966 -15.502  30.077  1.00  0.00     0.111 A 
ATOM      6  C   UNL     1     -13.020 -15.752  28.673  1.00  0.00     0.134 A 
ATOM      7  C   UNL     1     -11.999 -16.492  28.063  1.00  0.00     0.093 A 
ATOM      8  C   UNL     1     -10.894 -16.933  28.796  1.00  0.00     0.123 A 
ATOM      9  C   UNL     1     -10.804 -16.642  30.155  1.00  0.00     0.094 A 
ATOM     10  C   UNL     1     -11.824 -15.938  30.798  1.00  0.00     0.146 A 
ATOM     11  O   UNL     1     -11.703 -15.691  32.096  1.00  0.00    -0.452 OA
ENDROOT
BRANCH   1  12
ATOM     12  C   UNL     1     -12.355 -14.816  34.247  1.00  0.00     0.029 A 
ATOM     13  C   UNL     1     -13.275 -14.080  35.009  1.00  0.00     0.062 A 
ATOM     14  C   UNL     1     -13.056 -13.863  36.376  1.00  0.00     0.162 A 
ATOM     15  C   UNL     1     -11.225 -15.363  34.880  1.00  0.00     0.062 A 
ATOM     16  C   UNL     1     -11.918 -14.392  36.996  1.00  0.00     0.200 A 
ATOM     17  C   UNL     1     -11.002 -15.149  36.247  1.00  0.00     0.162 A 
BRANCH  14  18
ATOM     18  O   UNL     1     -13.967 -13.119  37.125  1.00  0.00    -0.504 OA
ATOM     19  H   UNL     1     -14.539 -12.398  36.701  1.00  0.00     0.293 HD
ENDBRANCH  14  18
BRANCH  16  20
ATOM     20  O   UNL     1     -11.715 -14.162  38.357  1.00  0.00    -0.502 OA
ATOM     21  H   UNL     1     -12.398 -14.425  39.057  1.00  0.00     0.293 HD
ENDBRANCH  16  20
BRANCH  17  22
ATOM     22  O   UNL     1      -9.875 -15.691  36.864  1.00  0.00    -0.504 OA
ATOM     23  H   UNL     1      -9.094 -15.111  37.146  1.00  0.00     0.293 HD
ENDBRANCH  17  22
ENDBRANCH   1  12
BRANCH   2  24
ATOM     24  O   UNL     1     -14.833 -14.051  32.955  1.00  0.00    -0.502 OA
ATOM     25  H   UNL     1     -14.678 -13.713  33.898  1.00  0.00     0.293 HD
ENDBRANCH   2  24
BRANCH   6  26
ATOM     26  O   UNL     1     -14.032 -15.275  27.834  1.00  0.00    -0.507 OA
ATOM     27  H   UNL     1     -14.176 -14.306  27.600  1.00  0.00     0.293 HD
ENDBRANCH   6  26
BRANCH   8  28
ATOM     28  O   UNL     1      -9.875 -17.655  28.178  1.00  0.00    -0.508 OA
ATOM     29  H   UNL     1      -9.995 -18.058  27.256  1.00  0.00     0.293 HD
ENDBRANCH   8  28
TORSDOF 7
ENDMDL
MODEL 4
REMARK VINA RESULT:     2.631      2.102      7.470
REMARK INTER + INTRA:           3.551
REMARK INTER:                   3.848
REMARK INTRA:                  -0.297
REMARK UNBOUND:                 0.305
REMARK SMILES O=c1c(O)c(-c2cc(O)c(O)c(O)c2)oc2cc(O)cc(O)c12
REMARK SMILES IDX 5 1 3 2 2 3 1 4 23 5 21 6 20 7 18 8 17 9 16 10 15 11 6 12
REMARK SMILES IDX 7 13 8 14 14 15 10 16 12 17 9 18 11 20 13 22 4 24 22 26
REMARK SMILES IDX 19 28
REMARK H PARENT 9 19 11 21 13 23 4 25 22 27 19 29
REMARK Flexibility Score: inf
ROOT
ATOM      1  C   UNL     1     -12.572 -15.730  32.136  1.00  0.00     0.180 A 
ATOM      2  C   UNL     1     -13.783 -15.032  32.294  1.00  0.00     0.208 A 
ATOM      3  C   UNL     1     -14.020 -14.346  33.495  1.00  0.00     0.238 A 
ATOM      4  O   UNL     1     -15.081 -13.678  33.609  1.00  0.00    -0.285 OA
ATOM      5  C   UNL     1     -13.054 -14.379  34.529  1.00  0.00     0.111 A 
ATOM      6  C   UNL     1     -13.208 -13.753  35.803  1.00  0.00     0.134 A 
ATOM      7  C   UNL     1     -12.134 -13.741  36.701  1.00  0.00     0.093 A 
ATOM      8  C   UNL     1     -10.934 -14.390  36.396  1.00  0.00     0.123 A 
ATOM      9  C   UNL     1     -10.795 -15.054  35.181  1.00  0.00     0.094 A 
ATOM     10  C   UNL     1     -11.836 -15.052  34.249  1.00  0.00     0.146 A 
ATOM     11  O   UNL     1     -11.658 -15.689  33.099  1.00  0.00    -0.452 OA
ENDROOT
BRANCH   1  12
ATOM     12  C   UNL     1     -12.260 -16.498  30.908  1.00  0.00     0.029 A 
ATOM     13  C   UNL     1     -12.901 -17.725  30.680  1.00  0.00     0.062 A 
ATOM     14  C   UNL     1     -12.640 -18.460  29.515  1.00  0.00     0.162 A 
ATOM     15  C   UNL     1     -11.378 -15.996  29.936  1.00  0.00     0.062 A 
ATOM     16  C   UNL     1     -11.743 -17.964  28.561  1.00  0.00     0.200 A 
ATOM     17  C   UNL     1     -11.114 -16.725  28.769  1.00  0.00     0.162 A 
BRANCH  14  18
ATOM     18  O   UNL     1     -13.268 -19.686  29.301  1.00  0.00    -0.504 OA
ATOM     19  H   UNL     1     -14.248 -19.825  29.516  1.00  0.00     0.293 HD
ENDBRANCH  14  18
BRANCH  16  20
ATOM     20  O   UNL     1     -11.493 -18.711  27.409  1.00  0.00    -0.502 OA
ATOM     21  H   UNL     1     -11.028 -19.610  27.439  1.00  0.00     0.293 HD
ENDBRANCH  16  20
BRANCH  17  22
ATOM     22  O   UNL     1     -10.233 -16.222  27.813  1.00  0.00    -0.504 OA
ATOM     23  H   UNL     1     -10.530 -16.033  26.863  1.00  0.00     0.293 HD
ENDBRANCH  17  22
ENDBRANCH   1  12
BRANCH   2  24
ATOM     24  O   UNL     1     -14.712 -14.994  31.251  1.00  0.00    -0.502 OA
ATOM     25  H   UNL     1     -14.506 -15.348  30.325  1.00  0.00     0.293 HD
ENDBRANCH   2  24
BRANCH   6  26
ATOM     26  O   UNL     1     -14.395 -13.159  36.241  1.00  0.00    -0.507 OA
ATOM     27  H   UNL     1     -15.319 -13.514  36.053  1.00  0.00     0.293 HD
ENDBRANCH   6  26
BRANCH   8  28
ATOM     28  O   UNL     1      -9.875 -14.385  37.303  1.00  0.00    -0.508 OA
ATOM     29  H   UNL     1      -9.981 -14.746  38.244  1.00  0.00     0.293 HD
ENDBRANCH   8  28
TORSDOF 7
ENDMDL
MODEL 5
REMARK VINA RESULT:     3.220      1.867      3.531
REMARK INTER + INTRA:           4.278
REMARK INTER:                   4.266
REMARK INTRA:                   0.012
REMARK UNBOUND:                 0.305
REMARK SMILES O=c1c(O)c(-c2cc(O)c(O)c(O)c2)oc2cc(O)cc(O)c12
REMARK SMILES IDX 5 1 3 2 2 3 1 4 23 5 21 6 20 7 18 8 17 9 16 10 15 11 6 12
REMARK SMILES IDX 7 13 8 14 14 15 10 16 12 17 9 18 11 20 13 22 4 24 22 26
REMARK SMILES IDX 19 28
REMARK H PARENT 9 19 11 21 13 23 4 25 22 27 19 29
REMARK Flexibility Score: inf
ROOT
ATOM      1  C   UNL     1     -12.870 -15.792  31.732  1.00  0.00     0.180 A 
ATOM      2  C   UNL     1     -13.407 -15.015  30.689  1.00  0.00     0.208 A 
ATOM      3  C   UNL     1     -13.582 -15.601  29.425  1.00  0.00     0.238 A 
ATOM      4  O   UNL     1     -14.113 -14.917  28.511  1.00  0.00    -0.285 OA
ATOM      5  C   UNL     1     -13.204 -16.949  29.215  1.00  0.00     0.111 A 
ATOM      6  C   UNL     1     -13.299 -17.631  27.964  1.00  0.00     0.134 A 
ATOM      7  C   UNL     1     -13.017 -19.001  27.902  1.00  0.00     0.093 A 
ATOM      8  C   UNL     1     -12.581 -19.698  29.032  1.00  0.00     0.123 A 
ATOM      9  C   UNL     1     -12.428 -19.028  30.243  1.00  0.00     0.094 A 
ATOM     10  C   UNL     1     -12.736 -17.669  30.344  1.00  0.00     0.146 A 
ATOM     11  O   UNL     1     -12.586 -17.071  31.519  1.00  0.00    -0.452 OA
ENDROOT
BRANCH   1  12
ATOM     12  C   UNL     1     -12.633 -15.237  33.085  1.00  0.00     0.029 A 
ATOM     13  C   UNL     1     -11.377 -15.401  33.688  1.00  0.00     0.062 A 
ATOM     14  C   UNL     1     -11.121 -14.867  34.958  1.00  0.00     0.162 A 
ATOM     15  C   UNL     1     -13.623 -14.499  33.756  1.00  0.00     0.062 A 
ATOM     16  C   UNL     1     -12.118 -14.151  35.631  1.00  0.00     0.200 A 
ATOM     17  C   UNL     1     -13.372 -13.962  35.026  1.00  0.00     0.162 A 
BRANCH  14  18
ATOM     18  O   UNL     1      -9.875 -15.046  35.558  1.00  0.00    -0.504 OA
ATOM     19  H   UNL     1      -9.322 -15.878  35.394  1.00  0.00     0.293 HD
ENDBRANCH  14  18
BRANCH  16  20
ATOM     20  O   UNL     1     -11.846 -13.629  36.896  1.00  0.00    -0.502 OA
ATOM     21  H   UNL     1     -12.580 -13.318  37.520  1.00  0.00     0.293 HD
ENDBRANCH  16  20
BRANCH  17  22
ATOM     22  O   UNL     1     -14.363 -13.236  35.686  1.00  0.00    -0.504 OA
ATOM     23  H   UNL     1     -14.138 -12.588  36.432  1.00  0.00     0.293 HD
ENDBRANCH  17  22
ENDBRANCH   1  12
BRANCH   2  24
ATOM     24  O   UNL     1     -13.795 -13.694  30.926  1.00  0.00    -0.502 OA
ATOM     25  H   UNL     1     -14.711 -13.452  31.285  1.00  0.00     0.293 HD
ENDBRANCH   2  24
BRANCH   6  26
ATOM     26  O   UNL     1     -13.635 -17.007  26.759  1.00  0.00    -0.507 OA
ATOM     27  H   UNL     1     -13.508 -17.415  25.846  1.00  0.00     0.293 HD
ENDBRANCH   6  26
BRANCH   8  28
ATOM     28  O   UNL     1     -12.289 -21.059  28.957  1.00  0.00    -0.508 OA
ATOM     29  H   UNL     1     -11.551 -21.411  28.358  1.00  0.00     0.293 HD
ENDBRANCH   8  28
TORSDOF 7
ENDMDL
MODEL 6
REMARK VINA RESULT:     3.599      1.850      2.192
REMARK INTER + INTRA:           4.745
REMARK INTER:                   5.049
REMARK INTRA:                  -0.304
REMARK UNBOUND:                 0.305
REMARK SMILES O=c1c(O)c(-c2cc(O)c(O)c(O)c2)oc2cc(O)cc(O)c12
REMARK SMILES IDX 5 1 3 2 2 3 1 4 23 5 21 6 20 7 18 8 17 9 16 10 15 11 6 12
REMARK SMILES IDX 7 13 8 14 14 15 10 16 12 17 9 18 11 20 13 22 4 24 22 26
REMARK SMILES IDX 19 28
REMARK H PARENT 9 19 11 21 13 23 4 25 22 27 19 29
REMARK Flexibility Score: inf
ROOT
ATOM      1  C   UNL     1     -12.448 -16.546  31.587  1.00  0.00     0.180 A 
ATOM      2  C   UNL     1     -13.066 -17.809  31.618  1.00  0.00     0.208 A 
ATOM      3  C   UNL     1     -13.146 -18.557  30.433  1.00  0.00     0.238 A 
ATOM      4  O   UNL     1     -13.652 -19.709  30.479  1.00  0.00    -0.285 OA
ATOM      5  C   UNL     1     -12.622 -18.028  29.229  1.00  0.00     0.111 A 
ATOM      6  C   UNL     1     -12.685 -18.682  27.961  1.00  0.00     0.134 A 
ATOM      7  C   UNL     1     -12.019 -18.124  26.863  1.00  0.00     0.093 A 
ATOM      8  C   UNL     1     -11.349 -16.903  26.972  1.00  0.00     0.123 A 
ATOM      9  C   UNL     1     -11.333 -16.228  28.190  1.00  0.00     0.094 A 
ATOM     10  C   UNL     1     -11.957 -16.777  29.312  1.00  0.00     0.146 A 
ATOM     11  O   UNL     1     -11.909 -16.106  30.456  1.00  0.00    -0.452 OA
ENDROOT
BRANCH   1  12
ATOM     12  C   UNL     1     -12.348 -15.688  32.790  1.00  0.00     0.029 A 
ATOM     13  C   UNL     1     -13.486 -15.007  33.249  1.00  0.00     0.062 A 
ATOM     14  C   UNL     1     -13.423 -14.207  34.398  1.00  0.00     0.162 A 
ATOM     15  C   UNL     1     -11.150 -15.586  33.518  1.00  0.00     0.062 A 
ATOM     16  C   UNL     1     -12.220 -14.093  35.106  1.00  0.00     0.200 A 
ATOM     17  C   UNL     1     -11.081 -14.789  34.668  1.00  0.00     0.162 A 
BRANCH  14  18
ATOM     18  O   UNL     1     -14.553 -13.521  34.840  1.00  0.00    -0.504 OA
ATOM     19  H   UNL     1     -15.153 -13.898  35.563  1.00  0.00     0.293 HD
ENDBRANCH  14  18
BRANCH  16  20
ATOM     20  O   UNL     1     -12.175 -13.289  36.246  1.00  0.00    -0.502 OA
ATOM     21  H   UNL     1     -11.492 -13.431  36.980  1.00  0.00     0.293 HD
ENDBRANCH  16  20
BRANCH  17  22
ATOM     22  O   UNL     1      -9.887 -14.690  35.380  1.00  0.00    -0.504 OA
ATOM     23  H   UNL     1      -9.669 -15.320  36.143  1.00  0.00     0.293 HD
ENDBRANCH  17  22
ENDBRANCH   1  12
BRANCH   2  24
ATOM     24  O   UNL     1     -13.556 -18.321  32.822  1.00  0.00    -0.502 OA
ATOM     25  H   UNL     1     -13.329 -19.253  33.149  1.00  0.00     0.293 HD
ENDBRANCH   2  24
BRANCH   6  26
ATOM     26  O   UNL     1     -13.405 -19.856  27.725  1.00  0.00    -0.507 OA
ATOM     27  H   UNL     1     -14.318 -19.895  27.299  1.00  0.00     0.293 HD
ENDBRANCH   6  26
BRANCH   8  28
ATOM     28  O   UNL     1     -10.702 -16.348  25.869  1.00  0.00    -0.508 OA
ATOM     29  H   UNL     1     -10.260 -16.928  25.166  1.00  0.00     0.293 HD
ENDBRANCH   8  28
TORSDOF 7
ENDMDL
MODEL 7
REMARK VINA RESULT:     3.941      1.926      3.076
REMARK INTER + INTRA:           5.167
REMARK INTER:                   4.646
REMARK INTRA:                   0.521
REMARK UNBOUND:                 0.305
REMARK SMILES O=c1c(O)c(-c2cc(O)c(O)c(O)c2)oc2cc(O)cc(O)c12
REMARK SMILES IDX 5 1 3 2 2 3 1 4 23 5 21 6 20 7 18 8 17 9 16 10 15 11 6 12
REMARK SMILES IDX 7 13 8 14 14 15 10 16 12 17 9 18 11 20 13 22 4 24 22 26
REMARK SMILES IDX 19 28
REMARK H PARENT 9 19 11 21 13 23 4 25 22 27 19 29
REMARK Flexibility Score: inf
ROOT
ATOM      1  C   UNL     1     -12.587 -14.948  32.756  1.00  0.00     0.180 A 
ATOM      2  C   UNL     1     -11.667 -15.628  31.937  1.00  0.00     0.208 A 
ATOM      3  C   UNL     1     -11.944 -15.759  30.567  1.00  0.00     0.238 A 
ATOM      4  O   UNL     1     -11.092 -16.321  29.830  1.00  0.00    -0.285 OA
ATOM      5  C   UNL     1     -13.143 -15.225  30.036  1.00  0.00     0.111 A 
ATOM      6  C   UNL     1     -13.544 -15.336  28.670  1.00  0.00     0.134 A 
ATOM      7  C   UNL     1     -14.687 -14.658  28.229  1.00  0.00     0.093 A 
ATOM      8  C   UNL     1     -15.478 -13.926  29.119  1.00  0.00     0.123 A 
ATOM      9  C   UNL     1     -15.127 -13.862  30.465  1.00  0.00     0.094 A 
ATOM     10  C   UNL     1     -13.973 -14.498  30.927  1.00  0.00     0.146 A 
ATOM     11  O   UNL     1     -13.670 -14.402  32.216  1.00  0.00    -0.452 OA
ENDROOT
BRANCH   1  12
ATOM     12  C   UNL     1     -12.376 -14.790  34.213  1.00  0.00     0.029 A 
ATOM     13  C   UNL     1     -11.236 -15.349  34.810  1.00  0.00     0.062 A 
ATOM     14  C   UNL     1     -11.002 -15.196  36.184  1.00  0.00     0.162 A 
ATOM     15  C   UNL     1     -13.265 -14.042  35.004  1.00  0.00     0.062 A 
ATOM     16  C   UNL     1     -11.903 -14.467  36.970  1.00  0.00     0.200 A 
ATOM     17  C   UNL     1     -13.035 -13.884  36.378  1.00  0.00     0.162 A 
BRANCH  14  18
ATOM     18  O   UNL     1      -9.875 -15.766  36.774  1.00  0.00    -0.504 OA
ATOM     19  H   UNL     1      -9.044 -15.220  36.968  1.00  0.00     0.293 HD
ENDBRANCH  14  18
BRANCH  16  20
ATOM     20  O   UNL     1     -11.655 -14.327  38.336  1.00  0.00    -0.502 OA
ATOM     21  H   UNL     1     -12.402 -14.301  39.020  1.00  0.00     0.293 HD
ENDBRANCH  16  20
BRANCH  17  22
ATOM     22  O   UNL     1     -13.926 -13.145  37.155  1.00  0.00    -0.504 OA
ATOM     23  H   UNL     1     -14.618 -12.535  36.735  1.00  0.00     0.293 HD
ENDBRANCH  17  22
ENDBRANCH   1  12
BRANCH   2  24
ATOM     24  O   UNL     1     -10.479 -16.127  32.478  1.00  0.00    -0.502 OA
ATOM     25  H   UNL     1     -10.464 -16.892  33.142  1.00  0.00     0.293 HD
ENDBRANCH   2  24
BRANCH   6  26
ATOM     26  O   UNL     1     -12.876 -16.117  27.722  1.00  0.00    -0.507 OA
ATOM     27  H   UNL     1     -12.665 -15.823  26.781  1.00  0.00     0.293 HD
ENDBRANCH   6  26
BRANCH   8  28
ATOM     28  O   UNL     1     -16.622 -13.267  28.673  1.00  0.00    -0.508 OA
ATOM     29  H   UNL     1     -17.354 -12.983  29.314  1.00  0.00     0.293 HD
ENDBRANCH   8  28
TORSDOF 7
ENDMDL
