MODEL 1
REMARK VINA RESULT:     0.000      0.000      0.000
REMARK INTER + INTRA:          -7.719
REMARK INTER:                   0.000
REMARK INTRA:                  -7.719
REMARK UNBOUND:                -7.719
REMARK SMILES CCCCCCCCCCCCCCCCCCCCCCCCCCCCCC(=O)[O-]
REMARK SMILES IDX 16 1 17 2 18 3 19 4 20 5 21 6 22 7 23 8 24 9 25 10 26 11
REMARK SMILES IDX 27 12 28 13 29 14 30 15 31 16 32 17 15 18 14 19 13 20 12 21
REMARK SMILES IDX 11 22 10 23 9 24 8 25 7 26 6 27 5 28 4 29 3 30 2 31 1 32
REMARK H PARENT
REMARK Flexibility Score: inf
ROOT
ATOM      1  C   UNL     1     180.717 185.066 191.327  1.00  0.00     0.000 C 
ENDROOT
BRANCH   1   2
ATOM      2  C   UNL     1     179.282 185.218 190.780  1.00  0.00     0.000 C 
BRANCH   2   3
ATOM      3  C   UNL     1     179.190 185.985 189.447  1.00  0.00     0.000 C 
BRANCH   3   4
ATOM      4  C   UNL     1     178.133 187.102 189.402  1.00  0.00     0.000 C 
BRANCH   4   5
ATOM      5  C   UNL     1     177.450 187.418 190.747  1.00  0.00     0.000 C 
BRANCH   5   6
ATOM      6  C   UNL     1     177.680 188.844 191.278  1.00  0.00     0.000 C 
BRANCH   6   7
ATOM      7  C   UNL     1     177.735 188.903 192.815  1.00  0.00     0.000 C 
BRANCH   7   8
ATOM      8  C   UNL     1     178.566 190.091 193.329  1.00  0.00     0.000 C 
BRANCH   8   9
ATOM      9  C   UNL     1     178.496 191.308 192.394  1.00  0.00     0.000 C 
BRANCH   9  10
ATOM     10  C   UNL     1     179.842 192.047 192.357  1.00  0.00     0.000 C 
BRANCH  10  11
ATOM     11  C   UNL     1     180.625 191.924 193.677  1.00  0.00     0.000 C 
BRANCH  11  12
ATOM     12  C   UNL     1     182.147 191.996 193.472  1.00  0.00     0.000 C 
BRANCH  12  13
ATOM     13  C   UNL     1     182.549 192.152 191.995  1.00  0.00     0.006 C 
BRANCH  13  14
ATOM     14  C   UNL     1     183.965 191.639 191.674  1.00  0.00     0.053 C 
BRANCH  14  15
ATOM     15  C   UNL     1     184.144 191.309 190.223  1.00  0.00     0.041 C 
ATOM     16  O   UNL     1     183.718 192.096 189.337  1.00  0.00    -0.550 OA
ATOM     17  O   UNL     1     184.761 190.122 189.848  1.00  0.00    -0.550 OA
ENDBRANCH  14  15
ENDBRANCH  13  14
ENDBRANCH  12  13
ENDBRANCH  11  12
ENDBRANCH  10  11
ENDBRANCH   9  10
ENDBRANCH   8   9
ENDBRANCH   7   8
ENDBRANCH   6   7
ENDBRANCH   5   6
ENDBRANCH   4   5
ENDBRANCH   3   4
ENDBRANCH   2   3
ENDBRANCH   1   2
BRANCH   1  18
ATOM     18  C   UNL     1     180.779 185.108 192.863  1.00  0.00     0.000 C 
BRANCH  18  19
ATOM     19  C   UNL     1     179.531 185.781 193.450  1.00  0.00     0.000 C 
BRANCH  19  20
ATOM     20  C   UNL     1     179.867 186.534 194.746  1.00  0.00     0.000 C 
BRANCH  20  21
ATOM     21  C   UNL     1     181.352 186.920 194.852  1.00  0.00     0.000 C 
BRANCH  21  22
ATOM     22  C   UNL     1     181.662 188.357 194.379  1.00  0.00     0.000 C 
BRANCH  22  23
ATOM     23  C   UNL     1     182.981 188.437 193.590  1.00  0.00     0.000 C 
BRANCH  23  24
ATOM     24  C   UNL     1     182.793 188.147 192.092  1.00  0.00    -0.000 C 
BRANCH  24  25
ATOM     25  C   UNL     1     181.443 188.655 191.560  1.00  0.00    -0.000 C 
BRANCH  25  26
ATOM     26  C   UNL     1     181.453 188.753 190.027  1.00  0.00    -0.000 C 
BRANCH  26  27
ATOM     27  C   UNL     1     180.707 189.995 189.511  1.00  0.00    -0.000 C 
BRANCH  27  28
ATOM     28  C   UNL     1     180.298 189.870 188.032  1.00  0.00    -0.000 C 
BRANCH  28  29
ATOM     29  C   UNL     1     178.847 190.334 187.786  1.00  0.00    -0.000 C 
BRANCH  29  30
ATOM     30  C   UNL     1     178.382 191.434 188.756  1.00  0.00    -0.000 C 
BRANCH  30  31
ATOM     31  C   UNL     1     178.728 192.848 188.266  1.00  0.00    -0.003 C 
ATOM     32  C   UNL     1     178.552 193.874 189.382  1.00  0.00     0.004 C 
ENDBRANCH  30  31
ENDBRANCH  29  30
ENDBRANCH  28  29
ENDBRANCH  27  28
ENDBRANCH  26  27
ENDBRANCH  25  26
ENDBRANCH  24  25
ENDBRANCH  23  24
ENDBRANCH  22  23
ENDBRANCH  21  22
ENDBRANCH  20  21
ENDBRANCH  19  20
ENDBRANCH  18  19
ENDBRANCH   1  18
TORSDOF 28
ENDMDL
MODEL 2
REMARK VINA RESULT:     0.013      8.229     11.438
REMARK INTER + INTRA:          -7.686
REMARK INTER:                   0.000
REMARK INTRA:                  -7.686
REMARK UNBOUND:                -7.719
REMARK SMILES CCCCCCCCCCCCCCCCCCCCCCCCCCCCCC(=O)[O-]
REMARK SMILES IDX 16 1 17 2 18 3 19 4 20 5 21 6 22 7 23 8 24 9 25 10 26 11
REMARK SMILES IDX 27 12 28 13 29 14 30 15 31 16 32 17 15 18 14 19 13 20 12 21
REMARK SMILES IDX 11 22 10 23 9 24 8 25 7 26 6 27 5 28 4 29 3 30 2 31 1 32
REMARK H PARENT
REMARK Flexibility Score: inf
ROOT
ATOM      1  C   UNL     1     173.298 190.548 193.978  1.00  0.00     0.000 C 
ENDROOT
BRANCH   1   2
ATOM      2  C   UNL     1     173.718 191.267 192.679  1.00  0.00     0.000 C 
BRANCH   2   3
ATOM      3  C   UNL     1     174.175 192.724 192.881  1.00  0.00     0.000 C 
BRANCH   3   4
ATOM      4  C   UNL     1     173.332 193.785 192.153  1.00  0.00     0.000 C 
BRANCH   4   5
ATOM      5  C   UNL     1     172.470 194.682 193.064  1.00  0.00     0.000 C 
BRANCH   5   6
ATOM      6  C   UNL     1     170.997 194.256 193.196  1.00  0.00     0.000 C 
BRANCH   6   7
ATOM      7  C   UNL     1     170.478 193.523 191.946  1.00  0.00     0.000 C 
BRANCH   7   8
ATOM      8  C   UNL     1     170.015 192.089 192.253  1.00  0.00     0.000 C 
BRANCH   8   9
ATOM      9  C   UNL     1     170.340 191.107 191.117  1.00  0.00     0.000 C 
BRANCH   9  10
ATOM     10  C   UNL     1     170.438 189.669 191.649  1.00  0.00     0.000 C 
BRANCH  10  11
ATOM     11  C   UNL     1     169.839 189.513 193.057  1.00  0.00     0.000 C 
BRANCH  11  12
ATOM     12  C   UNL     1     170.389 188.286 193.804  1.00  0.00     0.000 C 
BRANCH  12  13
ATOM     13  C   UNL     1     169.852 188.166 195.241  1.00  0.00     0.006 C 
BRANCH  13  14
ATOM     14  C   UNL     1     170.805 187.439 196.206  1.00  0.00     0.053 C 
BRANCH  14  15
ATOM     15  C   UNL     1     170.322 187.470 197.626  1.00  0.00     0.041 C 
ATOM     16  O   UNL     1     171.018 188.019 198.519  1.00  0.00    -0.550 OA
ATOM     17  O   UNL     1     169.114 186.873 197.965  1.00  0.00    -0.550 OA
ENDBRANCH  14  15
ENDBRANCH  13  14
ENDBRANCH  12  13
ENDBRANCH  11  12
ENDBRANCH  10  11
ENDBRANCH   9  10
ENDBRANCH   8   9
ENDBRANCH   7   8
ENDBRANCH   6   7
ENDBRANCH   5   6
ENDBRANCH   4   5
ENDBRANCH   3   4
ENDBRANCH   2   3
ENDBRANCH   1   2
BRANCH   1  18
ATOM     18  C   UNL     1     172.507 191.455 194.935  1.00  0.00     0.000 C 
BRANCH  18  19
ATOM     19  C   UNL     1     172.335 190.796 196.310  1.00  0.00     0.000 C 
BRANCH  19  20
ATOM     20  C   UNL     1     171.009 191.214 196.961  1.00  0.00     0.000 C 
BRANCH  20  21
ATOM     21  C   UNL     1     170.011 191.825 195.962  1.00  0.00     0.000 C 
BRANCH  21  22
ATOM     22  C   UNL     1     169.395 193.162 196.428  1.00  0.00     0.000 C 
BRANCH  22  23
ATOM     23  C   UNL     1     170.371 193.981 197.290  1.00  0.00     0.000 C 
BRANCH  23  24
ATOM     24  C   UNL     1     170.675 195.363 196.688  1.00  0.00    -0.000 C 
BRANCH  24  25
ATOM     25  C   UNL     1     172.179 195.681 196.676  1.00  0.00    -0.000 C 
BRANCH  25  26
ATOM     26  C   UNL     1     173.010 194.433 197.009  1.00  0.00    -0.000 C 
BRANCH  26  27
ATOM     27  C   UNL     1     174.352 194.402 196.258  1.00  0.00    -0.000 C 
BRANCH  27  28
ATOM     28  C   UNL     1     175.286 193.284 196.757  1.00  0.00    -0.000 C 
BRANCH  28  29
ATOM     29  C   UNL     1     176.416 192.974 195.752  1.00  0.00    -0.000 C 
BRANCH  29  30
ATOM     30  C   UNL     1     176.593 191.473 195.472  1.00  0.00    -0.000 C 
BRANCH  30  31
ATOM     31  C   UNL     1     176.007 190.585 196.579  1.00  0.00    -0.003 C 
ATOM     32  C   UNL     1     176.018 189.115 196.169  1.00  0.00     0.004 C 
ENDBRANCH  30  31
ENDBRANCH  29  30
ENDBRANCH  28  29
ENDBRANCH  27  28
ENDBRANCH  26  27
ENDBRANCH  25  26
ENDBRANCH  24  25
ENDBRANCH  23  24
ENDBRANCH  22  23
ENDBRANCH  21  22
ENDBRANCH  20  21
ENDBRANCH  19  20
ENDBRANCH  18  19
ENDBRANCH   1  18
TORSDOF 28
ENDMDL
MODEL 3
REMARK VINA RESULT:     0.016      6.335      9.089
REMARK INTER + INTRA:          -7.676
REMARK INTER:                   0.000
REMARK INTRA:                  -7.676
REMARK UNBOUND:                -7.719
REMARK SMILES CCCCCCCCCCCCCCCCCCCCCCCCCCCCCC(=O)[O-]
REMARK SMILES IDX 16 1 17 2 18 3 19 4 20 5 21 6 22 7 23 8 24 9 25 10 26 11
REMARK SMILES IDX 27 12 28 13 29 14 30 15 31 16 32 17 15 18 14 19 13 20 12 21
REMARK SMILES IDX 11 22 10 23 9 24 8 25 7 26 6 27 5 28 4 29 3 30 2 31 1 32
REMARK H PARENT
REMARK Flexibility Score: inf
ROOT
ATOM      1  C   UNL     1     179.514 185.879 201.907  1.00  0.00     0.000 C 
ENDROOT
BRANCH   1   2
ATOM      2  C   UNL     1     178.112 186.237 202.442  1.00  0.00     0.000 C 
BRANCH   2   3
ATOM      3  C   UNL     1     176.993 186.164 201.385  1.00  0.00     0.000 C 
BRANCH   3   4
ATOM      4  C   UNL     1     176.226 187.476 201.146  1.00  0.00     0.000 C 
BRANCH   4   5
ATOM      5  C   UNL     1     176.037 188.366 202.392  1.00  0.00     0.000 C 
BRANCH   5   6
ATOM      6  C   UNL     1     176.174 189.878 202.142  1.00  0.00     0.000 C 
BRANCH   6   7
ATOM      7  C   UNL     1     175.869 190.267 200.684  1.00  0.00     0.000 C 
BRANCH   7   8
ATOM      8  C   UNL     1     176.040 191.774 200.430  1.00  0.00     0.000 C 
BRANCH   8   9
ATOM      9  C   UNL     1     177.506 192.170 200.190  1.00  0.00     0.000 C 
BRANCH   9  10
ATOM     10  C   UNL     1     177.743 192.521 198.713  1.00  0.00     0.000 C 
BRANCH  10  11
ATOM     11  C   UNL     1     179.204 192.903 198.420  1.00  0.00     0.000 C 
BRANCH  11  12
ATOM     12  C   UNL     1     180.092 192.863 199.675  1.00  0.00     0.000 C 
BRANCH  12  13
ATOM     13  C   UNL     1     181.496 192.295 199.400  1.00  0.00     0.006 C 
BRANCH  13  14
ATOM     14  C   UNL     1     181.745 191.929 197.926  1.00  0.00     0.053 C 
BRANCH  14  15
ATOM     15  C   UNL     1     182.670 190.759 197.771  1.00  0.00     0.041 C 
ATOM     16  O   UNL     1     183.157 190.197 198.787  1.00  0.00    -0.550 OA
ATOM     17  O   UNL     1     183.013 190.303 196.504  1.00  0.00    -0.550 OA
ENDBRANCH  14  15
ENDBRANCH  13  14
ENDBRANCH  12  13
ENDBRANCH  11  12
ENDBRANCH  10  11
ENDBRANCH   9  10
ENDBRANCH   8   9
ENDBRANCH   7   8
ENDBRANCH   6   7
ENDBRANCH   5   6
ENDBRANCH   4   5
ENDBRANCH   3   4
ENDBRANCH   2   3
ENDBRANCH   1   2
BRANCH   1  18
ATOM     18  C   UNL     1     180.478 187.076 201.908  1.00  0.00     0.000 C 
BRANCH  18  19
ATOM     19  C   UNL     1     179.810 188.327 202.493  1.00  0.00     0.000 C 
BRANCH  19  20
ATOM     20  C   UNL     1     179.771 189.467 201.465  1.00  0.00     0.000 C 
BRANCH  20  21
ATOM     21  C   UNL     1     180.098 189.002 200.036  1.00  0.00     0.000 C 
BRANCH  21  22
ATOM     22  C   UNL     1     178.865 188.899 199.112  1.00  0.00     0.000 C 
BRANCH  22  23
ATOM     23  C   UNL     1     179.185 189.326 197.669  1.00  0.00     0.000 C 
BRANCH  23  24
ATOM     24  C   UNL     1     178.023 189.052 196.699  1.00  0.00    -0.000 C 
BRANCH  24  25
ATOM     25  C   UNL     1     176.707 188.746 197.431  1.00  0.00    -0.000 C 
BRANCH  25  26
ATOM     26  C   UNL     1     176.117 187.404 196.972  1.00  0.00    -0.000 C 
BRANCH  26  27
ATOM     27  C   UNL     1     177.198 186.339 196.725  1.00  0.00    -0.000 C 
BRANCH  27  28
ATOM     28  C   UNL     1     177.233 185.261 197.824  1.00  0.00    -0.000 C 
BRANCH  28  29
ATOM     29  C   UNL     1     178.659 185.024 198.364  1.00  0.00    -0.000 C 
BRANCH  29  30
ATOM     30  C   UNL     1     179.759 185.651 197.490  1.00  0.00    -0.000 C 
BRANCH  30  31
ATOM     31  C   UNL     1     181.052 185.932 198.268  1.00  0.00    -0.003 C 
ATOM     32  C   UNL     1     181.946 186.911 197.512  1.00  0.00     0.004 C 
ENDBRANCH  30  31
ENDBRANCH  29  30
ENDBRANCH  28  29
ENDBRANCH  27  28
ENDBRANCH  26  27
ENDBRANCH  25  26
ENDBRANCH  24  25
ENDBRANCH  23  24
ENDBRANCH  22  23
ENDBRANCH  21  22
ENDBRANCH  20  21
ENDBRANCH  19  20
ENDBRANCH  18  19
ENDBRANCH   1  18
TORSDOF 28
ENDMDL
MODEL 4
REMARK VINA RESULT:     0.028      2.837      6.288
REMARK INTER + INTRA:          -7.646
REMARK INTER:                   0.000
REMARK INTRA:                  -7.646
REMARK UNBOUND:                -7.719
REMARK SMILES CCCCCCCCCCCCCCCCCCCCCCCCCCCCCC(=O)[O-]
REMARK SMILES IDX 16 1 17 2 18 3 19 4 20 5 21 6 22 7 23 8 24 9 25 10 26 11
REMARK SMILES IDX 27 12 28 13 29 14 30 15 31 16 32 17 15 18 14 19 13 20 12 21
REMARK SMILES IDX 11 22 10 23 9 24 8 25 7 26 6 27 5 28 4 29 3 30 2 31 1 32
REMARK H PARENT
REMARK Flexibility Score: inf
ROOT
ATOM      1  C   UNL     1     179.353 191.389 192.979  1.00  0.00     0.000 C 
ENDROOT
BRANCH   1   2
ATOM      2  C   UNL     1     178.782 191.566 194.402  1.00  0.00     0.000 C 
BRANCH   2   3
ATOM      3  C   UNL     1     179.835 191.925 195.466  1.00  0.00     0.000 C 
BRANCH   3   4
ATOM      4  C   UNL     1     180.284 193.397 195.479  1.00  0.00     0.000 C 
BRANCH   4   5
ATOM      5  C   UNL     1     181.665 193.671 194.852  1.00  0.00     0.000 C 
BRANCH   5   6
ATOM      6  C   UNL     1     181.638 194.454 193.527  1.00  0.00     0.000 C 
BRANCH   6   7
ATOM      7  C   UNL     1     182.456 193.770 192.417  1.00  0.00     0.000 C 
BRANCH   7   8
ATOM      8  C   UNL     1     183.121 192.468 192.893  1.00  0.00     0.000 C 
BRANCH   8   9
ATOM      9  C   UNL     1     182.886 191.297 191.925  1.00  0.00     0.000 C 
BRANCH   9  10
ATOM     10  C   UNL     1     182.730 189.975 192.693  1.00  0.00     0.000 C 
BRANCH  10  11
ATOM     11  C   UNL     1     182.788 190.164 194.219  1.00  0.00     0.000 C 
BRANCH  11  12
ATOM     12  C   UNL     1     182.264 188.939 194.988  1.00  0.00     0.000 C 
BRANCH  12  13
ATOM     13  C   UNL     1     180.933 188.403 194.430  1.00  0.00     0.006 C 
BRANCH  13  14
ATOM     14  C   UNL     1     179.861 188.148 195.505  1.00  0.00     0.053 C 
BRANCH  14  15
ATOM     15  C   UNL     1     178.538 187.758 194.919  1.00  0.00     0.041 C 
ATOM     16  O   UNL     1     177.489 188.361 195.265  1.00  0.00    -0.550 OA
ATOM     17  O   UNL     1     178.460 186.713 194.005  1.00  0.00    -0.550 OA
ENDBRANCH  14  15
ENDBRANCH  13  14
ENDBRANCH  12  13
ENDBRANCH  11  12
ENDBRANCH  10  11
ENDBRANCH   9  10
ENDBRANCH   8   9
ENDBRANCH   7   8
ENDBRANCH   6   7
ENDBRANCH   5   6
ENDBRANCH   4   5
ENDBRANCH   3   4
ENDBRANCH   2   3
ENDBRANCH   1   2
BRANCH   1  18
ATOM     18  C   UNL     1     178.904 192.497 192.012  1.00  0.00     0.000 C 
BRANCH  18  19
ATOM     19  C   UNL     1     179.571 192.340 190.639  1.00  0.00     0.000 C 
BRANCH  19  20
ATOM     20  C   UNL     1     178.527 192.073 189.545  1.00  0.00     0.000 C 
BRANCH  20  21
ATOM     21  C   UNL     1     179.122 191.406 188.293  1.00  0.00     0.000 C 
BRANCH  21  22
ATOM     22  C   UNL     1     180.459 190.676 188.546  1.00  0.00     0.000 C 
BRANCH  22  23
ATOM     23  C   UNL     1     180.264 189.164 188.754  1.00  0.00     0.000 C 
BRANCH  23  24
ATOM     24  C   UNL     1     180.492 188.732 190.212  1.00  0.00    -0.000 C 
BRANCH  24  25
ATOM     25  C   UNL     1     179.191 188.299 190.906  1.00  0.00    -0.000 C 
BRANCH  25  26
ATOM     26  C   UNL     1     178.030 188.213 189.904  1.00  0.00    -0.000 C 
BRANCH  26  27
ATOM     27  C   UNL     1     176.768 188.936 190.400  1.00  0.00    -0.000 C 
BRANCH  27  28
ATOM     28  C   UNL     1     176.800 189.217 191.914  1.00  0.00    -0.000 C 
BRANCH  28  29
ATOM     29  C   UNL     1     175.705 190.215 192.346  1.00  0.00    -0.000 C 
BRANCH  29  30
ATOM     30  C   UNL     1     175.180 191.087 191.194  1.00  0.00    -0.000 C 
BRANCH  30  31
ATOM     31  C   UNL     1     175.336 192.591 191.464  1.00  0.00    -0.003 C 
ATOM     32  C   UNL     1     175.320 192.885 192.961  1.00  0.00     0.004 C 
ENDBRANCH  30  31
ENDBRANCH  29  30
ENDBRANCH  28  29
ENDBRANCH  27  28
ENDBRANCH  26  27
ENDBRANCH  25  26
ENDBRANCH  24  25
ENDBRANCH  23  24
ENDBRANCH  22  23
ENDBRANCH  21  22
ENDBRANCH  20  21
ENDBRANCH  19  20
ENDBRANCH  18  19
ENDBRANCH   1  18
TORSDOF 28
ENDMDL
MODEL 5
REMARK VINA RESULT:     0.047      4.840      8.225
REMARK INTER + INTRA:          -7.596
REMARK INTER:                   0.000
REMARK INTRA:                  -7.596
REMARK UNBOUND:                -7.719
REMARK SMILES CCCCCCCCCCCCCCCCCCCCCCCCCCCCCC(=O)[O-]
REMARK SMILES IDX 16 1 17 2 18 3 19 4 20 5 21 6 22 7 23 8 24 9 25 10 26 11
REMARK SMILES IDX 27 12 28 13 29 14 30 15 31 16 32 17 15 18 14 19 13 20 12 21
REMARK SMILES IDX 11 22 10 23 9 24 8 25 7 26 6 27 5 28 4 29 3 30 2 31 1 32
REMARK H PARENT
REMARK Flexibility Score: inf
ROOT
ATOM      1  C   UNL     1     179.978 192.367 188.110  1.00  0.00     0.000 C 
ENDROOT
BRANCH   1   2
ATOM      2  C   UNL     1     179.297 193.532 188.859  1.00  0.00     0.000 C 
BRANCH   2   3
ATOM      3  C   UNL     1     178.582 193.117 190.159  1.00  0.00     0.000 C 
BRANCH   3   4
ATOM      4  C   UNL     1     178.781 194.068 191.353  1.00  0.00     0.000 C 
BRANCH   4   5
ATOM      5  C   UNL     1     179.740 195.249 191.102  1.00  0.00     0.000 C 
BRANCH   5   6
ATOM      6  C   UNL     1     179.227 196.619 191.576  1.00  0.00     0.000 C 
BRANCH   6   7
ATOM      7  C   UNL     1     179.317 197.698 190.482  1.00  0.00     0.000 C 
BRANCH   7   8
ATOM      8  C   UNL     1     180.143 197.238 189.269  1.00  0.00     0.000 C 
BRANCH   8   9
ATOM      9  C   UNL     1     179.354 197.319 187.953  1.00  0.00     0.000 C 
BRANCH   9  10
ATOM     10  C   UNL     1     177.843 197.381 188.224  1.00  0.00     0.000 C 
BRANCH  10  11
ATOM     11  C   UNL     1     177.094 196.140 187.708  1.00  0.00     0.000 C 
BRANCH  11  12
ATOM     12  C   UNL     1     176.126 195.555 188.750  1.00  0.00     0.000 C 
BRANCH  12  13
ATOM     13  C   UNL     1     175.844 196.519 189.917  1.00  0.00     0.006 C 
BRANCH  13  14
ATOM     14  C   UNL     1     175.566 195.813 191.256  1.00  0.00     0.053 C 
BRANCH  14  15
ATOM     15  C   UNL     1     175.584 196.759 192.420  1.00  0.00     0.041 C 
ATOM     16  O   UNL     1     175.197 196.375 193.554  1.00  0.00    -0.550 OA
ATOM     17  O   UNL     1     176.007 198.071 192.246  1.00  0.00    -0.550 OA
ENDBRANCH  14  15
ENDBRANCH  13  14
ENDBRANCH  12  13
ENDBRANCH  11  12
ENDBRANCH  10  11
ENDBRANCH   9  10
ENDBRANCH   8   9
ENDBRANCH   7   8
ENDBRANCH   6   7
ENDBRANCH   5   6
ENDBRANCH   4   5
ENDBRANCH   3   4
ENDBRANCH   2   3
ENDBRANCH   1   2
BRANCH   1  18
ATOM     18  C   UNL     1     181.323 192.766 187.482  1.00  0.00     0.000 C 
BRANCH  18  19
ATOM     19  C   UNL     1     181.485 194.291 187.438  1.00  0.00     0.000 C 
BRANCH  19  20
ATOM     20  C   UNL     1     182.816 194.725 188.071  1.00  0.00     0.000 C 
BRANCH  20  21
ATOM     21  C   UNL     1     182.865 194.493 189.590  1.00  0.00     0.000 C 
BRANCH  21  22
ATOM     22  C   UNL     1     184.043 193.609 190.052  1.00  0.00     0.000 C 
BRANCH  22  23
ATOM     23  C   UNL     1     183.566 192.301 190.707  1.00  0.00     0.000 C 
BRANCH  23  24
ATOM     24  C   UNL     1     182.085 192.352 191.119  1.00  0.00    -0.000 C 
BRANCH  24  25
ATOM     25  C   UNL     1     181.781 191.450 192.326  1.00  0.00    -0.000 C 
BRANCH  25  26
ATOM     26  C   UNL     1     182.174 192.135 193.643  1.00  0.00    -0.000 C 
BRANCH  26  27
ATOM     27  C   UNL     1     181.747 193.612 193.689  1.00  0.00    -0.000 C 
BRANCH  27  28
ATOM     28  C   UNL     1     182.920 194.560 194.000  1.00  0.00    -0.000 C 
BRANCH  28  29
ATOM     29  C   UNL     1     182.999 195.737 193.005  1.00  0.00    -0.000 C 
BRANCH  29  30
ATOM     30  C   UNL     1     182.295 197.010 193.503  1.00  0.00    -0.000 C 
BRANCH  30  31
ATOM     31  C   UNL     1     182.497 198.210 192.567  1.00  0.00    -0.003 C 
ATOM     32  C   UNL     1     183.190 197.788 191.275  1.00  0.00     0.004 C 
ENDBRANCH  30  31
ENDBRANCH  29  30
ENDBRANCH  28  29
ENDBRANCH  27  28
ENDBRANCH  26  27
ENDBRANCH  25  26
ENDBRANCH  24  25
ENDBRANCH  23  24
ENDBRANCH  22  23
ENDBRANCH  21  22
ENDBRANCH  20  21
ENDBRANCH  19  20
ENDBRANCH  18  19
ENDBRANCH   1  18
TORSDOF 28
ENDMDL
MODEL 6
REMARK VINA RESULT:     0.057      7.778     11.095
REMARK INTER + INTRA:          -7.569
REMARK INTER:                   0.000
REMARK INTRA:                  -7.569
REMARK UNBOUND:                -7.719
REMARK SMILES CCCCCCCCCCCCCCCCCCCCCCCCCCCCCC(=O)[O-]
REMARK SMILES IDX 16 1 17 2 18 3 19 4 20 5 21 6 22 7 23 8 24 9 25 10 26 11
REMARK SMILES IDX 27 12 28 13 29 14 30 15 31 16 32 17 15 18 14 19 13 20 12 21
REMARK SMILES IDX 11 22 10 23 9 24 8 25 7 26 6 27 5 28 4 29 3 30 2 31 1 32
REMARK H PARENT
REMARK Flexibility Score: inf
ROOT
ATOM      1  C   UNL     1     168.135 189.127 191.716  1.00  0.00     0.000 C 
ENDROOT
BRANCH   1   2
ATOM      2  C   UNL     1     167.332 188.960 190.409  1.00  0.00     0.000 C 
BRANCH   2   3
ATOM      3  C   UNL     1     167.572 187.622 189.685  1.00  0.00     0.000 C 
BRANCH   3   4
ATOM      4  C   UNL     1     168.168 187.737 188.271  1.00  0.00     0.000 C 
BRANCH   4   5
ATOM      5  C   UNL     1     169.496 186.984 188.052  1.00  0.00     0.000 C 
BRANCH   5   6
ATOM      6  C   UNL     1     170.196 186.508 189.337  1.00  0.00     0.000 C 
BRANCH   6   7
ATOM      7  C   UNL     1     170.227 184.974 189.462  1.00  0.00     0.000 C 
BRANCH   7   8
ATOM      8  C   UNL     1     170.088 184.499 190.918  1.00  0.00     0.000 C 
BRANCH   8   9
ATOM      9  C   UNL     1     168.626 184.467 191.391  1.00  0.00     0.000 C 
BRANCH   9  10
ATOM     10  C   UNL     1     168.420 185.403 192.593  1.00  0.00     0.000 C 
BRANCH  10  11
ATOM     11  C   UNL     1     169.727 186.065 193.063  1.00  0.00     0.000 C 
BRANCH  11  12
ATOM     12  C   UNL     1     170.188 185.557 194.439  1.00  0.00     0.000 C 
BRANCH  12  13
ATOM     13  C   UNL     1     170.629 186.692 195.382  1.00  0.00     0.006 C 
BRANCH  13  14
ATOM     14  C   UNL     1     170.415 188.103 194.805  1.00  0.00     0.053 C 
BRANCH  14  15
ATOM     15  C   UNL     1     171.609 188.990 194.995  1.00  0.00     0.041 C 
ATOM     16  O   UNL     1     172.666 188.530 195.501  1.00  0.00    -0.550 OA
ATOM     17  O   UNL     1     171.546 190.331 194.634  1.00  0.00    -0.550 OA
ENDBRANCH  14  15
ENDBRANCH  13  14
ENDBRANCH  12  13
ENDBRANCH  11  12
ENDBRANCH  10  11
ENDBRANCH   9  10
ENDBRANCH   8   9
ENDBRANCH   7   8
ENDBRANCH   6   7
ENDBRANCH   5   6
ENDBRANCH   4   5
ENDBRANCH   3   4
ENDBRANCH   2   3
ENDBRANCH   1   2
BRANCH   1  18
ATOM     18  C   UNL     1     169.624 189.420 191.470  1.00  0.00     0.000 C 
BRANCH  18  19
ATOM     19  C   UNL     1     169.915 190.924 191.555  1.00  0.00     0.000 C 
BRANCH  19  20
ATOM     20  C   UNL     1     170.606 191.427 190.279  1.00  0.00     0.000 C 
BRANCH  20  21
ATOM     21  C   UNL     1     170.669 190.365 189.168  1.00  0.00     0.000 C 
BRANCH  21  22
ATOM     22  C   UNL     1     172.081 190.156 188.579  1.00  0.00     0.000 C 
BRANCH  22  23
ATOM     23  C   UNL     1     172.837 189.011 189.276  1.00  0.00     0.000 C 
BRANCH  23  24
ATOM     24  C   UNL     1     173.811 189.515 190.354  1.00  0.00    -0.000 C 
BRANCH  24  25
ATOM     25  C   UNL     1     173.466 188.981 191.753  1.00  0.00    -0.000 C 
BRANCH  25  26
ATOM     26  C   UNL     1     172.721 187.640 191.666  1.00  0.00    -0.000 C 
BRANCH  26  27
ATOM     27  C   UNL     1     173.330 186.567 192.584  1.00  0.00    -0.000 C 
BRANCH  27  28
ATOM     28  C   UNL     1     174.053 185.456 191.802  1.00  0.00    -0.000 C 
BRANCH  28  29
ATOM     29  C   UNL     1     173.806 185.555 190.282  1.00  0.00    -0.000 C 
BRANCH  29  30
ATOM     30  C   UNL     1     175.081 185.836 189.470  1.00  0.00    -0.000 C 
BRANCH  30  31
ATOM     31  C   UNL     1     174.790 186.201 188.007  1.00  0.00    -0.003 C 
ATOM     32  C   UNL     1     173.405 185.718 187.586  1.00  0.00     0.004 C 
ENDBRANCH  30  31
ENDBRANCH  29  30
ENDBRANCH  28  29
ENDBRANCH  27  28
ENDBRANCH  26  27
ENDBRANCH  25  26
ENDBRANCH  24  25
ENDBRANCH  23  24
ENDBRANCH  22  23
ENDBRANCH  21  22
ENDBRANCH  20  21
ENDBRANCH  19  20
ENDBRANCH  18  19
ENDBRANCH   1  18
TORSDOF 28
ENDMDL
MODEL 7
REMARK VINA RESULT:     0.059      8.981     12.177
REMARK INTER + INTRA:          -7.563
REMARK INTER:                   0.000
REMARK INTRA:                  -7.563
REMARK UNBOUND:                -7.719
REMARK SMILES CCCCCCCCCCCCCCCCCCCCCCCCCCCCCC(=O)[O-]
REMARK SMILES IDX 16 1 17 2 18 3 19 4 20 5 21 6 22 7 23 8 24 9 25 10 26 11
REMARK SMILES IDX 27 12 28 13 29 14 30 15 31 16 32 17 15 18 14 19 13 20 12 21
REMARK SMILES IDX 11 22 10 23 9 24 8 25 7 26 6 27 5 28 4 29 3 30 2 31 1 32
REMARK H PARENT
REMARK Flexibility Score: inf
ROOT
ATOM      1  C   UNL     1     173.751 189.472 200.137  1.00  0.00     0.000 C 
ENDROOT
BRANCH   1   2
ATOM      2  C   UNL     1     175.181 189.810 199.664  1.00  0.00     0.000 C 
BRANCH   2   3
ATOM      3  C   UNL     1     176.288 189.395 200.650  1.00  0.00     0.000 C 
BRANCH   3   4
ATOM      4  C   UNL     1     177.114 188.165 200.234  1.00  0.00     0.000 C 
BRANCH   4   5
ATOM      5  C   UNL     1     177.048 186.968 201.203  1.00  0.00     0.000 C 
BRANCH   5   6
ATOM      6  C   UNL     1     175.708 186.798 201.941  1.00  0.00     0.000 C 
BRANCH   6   7
ATOM      7  C   UNL     1     175.424 185.334 202.324  1.00  0.00     0.000 C 
BRANCH   7   8
ATOM      8  C   UNL     1     176.485 184.366 201.775  1.00  0.00     0.000 C 
BRANCH   8   9
ATOM      9  C   UNL     1     175.867 183.097 201.166  1.00  0.00     0.000 C 
BRANCH   9  10
ATOM     10  C   UNL     1     176.469 182.805 199.783  1.00  0.00     0.000 C 
BRANCH  10  11
ATOM     11  C   UNL     1     177.499 183.862 199.347  1.00  0.00     0.000 C 
BRANCH  11  12
ATOM     12  C   UNL     1     177.406 184.199 197.850  1.00  0.00     0.000 C 
BRANCH  12  13
ATOM     13  C   UNL     1     176.481 183.243 197.075  1.00  0.00     0.006 C 
BRANCH  13  14
ATOM     14  C   UNL     1     175.815 183.880 195.842  1.00  0.00     0.053 C 
BRANCH  14  15
ATOM     15  C   UNL     1     175.019 182.892 195.043  1.00  0.00     0.041 C 
ATOM     16  O   UNL     1     175.439 182.497 193.924  1.00  0.00    -0.550 OA
ATOM     17  O   UNL     1     173.801 182.425 195.523  1.00  0.00    -0.550 OA
ENDBRANCH  14  15
ENDBRANCH  13  14
ENDBRANCH  12  13
ENDBRANCH  11  12
ENDBRANCH  10  11
ENDBRANCH   9  10
ENDBRANCH   8   9
ENDBRANCH   7   8
ENDBRANCH   6   7
ENDBRANCH   5   6
ENDBRANCH   4   5
ENDBRANCH   3   4
ENDBRANCH   2   3
ENDBRANCH   1   2
BRANCH   1  18
ATOM     18  C   UNL     1     173.201 188.183 199.504  1.00  0.00     0.000 C 
BRANCH  18  19
ATOM     19  C   UNL     1     173.966 187.823 198.224  1.00  0.00     0.000 C 
BRANCH  19  20
ATOM     20  C   UNL     1     174.464 186.371 198.267  1.00  0.00     0.000 C 
BRANCH  20  21
ATOM     21  C   UNL     1     173.633 185.475 199.202  1.00  0.00     0.000 C 
BRANCH  21  22
ATOM     22  C   UNL     1     173.268 184.103 198.595  1.00  0.00     0.000 C 
BRANCH  22  23
ATOM     23  C   UNL     1     172.498 183.216 199.589  1.00  0.00     0.000 C 
BRANCH  23  24
ATOM     24  C   UNL     1     172.204 183.932 200.918  1.00  0.00    -0.000 C 
BRANCH  24  25
ATOM     25  C   UNL     1     170.737 183.785 201.352  1.00  0.00    -0.000 C 
BRANCH  25  26
ATOM     26  C   UNL     1     169.807 184.612 200.452  1.00  0.00    -0.000 C 
BRANCH  26  27
ATOM     27  C   UNL     1     170.179 186.104 200.433  1.00  0.00    -0.000 C 
BRANCH  27  28
ATOM     28  C   UNL     1     169.884 186.773 199.078  1.00  0.00    -0.000 C 
BRANCH  28  29
ATOM     29  C   UNL     1     170.088 185.807 197.893  1.00  0.00    -0.000 C 
BRANCH  29  30
ATOM     30  C   UNL     1     170.877 186.425 196.726  1.00  0.00    -0.000 C 
BRANCH  30  31
ATOM     31  C   UNL     1     171.422 185.373 195.750  1.00  0.00    -0.003 C 
ATOM     32  C   UNL     1     172.688 185.869 195.057  1.00  0.00     0.004 C 
ENDBRANCH  30  31
ENDBRANCH  29  30
ENDBRANCH  28  29
ENDBRANCH  27  28
ENDBRANCH  26  27
ENDBRANCH  25  26
ENDBRANCH  24  25
ENDBRANCH  23  24
ENDBRANCH  22  23
ENDBRANCH  21  22
ENDBRANCH  20  21
ENDBRANCH  19  20
ENDBRANCH  18  19
ENDBRANCH   1  18
TORSDOF 28
ENDMDL
MODEL 8
REMARK VINA RESULT:     0.060      7.439     10.672
REMARK INTER + INTRA:          -7.560
REMARK INTER:                   0.000
REMARK INTRA:                  -7.560
REMARK UNBOUND:                -7.719
REMARK SMILES CCCCCCCCCCCCCCCCCCCCCCCCCCCCCC(=O)[O-]
REMARK SMILES IDX 16 1 17 2 18 3 19 4 20 5 21 6 22 7 23 8 24 9 25 10 26 11
REMARK SMILES IDX 27 12 28 13 29 14 30 15 31 16 32 17 15 18 14 19 13 20 12 21
REMARK SMILES IDX 11 22 10 23 9 24 8 25 7 26 6 27 5 28 4 29 3 30 2 31 1 32
REMARK H PARENT
REMARK Flexibility Score: inf
ROOT
ATOM      1  C   UNL     1     175.282 191.305 193.119  1.00  0.00     0.000 C 
ENDROOT
BRANCH   1   2
ATOM      2  C   UNL     1     174.719 190.801 191.773  1.00  0.00     0.000 C 
BRANCH   2   3
ATOM      3  C   UNL     1     173.995 189.445 191.858  1.00  0.00     0.000 C 
BRANCH   3   4
ATOM      4  C   UNL     1     172.748 189.419 192.761  1.00  0.00     0.000 C 
BRANCH   4   5
ATOM      5  C   UNL     1     171.434 189.857 192.083  1.00  0.00     0.000 C 
BRANCH   5   6
ATOM      6  C   UNL     1     170.412 190.531 193.014  1.00  0.00     0.000 C 
BRANCH   6   7
ATOM      7  C   UNL     1     168.981 190.005 192.803  1.00  0.00     0.000 C 
BRANCH   7   8
ATOM      8  C   UNL     1     167.978 190.613 193.798  1.00  0.00     0.000 C 
BRANCH   8   9
ATOM      9  C   UNL     1     168.629 190.984 195.140  1.00  0.00     0.000 C 
BRANCH   9  10
ATOM     10  C   UNL     1     168.353 189.905 196.198  1.00  0.00     0.000 C 
BRANCH  10  11
ATOM     11  C   UNL     1     169.629 189.444 196.926  1.00  0.00     0.000 C 
BRANCH  11  12
ATOM     12  C   UNL     1     169.954 187.963 196.673  1.00  0.00     0.000 C 
BRANCH  12  13
ATOM     13  C   UNL     1     170.786 187.739 195.397  1.00  0.00     0.006 C 
BRANCH  13  14
ATOM     14  C   UNL     1     170.075 186.893 194.327  1.00  0.00     0.053 C 
BRANCH  14  15
ATOM     15  C   UNL     1     171.024 186.032 193.548  1.00  0.00     0.041 C 
ATOM     16  O   UNL     1     171.205 186.240 192.320  1.00  0.00    -0.550 OA
ATOM     17  O   UNL     1     171.691 184.986 194.173  1.00  0.00    -0.550 OA
ENDBRANCH  14  15
ENDBRANCH  13  14
ENDBRANCH  12  13
ENDBRANCH  11  12
ENDBRANCH  10  11
ENDBRANCH   9  10
ENDBRANCH   8   9
ENDBRANCH   7   8
ENDBRANCH   6   7
ENDBRANCH   5   6
ENDBRANCH   4   5
ENDBRANCH   3   4
ENDBRANCH   2   3
ENDBRANCH   1   2
BRANCH   1  18
ATOM     18  C   UNL     1     174.858 192.747 193.442  1.00  0.00     0.000 C 
BRANCH  18  19
ATOM     19  C   UNL     1     173.537 193.106 192.749  1.00  0.00     0.000 C 
BRANCH  19  20
ATOM     20  C   UNL     1     172.457 193.477 193.774  1.00  0.00     0.000 C 
BRANCH  20  21
ATOM     21  C   UNL     1     172.880 193.195 195.226  1.00  0.00     0.000 C 
BRANCH  21  22
ATOM     22  C   UNL     1     172.087 192.055 195.901  1.00  0.00     0.000 C 
BRANCH  22  23
ATOM     23  C   UNL     1     172.914 190.763 196.017  1.00  0.00     0.000 C 
BRANCH  23  24
ATOM     24  C   UNL     1     174.262 190.984 196.722  1.00  0.00    -0.000 C 
BRANCH  24  25
ATOM     25  C   UNL     1     174.400 190.143 198.002  1.00  0.00    -0.000 C 
BRANCH  25  26
ATOM     26  C   UNL     1     173.114 189.352 198.285  1.00  0.00    -0.000 C 
BRANCH  26  27
ATOM     27  C   UNL     1     173.379 187.850 198.483  1.00  0.00    -0.000 C 
BRANCH  27  28
ATOM     28  C   UNL     1     174.521 187.325 197.593  1.00  0.00    -0.000 C 
BRANCH  28  29
ATOM     29  C   UNL     1     173.997 186.532 196.378  1.00  0.00    -0.000 C 
BRANCH  29  30
ATOM     30  C   UNL     1     174.493 187.079 195.028  1.00  0.00    -0.000 C 
BRANCH  30  31
ATOM     31  C   UNL     1     175.713 188.001 195.169  1.00  0.00    -0.003 C 
ATOM     32  C   UNL     1     176.613 187.913 193.940  1.00  0.00     0.004 C 
ENDBRANCH  30  31
ENDBRANCH  29  30
ENDBRANCH  28  29
ENDBRANCH  27  28
ENDBRANCH  26  27
ENDBRANCH  25  26
ENDBRANCH  24  25
ENDBRANCH  23  24
ENDBRANCH  22  23
ENDBRANCH  21  22
ENDBRANCH  20  21
ENDBRANCH  19  20
ENDBRANCH  18  19
ENDBRANCH   1  18
TORSDOF 28
ENDMDL
MODEL 9
REMARK VINA RESULT:     0.068      7.336     10.605
REMARK INTER + INTRA:          -7.541
REMARK INTER:                   0.000
REMARK INTRA:                  -7.541
REMARK UNBOUND:                -7.719
REMARK SMILES CCCCCCCCCCCCCCCCCCCCCCCCCCCCCC(=O)[O-]
REMARK SMILES IDX 16 1 17 2 18 3 19 4 20 5 21 6 22 7 23 8 24 9 25 10 26 11
REMARK SMILES IDX 27 12 28 13 29 14 30 15 31 16 32 17 15 18 14 19 13 20 12 21
REMARK SMILES IDX 11 22 10 23 9 24 8 25 7 26 6 27 5 28 4 29 3 30 2 31 1 32
REMARK H PARENT
REMARK Flexibility Score: inf
ROOT
ATOM      1  C   UNL     1     170.562 185.992 186.922  1.00  0.00     0.000 C 
ENDROOT
BRANCH   1   2
ATOM      2  C   UNL     1     170.194 187.348 187.561  1.00  0.00     0.000 C 
BRANCH   2   3
ATOM      3  C   UNL     1     170.644 187.500 189.026  1.00  0.00     0.000 C 
BRANCH   3   4
ATOM      4  C   UNL     1     169.908 188.585 189.832  1.00  0.00     0.000 C 
BRANCH   4   5
ATOM      5  C   UNL     1     170.016 188.455 191.365  1.00  0.00     0.000 C 
BRANCH   5   6
ATOM      6  C   UNL     1     170.856 187.266 191.862  1.00  0.00     0.000 C 
BRANCH   6   7
ATOM      7  C   UNL     1     170.296 186.642 193.153  1.00  0.00     0.000 C 
BRANCH   7   8
ATOM      8  C   UNL     1     171.157 185.475 193.664  1.00  0.00     0.000 C 
BRANCH   8   9
ATOM      9  C   UNL     1     172.558 185.453 193.032  1.00  0.00     0.000 C 
BRANCH   9  10
ATOM     10  C   UNL     1     173.097 184.017 192.946  1.00  0.00     0.000 C 
BRANCH  10  11
ATOM     11  C   UNL     1     174.610 183.932 193.211  1.00  0.00     0.000 C 
BRANCH  11  12
ATOM     12  C   UNL     1     175.430 183.772 191.920  1.00  0.00     0.000 C 
BRANCH  12  13
ATOM     13  C   UNL     1     176.440 184.913 191.703  1.00  0.00     0.006 C 
BRANCH  13  14
ATOM     14  C   UNL     1     177.007 184.983 190.274  1.00  0.00     0.053 C 
BRANCH  14  15
ATOM     15  C   UNL     1     177.267 183.627 189.690  1.00  0.00     0.041 C 
ATOM     16  O   UNL     1     178.241 182.939 190.093  1.00  0.00    -0.550 OA
ATOM     17  O   UNL     1     176.446 183.131 188.684  1.00  0.00    -0.550 OA
ENDBRANCH  14  15
ENDBRANCH  13  14
ENDBRANCH  12  13
ENDBRANCH  11  12
ENDBRANCH  10  11
ENDBRANCH   9  10
ENDBRANCH   8   9
ENDBRANCH   7   8
ENDBRANCH   6   7
ENDBRANCH   5   6
ENDBRANCH   4   5
ENDBRANCH   3   4
ENDBRANCH   2   3
ENDBRANCH   1   2
BRANCH   1  18
ATOM     18  C   UNL     1     169.382 185.008 186.887  1.00  0.00     0.000 C 
BRANCH  18  19
ATOM     19  C   UNL     1     168.040 185.745 186.997  1.00  0.00     0.000 C 
BRANCH  19  20
ATOM     20  C   UNL     1     167.184 185.168 188.134  1.00  0.00     0.000 C 
BRANCH  20  21
ATOM     21  C   UNL     1     167.180 186.050 189.394  1.00  0.00     0.000 C 
BRANCH  21  22
ATOM     22  C   UNL     1     167.883 185.410 190.610  1.00  0.00     0.000 C 
BRANCH  22  23
ATOM     23  C   UNL     1     168.158 183.911 190.400  1.00  0.00     0.000 C 
BRANCH  23  24
ATOM     24  C   UNL     1     169.531 183.479 190.940  1.00  0.00    -0.000 C 
BRANCH  24  25
ATOM     25  C   UNL     1     170.694 184.068 190.125  1.00  0.00    -0.000 C 
BRANCH  25  26
ATOM     26  C   UNL     1     171.609 182.958 189.585  1.00  0.00    -0.000 C 
BRANCH  26  27
ATOM     27  C   UNL     1     172.943 183.503 189.048  1.00  0.00    -0.000 C 
BRANCH  27  28
ATOM     28  C   UNL     1     173.163 184.986 189.399  1.00  0.00    -0.000 C 
BRANCH  28  29
ATOM     29  C   UNL     1     173.981 185.727 188.321  1.00  0.00    -0.000 C 
BRANCH  29  30
ATOM     30  C   UNL     1     174.339 187.172 188.707  1.00  0.00    -0.000 C 
BRANCH  30  31
ATOM     31  C   UNL     1     174.154 187.453 190.205  1.00  0.00    -0.003 C 
ATOM     32  C   UNL     1     173.849 188.927 190.454  1.00  0.00     0.004 C 
ENDBRANCH  30  31
ENDBRANCH  29  30
ENDBRANCH  28  29
ENDBRANCH  27  28
ENDBRANCH  26  27
ENDBRANCH  25  26
ENDBRANCH  24  25
ENDBRANCH  23  24
ENDBRANCH  22  23
ENDBRANCH  21  22
ENDBRANCH  20  21
ENDBRANCH  19  20
ENDBRANCH  18  19
ENDBRANCH   1  18
TORSDOF 28
ENDMDL
