MODEL 1
REMARK VINA RESULT:    -1.606      0.000      0.000
REMARK INTER + INTRA:          -2.482
REMARK INTER:                  -2.452
REMARK INTRA:                  -0.031
REMARK UNBOUND:                -0.031
REMARK SMILES O=C([O-])CCCCCCCCC(=O)[O-]
REMARK SMILES IDX 7 1 6 2 5 3 4 4 2 5 1 6 3 7 8 8 9 9 10 10 11 11 12 12 13 13
REMARK SMILES IDX 14 14
REMARK H PARENT
REMARK Flexibility Score: inf
ROOT
ATOM      1  C   UNL     1       4.159   6.601 -10.180  1.00  0.00     0.000 C 
ENDROOT
BRANCH   1   2
ATOM      2  C   UNL     1       4.806   6.549 -11.576  1.00  0.00     0.000 C 
BRANCH   2   3
ATOM      3  C   UNL     1       5.005   7.921 -12.253  1.00  0.00     0.006 C 
BRANCH   3   4
ATOM      4  C   UNL     1       4.395   8.034 -13.659  1.00  0.00     0.053 C 
BRANCH   4   5
ATOM      5  C   UNL     1       3.170   7.185 -13.810  1.00  0.00     0.041 C 
ATOM      6  O   UNL     1       2.026   7.702 -13.718  1.00  0.00    -0.550 OA
ATOM      7  O   UNL     1       3.292   5.817 -14.018  1.00  0.00    -0.550 OA
ENDBRANCH   4   5
ENDBRANCH   3   4
ENDBRANCH   2   3
ENDBRANCH   1   2
BRANCH   1   8
ATOM      8  C   UNL     1       4.001   8.035  -9.650  1.00  0.00     0.000 C 
BRANCH   8   9
ATOM      9  C   UNL     1       4.152   8.125  -8.122  1.00  0.00     0.000 C 
BRANCH   9  10
ATOM     10  C   UNL     1       3.791   6.815  -7.389  1.00  0.00     0.006 C 
BRANCH  10  11
ATOM     11  C   UNL     1       4.371   6.765  -5.969  1.00  0.00     0.053 C 
BRANCH  11  12
ATOM     12  C   UNL     1       3.581   7.641  -5.050  1.00  0.00     0.041 C 
ATOM     13  O   UNL     1       4.056   7.979  -3.935  1.00  0.00    -0.550 OA
ATOM     14  O   UNL     1       2.340   8.124  -5.446  1.00  0.00    -0.550 OA
ENDBRANCH  11  12
ENDBRANCH  10  11
ENDBRANCH   9  10
ENDBRANCH   8   9
ENDBRANCH   1   8
TORSDOF 9
ENDMDL
MODEL 2
REMARK VINA RESULT:    -1.524     19.889     21.331
REMARK INTER + INTRA:          -2.357
REMARK INTER:                  -1.942
REMARK INTRA:                  -0.415
REMARK UNBOUND:                -0.031
REMARK SMILES O=C([O-])CCCCCCCCC(=O)[O-]
REMARK SMILES IDX 7 1 6 2 5 3 4 4 2 5 1 6 3 7 8 8 9 9 10 10 11 11 12 12 13 13
REMARK SMILES IDX 14 14
REMARK H PARENT
REMARK Flexibility Score: inf
ROOT
ATOM      1  C   UNL     1      -7.775 -10.024 -12.965  1.00  0.00     0.000 C 
ENDROOT
BRANCH   1   2
ATOM      2  C   UNL     1      -9.143 -10.603 -13.369  1.00  0.00     0.000 C 
BRANCH   2   3
ATOM      3  C   UNL     1      -9.594 -11.834 -12.555  1.00  0.00     0.006 C 
BRANCH   3   4
ATOM      4  C   UNL     1     -10.576 -11.521 -11.416  1.00  0.00     0.053 C 
BRANCH   4   5
ATOM      5  C   UNL     1      -9.893 -11.469 -10.083  1.00  0.00     0.041 C 
ATOM      6  O   UNL     1     -10.494 -10.999  -9.081  1.00  0.00    -0.550 OA
ATOM      7  O   UNL     1      -8.581 -11.906  -9.956  1.00  0.00    -0.550 OA
ENDBRANCH   4   5
ENDBRANCH   3   4
ENDBRANCH   2   3
ENDBRANCH   1   2
BRANCH   1   8
ATOM      8  C   UNL     1      -6.738 -10.101 -14.097  1.00  0.00     0.000 C 
BRANCH   8   9
ATOM      9  C   UNL     1      -5.370 -10.615 -13.617  1.00  0.00     0.000 C 
BRANCH   9  10
ATOM     10  C   UNL     1      -4.210  -9.638 -13.903  1.00  0.00     0.006 C 
BRANCH  10  11
ATOM     11  C   UNL     1      -4.701  -8.201 -14.125  1.00  0.00     0.053 C 
BRANCH  11  12
ATOM     12  C   UNL     1      -3.804  -7.228 -13.428  1.00  0.00     0.041 C 
ATOM     13  O   UNL     1      -3.376  -7.478 -12.272  1.00  0.00    -0.550 OA
ATOM     14  O   UNL     1      -3.402  -6.067 -14.076  1.00  0.00    -0.550 OA
ENDBRANCH  11  12
ENDBRANCH  10  11
ENDBRANCH   9  10
ENDBRANCH   8   9
ENDBRANCH   1   8
TORSDOF 9
ENDMDL
MODEL 3
REMARK VINA RESULT:    -1.278     18.974     20.400
REMARK INTER + INTRA:          -1.981
REMARK INTER:                  -1.639
REMARK INTRA:                  -0.342
REMARK UNBOUND:                -0.031
REMARK SMILES O=C([O-])CCCCCCCCC(=O)[O-]
REMARK SMILES IDX 7 1 6 2 5 3 4 4 2 5 1 6 3 7 8 8 9 9 10 10 11 11 12 12 13 13
REMARK SMILES IDX 14 14
REMARK H PARENT
REMARK Flexibility Score: inf
ROOT
ATOM      1  C   UNL     1      -6.142 -11.013 -13.340  1.00  0.00     0.000 C 
ENDROOT
BRANCH   1   2
ATOM      2  C   UNL     1      -7.581 -11.395 -12.952  1.00  0.00     0.000 C 
BRANCH   2   3
ATOM      3  C   UNL     1      -8.633 -10.289 -13.180  1.00  0.00     0.006 C 
BRANCH   3   4
ATOM      4  C   UNL     1      -9.489  -9.958 -11.948  1.00  0.00     0.053 C 
BRANCH   4   5
ATOM      5  C   UNL     1      -9.968 -11.194 -11.248  1.00  0.00     0.041 C 
ATOM      6  O   UNL     1      -9.561 -11.461 -10.086  1.00  0.00    -0.550 OA
ATOM      7  O   UNL     1     -10.835 -12.067 -11.892  1.00  0.00    -0.550 OA
ENDBRANCH   4   5
ENDBRANCH   3   4
ENDBRANCH   2   3
ENDBRANCH   1   2
BRANCH   1   8
ATOM      8  C   UNL     1      -6.022  -9.562 -13.830  1.00  0.00     0.000 C 
BRANCH   8   9
ATOM      9  C   UNL     1      -4.564  -9.078 -13.909  1.00  0.00     0.000 C 
BRANCH   9  10
ATOM     10  C   UNL     1      -4.318  -7.741 -13.178  1.00  0.00     0.006 C 
BRANCH  10  11
ATOM     11  C   UNL     1      -3.768  -6.659 -14.117  1.00  0.00     0.053 C 
BRANCH  11  12
ATOM     12  C   UNL     1      -2.662  -5.902 -13.453  1.00  0.00     0.041 C 
ATOM     13  O   UNL     1      -2.094  -4.954 -14.054  1.00  0.00    -0.550 OA
ATOM     14  O   UNL     1      -2.292  -6.212 -12.150  1.00  0.00    -0.550 OA
ENDBRANCH  11  12
ENDBRANCH  10  11
ENDBRANCH   9  10
ENDBRANCH   8   9
ENDBRANCH   1   8
TORSDOF 9
ENDMDL
MODEL 4
REMARK VINA RESULT:    -1.154     21.110     22.487
REMARK INTER + INTRA:          -1.792
REMARK INTER:                  -2.793
REMARK INTRA:                   1.002
REMARK UNBOUND:                -0.031
REMARK SMILES O=C([O-])CCCCCCCCC(=O)[O-]
REMARK SMILES IDX 7 1 6 2 5 3 4 4 2 5 1 6 3 7 8 8 9 9 10 10 11 11 12 12 13 13
REMARK SMILES IDX 14 14
REMARK H PARENT
REMARK Flexibility Score: inf
ROOT
ATOM      1  C   UNL     1      -8.365 -10.958 -11.242  1.00  0.00     0.000 C 
ENDROOT
BRANCH   1   2
ATOM      2  C   UNL     1      -9.357 -11.454 -10.174  1.00  0.00     0.000 C 
BRANCH   2   3
ATOM      3  C   UNL     1     -10.623 -10.588 -10.009  1.00  0.00     0.006 C 
BRANCH   3   4
ATOM      4  C   UNL     1     -11.125  -9.937 -11.307  1.00  0.00     0.053 C 
BRANCH   4   5
ATOM      5  C   UNL     1     -11.058 -10.878 -12.471  1.00  0.00     0.041 C 
ATOM      6  O   UNL     1     -10.998 -12.121 -12.277  1.00  0.00    -0.550 OA
ATOM      7  O   UNL     1     -11.026 -10.382 -13.768  1.00  0.00    -0.550 OA
ENDBRANCH   4   5
ENDBRANCH   3   4
ENDBRANCH   2   3
ENDBRANCH   1   2
BRANCH   1   8
ATOM      8  C   UNL     1      -7.716 -12.106 -12.031  1.00  0.00     0.000 C 
BRANCH   8   9
ATOM      9  C   UNL     1      -7.742 -11.873 -13.551  1.00  0.00     0.000 C 
BRANCH   9  10
ATOM     10  C   UNL     1      -6.391 -11.396 -14.125  1.00  0.00     0.006 C 
BRANCH  10  11
ATOM     11  C   UNL     1      -6.168  -9.893 -13.911  1.00  0.00     0.053 C 
BRANCH  11  12
ATOM     12  C   UNL     1      -4.774  -9.634 -13.435  1.00  0.00     0.041 C 
ATOM     13  O   UNL     1      -3.923 -10.561 -13.434  1.00  0.00    -0.550 OA
ATOM     14  O   UNL     1      -4.400  -8.356 -13.039  1.00  0.00    -0.550 OA
ENDBRANCH  11  12
ENDBRANCH  10  11
ENDBRANCH   9  10
ENDBRANCH   8   9
ENDBRANCH   1   8
TORSDOF 9
ENDMDL
MODEL 5
REMARK VINA RESULT:     0.236     10.868     12.871
REMARK INTER + INTRA:           0.329
REMARK INTER:                   0.720
REMARK INTRA:                  -0.391
REMARK UNBOUND:                -0.031
REMARK SMILES O=C([O-])CCCCCCCCC(=O)[O-]
REMARK SMILES IDX 7 1 6 2 5 3 4 4 2 5 1 6 3 7 8 8 9 9 10 10 11 11 12 12 13 13
REMARK SMILES IDX 14 14
REMARK H PARENT
REMARK Flexibility Score: inf
ROOT
ATOM      1  C   UNL     1       6.841  -4.410 -10.944  1.00  0.00     0.000 C 
ENDROOT
BRANCH   1   2
ATOM      2  C   UNL     1       7.458  -5.369 -11.978  1.00  0.00     0.000 C 
BRANCH   2   3
ATOM      3  C   UNL     1       6.920  -5.211 -13.415  1.00  0.00     0.006 C 
BRANCH   3   4
ATOM      4  C   UNL     1       6.570  -6.534 -14.114  1.00  0.00     0.053 C 
BRANCH   4   5
ATOM      5  C   UNL     1       5.095  -6.800 -14.109  1.00  0.00     0.041 C 
ATOM      6  O   UNL     1       4.665  -7.984 -14.123  1.00  0.00    -0.550 OA
ATOM      7  O   UNL     1       4.197  -5.741 -14.123  1.00  0.00    -0.550 OA
ENDBRANCH   4   5
ENDBRANCH   3   4
ENDBRANCH   2   3
ENDBRANCH   1   2
BRANCH   1   8
ATOM      8  C   UNL     1       5.610  -3.665 -11.484  1.00  0.00     0.000 C 
BRANCH   8   9
ATOM      9  C   UNL     1       5.901  -2.190 -11.807  1.00  0.00     0.000 C 
BRANCH   9  10
ATOM     10  C   UNL     1       6.015  -1.902 -13.320  1.00  0.00     0.006 C 
BRANCH  10  11
ATOM     11  C   UNL     1       4.896  -2.576 -14.125  1.00  0.00     0.053 C 
BRANCH  11  12
ATOM     12  C   UNL     1       3.573  -1.961 -13.798  1.00  0.00     0.041 C 
ATOM     13  O   UNL     1       2.533  -2.669 -13.782  1.00  0.00    -0.550 OA
ATOM     14  O   UNL     1       3.495  -0.615 -13.464  1.00  0.00    -0.550 OA
ENDBRANCH  11  12
ENDBRANCH  10  11
ENDBRANCH   9  10
ENDBRANCH   8   9
ENDBRANCH   1   8
TORSDOF 9
ENDMDL
MODEL 6
REMARK VINA RESULT:     1.364     11.059     12.835
REMARK INTER + INTRA:           2.050
REMARK INTER:                   2.362
REMARK INTRA:                  -0.312
REMARK UNBOUND:                -0.031
REMARK SMILES O=C([O-])CCCCCCCCC(=O)[O-]
REMARK SMILES IDX 7 1 6 2 5 3 4 4 2 5 1 6 3 7 8 8 9 9 10 10 11 11 12 12 13 13
REMARK SMILES IDX 14 14
REMARK H PARENT
REMARK Flexibility Score: inf
ROOT
ATOM      1  C   UNL     1       4.322  -2.087 -12.383  1.00  0.00     0.000 C 
ENDROOT
BRANCH   1   2
ATOM      2  C   UNL     1       5.752  -2.656 -12.359  1.00  0.00     0.000 C 
BRANCH   2   3
ATOM      3  C   UNL     1       6.491  -2.616 -13.713  1.00  0.00     0.006 C 
BRANCH   3   4
ATOM      4  C   UNL     1       7.147  -3.945 -14.122  1.00  0.00     0.053 C 
BRANCH   4   5
ATOM      5  C   UNL     1       6.737  -5.073 -13.225  1.00  0.00     0.041 C 
ATOM      6  O   UNL     1       7.378  -5.306 -12.166  1.00  0.00    -0.550 OA
ATOM      7  O   UNL     1       5.669  -5.889 -13.576  1.00  0.00    -0.550 OA
ENDBRANCH   4   5
ENDBRANCH   3   4
ENDBRANCH   2   3
ENDBRANCH   1   2
BRANCH   1   8
ATOM      8  C   UNL     1       3.708  -2.078 -13.792  1.00  0.00     0.000 C 
BRANCH   8   9
ATOM      9  C   UNL     1       2.922  -3.362 -14.107  1.00  0.00     0.000 C 
BRANCH   9  10
ATOM     10  C   UNL     1       1.392  -3.160 -14.125  1.00  0.00     0.006 C 
BRANCH  10  11
ATOM     11  C   UNL     1       0.630  -4.491 -14.123  1.00  0.00     0.053 C 
BRANCH  11  12
ATOM     12  C   UNL     1      -0.655  -4.358 -13.368  1.00  0.00     0.041 C 
ATOM     13  O   UNL     1      -0.770  -3.491 -12.464  1.00  0.00    -0.550 OA
ATOM     14  O   UNL     1      -1.741  -5.160 -13.697  1.00  0.00    -0.550 OA
ENDBRANCH  11  12
ENDBRANCH  10  11
ENDBRANCH   9  10
ENDBRANCH   8   9
ENDBRANCH   1   8
TORSDOF 9
ENDMDL
