MODEL 1
REMARK VINA RESULT:    -6.576      0.000      0.000
REMARK INTER + INTRA:         -11.878
REMARK INTER:                  -9.844
REMARK INTRA:                  -2.034
REMARK UNBOUND:                -2.034
REMARK SMILES C=C(CC[C@@H](C(=O)[O-])[C@@H]1[C@@H](O)C[C@@]2(C)C3=C(CC[C@@]12C)[C@@]1(C)CC[C@H](OC(C)=O)C(C)(C)[C@@H]1CC3)C(C)C
REMARK SMILES IDX 4 1 5 2 6 3 7 4 8 5 9 6 10 7 19 8 12 9 13 10 18 11 20 12
REMARK SMILES IDX 14 13 15 14 17 15 16 16 35 17 21 18 34 19 33 20 23 21 22 22
REMARK SMILES IDX 30 23 24 24 25 25 31 26 32 27 11 28 26 30 27 31 29 32 28 33
REMARK SMILES IDX 3 34 2 35 1 36 36 37 37 38 38 39
REMARK H PARENT 11 29
REMARK Flexibility Score: inf
ROOT
ATOM      1  C   UNL     1       3.511  24.401  63.597  1.00  0.00     0.014 C 
ENDROOT
BRANCH   1   2
ATOM      2  C   UNL     1       2.757  24.763  62.272  1.00  0.00     0.042 C 
BRANCH   2   3
ATOM      3  C   UNL     1       3.222  23.944  61.089  1.00  0.00     0.045 C 
ATOM      4  O   UNL     1       3.651  24.526  60.057  1.00  0.00    -0.550 OA
ATOM      5  O   UNL     1       3.183  22.552  61.108  1.00  0.00    -0.550 OA
ENDBRANCH   2   3
BRANCH   2   6
ATOM      6  C   UNL     1       1.181  24.864  62.317  1.00  0.00     0.033 C 
ATOM      7  C   UNL     1       0.494  24.177  61.107  1.00  0.00     0.119 C 
ATOM      8  C   UNL     1       0.422  26.242  62.528  1.00  0.00    -0.017 C 
ATOM      9  C   UNL     1      -0.723  25.023  60.738  1.00  0.00     0.043 C 
ATOM     10  C   UNL     1      -0.408  26.458  61.206  1.00  0.00    -0.003 C 
ATOM     11  C   UNL     1      -0.591  26.060  63.700  1.00  0.00     0.012 C 
ATOM     12  C   UNL     1       1.323  27.459  62.893  1.00  0.00     0.013 C 
ATOM     13  C   UNL     1       0.416  27.197  60.118  1.00  0.00     0.017 C 
ATOM     14  C   UNL     1      -1.712  27.250  61.414  1.00  0.00    -0.064 C 
ATOM     15  C   UNL     1      -1.491  27.287  63.899  1.00  0.00     0.032 C 
ATOM     16  C   UNL     1      -1.993  27.879  62.584  1.00  0.00    -0.064 C 
ATOM     17  C   UNL     1      -2.716  27.352  60.277  1.00  0.00     0.032 C 
ATOM     18  C   UNL     1      -2.990  29.063  62.598  1.00  0.00    -0.008 C 
ATOM     19  C   UNL     1      -3.272  28.769  60.043  1.00  0.00     0.009 C 
ATOM     20  C   UNL     1      -2.947  29.760  61.187  1.00  0.00     0.009 C 
ATOM     21  C   UNL     1      -2.542  30.099  63.696  1.00  0.00     0.015 C 
ATOM     22  C   UNL     1      -4.392  28.478  62.924  1.00  0.00     0.016 C 
ATOM     23  C   UNL     1      -3.689  31.175  61.056  1.00  0.00     0.005 C 
ATOM     24  C   UNL     1      -2.774  31.594  63.398  1.00  0.00     0.047 C 
ATOM     25  C   UNL     1      -3.928  31.856  62.447  1.00  0.00     0.182 C 
ATOM     26  C   UNL     1      -5.041  31.103  60.299  1.00  0.00     0.015 C 
ATOM     27  C   UNL     1      -2.777  32.114  60.212  1.00  0.00     0.015 C 
BRANCH   7  28
ATOM     28  O   UNL     1       0.141  22.838  61.374  1.00  0.00    -0.393 OA
ATOM     29  H   UNL     1      -0.632  22.601  60.799  1.00  0.00     0.210 HD
ENDBRANCH   7  28
BRANCH  25  30
ATOM     30  O   UNL     1      -5.134  31.411  63.081  1.00  0.00    -0.462 OA
BRANCH  30  31
ATOM     31  C   UNL     1      -5.666  31.961  64.252  1.00  0.00     0.302 C 
ATOM     32  O   UNL     1      -5.749  33.207  64.409  1.00  0.00    -0.253 OA
ATOM     33  C   UNL     1      -6.131  31.050  65.336  1.00  0.00     0.139 C 
ENDBRANCH  30  31
ENDBRANCH  25  30
ENDBRANCH   2   6
ENDBRANCH   1   2
BRANCH   1  34
ATOM     34  C   UNL     1       4.177  25.595  64.311  1.00  0.00     0.031 C 
BRANCH  34  35
ATOM     35  C   UNL     1       4.033  25.575  65.826  1.00  0.00    -0.075 C 
ATOM     36  C   UNL     1       4.693  24.654  66.547  1.00  0.00     0.008 C 
BRANCH  35  37
ATOM     37  C   UNL     1       3.255  26.694  66.507  1.00  0.00     0.008 C 
ATOM     38  C   UNL     1       3.528  28.060  65.867  1.00  0.00     0.012 C 
ATOM     39  C   UNL     1       1.754  26.375  66.533  1.00  0.00     0.012 C 
ENDBRANCH  35  37
ENDBRANCH  34  35
ENDBRANCH   1  34
TORSDOF 9
ENDMDL
MODEL 2
REMARK VINA RESULT:    -6.233      3.746      8.190
REMARK INTER + INTRA:         -11.365
REMARK INTER:                 -10.471
REMARK INTRA:                  -0.894
REMARK UNBOUND:                -2.034
REMARK SMILES C=C(CC[C@@H](C(=O)[O-])[C@@H]1[C@@H](O)C[C@@]2(C)C3=C(CC[C@@]12C)[C@@]1(C)CC[C@H](OC(C)=O)C(C)(C)[C@@H]1CC3)C(C)C
REMARK SMILES IDX 4 1 5 2 6 3 7 4 8 5 9 6 10 7 19 8 12 9 13 10 18 11 20 12
REMARK SMILES IDX 14 13 15 14 17 15 16 16 35 17 21 18 34 19 33 20 23 21 22 22
REMARK SMILES IDX 30 23 24 24 25 25 31 26 32 27 11 28 26 30 27 31 29 32 28 33
REMARK SMILES IDX 3 34 2 35 1 36 36 37 37 38 38 39
REMARK H PARENT 11 29
REMARK Flexibility Score: inf
ROOT
ATOM      1  C   UNL     1      -3.436  23.831  61.461  1.00  0.00     0.014 C 
ENDROOT
BRANCH   1   2
ATOM      2  C   UNL     1      -3.928  25.301  61.235  1.00  0.00     0.042 C 
BRANCH   2   3
ATOM      3  C   UNL     1      -5.324  25.542  61.763  1.00  0.00     0.045 C 
ATOM      4  O   UNL     1      -6.082  24.561  61.992  1.00  0.00    -0.550 OA
ATOM      5  O   UNL     1      -5.800  26.829  62.001  1.00  0.00    -0.550 OA
ENDBRANCH   2   3
BRANCH   2   6
ATOM      6  C   UNL     1      -2.953  26.480  61.630  1.00  0.00     0.033 C 
ATOM      7  C   UNL     1      -2.223  27.099  60.408  1.00  0.00     0.119 C 
ATOM      8  C   UNL     1      -1.856  26.333  62.768  1.00  0.00    -0.017 C 
ATOM      9  C   UNL     1      -0.811  27.465  60.863  1.00  0.00     0.043 C 
ATOM     10  C   UNL     1      -0.475  26.516  62.031  1.00  0.00    -0.003 C 
ATOM     11  C   UNL     1      -2.026  27.525  63.758  1.00  0.00     0.012 C 
ATOM     12  C   UNL     1      -1.933  25.027  63.613  1.00  0.00     0.013 C 
ATOM     13  C   UNL     1       0.069  25.173  61.476  1.00  0.00     0.017 C 
ATOM     14  C   UNL     1       0.625  27.129  62.917  1.00  0.00    -0.064 C 
ATOM     15  C   UNL     1      -0.922  27.572  64.823  1.00  0.00     0.032 C 
ATOM     16  C   UNL     1       0.466  27.285  64.257  1.00  0.00    -0.064 C 
ATOM     17  C   UNL     1       1.940  27.559  62.288  1.00  0.00     0.032 C 
ATOM     18  C   UNL     1       1.711  27.384  65.170  1.00  0.00    -0.008 C 
ATOM     19  C   UNL     1       3.194  27.118  63.066  1.00  0.00     0.009 C 
ATOM     20  C   UNL     1       2.888  26.589  64.488  1.00  0.00     0.009 C 
ATOM     21  C   UNL     1       1.383  26.722  66.560  1.00  0.00     0.015 C 
ATOM     22  C   UNL     1       2.040  28.894  65.336  1.00  0.00     0.016 C 
ATOM     23  C   UNL     1       4.191  26.320  65.381  1.00  0.00     0.005 C 
ATOM     24  C   UNL     1       2.523  25.967  67.274  1.00  0.00     0.047 C 
ATOM     25  C   UNL     1       3.909  26.471  66.914  1.00  0.00     0.182 C 
ATOM     26  C   UNL     1       5.399  27.218  65.007  1.00  0.00     0.015 C 
ATOM     27  C   UNL     1       4.653  24.855  65.119  1.00  0.00     0.015 C 
BRANCH   7  28
ATOM     28  O   UNL     1      -2.907  28.212  59.876  1.00  0.00    -0.393 OA
ATOM     29  H   UNL     1      -3.854  27.953  59.733  1.00  0.00     0.210 HD
ENDBRANCH   7  28
BRANCH  25  30
ATOM     30  O   UNL     1       4.019  27.826  67.366  1.00  0.00    -0.462 OA
BRANCH  30  31
ATOM     31  C   UNL     1       4.032  28.217  68.709  1.00  0.00     0.302 C 
ATOM     32  O   UNL     1       3.101  28.910  69.197  1.00  0.00    -0.253 OA
ATOM     33  C   UNL     1       5.178  27.814  69.572  1.00  0.00     0.139 C 
ENDBRANCH  30  31
ENDBRANCH  25  30
ENDBRANCH   2   6
ENDBRANCH   1   2
BRANCH   1  34
ATOM     34  C   UNL     1      -3.726  22.864  60.294  1.00  0.00     0.031 C 
BRANCH  34  35
ATOM     35  C   UNL     1      -4.479  21.606  60.700  1.00  0.00    -0.075 C 
ATOM     36  C   UNL     1      -5.473  21.144  59.922  1.00  0.00     0.008 C 
BRANCH  35  37
ATOM     37  C   UNL     1      -3.996  20.813  61.907  1.00  0.00     0.008 C 
ATOM     38  C   UNL     1      -5.070  20.707  62.996  1.00  0.00     0.012 C 
ATOM     39  C   UNL     1      -3.489  19.429  61.480  1.00  0.00     0.012 C 
ENDBRANCH  35  37
ENDBRANCH  34  35
ENDBRANCH   1  34
TORSDOF 9
ENDMDL
MODEL 3
REMARK VINA RESULT:    -6.157      3.987      7.577
REMARK INTER + INTRA:         -11.251
REMARK INTER:                  -9.913
REMARK INTRA:                  -1.338
REMARK UNBOUND:                -2.034
REMARK SMILES C=C(CC[C@@H](C(=O)[O-])[C@@H]1[C@@H](O)C[C@@]2(C)C3=C(CC[C@@]12C)[C@@]1(C)CC[C@H](OC(C)=O)C(C)(C)[C@@H]1CC3)C(C)C
REMARK SMILES IDX 4 1 5 2 6 3 7 4 8 5 9 6 10 7 19 8 12 9 13 10 18 11 20 12
REMARK SMILES IDX 14 13 15 14 17 15 16 16 35 17 21 18 34 19 33 20 23 21 22 22
REMARK SMILES IDX 30 23 24 24 25 25 31 26 32 27 11 28 26 30 27 31 29 32 28 33
REMARK SMILES IDX 3 34 2 35 1 36 36 37 37 38 38 39
REMARK H PARENT 11 29
REMARK Flexibility Score: inf
ROOT
ATOM      1  C   UNL     1      -3.589  24.966  61.520  1.00  0.00     0.014 C 
ENDROOT
BRANCH   1   2
ATOM      2  C   UNL     1      -2.823  26.108  60.770  1.00  0.00     0.042 C 
BRANCH   2   3
ATOM      3  C   UNL     1      -3.708  27.289  60.438  1.00  0.00     0.045 C 
ATOM      4  O   UNL     1      -3.203  28.325  59.928  1.00  0.00    -0.550 OA
ATOM      5  O   UNL     1      -5.078  27.264  60.689  1.00  0.00    -0.550 OA
ENDBRANCH   2   3
BRANCH   2   6
ATOM      6  C   UNL     1      -1.433  26.579  61.353  1.00  0.00     0.033 C 
ATOM      7  C   UNL     1      -0.344  25.473  61.292  1.00  0.00     0.119 C 
ATOM      8  C   UNL     1      -1.293  27.254  62.782  1.00  0.00    -0.017 C 
ATOM      9  C   UNL     1       0.510  25.611  62.551  1.00  0.00     0.043 C 
ATOM     10  C   UNL     1      -0.394  26.264  63.616  1.00  0.00    -0.003 C 
ATOM     11  C   UNL     1      -0.499  28.585  62.612  1.00  0.00     0.012 C 
ATOM     12  C   UNL     1      -2.632  27.612  63.492  1.00  0.00     0.013 C 
ATOM     13  C   UNL     1      -1.238  25.172  64.327  1.00  0.00     0.017 C 
ATOM     14  C   UNL     1       0.463  26.957  64.691  1.00  0.00    -0.064 C 
ATOM     15  C   UNL     1      -0.172  29.255  63.953  1.00  0.00     0.032 C 
ATOM     16  C   UNL     1       0.285  28.263  65.020  1.00  0.00    -0.064 C 
ATOM     17  C   UNL     1       1.531  26.163  65.425  1.00  0.00     0.032 C 
ATOM     18  C   UNL     1       0.747  28.774  66.406  1.00  0.00    -0.008 C 
ATOM     19  C   UNL     1       1.546  26.374  66.950  1.00  0.00     0.009 C 
ATOM     20  C   UNL     1       0.685  27.571  67.421  1.00  0.00     0.009 C 
ATOM     21  C   UNL     1      -0.235  29.905  66.891  1.00  0.00     0.015 C 
ATOM     22  C   UNL     1       2.190  29.325  66.234  1.00  0.00     0.016 C 
ATOM     23  C   UNL     1       0.853  27.927  68.974  1.00  0.00     0.005 C 
ATOM     24  C   UNL     1      -0.534  29.987  68.401  1.00  0.00     0.047 C 
ATOM     25  C   UNL     1       0.581  29.440  69.275  1.00  0.00     0.182 C 
ATOM     26  C   UNL     1       2.239  27.547  69.555  1.00  0.00     0.015 C 
ATOM     27  C   UNL     1      -0.188  27.085  69.770  1.00  0.00     0.015 C 
BRANCH   7  28
ATOM     28  O   UNL     1       0.435  25.546  60.118  1.00  0.00    -0.393 OA
ATOM     29  H   UNL     1       0.224  24.755  59.558  1.00  0.00     0.210 HD
ENDBRANCH   7  28
BRANCH  25  30
ATOM     30  O   UNL     1       1.739  30.260  69.079  1.00  0.00    -0.462 OA
BRANCH  30  31
ATOM     31  C   UNL     1       2.260  31.141  70.033  1.00  0.00     0.302 C 
ATOM     32  O   UNL     1       2.612  30.737  71.173  1.00  0.00    -0.253 OA
ATOM     33  C   UNL     1       2.388  32.586  69.694  1.00  0.00     0.139 C 
ENDBRANCH  30  31
ENDBRANCH  25  30
ENDBRANCH   2   6
ENDBRANCH   1   2
BRANCH   1  34
ATOM     34  C   UNL     1      -3.764  23.664  60.712  1.00  0.00     0.031 C 
BRANCH  34  35
ATOM     35  C   UNL     1      -3.546  22.393  61.520  1.00  0.00    -0.075 C 
ATOM     36  C   UNL     1      -2.652  22.385  62.522  1.00  0.00     0.008 C 
BRANCH  35  37
ATOM     37  C   UNL     1      -4.453  21.195  61.270  1.00  0.00     0.008 C 
ATOM     38  C   UNL     1      -5.090  21.234  59.875  1.00  0.00     0.012 C 
ATOM     39  C   UNL     1      -3.695  19.882  61.505  1.00  0.00     0.012 C 
ENDBRANCH  35  37
ENDBRANCH  34  35
ENDBRANCH   1  34
TORSDOF 9
ENDMDL
MODEL 4
REMARK VINA RESULT:    -6.032      6.034      8.338
REMARK INTER + INTRA:         -11.064
REMARK INTER:                  -8.771
REMARK INTRA:                  -2.293
REMARK UNBOUND:                -2.034
REMARK SMILES C=C(CC[C@@H](C(=O)[O-])[C@@H]1[C@@H](O)C[C@@]2(C)C3=C(CC[C@@]12C)[C@@]1(C)CC[C@H](OC(C)=O)C(C)(C)[C@@H]1CC3)C(C)C
REMARK SMILES IDX 4 1 5 2 6 3 7 4 8 5 9 6 10 7 19 8 12 9 13 10 18 11 20 12
REMARK SMILES IDX 14 13 15 14 17 15 16 16 35 17 21 18 34 19 33 20 23 21 22 22
REMARK SMILES IDX 30 23 24 24 25 25 31 26 32 27 11 28 26 30 27 31 29 32 28 33
REMARK SMILES IDX 3 34 2 35 1 36 36 37 37 38 38 39
REMARK H PARENT 11 29
REMARK Flexibility Score: inf
ROOT
ATOM      1  C   UNL     1       8.383  34.529  63.925  1.00  0.00     0.014 C 
ENDROOT
BRANCH   1   2
ATOM      2  C   UNL     1       6.826  34.568  63.760  1.00  0.00     0.042 C 
BRANCH   2   3
ATOM      3  C   UNL     1       6.278  35.976  63.696  1.00  0.00     0.045 C 
ATOM      4  O   UNL     1       5.212  36.259  64.307  1.00  0.00    -0.550 OA
ATOM      5  O   UNL     1       6.921  36.975  62.970  1.00  0.00    -0.550 OA
ENDBRANCH   2   3
BRANCH   2   6
ATOM      6  C   UNL     1       6.172  33.646  62.657  1.00  0.00     0.033 C 
ATOM      7  C   UNL     1       5.690  34.438  61.412  1.00  0.00     0.119 C 
ATOM      8  C   UNL     1       5.018  32.608  62.989  1.00  0.00    -0.017 C 
ATOM      9  C   UNL     1       4.400  33.778  60.928  1.00  0.00     0.043 C 
ATOM     10  C   UNL     1       3.771  33.104  62.163  1.00  0.00    -0.003 C 
ATOM     11  C   UNL     1       5.441  31.219  62.421  1.00  0.00     0.012 C 
ATOM     12  C   UNL     1       4.711  32.405  64.503  1.00  0.00     0.013 C 
ATOM     13  C   UNL     1       2.926  34.139  62.953  1.00  0.00     0.017 C 
ATOM     14  C   UNL     1       2.824  31.970  61.728  1.00  0.00    -0.064 C 
ATOM     15  C   UNL     1       4.334  30.164  62.554  1.00  0.00     0.032 C 
ATOM     16  C   UNL     1       2.950  30.705  62.206  1.00  0.00    -0.064 C 
ATOM     17  C   UNL     1       1.699  32.268  60.751  1.00  0.00     0.032 C 
ATOM     18  C   UNL     1       1.728  29.755  62.191  1.00  0.00    -0.008 C 
ATOM     19  C   UNL     1       0.336  31.669  61.145  1.00  0.00     0.009 C 
ATOM     20  C   UNL     1       0.422  30.630  62.289  1.00  0.00     0.009 C 
ATOM     21  C   UNL     1       1.803  28.802  63.443  1.00  0.00     0.015 C 
ATOM     22  C   UNL     1       1.795  28.942  60.868  1.00  0.00     0.016 C 
ATOM     23  C   UNL     1      -0.950  29.851  62.570  1.00  0.00     0.005 C 
ATOM     24  C   UNL     1       0.472  28.402  64.111  1.00  0.00     0.047 C 
ATOM     25  C   UNL     1      -0.716  28.421  63.165  1.00  0.00     0.182 C 
ATOM     26  C   UNL     1      -1.863  29.726  61.323  1.00  0.00     0.015 C 
ATOM     27  C   UNL     1      -1.762  30.678  63.611  1.00  0.00     0.015 C 
BRANCH   7  28
ATOM     28  O   UNL     1       6.666  34.492  60.394  1.00  0.00    -0.393 OA
ATOM     29  H   UNL     1       6.914  35.443  60.255  1.00  0.00     0.210 HD
ENDBRANCH   7  28
BRANCH  25  30
ATOM     30  O   UNL     1      -0.494  27.430  62.154  1.00  0.00    -0.462 OA
BRANCH  30  31
ATOM     31  C   UNL     1      -0.414  26.055  62.394  1.00  0.00     0.302 C 
ATOM     32  O   UNL     1       0.620  25.399  62.101  1.00  0.00    -0.253 OA
ATOM     33  C   UNL     1      -1.582  25.354  62.997  1.00  0.00     0.139 C 
ENDBRANCH  30  31
ENDBRANCH  25  30
ENDBRANCH   2   6
ENDBRANCH   1   2
BRANCH   1  34
ATOM     34  C   UNL     1       9.066  33.274  63.342  1.00  0.00     0.031 C 
BRANCH  34  35
ATOM     35  C   UNL     1       9.432  32.224  64.380  1.00  0.00    -0.075 C 
ATOM     36  C   UNL     1      10.699  31.789  64.471  1.00  0.00     0.008 C 
BRANCH  35  37
ATOM     37  C   UNL     1       8.380  31.791  65.393  1.00  0.00     0.008 C 
ATOM     38  C   UNL     1       7.847  30.382  65.107  1.00  0.00     0.012 C 
ATOM     39  C   UNL     1       8.925  31.905  66.824  1.00  0.00     0.012 C 
ENDBRANCH  35  37
ENDBRANCH  34  35
ENDBRANCH   1  34
TORSDOF 9
ENDMDL
MODEL 5
REMARK VINA RESULT:    -6.012      5.574      8.172
REMARK INTER + INTRA:         -11.034
REMARK INTER:                  -9.369
REMARK INTRA:                  -1.664
REMARK UNBOUND:                -2.034
REMARK SMILES C=C(CC[C@@H](C(=O)[O-])[C@@H]1[C@@H](O)C[C@@]2(C)C3=C(CC[C@@]12C)[C@@]1(C)CC[C@H](OC(C)=O)C(C)(C)[C@@H]1CC3)C(C)C
REMARK SMILES IDX 4 1 5 2 6 3 7 4 8 5 9 6 10 7 19 8 12 9 13 10 18 11 20 12
REMARK SMILES IDX 14 13 15 14 17 15 16 16 35 17 21 18 34 19 33 20 23 21 22 22
REMARK SMILES IDX 30 23 24 24 25 25 31 26 32 27 11 28 26 30 27 31 29 32 28 33
REMARK SMILES IDX 3 34 2 35 1 36 36 37 37 38 38 39
REMARK H PARENT 11 29
REMARK Flexibility Score: inf
ROOT
ATOM      1  C   UNL     1       6.342  34.113  64.437  1.00  0.00     0.014 C 
ENDROOT
BRANCH   1   2
ATOM      2  C   UNL     1       5.150  34.135  63.421  1.00  0.00     0.042 C 
BRANCH   2   3
ATOM      3  C   UNL     1       5.057  35.433  62.652  1.00  0.00     0.045 C 
ATOM      4  O   UNL     1       6.090  35.916  62.115  1.00  0.00    -0.550 OA
ATOM      5  O   UNL     1       3.852  36.119  62.526  1.00  0.00    -0.550 OA
ENDBRANCH   2   3
BRANCH   2   6
ATOM      6  C   UNL     1       4.961  32.888  62.470  1.00  0.00     0.033 C 
ATOM      7  C   UNL     1       4.698  33.287  60.992  1.00  0.00     0.119 C 
ATOM      8  C   UNL     1       3.943  31.715  62.795  1.00  0.00    -0.017 C 
ATOM      9  C   UNL     1       3.702  32.279  60.423  1.00  0.00     0.043 C 
ATOM     10  C   UNL     1       2.890  31.750  61.623  1.00  0.00    -0.003 C 
ATOM     11  C   UNL     1       4.716  30.364  62.697  1.00  0.00     0.012 C 
ATOM     12  C   UNL     1       3.290  31.762  64.208  1.00  0.00     0.013 C 
ATOM     13  C   UNL     1       1.714  32.717  61.928  1.00  0.00     0.017 C 
ATOM     14  C   UNL     1       2.282  30.375  61.292  1.00  0.00    -0.064 C 
ATOM     15  C   UNL     1       3.797  29.144  62.847  1.00  0.00     0.032 C 
ATOM     16  C   UNL     1       2.482  29.291  62.086  1.00  0.00    -0.064 C 
ATOM     17  C   UNL     1       1.417  30.216  60.052  1.00  0.00     0.032 C 
ATOM     18  C   UNL     1       1.475  28.116  62.046  1.00  0.00    -0.008 C 
ATOM     19  C   UNL     1       0.113  29.430  60.280  1.00  0.00     0.009 C 
ATOM     20  C   UNL     1       0.065  28.689  61.639  1.00  0.00     0.009 C 
ATOM     21  C   UNL     1       1.374  27.477  63.482  1.00  0.00     0.015 C 
ATOM     22  C   UNL     1       2.012  27.085  61.015  1.00  0.00     0.016 C 
ATOM     23  C   UNL     1      -1.189  27.705  61.804  1.00  0.00     0.005 C 
ATOM     24  C   UNL     1      -0.002  26.943  63.926  1.00  0.00     0.047 C 
ATOM     25  C   UNL     1      -0.892  26.512  62.773  1.00  0.00     0.182 C 
ATOM     26  C   UNL     1      -1.715  27.135  60.461  1.00  0.00     0.015 C 
ATOM     27  C   UNL     1      -2.365  28.531  62.405  1.00  0.00     0.015 C 
BRANCH   7  28
ATOM     28  O   UNL     1       5.882  33.343  60.228  1.00  0.00    -0.393 OA
ATOM     29  H   UNL     1       5.638  33.246  59.272  1.00  0.00     0.210 HD
ENDBRANCH   7  28
BRANCH  25  30
ATOM     30  O   UNL     1      -0.258  25.408  62.115  1.00  0.00    -0.462 OA
BRANCH  30  31
ATOM     31  C   UNL     1      -0.607  24.066  62.299  1.00  0.00     0.302 C 
ATOM     32  O   UNL     1       0.199  23.138  62.028  1.00  0.00    -0.253 OA
ATOM     33  C   UNL     1      -1.966  23.733  62.814  1.00  0.00     0.139 C 
ENDBRANCH  30  31
ENDBRANCH  25  30
ENDBRANCH   2   6
ENDBRANCH   1   2
BRANCH   1  34
ATOM     34  C   UNL     1       7.272  32.888  64.319  1.00  0.00     0.031 C 
BRANCH  34  35
ATOM     35  C   UNL     1       8.597  33.174  63.628  1.00  0.00    -0.075 C 
ATOM     36  C   UNL     1       8.628  33.366  62.298  1.00  0.00     0.008 C 
BRANCH  35  37
ATOM     37  C   UNL     1       9.843  33.381  64.478  1.00  0.00     0.008 C 
ATOM     38  C   UNL     1      10.644  32.085  64.654  1.00  0.00     0.012 C 
ATOM     39  C   UNL     1      10.714  34.505  63.902  1.00  0.00     0.012 C 
ENDBRANCH  35  37
ENDBRANCH  34  35
ENDBRANCH   1  34
TORSDOF 9
ENDMDL
MODEL 6
REMARK VINA RESULT:    -5.950      6.116     10.590
REMARK INTER + INTRA:         -10.941
REMARK INTER:                  -9.002
REMARK INTRA:                  -1.939
REMARK UNBOUND:                -2.034
REMARK SMILES C=C(CC[C@@H](C(=O)[O-])[C@@H]1[C@@H](O)C[C@@]2(C)C3=C(CC[C@@]12C)[C@@]1(C)CC[C@H](OC(C)=O)C(C)(C)[C@@H]1CC3)C(C)C
REMARK SMILES IDX 4 1 5 2 6 3 7 4 8 5 9 6 10 7 19 8 12 9 13 10 18 11 20 12
REMARK SMILES IDX 14 13 15 14 17 15 16 16 35 17 21 18 34 19 33 20 23 21 22 22
REMARK SMILES IDX 30 23 24 24 25 25 31 26 32 27 11 28 26 30 27 31 29 32 28 33
REMARK SMILES IDX 3 34 2 35 1 36 36 37 37 38 38 39
REMARK H PARENT 11 29
REMARK Flexibility Score: inf
ROOT
ATOM      1  C   UNL     1      -2.422  31.678  62.752  1.00  0.00     0.014 C 
ENDROOT
BRANCH   1   2
ATOM      2  C   UNL     1      -1.083  31.557  61.949  1.00  0.00     0.042 C 
BRANCH   2   3
ATOM      3  C   UNL     1      -1.296  31.131  60.514  1.00  0.00     0.045 C 
ATOM      4  O   UNL     1      -2.293  31.564  59.875  1.00  0.00    -0.550 OA
ATOM      5  O   UNL     1      -0.415  30.262  59.875  1.00  0.00    -0.550 OA
ENDBRANCH   2   3
BRANCH   2   6
ATOM      6  C   UNL     1      -0.046  32.745  62.048  1.00  0.00     0.033 C 
ATOM      7  C   UNL     1       0.228  33.426  60.681  1.00  0.00     0.119 C 
ATOM      8  C   UNL     1       1.368  32.584  62.750  1.00  0.00    -0.017 C 
ATOM      9  C   UNL     1       1.707  33.810  60.657  1.00  0.00     0.043 C 
ATOM     10  C   UNL     1       2.423  32.829  61.605  1.00  0.00    -0.003 C 
ATOM     11  C   UNL     1       1.523  33.734  63.791  1.00  0.00     0.012 C 
ATOM     12  C   UNL     1       1.592  31.246  63.516  1.00  0.00     0.013 C 
ATOM     13  C   UNL     1       2.767  31.520  60.844  1.00  0.00     0.017 C 
ATOM     14  C   UNL     1       3.749  33.436  62.101  1.00  0.00    -0.064 C 
ATOM     15  C   UNL     1       2.918  33.769  64.430  1.00  0.00     0.032 C 
ATOM     16  C   UNL     1       4.042  33.539  63.423  1.00  0.00    -0.064 C 
ATOM     17  C   UNL     1       4.774  33.922  61.090  1.00  0.00     0.032 C 
ATOM     18  C   UNL     1       5.519  33.636  63.875  1.00  0.00    -0.008 C 
ATOM     19  C   UNL     1       6.220  33.484  61.388  1.00  0.00     0.009 C 
ATOM     20  C   UNL     1       6.411  32.896  62.808  1.00  0.00     0.009 C 
ATOM     21  C   UNL     1       5.680  32.915  65.265  1.00  0.00     0.015 C 
ATOM     22  C   UNL     1       5.867  35.146  63.987  1.00  0.00     0.016 C 
ATOM     23  C   UNL     1       7.940  32.628  63.204  1.00  0.00     0.005 C 
ATOM     24  C   UNL     1       7.000  32.164  65.528  1.00  0.00     0.047 C 
ATOM     25  C   UNL     1       8.182  32.715  64.749  1.00  0.00     0.182 C 
ATOM     26  C   UNL     1       8.944  33.569  62.490  1.00  0.00     0.015 C 
ATOM     27  C   UNL     1       8.305  31.185  62.742  1.00  0.00     0.015 C 
BRANCH   7  28
ATOM     28  O   UNL     1      -0.607  34.540  60.454  1.00  0.00    -0.393 OA
ATOM     29  H   UNL     1      -1.499  34.341  60.839  1.00  0.00     0.210 HD
ENDBRANCH   7  28
BRANCH  25  30
ATOM     30  O   UNL     1       8.420  34.055  65.197  1.00  0.00    -0.462 OA
BRANCH  30  31
ATOM     31  C   UNL     1       9.402  34.421  66.124  1.00  0.00     0.302 C 
ATOM     32  O   UNL     1       9.122  34.591  67.339  1.00  0.00    -0.253 OA
ATOM     33  C   UNL     1      10.803  34.623  65.657  1.00  0.00     0.139 C 
ENDBRANCH  30  31
ENDBRANCH  25  30
ENDBRANCH   2   6
ENDBRANCH   1   2
BRANCH   1  34
ATOM     34  C   UNL     1      -2.428  32.769  63.843  1.00  0.00     0.031 C 
BRANCH  34  35
ATOM     35  C   UNL     1      -3.009  34.101  63.391  1.00  0.00    -0.075 C 
ATOM     36  C   UNL     1      -2.345  35.240  63.649  1.00  0.00     0.008 C 
BRANCH  35  37
ATOM     37  C   UNL     1      -4.263  34.103  62.528  1.00  0.00     0.008 C 
ATOM     38  C   UNL     1      -5.422  34.855  63.195  1.00  0.00     0.012 C 
ATOM     39  C   UNL     1      -3.961  34.663  61.131  1.00  0.00     0.012 C 
ENDBRANCH  35  37
ENDBRANCH  34  35
ENDBRANCH   1  34
TORSDOF 9
ENDMDL
MODEL 7
REMARK VINA RESULT:    -5.937      3.708      6.193
REMARK INTER + INTRA:         -10.921
REMARK INTER:                  -9.318
REMARK INTRA:                  -1.604
REMARK UNBOUND:                -2.034
REMARK SMILES C=C(CC[C@@H](C(=O)[O-])[C@@H]1[C@@H](O)C[C@@]2(C)C3=C(CC[C@@]12C)[C@@]1(C)CC[C@H](OC(C)=O)C(C)(C)[C@@H]1CC3)C(C)C
REMARK SMILES IDX 4 1 5 2 6 3 7 4 8 5 9 6 10 7 19 8 12 9 13 10 18 11 20 12
REMARK SMILES IDX 14 13 15 14 17 15 16 16 35 17 21 18 34 19 33 20 23 21 22 22
REMARK SMILES IDX 30 23 24 24 25 25 31 26 32 27 11 28 26 30 27 31 29 32 28 33
REMARK SMILES IDX 3 34 2 35 1 36 36 37 37 38 38 39
REMARK H PARENT 11 29
REMARK Flexibility Score: inf
ROOT
ATOM      1  C   UNL     1       4.200  29.292  69.316  1.00  0.00     0.014 C 
ENDROOT
BRANCH   1   2
ATOM      2  C   UNL     1       3.687  29.230  67.838  1.00  0.00     0.042 C 
BRANCH   2   3
ATOM      3  C   UNL     1       4.668  29.819  66.850  1.00  0.00     0.045 C 
ATOM      4  O   UNL     1       4.562  31.027  66.508  1.00  0.00    -0.550 OA
ATOM      5  O   UNL     1       5.692  29.053  66.298  1.00  0.00    -0.550 OA
ENDBRANCH   2   3
BRANCH   2   6
ATOM      6  C   UNL     1       3.094  27.863  67.313  1.00  0.00     0.033 C 
ATOM      7  C   UNL     1       4.175  26.920  66.720  1.00  0.00     0.119 C 
ATOM      8  C   UNL     1       1.859  27.796  66.317  1.00  0.00    -0.017 C 
ATOM      9  C   UNL     1       3.541  26.197  65.533  1.00  0.00     0.043 C 
ATOM     10  C   UNL     1       2.425  27.123  65.010  1.00  0.00    -0.003 C 
ATOM     11  C   UNL     1       0.799  26.829  66.928  1.00  0.00     0.012 C 
ATOM     12  C   UNL     1       1.137  29.149  66.048  1.00  0.00     0.013 C 
ATOM     13  C   UNL     1       3.026  28.168  64.032  1.00  0.00     0.017 C 
ATOM     14  C   UNL     1       1.379  26.308  64.227  1.00  0.00    -0.064 C 
ATOM     15  C   UNL     1      -0.379  26.569  65.979  1.00  0.00     0.032 C 
ATOM     16  C   UNL     1       0.056  26.357  64.531  1.00  0.00    -0.064 C 
ATOM     17  C   UNL     1       1.824  25.433  63.068  1.00  0.00     0.032 C 
ATOM     18  C   UNL     1      -0.992  25.988  63.454  1.00  0.00    -0.008 C 
ATOM     19  C   UNL     1       0.954  25.557  61.804  1.00  0.00     0.009 C 
ATOM     20  C   UNL     1      -0.379  26.309  62.039  1.00  0.00     0.009 C 
ATOM     21  C   UNL     1      -2.280  26.868  63.666  1.00  0.00     0.015 C 
ATOM     22  C   UNL     1      -1.316  24.478  63.627  1.00  0.00     0.016 C 
ATOM     23  C   UNL     1      -1.382  26.267  60.790  1.00  0.00     0.005 C 
ATOM     24  C   UNL     1      -3.049  27.317  62.407  1.00  0.00     0.047 C 
ATOM     25  C   UNL     1      -2.883  26.380  61.223  1.00  0.00     0.182 C 
ATOM     26  C   UNL     1      -1.216  25.010  59.898  1.00  0.00     0.015 C 
ATOM     27  C   UNL     1      -1.054  27.485  59.876  1.00  0.00     0.015 C 
BRANCH   7  28
ATOM     28  O   UNL     1       4.686  26.015  67.674  1.00  0.00    -0.393 OA
ATOM     29  H   UNL     1       5.474  25.562  67.278  1.00  0.00     0.210 HD
ENDBRANCH   7  28
BRANCH  25  30
ATOM     30  O   UNL     1      -3.454  25.114  61.578  1.00  0.00    -0.462 OA
BRANCH  30  31
ATOM     31  C   UNL     1      -4.656  24.613  61.067  1.00  0.00     0.302 C 
ATOM     32  O   UNL     1      -5.650  25.362  60.883  1.00  0.00    -0.253 OA
ATOM     33  C   UNL     1      -4.759  23.161  60.747  1.00  0.00     0.139 C 
ENDBRANCH  30  31
ENDBRANCH  25  30
ENDBRANCH   2   6
ENDBRANCH   1   2
BRANCH   1  34
ATOM     34  C   UNL     1       3.300  30.088  70.283  1.00  0.00     0.031 C 
BRANCH  34  35
ATOM     35  C   UNL     1       1.841  29.657  70.275  1.00  0.00    -0.075 C 
ATOM     36  C   UNL     1       1.512  28.410  70.652  1.00  0.00     0.008 C 
BRANCH  35  37
ATOM     37  C   UNL     1       0.767  30.694  69.977  1.00  0.00     0.008 C 
ATOM     38  C   UNL     1       1.347  31.955  69.325  1.00  0.00     0.012 C 
ATOM     39  C   UNL     1      -0.355  30.086  69.124  1.00  0.00     0.012 C 
ENDBRANCH  35  37
ENDBRANCH  34  35
ENDBRANCH   1  34
TORSDOF 9
ENDMDL
MODEL 8
REMARK VINA RESULT:    -5.937      3.782      7.891
REMARK INTER + INTRA:         -10.921
REMARK INTER:                  -9.020
REMARK INTRA:                  -1.901
REMARK UNBOUND:                -2.034
REMARK SMILES C=C(CC[C@@H](C(=O)[O-])[C@@H]1[C@@H](O)C[C@@]2(C)C3=C(CC[C@@]12C)[C@@]1(C)CC[C@H](OC(C)=O)C(C)(C)[C@@H]1CC3)C(C)C
REMARK SMILES IDX 4 1 5 2 6 3 7 4 8 5 9 6 10 7 19 8 12 9 13 10 18 11 20 12
REMARK SMILES IDX 14 13 15 14 17 15 16 16 35 17 21 18 34 19 33 20 23 21 22 22
REMARK SMILES IDX 30 23 24 24 25 25 31 26 32 27 11 28 26 30 27 31 29 32 28 33
REMARK SMILES IDX 3 34 2 35 1 36 36 37 37 38 38 39
REMARK H PARENT 11 29
REMARK Flexibility Score: inf
ROOT
ATOM      1  C   UNL     1       0.971  25.118  60.345  1.00  0.00     0.014 C 
ENDROOT
BRANCH   1   2
ATOM      2  C   UNL     1       1.775  24.596  61.584  1.00  0.00     0.042 C 
BRANCH   2   3
ATOM      3  C   UNL     1       2.213  23.157  61.435  1.00  0.00     0.045 C 
ATOM      4  O   UNL     1       2.004  22.340  62.372  1.00  0.00    -0.550 OA
ATOM      5  O   UNL     1       2.853  22.707  60.282  1.00  0.00    -0.550 OA
ENDBRANCH   2   3
BRANCH   2   6
ATOM      6  C   UNL     1       2.944  25.498  62.145  1.00  0.00     0.033 C 
ATOM      7  C   UNL     1       4.254  24.704  62.400  1.00  0.00     0.119 C 
ATOM      8  C   UNL     1       2.757  26.451  63.401  1.00  0.00    -0.017 C 
ATOM      9  C   UNL     1       4.899  25.289  63.655  1.00  0.00     0.043 C 
ATOM     10  C   UNL     1       3.752  25.894  64.489  1.00  0.00    -0.003 C 
ATOM     11  C   UNL     1       3.244  27.877  63.000  1.00  0.00     0.012 C 
ATOM     12  C   UNL     1       1.297  26.600  63.922  1.00  0.00     0.013 C 
ATOM     13  C   UNL     1       3.098  24.788  65.360  1.00  0.00     0.017 C 
ATOM     14  C   UNL     1       4.296  26.972  65.444  1.00  0.00    -0.064 C 
ATOM     15  C   UNL     1       3.250  28.854  64.184  1.00  0.00     0.032 C 
ATOM     16  C   UNL     1       3.789  28.232  65.469  1.00  0.00    -0.064 C 
ATOM     17  C   UNL     1       5.421  26.623  66.404  1.00  0.00     0.032 C 
ATOM     18  C   UNL     1       3.957  29.100  66.739  1.00  0.00    -0.008 C 
ATOM     19  C   UNL     1       5.208  27.123  67.845  1.00  0.00     0.009 C 
ATOM     20  C   UNL     1       4.048  28.140  67.984  1.00  0.00     0.009 C 
ATOM     21  C   UNL     1       2.694  30.027  66.898  1.00  0.00     0.015 C 
ATOM     22  C   UNL     1       5.248  29.945  66.551  1.00  0.00     0.016 C 
ATOM     23  C   UNL     1       3.946  28.821  69.431  1.00  0.00     0.005 C 
ATOM     24  C   UNL     1       2.207  30.325  68.331  1.00  0.00     0.047 C 
ATOM     25  C   UNL     1       3.305  30.249  69.377  1.00  0.00     0.182 C 
ATOM     26  C   UNL     1       5.304  28.913  70.175  1.00  0.00     0.015 C 
ATOM     27  C   UNL     1       3.036  27.919  70.318  1.00  0.00     0.015 C 
BRANCH   7  28
ATOM     28  O   UNL     1       5.130  24.736  61.295  1.00  0.00    -0.393 OA
ATOM     29  H   UNL     1       4.593  24.610  60.471  1.00  0.00     0.210 HD
ENDBRANCH   7  28
BRANCH  25  30
ATOM     30  O   UNL     1       4.263  31.275  69.088  1.00  0.00    -0.462 OA
BRANCH  30  31
ATOM     31  C   UNL     1       4.529  32.370  69.916  1.00  0.00     0.302 C 
ATOM     32  O   UNL     1       5.645  32.508  70.481  1.00  0.00    -0.253 OA
ATOM     33  C   UNL     1       3.461  33.386  70.140  1.00  0.00     0.139 C 
ENDBRANCH  30  31
ENDBRANCH  25  30
ENDBRANCH   2   6
ENDBRANCH   1   2
BRANCH   1  34
ATOM     34  C   UNL     1      -0.560  24.957  60.451  1.00  0.00     0.031 C 
BRANCH  34  35
ATOM     35  C   UNL     1      -1.247  26.041  61.268  1.00  0.00    -0.075 C 
ATOM     36  C   UNL     1      -1.161  27.324  60.881  1.00  0.00     0.008 C 
BRANCH  35  37
ATOM     37  C   UNL     1      -2.140  25.633  62.432  1.00  0.00     0.008 C 
ATOM     38  C   UNL     1      -1.600  24.402  63.171  1.00  0.00     0.012 C 
ATOM     39  C   UNL     1      -2.358  26.812  63.390  1.00  0.00     0.012 C 
ENDBRANCH  35  37
ENDBRANCH  34  35
ENDBRANCH   1  34
TORSDOF 9
ENDMDL
MODEL 9
REMARK VINA RESULT:    -5.847      6.372      8.544
REMARK INTER + INTRA:         -10.786
REMARK INTER:                  -8.919
REMARK INTRA:                  -1.867
REMARK UNBOUND:                -2.034
REMARK SMILES C=C(CC[C@@H](C(=O)[O-])[C@@H]1[C@@H](O)C[C@@]2(C)C3=C(CC[C@@]12C)[C@@]1(C)CC[C@H](OC(C)=O)C(C)(C)[C@@H]1CC3)C(C)C
REMARK SMILES IDX 4 1 5 2 6 3 7 4 8 5 9 6 10 7 19 8 12 9 13 10 18 11 20 12
REMARK SMILES IDX 14 13 15 14 17 15 16 16 35 17 21 18 34 19 33 20 23 21 22 22
REMARK SMILES IDX 30 23 24 24 25 25 31 26 32 27 11 28 26 30 27 31 29 32 28 33
REMARK SMILES IDX 3 34 2 35 1 36 36 37 37 38 38 39
REMARK H PARENT 11 29
REMARK Flexibility Score: inf
ROOT
ATOM      1  C   UNL     1       7.080  34.105  65.764  1.00  0.00     0.014 C 
ENDROOT
BRANCH   1   2
ATOM      2  C   UNL     1       7.729  32.884  65.028  1.00  0.00     0.042 C 
BRANCH   2   3
ATOM      3  C   UNL     1       7.988  31.713  65.948  1.00  0.00     0.045 C 
ATOM      4  O   UNL     1       8.206  30.571  65.461  1.00  0.00    -0.550 OA
ATOM      5  O   UNL     1       7.987  31.863  67.333  1.00  0.00    -0.550 OA
ENDBRANCH   2   3
BRANCH   2   6
ATOM      6  C   UNL     1       7.086  32.411  63.664  1.00  0.00     0.033 C 
ATOM      7  C   UNL     1       7.322  33.413  62.502  1.00  0.00     0.119 C 
ATOM      8  C   UNL     1       5.569  31.956  63.550  1.00  0.00    -0.017 C 
ATOM      9  C   UNL     1       6.060  33.410  61.641  1.00  0.00     0.043 C 
ATOM     10  C   UNL     1       4.903  32.996  62.571  1.00  0.00    -0.003 C 
ATOM     11  C   UNL     1       5.535  30.561  62.854  1.00  0.00     0.012 C 
ATOM     12  C   UNL     1       4.807  31.808  64.900  1.00  0.00     0.013 C 
ATOM     13  C   UNL     1       4.365  34.242  63.327  1.00  0.00     0.017 C 
ATOM     14  C   UNL     1       3.737  32.417  61.749  1.00  0.00    -0.064 C 
ATOM     15  C   UNL     1       4.107  30.085  62.555  1.00  0.00     0.032 C 
ATOM     16  C   UNL     1       3.209  31.194  62.013  1.00  0.00    -0.064 C 
ATOM     17  C   UNL     1       3.139  33.236  60.617  1.00  0.00     0.032 C 
ATOM     18  C   UNL     1       1.763  30.870  61.566  1.00  0.00    -0.008 C 
ATOM     19  C   UNL     1       1.600  33.263  60.593  1.00  0.00     0.009 C 
ATOM     20  C   UNL     1       0.946  32.217  61.529  1.00  0.00     0.009 C 
ATOM     21  C   UNL     1       1.105  29.901  62.618  1.00  0.00     0.015 C 
ATOM     22  C   UNL     1       1.854  30.198  60.168  1.00  0.00     0.016 C 
ATOM     23  C   UNL     1      -0.643  32.094  61.363  1.00  0.00     0.005 C 
ATOM     24  C   UNL     1      -0.401  30.074  62.899  1.00  0.00     0.047 C 
ATOM     25  C   UNL     1      -1.176  30.668  61.735  1.00  0.00     0.182 C 
ATOM     26  C   UNL     1      -1.152  32.459  59.944  1.00  0.00     0.015 C 
ATOM     27  C   UNL     1      -1.304  33.120  62.330  1.00  0.00     0.015 C 
BRANCH   7  28
ATOM     28  O   UNL     1       8.473  33.105  61.748  1.00  0.00    -0.393 OA
ATOM     29  H   UNL     1       9.051  33.911  61.724  1.00  0.00     0.210 HD
ENDBRANCH   7  28
BRANCH  25  30
ATOM     30  O   UNL     1      -1.104  29.747  60.640  1.00  0.00    -0.462 OA
BRANCH  30  31
ATOM     31  C   UNL     1      -1.681  28.473  60.634  1.00  0.00     0.302 C 
ATOM     32  O   UNL     1      -2.910  28.311  60.849  1.00  0.00    -0.253 OA
ATOM     33  C   UNL     1      -0.817  27.286  60.379  1.00  0.00     0.139 C 
ENDBRANCH  30  31
ENDBRANCH  25  30
ENDBRANCH   2   6
ENDBRANCH   1   2
BRANCH   1  34
ATOM     34  C   UNL     1       8.057  35.249  66.107  1.00  0.00     0.031 C 
BRANCH  34  35
ATOM     35  C   UNL     1       8.702  35.903  64.895  1.00  0.00    -0.075 C 
ATOM     36  C   UNL     1       7.944  36.590  64.024  1.00  0.00     0.008 C 
BRANCH  35  37
ATOM     37  C   UNL     1      10.220  35.887  64.769  1.00  0.00     0.008 C 
ATOM     38  C   UNL     1      10.913  36.006  66.132  1.00  0.00     0.012 C 
ATOM     39  C   UNL     1      10.689  34.641  64.006  1.00  0.00     0.012 C 
ENDBRANCH  35  37
ENDBRANCH  34  35
ENDBRANCH   1  34
TORSDOF 9
ENDMDL
