MODEL 1
REMARK VINA RESULT:    -4.079      0.000      0.000
REMARK INTER + INTRA:          -5.343
REMARK INTER:                  -5.033
REMARK INTRA:                  -0.310
REMARK UNBOUND:                -0.310
REMARK SMILES C=CC[C@@H](C)C(=O)CC
REMARK SMILES IDX 4 1 5 2 6 3 7 4 8 5 9 6 3 7 2 8 1 9
REMARK H PARENT
REMARK Flexibility Score: inf
ROOT
ATOM      1  C   UNL     1      -0.805  27.274  53.880  1.00  0.00     0.057 C 
ATOM      2  C   UNL     1      -1.234  26.258  52.812  1.00  0.00     0.016 C 
ENDROOT
BRANCH   1   3
ATOM      3  C   UNL     1       0.470  27.987  53.476  1.00  0.00     0.135 C 
ATOM      4  O   UNL     1       0.411  29.021  52.824  1.00  0.00    -0.299 OA
BRANCH   3   5
ATOM      5  C   UNL     1       1.822  27.443  53.857  1.00  0.00     0.072 C 
ATOM      6  C   UNL     1       1.823  26.964  55.305  1.00  0.00     0.012 C 
ENDBRANCH   3   5
ENDBRANCH   1   3
BRANCH   1   7
ATOM      7  C   UNL     1      -1.931  28.272  54.225  1.00  0.00     0.038 C 
BRANCH   7   8
ATOM      8  C   UNL     1      -1.817  28.847  55.614  1.00  0.00    -0.034 C 
ATOM      9  C   UNL     1      -2.865  28.900  56.442  1.00  0.00     0.004 C 
ENDBRANCH   7   8
ENDBRANCH   1   7
TORSDOF 4
ENDMDL
MODEL 2
REMARK VINA RESULT:    -4.061      1.115      3.483
REMARK INTER + INTRA:          -5.321
REMARK INTER:                  -4.998
REMARK INTRA:                  -0.323
REMARK UNBOUND:                -0.310
REMARK SMILES C=CC[C@@H](C)C(=O)CC
REMARK SMILES IDX 4 1 5 2 6 3 7 4 8 5 9 6 3 7 2 8 1 9
REMARK H PARENT
REMARK Flexibility Score: inf
ROOT
ATOM      1  C   UNL     1      -0.555  27.650  52.992  1.00  0.00     0.057 C 
ATOM      2  C   UNL     1      -1.148  26.237  53.096  1.00  0.00     0.016 C 
ENDROOT
BRANCH   1   3
ATOM      3  C   UNL     1      -1.437  28.667  53.689  1.00  0.00     0.135 C 
ATOM      4  O   UNL     1      -2.126  29.432  53.028  1.00  0.00    -0.299 OA
BRANCH   3   5
ATOM      5  C   UNL     1      -1.479  28.762  55.192  1.00  0.00     0.072 C 
ATOM      6  C   UNL     1      -2.916  28.907  55.683  1.00  0.00     0.012 C 
ENDBRANCH   3   5
ENDBRANCH   1   3
BRANCH   1   7
ATOM      7  C   UNL     1       0.900  27.713  53.503  1.00  0.00     0.038 C 
BRANCH   7   8
ATOM      8  C   UNL     1       1.366  26.433  54.149  1.00  0.00    -0.034 C 
ATOM      9  C   UNL     1       1.854  26.409  55.393  1.00  0.00     0.004 C 
ENDBRANCH   7   8
ENDBRANCH   1   7
TORSDOF 4
ENDMDL
MODEL 3
REMARK VINA RESULT:    -4.020      3.185      4.436
REMARK INTER + INTRA:          -5.270
REMARK INTER:                  -4.954
REMARK INTRA:                  -0.316
REMARK UNBOUND:                -0.310
REMARK SMILES C=CC[C@@H](C)C(=O)CC
REMARK SMILES IDX 4 1 5 2 6 3 7 4 8 5 9 6 3 7 2 8 1 9
REMARK H PARENT
REMARK Flexibility Score: inf
ROOT
ATOM      1  C   UNL     1      -1.736  29.875  51.992  1.00  0.00     0.057 C 
ATOM      2  C   UNL     1      -3.001  29.384  51.274  1.00  0.00     0.016 C 
ENDROOT
BRANCH   1   3
ATOM      3  C   UNL     1      -0.812  28.720  52.324  1.00  0.00     0.135 C 
ATOM      4  O   UNL     1       0.271  28.937  52.853  1.00  0.00    -0.299 OA
BRANCH   3   5
ATOM      5  C   UNL     1      -1.196  27.299  52.007  1.00  0.00     0.072 C 
ATOM      6  C   UNL     1      -0.913  26.386  53.196  1.00  0.00     0.012 C 
ENDBRANCH   3   5
ENDBRANCH   1   3
BRANCH   1   7
ATOM      7  C   UNL     1      -1.005  30.980  51.201  1.00  0.00     0.038 C 
BRANCH   7   8
ATOM      8  C   UNL     1      -1.095  30.807  49.706  1.00  0.00    -0.034 C 
ATOM      9  C   UNL     1      -0.059  30.370  48.984  1.00  0.00     0.004 C 
ENDBRANCH   7   8
ENDBRANCH   1   7
TORSDOF 4
ENDMDL
MODEL 4
REMARK VINA RESULT:    -3.962      2.148      2.704
REMARK INTER + INTRA:          -5.199
REMARK INTER:                  -4.925
REMARK INTRA:                  -0.274
REMARK UNBOUND:                -0.310
REMARK SMILES C=CC[C@@H](C)C(=O)CC
REMARK SMILES IDX 4 1 5 2 6 3 7 4 8 5 9 6 3 7 2 8 1 9
REMARK H PARENT
REMARK Flexibility Score: inf
ROOT
ATOM      1  C   UNL     1      -0.187  27.565  54.050  1.00  0.00     0.057 C 
ATOM      2  C   UNL     1      -0.737  26.284  53.409  1.00  0.00     0.016 C 
ENDROOT
BRANCH   1   3
ATOM      3  C   UNL     1       1.230  27.362  54.550  1.00  0.00     0.135 C 
ATOM      4  O   UNL     1       1.435  27.160  55.739  1.00  0.00    -0.299 OA
BRANCH   3   5
ATOM      5  C   UNL     1       2.404  27.412  53.607  1.00  0.00     0.072 C 
ATOM      6  C   UNL     1       3.009  26.024  53.425  1.00  0.00     0.012 C 
ENDBRANCH   3   5
ENDBRANCH   1   3
BRANCH   1   7
ATOM      7  C   UNL     1      -0.289  28.784  53.108  1.00  0.00     0.038 C 
BRANCH   7   8
ATOM      8  C   UNL     1      -1.068  28.504  51.848  1.00  0.00    -0.034 C 
ATOM      9  C   UNL     1      -2.204  29.149  51.564  1.00  0.00     0.004 C 
ENDBRANCH   7   8
ENDBRANCH   1   7
TORSDOF 4
ENDMDL
MODEL 5
REMARK VINA RESULT:    -3.962      2.055      3.598
REMARK INTER + INTRA:          -5.199
REMARK INTER:                  -4.937
REMARK INTRA:                  -0.262
REMARK UNBOUND:                -0.310
REMARK SMILES C=CC[C@@H](C)C(=O)CC
REMARK SMILES IDX 4 1 5 2 6 3 7 4 8 5 9 6 3 7 2 8 1 9
REMARK H PARENT
REMARK Flexibility Score: inf
ROOT
ATOM      1  C   UNL     1      -2.007  27.512  53.051  1.00  0.00     0.057 C 
ATOM      2  C   UNL     1      -1.160  26.238  53.177  1.00  0.00     0.016 C 
ENDROOT
BRANCH   1   3
ATOM      3  C   UNL     1      -1.795  28.431  54.238  1.00  0.00     0.135 C 
ATOM      4  O   UNL     1      -0.674  28.851  54.491  1.00  0.00    -0.299 OA
BRANCH   3   5
ATOM      5  C   UNL     1      -2.943  28.835  55.125  1.00  0.00     0.072 C 
ATOM      6  C   UNL     1      -2.508  28.874  56.586  1.00  0.00     0.012 C 
ENDBRANCH   3   5
ENDBRANCH   1   3
BRANCH   1   7
ATOM      7  C   UNL     1      -1.768  28.245  51.713  1.00  0.00     0.038 C 
BRANCH   7   8
ATOM      8  C   UNL     1      -2.631  29.469  51.537  1.00  0.00    -0.034 C 
ATOM      9  C   UNL     1      -2.104  30.677  51.318  1.00  0.00     0.004 C 
ENDBRANCH   7   8
ENDBRANCH   1   7
TORSDOF 4
ENDMDL
MODEL 6
REMARK VINA RESULT:    -3.945      1.733      3.872
REMARK INTER + INTRA:          -5.178
REMARK INTER:                  -4.916
REMARK INTRA:                  -0.261
REMARK UNBOUND:                -0.310
REMARK SMILES C=CC[C@@H](C)C(=O)CC
REMARK SMILES IDX 4 1 5 2 6 3 7 4 8 5 9 6 3 7 2 8 1 9
REMARK H PARENT
REMARK Flexibility Score: inf
ROOT
ATOM      1  C   UNL     1      -0.224  27.491  53.400  1.00  0.00     0.057 C 
ATOM      2  C   UNL     1      -1.162  26.304  53.142  1.00  0.00     0.016 C 
ENDROOT
BRANCH   1   3
ATOM      3  C   UNL     1      -1.007  28.739  53.760  1.00  0.00     0.135 C 
ATOM      4  O   UNL     1      -1.323  28.947  54.923  1.00  0.00    -0.299 OA
BRANCH   3   5
ATOM      5  C   UNL     1      -1.414  29.735  52.705  1.00  0.00     0.072 C 
ATOM      6  C   UNL     1      -0.188  30.406  52.095  1.00  0.00     0.012 C 
ENDBRANCH   3   5
ENDBRANCH   1   3
BRANCH   1   7
ATOM      7  C   UNL     1       0.852  27.169  54.460  1.00  0.00     0.038 C 
BRANCH   7   8
ATOM      8  C   UNL     1       2.258  27.210  53.919  1.00  0.00    -0.034 C 
ATOM      9  C   UNL     1       2.891  26.103  53.518  1.00  0.00     0.004 C 
ENDBRANCH   7   8
ENDBRANCH   1   7
TORSDOF 4
ENDMDL
MODEL 7
REMARK VINA RESULT:    -3.934      2.008      3.094
REMARK INTER + INTRA:          -5.164
REMARK INTER:                  -4.719
REMARK INTRA:                  -0.445
REMARK UNBOUND:                -0.310
REMARK SMILES C=CC[C@@H](C)C(=O)CC
REMARK SMILES IDX 4 1 5 2 6 3 7 4 8 5 9 6 3 7 2 8 1 9
REMARK H PARENT
REMARK Flexibility Score: inf
ROOT
ATOM      1  C   UNL     1      -0.878  28.324  53.724  1.00  0.00     0.057 C 
ATOM      2  C   UNL     1      -1.548  28.615  55.075  1.00  0.00     0.016 C 
ENDROOT
BRANCH   1   3
ATOM      3  C   UNL     1      -0.470  26.868  53.618  1.00  0.00     0.135 C 
ATOM      4  O   UNL     1      -1.279  26.033  53.235  1.00  0.00    -0.299 OA
BRANCH   3   5
ATOM      5  C   UNL     1       0.921  26.420  53.985  1.00  0.00     0.072 C 
ATOM      6  C   UNL     1       1.902  27.584  53.902  1.00  0.00     0.012 C 
ENDBRANCH   3   5
ENDBRANCH   1   3
BRANCH   1   7
ATOM      7  C   UNL     1      -1.754  28.758  52.529  1.00  0.00     0.038 C 
BRANCH   7   8
ATOM      8  C   UNL     1      -0.960  29.313  51.374  1.00  0.00    -0.034 C 
ATOM      9  C   UNL     1      -0.039  30.267  51.546  1.00  0.00     0.004 C 
ENDBRANCH   7   8
ENDBRANCH   1   7
TORSDOF 4
ENDMDL
MODEL 8
REMARK VINA RESULT:    -3.898      2.634      4.100
REMARK INTER + INTRA:          -5.119
REMARK INTER:                  -4.935
REMARK INTRA:                  -0.184
REMARK UNBOUND:                -0.310
REMARK SMILES C=CC[C@@H](C)C(=O)CC
REMARK SMILES IDX 4 1 5 2 6 3 7 4 8 5 9 6 3 7 2 8 1 9
REMARK H PARENT
REMARK Flexibility Score: inf
ROOT
ATOM      1  C   UNL     1      -1.851  28.738  52.214  1.00  0.00     0.057 C 
ATOM      2  C   UNL     1      -2.167  28.950  53.701  1.00  0.00     0.016 C 
ENDROOT
BRANCH   1   3
ATOM      3  C   UNL     1      -0.961  29.843  51.679  1.00  0.00     0.135 C 
ATOM      4  O   UNL     1       0.070  30.135  52.270  1.00  0.00    -0.299 OA
BRANCH   3   5
ATOM      5  C   UNL     1      -1.325  30.601  50.430  1.00  0.00     0.072 C 
ATOM      6  C   UNL     1      -0.296  30.357  49.331  1.00  0.00     0.012 C 
ENDBRANCH   3   5
ENDBRANCH   1   3
BRANCH   1   7
ATOM      7  C   UNL     1      -1.254  27.342  51.935  1.00  0.00     0.038 C 
BRANCH   7   8
ATOM      8  C   UNL     1      -1.031  26.524  53.182  1.00  0.00    -0.034 C 
ATOM      9  C   UNL     1       0.196  26.257  53.640  1.00  0.00     0.004 C 
ENDBRANCH   7   8
ENDBRANCH   1   7
TORSDOF 4
ENDMDL
MODEL 9
REMARK VINA RESULT:    -3.883      2.228      3.074
REMARK INTER + INTRA:          -5.101
REMARK INTER:                  -4.788
REMARK INTRA:                  -0.313
REMARK UNBOUND:                -0.310
REMARK SMILES C=CC[C@@H](C)C(=O)CC
REMARK SMILES IDX 4 1 5 2 6 3 7 4 8 5 9 6 3 7 2 8 1 9
REMARK H PARENT
REMARK Flexibility Score: inf
ROOT
ATOM      1  C   UNL     1      -0.638  27.693  52.950  1.00  0.00     0.057 C 
ATOM      2  C   UNL     1      -1.091  26.234  53.103  1.00  0.00     0.016 C 
ENDROOT
BRANCH   1   3
ATOM      3  C   UNL     1      -1.445  28.408  51.884  1.00  0.00     0.135 C 
ATOM      4  O   UNL     1      -2.521  27.949  51.523  1.00  0.00    -0.299 OA
BRANCH   3   5
ATOM      5  C   UNL     1      -0.943  29.677  51.246  1.00  0.00     0.072 C 
ATOM      6  C   UNL     1      -1.937  30.814  51.454  1.00  0.00     0.012 C 
ENDBRANCH   3   5
ENDBRANCH   1   3
BRANCH   1   7
ATOM      7  C   UNL     1      -0.662  28.459  54.290  1.00  0.00     0.038 C 
BRANCH   7   8
ATOM      8  C   UNL     1      -2.055  28.757  54.785  1.00  0.00    -0.034 C 
ATOM      9  C   UNL     1      -2.336  28.842  56.089  1.00  0.00     0.004 C 
ENDBRANCH   7   8
ENDBRANCH   1   7
TORSDOF 4
ENDMDL
