MODEL 1
REMARK VINA RESULT:    -3.157      0.000      0.000
REMARK INTER + INTRA:          -4.657
REMARK INTER:                  -4.264
REMARK INTRA:                  -0.394
REMARK UNBOUND:                -0.394
REMARK SMILES CCCCCCCC(=O)[O-]
REMARK SMILES IDX 5 1 6 2 7 3 8 4 9 5 10 6 4 7 3 8 2 9 1 10
REMARK H PARENT
REMARK Flexibility Score: inf
ROOT
ATOM      1  C   UNL     1      12.888  13.088  15.686  1.00  0.00     0.000 C 
ENDROOT
BRANCH   1   2
ATOM      2  C   UNL     1      13.649  13.989  14.706  1.00  0.00     0.006 C 
BRANCH   2   3
ATOM      3  C   UNL     1      12.871  15.278  14.427  1.00  0.00     0.053 C 
BRANCH   3   4
ATOM      4  C   UNL     1      13.410  15.962  13.211  1.00  0.00     0.041 C 
ATOM      5  O   UNL     1      14.298  16.847  13.322  1.00  0.00    -0.550 OA
ATOM      6  O   UNL     1      12.965  15.588  11.949  1.00  0.00    -0.550 OA
ENDBRANCH   3   4
ENDBRANCH   2   3
ENDBRANCH   1   2
BRANCH   1   7
ATOM      7  C   UNL     1      11.787  12.296  14.964  1.00  0.00     0.000 C 
BRANCH   7   8
ATOM      8  C   UNL     1      12.230  11.791  13.583  1.00  0.00    -0.000 C 
BRANCH   8   9
ATOM      9  C   UNL     1      11.386  12.377  12.440  1.00  0.00    -0.003 C 
ATOM     10  C   UNL     1      12.155  12.355  11.123  1.00  0.00     0.004 C 
ENDBRANCH   8   9
ENDBRANCH   7   8
ENDBRANCH   1   7
TORSDOF 6
ENDMDL
MODEL 2
REMARK VINA RESULT:    -2.851      1.876      3.632
REMARK INTER + INTRA:          -4.244
REMARK INTER:                  -3.847
REMARK INTRA:                  -0.397
REMARK UNBOUND:                -0.394
REMARK SMILES CCCCCCCC(=O)[O-]
REMARK SMILES IDX 5 1 6 2 7 3 8 4 9 5 10 6 4 7 3 8 2 9 1 10
REMARK H PARENT
REMARK Flexibility Score: inf
ROOT
ATOM      1  C   UNL     1      12.751  13.024  15.772  1.00  0.00     0.000 C 
ENDROOT
BRANCH   1   2
ATOM      2  C   UNL     1      12.677  11.826  14.819  1.00  0.00     0.006 C 
BRANCH   2   3
ATOM      3  C   UNL     1      11.472  11.944  13.880  1.00  0.00     0.053 C 
BRANCH   3   4
ATOM      4  C   UNL     1      11.920  12.288  12.495  1.00  0.00     0.041 C 
ATOM      5  O   UNL     1      11.075  12.427  11.572  1.00  0.00    -0.550 OA
ATOM      6  O   UNL     1      13.267  12.504  12.233  1.00  0.00    -0.550 OA
ENDBRANCH   3   4
ENDBRANCH   2   3
ENDBRANCH   1   2
BRANCH   1   7
ATOM      7  C   UNL     1      13.656  14.127  15.200  1.00  0.00     0.000 C 
BRANCH   7   8
ATOM      8  C   UNL     1      12.861  15.250  14.515  1.00  0.00    -0.000 C 
BRANCH   8   9
ATOM      9  C   UNL     1      13.697  16.023  13.485  1.00  0.00    -0.003 C 
ATOM     10  C   UNL     1      13.123  15.863  12.080  1.00  0.00     0.004 C 
ENDBRANCH   8   9
ENDBRANCH   7   8
ENDBRANCH   1   7
TORSDOF 6
ENDMDL
MODEL 3
REMARK VINA RESULT:    -2.748      1.242      2.765
REMARK INTER + INTRA:          -4.106
REMARK INTER:                  -3.989
REMARK INTRA:                  -0.117
REMARK UNBOUND:                -0.394
REMARK SMILES CCCCCCCC(=O)[O-]
REMARK SMILES IDX 5 1 6 2 7 3 8 4 9 5 10 6 4 7 3 8 2 9 1 10
REMARK H PARENT
REMARK Flexibility Score: inf
ROOT
ATOM      1  C   UNL     1      11.715  12.361  12.328  1.00  0.00     0.000 C 
ENDROOT
BRANCH   1   2
ATOM      2  C   UNL     1      12.908  13.321  12.393  1.00  0.00     0.006 C 
BRANCH   2   3
ATOM      3  C   UNL     1      12.511  14.724  11.924  1.00  0.00     0.053 C 
BRANCH   3   4
ATOM      4  C   UNL     1      13.253  15.765  12.701  1.00  0.00     0.041 C 
ATOM      5  O   UNL     1      13.972  16.609  12.105  1.00  0.00    -0.550 OA
ATOM      6  O   UNL     1      13.113  15.833  14.082  1.00  0.00    -0.550 OA
ENDBRANCH   3   4
ENDBRANCH   2   3
ENDBRANCH   1   2
BRANCH   1   7
ATOM      7  C   UNL     1      11.318  11.879  13.732  1.00  0.00     0.000 C 
BRANCH   7   8
ATOM      8  C   UNL     1      12.517  11.795  14.690  1.00  0.00    -0.000 C 
BRANCH   8   9
ATOM      9  C   UNL     1      12.550  12.954  15.697  1.00  0.00    -0.003 C 
ATOM     10  C   UNL     1      13.984  13.388  15.988  1.00  0.00     0.004 C 
ENDBRANCH   8   9
ENDBRANCH   7   8
ENDBRANCH   1   7
TORSDOF 6
ENDMDL
MODEL 4
REMARK VINA RESULT:    -2.565      0.986      1.506
REMARK INTER + INTRA:          -3.858
REMARK INTER:                  -4.020
REMARK INTRA:                   0.162
REMARK UNBOUND:                -0.394
REMARK SMILES CCCCCCCC(=O)[O-]
REMARK SMILES IDX 5 1 6 2 7 3 8 4 9 5 10 6 4 7 3 8 2 9 1 10
REMARK H PARENT
REMARK Flexibility Score: inf
ROOT
ATOM      1  C   UNL     1      13.808  13.960  15.220  1.00  0.00     0.000 C 
ENDROOT
BRANCH   1   2
ATOM      2  C   UNL     1      12.854  15.047  14.710  1.00  0.00     0.006 C 
BRANCH   2   3
ATOM      3  C   UNL     1      13.585  16.035  13.796  1.00  0.00     0.053 C 
BRANCH   3   4
ATOM      4  C   UNL     1      13.272  15.750  12.361  1.00  0.00     0.041 C 
ATOM      5  O   UNL     1      13.373  16.660  11.497  1.00  0.00    -0.550 OA
ATOM      6  O   UNL     1      12.915  14.466  11.969  1.00  0.00    -0.550 OA
ENDBRANCH   3   4
ENDBRANCH   2   3
ENDBRANCH   1   2
BRANCH   1   7
ATOM      7  C   UNL     1      13.027  12.755  15.767  1.00  0.00     0.000 C 
BRANCH   7   8
ATOM      8  C   UNL     1      11.660  12.576  15.088  1.00  0.00    -0.000 C 
BRANCH   8   9
ATOM      9  C   UNL     1      11.686  11.513  13.980  1.00  0.00    -0.003 C 
ATOM     10  C   UNL     1      11.585  12.155  12.599  1.00  0.00     0.004 C 
ENDBRANCH   8   9
ENDBRANCH   7   8
ENDBRANCH   1   7
TORSDOF 6
ENDMDL
MODEL 5
REMARK VINA RESULT:    -2.468      2.056      3.570
REMARK INTER + INTRA:          -3.727
REMARK INTER:                  -3.605
REMARK INTRA:                  -0.122
REMARK UNBOUND:                -0.394
REMARK SMILES CCCCCCCC(=O)[O-]
REMARK SMILES IDX 5 1 6 2 7 3 8 4 9 5 10 6 4 7 3 8 2 9 1 10
REMARK H PARENT
REMARK Flexibility Score: inf
ROOT
ATOM      1  C   UNL     1      11.396  12.198  12.866  1.00  0.00     0.000 C 
ENDROOT
BRANCH   1   2
ATOM      2  C   UNL     1      12.412  11.825  13.951  1.00  0.00     0.006 C 
BRANCH   2   3
ATOM      3  C   UNL     1      12.057  12.484  15.287  1.00  0.00     0.053 C 
BRANCH   3   4
ATOM      4  C   UNL     1      13.124  13.451  15.693  1.00  0.00     0.041 C 
ATOM      5  O   UNL     1      14.258  13.032  16.046  1.00  0.00    -0.550 OA
ATOM      6  O   UNL     1      12.883  14.818  15.636  1.00  0.00    -0.550 OA
ENDBRANCH   3   4
ENDBRANCH   2   3
ENDBRANCH   1   2
BRANCH   1   7
ATOM      7  C   UNL     1      12.052  13.048  11.766  1.00  0.00     0.000 C 
BRANCH   7   8
ATOM      8  C   UNL     1      13.128  13.997  12.314  1.00  0.00    -0.000 C 
BRANCH   8   9
ATOM      9  C   UNL     1      12.834  15.471  11.997  1.00  0.00    -0.003 C 
ATOM     10  C   UNL     1      13.647  16.399  12.895  1.00  0.00     0.004 C 
ENDBRANCH   8   9
ENDBRANCH   7   8
ENDBRANCH   1   7
TORSDOF 6
ENDMDL
MODEL 6
REMARK VINA RESULT:    -2.180      8.597     10.023
REMARK INTER + INTRA:          -3.339
REMARK INTER:                  -3.162
REMARK INTRA:                  -0.177
REMARK UNBOUND:                -0.394
REMARK SMILES CCCCCCCC(=O)[O-]
REMARK SMILES IDX 5 1 6 2 7 3 8 4 9 5 10 6 4 7 3 8 2 9 1 10
REMARK H PARENT
REMARK Flexibility Score: inf
ROOT
ATOM      1  C   UNL     1      12.854   6.186  18.617  1.00  0.00     0.000 C 
ENDROOT
BRANCH   1   2
ATOM      2  C   UNL     1      12.469   6.600  17.193  1.00  0.00     0.006 C 
BRANCH   2   3
ATOM      3  C   UNL     1      13.205   5.749  16.154  1.00  0.00     0.053 C 
BRANCH   3   4
ATOM      4  C   UNL     1      13.833   6.620  15.113  1.00  0.00     0.041 C 
ATOM      5  O   UNL     1      13.630   7.862  15.119  1.00  0.00    -0.550 OA
ATOM      6  O   UNL     1      14.684   6.067  14.164  1.00  0.00    -0.550 OA
ENDBRANCH   3   4
ENDBRANCH   2   3
ENDBRANCH   1   2
BRANCH   1   7
ATOM      7  C   UNL     1      12.516   4.708  18.871  1.00  0.00     0.000 C 
BRANCH   7   8
ATOM      8  C   UNL     1      11.374   4.526  19.882  1.00  0.00    -0.000 C 
BRANCH   8   9
ATOM      9  C   UNL     1      11.367   3.130  20.522  1.00  0.00    -0.003 C 
ATOM     10  C   UNL     1      11.997   3.160  21.911  1.00  0.00     0.004 C 
ENDBRANCH   8   9
ENDBRANCH   7   8
ENDBRANCH   1   7
TORSDOF 6
ENDMDL
MODEL 7
REMARK VINA RESULT:    -1.963      1.445      2.399
REMARK INTER + INTRA:          -3.045
REMARK INTER:                  -2.766
REMARK INTRA:                  -0.279
REMARK UNBOUND:                -0.394
REMARK SMILES CCCCCCCC(=O)[O-]
REMARK SMILES IDX 5 1 6 2 7 3 8 4 9 5 10 6 4 7 3 8 2 9 1 10
REMARK H PARENT
REMARK Flexibility Score: inf
ROOT
ATOM      1  C   UNL     1      12.969  13.175  15.636  1.00  0.00     0.000 C 
ENDROOT
BRANCH   1   2
ATOM      2  C   UNL     1      13.208  14.523  14.947  1.00  0.00     0.006 C 
BRANCH   2   3
ATOM      3  C   UNL     1      13.230  14.366  13.423  1.00  0.00     0.053 C 
BRANCH   3   4
ATOM      4  C   UNL     1      13.389  15.698  12.762  1.00  0.00     0.041 C 
ATOM      5  O   UNL     1      13.035  15.857  11.564  1.00  0.00    -0.550 OA
ATOM      6  O   UNL     1      13.883  16.778  13.483  1.00  0.00    -0.550 OA
ENDBRANCH   3   4
ENDBRANCH   2   3
ENDBRANCH   1   2
BRANCH   1   7
ATOM      7  C   UNL     1      11.699  12.498  15.095  1.00  0.00     0.000 C 
BRANCH   7   8
ATOM      8  C   UNL     1      11.981  11.127  14.463  1.00  0.00    -0.000 C 
BRANCH   8   9
ATOM      9  C   UNL     1      13.234  10.454  15.045  1.00  0.00    -0.003 C 
ATOM     10  C   UNL     1      13.011   8.959  15.246  1.00  0.00     0.004 C 
ENDBRANCH   8   9
ENDBRANCH   7   8
ENDBRANCH   1   7
TORSDOF 6
ENDMDL
MODEL 8
REMARK VINA RESULT:    -1.782      3.831      4.730
REMARK INTER + INTRA:          -2.801
REMARK INTER:                  -2.677
REMARK INTRA:                  -0.124
REMARK UNBOUND:                -0.394
REMARK SMILES CCCCCCCC(=O)[O-]
REMARK SMILES IDX 5 1 6 2 7 3 8 4 9 5 10 6 4 7 3 8 2 9 1 10
REMARK H PARENT
REMARK Flexibility Score: inf
ROOT
ATOM      1  C   UNL     1      12.640   9.863  14.732  1.00  0.00     0.000 C 
ENDROOT
BRANCH   1   2
ATOM      2  C   UNL     1      12.654  11.285  15.304  1.00  0.00     0.006 C 
BRANCH   2   3
ATOM      3  C   UNL     1      12.501  12.328  14.192  1.00  0.00     0.053 C 
BRANCH   3   4
ATOM      4  C   UNL     1      13.108  13.630  14.608  1.00  0.00     0.041 C 
ATOM      5  O   UNL     1      13.397  13.838  15.816  1.00  0.00    -0.550 OA
ATOM      6  O   UNL     1      13.400  14.597  13.655  1.00  0.00    -0.550 OA
ENDBRANCH   3   4
ENDBRANCH   2   3
ENDBRANCH   1   2
BRANCH   1   7
ATOM      7  C   UNL     1      13.640   8.962  15.472  1.00  0.00     0.000 C 
BRANCH   7   8
ATOM      8  C   UNL     1      13.267   7.474  15.394  1.00  0.00    -0.000 C 
BRANCH   8   9
ATOM      9  C   UNL     1      12.491   6.993  16.629  1.00  0.00    -0.003 C 
ATOM     10  C   UNL     1      12.989   5.628  17.094  1.00  0.00     0.004 C 
ENDBRANCH   8   9
ENDBRANCH   7   8
ENDBRANCH   1   7
TORSDOF 6
ENDMDL
MODEL 9
REMARK VINA RESULT:    -1.646      9.057      9.805
REMARK INTER + INTRA:          -2.616
REMARK INTER:                  -2.456
REMARK INTRA:                  -0.161
REMARK UNBOUND:                -0.394
REMARK SMILES CCCCCCCC(=O)[O-]
REMARK SMILES IDX 5 1 6 2 7 3 8 4 9 5 10 6 4 7 3 8 2 9 1 10
REMARK H PARENT
REMARK Flexibility Score: inf
ROOT
ATOM      1  C   UNL     1      14.592   4.407  15.631  1.00  0.00     0.000 C 
ENDROOT
BRANCH   1   2
ATOM      2  C   UNL     1      13.268   4.414  16.405  1.00  0.00     0.006 C 
BRANCH   2   3
ATOM      3  C   UNL     1      12.928   5.823  16.900  1.00  0.00     0.053 C 
BRANCH   3   4
ATOM      4  C   UNL     1      12.906   5.861  18.395  1.00  0.00     0.041 C 
ATOM      5  O   UNL     1      12.197   5.044  19.040  1.00  0.00    -0.550 OA
ATOM      6  O   UNL     1      13.705   6.767  19.080  1.00  0.00    -0.550 OA
ENDBRANCH   3   4
ENDBRANCH   2   3
ENDBRANCH   1   2
BRANCH   1   7
ATOM      7  C   UNL     1      14.551   5.403  14.461  1.00  0.00     0.000 C 
BRANCH   7   8
ATOM      8  C   UNL     1      15.364   4.926  13.249  1.00  0.00    -0.000 C 
BRANCH   8   9
ATOM      9  C   UNL     1      14.515   4.813  11.974  1.00  0.00    -0.003 C 
ATOM     10  C   UNL     1      15.266   4.064  10.878  1.00  0.00     0.004 C 
ENDBRANCH   8   9
ENDBRANCH   7   8
ENDBRANCH   1   7
TORSDOF 6
ENDMDL
