MODEL 1
REMARK VINA RESULT:    -3.984      0.000      0.000
REMARK INTER + INTRA:         -11.773
REMARK INTER:                  -8.642
REMARK INTRA:                  -3.130
REMARK UNBOUND:                -3.130
REMARK SMILES CCCCCCCCCCCCCCCCCCCCCC(=O)[O-]
REMARK SMILES IDX 12 1 11 2 10 3 9 4 8 5 7 6 6 7 5 8 4 9 3 10 2 11 1 12 13 13
REMARK SMILES IDX 14 14 15 15 16 16 17 17 18 18 19 19 20 20 21 21 22 22 23 23
REMARK SMILES IDX 24 24
REMARK H PARENT
REMARK Flexibility Score: inf
ROOT
ATOM      1  C   UNL     1     -43.781 -51.589  38.815  1.00  0.00     0.000 C 
ENDROOT
BRANCH   1   2
ATOM      2  C   UNL     1     -44.527 -52.000  37.536  1.00  0.00     0.000 C 
BRANCH   2   3
ATOM      3  C   UNL     1     -44.587 -50.873  36.494  1.00  0.00     0.000 C 
BRANCH   3   4
ATOM      4  C   UNL     1     -45.487 -49.708  36.931  1.00  0.00    -0.000 C 
BRANCH   4   5
ATOM      5  C   UNL     1     -44.707 -48.384  36.941  1.00  0.00    -0.000 C 
BRANCH   5   6
ATOM      6  C   UNL     1     -44.102 -48.054  38.318  1.00  0.00    -0.000 C 
BRANCH   6   7
ATOM      7  C   UNL     1     -42.570 -47.889  38.334  1.00  0.00    -0.000 C 
BRANCH   7   8
ATOM      8  C   UNL     1     -41.819 -48.683  37.247  1.00  0.00    -0.000 C 
BRANCH   8   9
ATOM      9  C   UNL     1     -40.836 -47.827  36.420  1.00  0.00    -0.000 C 
BRANCH   9  10
ATOM     10  C   UNL     1     -40.893 -48.150  34.919  1.00  0.00    -0.000 C 
BRANCH  10  11
ATOM     11  C   UNL     1     -42.277 -47.828  34.342  1.00  0.00    -0.003 C 
ATOM     12  C   UNL     1     -42.883 -49.045  33.648  1.00  0.00     0.004 C 
ENDBRANCH  10  11
ENDBRANCH   9  10
ENDBRANCH   8   9
ENDBRANCH   7   8
ENDBRANCH   6   7
ENDBRANCH   5   6
ENDBRANCH   4   5
ENDBRANCH   3   4
ENDBRANCH   2   3
ENDBRANCH   1   2
BRANCH   1  13
ATOM     13  C   UNL     1     -44.612 -51.924  40.063  1.00  0.00     0.000 C 
BRANCH  13  14
ATOM     14  C   UNL     1     -45.459 -50.738  40.550  1.00  0.00     0.000 C 
BRANCH  14  15
ATOM     15  C   UNL     1     -46.922 -50.824  40.083  1.00  0.00     0.000 C 
BRANCH  15  16
ATOM     16  C   UNL     1     -47.904 -51.107  41.234  1.00  0.00     0.000 C 
BRANCH  16  17
ATOM     17  C   UNL     1     -48.510 -52.523  41.243  1.00  0.00     0.000 C 
BRANCH  17  18
ATOM     18  C   UNL     1     -47.699 -53.518  42.089  1.00  0.00     0.000 C 
BRANCH  18  19
ATOM     19  C   UNL     1     -46.950 -54.550  41.218  1.00  0.00     0.000 C 
BRANCH  19  20
ATOM     20  C   UNL     1     -47.384 -54.538  39.740  1.00  0.00     0.006 C 
BRANCH  20  21
ATOM     21  C   UNL     1     -46.704 -55.612  38.879  1.00  0.00     0.053 C 
BRANCH  21  22
ATOM     22  C   UNL     1     -47.363 -56.950  39.035  1.00  0.00     0.041 C 
ATOM     23  O   UNL     1     -47.232 -57.603  40.104  1.00  0.00    -0.550 OA
ATOM     24  O   UNL     1     -48.103 -57.485  37.990  1.00  0.00    -0.550 OA
ENDBRANCH  21  22
ENDBRANCH  20  21
ENDBRANCH  19  20
ENDBRANCH  18  19
ENDBRANCH  17  18
ENDBRANCH  16  17
ENDBRANCH  15  16
ENDBRANCH  14  15
ENDBRANCH  13  14
ENDBRANCH   1  13
TORSDOF 20
ENDMDL
MODEL 2
REMARK VINA RESULT:    -3.967      4.066      6.041
REMARK INTER + INTRA:         -11.735
REMARK INTER:                  -8.924
REMARK INTRA:                  -2.811
REMARK UNBOUND:                -3.130
REMARK SMILES CCCCCCCCCCCCCCCCCCCCCC(=O)[O-]
REMARK SMILES IDX 12 1 11 2 10 3 9 4 8 5 7 6 6 7 5 8 4 9 3 10 2 11 1 12 13 13
REMARK SMILES IDX 14 14 15 15 16 16 17 17 18 18 19 19 20 20 21 21 22 22 23 23
REMARK SMILES IDX 24 24
REMARK H PARENT
REMARK Flexibility Score: inf
ROOT
ATOM      1  C   UNL     1     -47.166 -54.304  38.752  1.00  0.00     0.000 C 
ENDROOT
BRANCH   1   2
ATOM      2  C   UNL     1     -47.898 -53.236  37.923  1.00  0.00     0.000 C 
BRANCH   2   3
ATOM      3  C   UNL     1     -46.938 -52.337  37.130  1.00  0.00     0.000 C 
BRANCH   3   4
ATOM      4  C   UNL     1     -45.464 -52.588  37.480  1.00  0.00    -0.000 C 
BRANCH   4   5
ATOM      5  C   UNL     1     -44.594 -51.381  37.095  1.00  0.00    -0.000 C 
BRANCH   5   6
ATOM      6  C   UNL     1     -45.388 -50.272  36.379  1.00  0.00    -0.000 C 
BRANCH   6   7
ATOM      7  C   UNL     1     -44.969 -48.834  36.741  1.00  0.00    -0.000 C 
BRANCH   7   8
ATOM      8  C   UNL     1     -43.501 -48.486  36.424  1.00  0.00    -0.000 C 
BRANCH   8   9
ATOM      9  C   UNL     1     -43.125 -48.672  34.939  1.00  0.00    -0.000 C 
BRANCH   9  10
ATOM     10  C   UNL     1     -41.791 -48.002  34.581  1.00  0.00    -0.000 C 
BRANCH  10  11
ATOM     11  C   UNL     1     -40.696 -49.051  34.346  1.00  0.00    -0.003 C 
ATOM     12  C   UNL     1     -39.335 -48.392  34.144  1.00  0.00     0.004 C 
ENDBRANCH  10  11
ENDBRANCH   9  10
ENDBRANCH   8   9
ENDBRANCH   7   8
ENDBRANCH   6   7
ENDBRANCH   5   6
ENDBRANCH   4   5
ENDBRANCH   3   4
ENDBRANCH   2   3
ENDBRANCH   1   2
BRANCH   1  13
ATOM     13  C   UNL     1     -47.419 -54.098  40.253  1.00  0.00     0.000 C 
BRANCH  13  14
ATOM     14  C   UNL     1     -48.420 -52.966  40.538  1.00  0.00     0.000 C 
BRANCH  14  15
ATOM     15  C   UNL     1     -47.804 -51.828  41.369  1.00  0.00     0.000 C 
BRANCH  15  16
ATOM     16  C   UNL     1     -47.038 -50.804  40.510  1.00  0.00     0.000 C 
BRANCH  16  17
ATOM     17  C   UNL     1     -45.505 -50.860  40.637  1.00  0.00     0.000 C 
BRANCH  17  18
ATOM     18  C   UNL     1     -44.822 -49.533  40.265  1.00  0.00     0.000 C 
BRANCH  18  19
ATOM     19  C   UNL     1     -43.333 -49.507  40.673  1.00  0.00     0.000 C 
BRANCH  19  20
ATOM     20  C   UNL     1     -42.518 -48.414  39.954  1.00  0.00     0.006 C 
BRANCH  20  21
ATOM     21  C   UNL     1     -43.272 -47.088  39.776  1.00  0.00     0.053 C 
BRANCH  21  22
ATOM     22  C   UNL     1     -42.531 -45.940  40.394  1.00  0.00     0.041 C 
ATOM     23  O   UNL     1     -42.940 -44.760  40.236  1.00  0.00    -0.550 OA
ATOM     24  O   UNL     1     -41.375 -46.174  41.127  1.00  0.00    -0.550 OA
ENDBRANCH  21  22
ENDBRANCH  20  21
ENDBRANCH  19  20
ENDBRANCH  18  19
ENDBRANCH  17  18
ENDBRANCH  16  17
ENDBRANCH  15  16
ENDBRANCH  14  15
ENDBRANCH  13  14
ENDBRANCH   1  13
TORSDOF 20
ENDMDL
MODEL 3
REMARK VINA RESULT:    -3.922      4.247      8.738
REMARK INTER + INTRA:         -11.637
REMARK INTER:                  -8.740
REMARK INTRA:                  -2.897
REMARK UNBOUND:                -3.130
REMARK SMILES CCCCCCCCCCCCCCCCCCCCCC(=O)[O-]
REMARK SMILES IDX 12 1 11 2 10 3 9 4 8 5 7 6 6 7 5 8 4 9 3 10 2 11 1 12 13 13
REMARK SMILES IDX 14 14 15 15 16 16 17 17 18 18 19 19 20 20 21 21 22 22 23 23
REMARK SMILES IDX 24 24
REMARK H PARENT
REMARK Flexibility Score: inf
ROOT
ATOM      1  C   UNL     1     -43.754 -49.045  40.108  1.00  0.00     0.000 C 
ENDROOT
BRANCH   1   2
ATOM      2  C   UNL     1     -44.960 -49.970  40.335  1.00  0.00     0.000 C 
BRANCH   2   3
ATOM      3  C   UNL     1     -45.195 -50.940  39.167  1.00  0.00     0.000 C 
BRANCH   3   4
ATOM      4  C   UNL     1     -46.567 -50.750  38.504  1.00  0.00    -0.000 C 
BRANCH   4   5
ATOM      5  C   UNL     1     -46.916 -51.949  37.608  1.00  0.00    -0.000 C 
BRANCH   5   6
ATOM      6  C   UNL     1     -45.736 -52.919  37.418  1.00  0.00    -0.000 C 
BRANCH   6   7
ATOM      7  C   UNL     1     -45.815 -54.212  38.253  1.00  0.00    -0.000 C 
BRANCH   7   8
ATOM      8  C   UNL     1     -47.242 -54.731  38.515  1.00  0.00    -0.000 C 
BRANCH   8   9
ATOM      9  C   UNL     1     -47.725 -54.512  39.965  1.00  0.00    -0.000 C 
BRANCH   9  10
ATOM     10  C   UNL     1     -46.644 -53.887  40.858  1.00  0.00    -0.000 C 
BRANCH  10  11
ATOM     11  C   UNL     1     -47.270 -53.194  42.074  1.00  0.00    -0.003 C 
ATOM     12  C   UNL     1     -48.116 -51.996  41.652  1.00  0.00     0.004 C 
ENDBRANCH  10  11
ENDBRANCH   9  10
ENDBRANCH   8   9
ENDBRANCH   7   8
ENDBRANCH   6   7
ENDBRANCH   5   6
ENDBRANCH   4   5
ENDBRANCH   3   4
ENDBRANCH   2   3
ENDBRANCH   1   2
BRANCH   1  13
ATOM     13  C   UNL     1     -44.050 -48.025  38.997  1.00  0.00     0.000 C 
BRANCH  13  14
ATOM     14  C   UNL     1     -43.336 -48.359  37.677  1.00  0.00     0.000 C 
BRANCH  14  15
ATOM     15  C   UNL     1     -44.312 -48.510  36.498  1.00  0.00     0.000 C 
BRANCH  15  16
ATOM     16  C   UNL     1     -44.119 -49.828  35.725  1.00  0.00     0.000 C 
BRANCH  16  17
ATOM     17  C   UNL     1     -42.915 -49.854  34.766  1.00  0.00     0.000 C 
BRANCH  17  18
ATOM     18  C   UNL     1     -42.877 -48.644  33.818  1.00  0.00     0.000 C 
BRANCH  18  19
ATOM     19  C   UNL     1     -41.791 -47.622  34.218  1.00  0.00     0.000 C 
BRANCH  19  20
ATOM     20  C   UNL     1     -40.518 -48.272  34.793  1.00  0.00     0.006 C 
BRANCH  20  21
ATOM     21  C   UNL     1     -40.075 -47.693  36.144  1.00  0.00     0.053 C 
BRANCH  21  22
ATOM     22  C   UNL     1     -38.587 -47.745  36.311  1.00  0.00     0.041 C 
ATOM     23  O   UNL     1     -38.066 -47.556  37.442  1.00  0.00    -0.550 OA
ATOM     24  O   UNL     1     -37.772 -47.981  35.211  1.00  0.00    -0.550 OA
ENDBRANCH  21  22
ENDBRANCH  20  21
ENDBRANCH  19  20
ENDBRANCH  18  19
ENDBRANCH  17  18
ENDBRANCH  16  17
ENDBRANCH  15  16
ENDBRANCH  14  15
ENDBRANCH  13  14
ENDBRANCH   1  13
TORSDOF 20
ENDMDL
MODEL 4
REMARK VINA RESULT:    -3.921      3.561      8.255
REMARK INTER + INTRA:         -11.636
REMARK INTER:                  -8.378
REMARK INTRA:                  -3.258
REMARK UNBOUND:                -3.130
REMARK SMILES CCCCCCCCCCCCCCCCCCCCCC(=O)[O-]
REMARK SMILES IDX 12 1 11 2 10 3 9 4 8 5 7 6 6 7 5 8 4 9 3 10 2 11 1 12 13 13
REMARK SMILES IDX 14 14 15 15 16 16 17 17 18 18 19 19 20 20 21 21 22 22 23 23
REMARK SMILES IDX 24 24
REMARK H PARENT
REMARK Flexibility Score: inf
ROOT
ATOM      1  C   UNL     1     -43.541 -50.954  35.843  1.00  0.00     0.000 C 
ENDROOT
BRANCH   1   2
ATOM      2  C   UNL     1     -44.481 -51.228  37.027  1.00  0.00     0.000 C 
BRANCH   2   3
ATOM      3  C   UNL     1     -45.838 -50.521  36.884  1.00  0.00     0.000 C 
BRANCH   3   4
ATOM      4  C   UNL     1     -46.251 -49.767  38.157  1.00  0.00    -0.000 C 
BRANCH   4   5
ATOM      5  C   UNL     1     -45.516 -50.319  39.387  1.00  0.00    -0.000 C 
BRANCH   5   6
ATOM      6  C   UNL     1     -46.467 -50.949  40.423  1.00  0.00    -0.000 C 
BRANCH   6   7
ATOM      7  C   UNL     1     -46.684 -52.466  40.269  1.00  0.00    -0.000 C 
BRANCH   7   8
ATOM      8  C   UNL     1     -47.925 -52.865  39.445  1.00  0.00    -0.000 C 
BRANCH   8   9
ATOM      9  C   UNL     1     -47.586 -53.454  38.058  1.00  0.00    -0.000 C 
BRANCH   9  10
ATOM     10  C   UNL     1     -46.327 -54.332  38.083  1.00  0.00    -0.000 C 
BRANCH  10  11
ATOM     11  C   UNL     1     -46.671 -55.773  38.480  1.00  0.00    -0.003 C 
ATOM     12  C   UNL     1     -45.435 -56.667  38.441  1.00  0.00     0.004 C 
ENDBRANCH  10  11
ENDBRANCH   9  10
ENDBRANCH   8   9
ENDBRANCH   7   8
ENDBRANCH   6   7
ENDBRANCH   5   6
ENDBRANCH   4   5
ENDBRANCH   3   4
ENDBRANCH   2   3
ENDBRANCH   1   2
BRANCH   1  13
ATOM     13  C   UNL     1     -43.879 -49.612  35.176  1.00  0.00     0.000 C 
BRANCH  13  14
ATOM     14  C   UNL     1     -42.909 -49.251  34.039  1.00  0.00     0.000 C 
BRANCH  14  15
ATOM     15  C   UNL     1     -42.375 -47.813  34.152  1.00  0.00     0.000 C 
BRANCH  15  16
ATOM     16  C   UNL     1     -40.848 -47.753  34.338  1.00  0.00     0.000 C 
BRANCH  16  17
ATOM     17  C   UNL     1     -40.210 -49.025  34.926  1.00  0.00     0.000 C 
BRANCH  17  18
ATOM     18  C   UNL     1     -39.432 -48.761  36.226  1.00  0.00     0.000 C 
BRANCH  18  19
ATOM     19  C   UNL     1     -40.263 -47.962  37.253  1.00  0.00     0.000 C 
BRANCH  19  20
ATOM     20  C   UNL     1     -41.398 -48.781  37.896  1.00  0.00     0.006 C 
BRANCH  20  21
ATOM     21  C   UNL     1     -42.678 -47.976  38.163  1.00  0.00     0.053 C 
BRANCH  21  22
ATOM     22  C   UNL     1     -42.657 -47.330  39.516  1.00  0.00     0.041 C 
ATOM     23  O   UNL     1     -43.122 -47.935  40.517  1.00  0.00    -0.550 OA
ATOM     24  O   UNL     1     -42.143 -46.048  39.665  1.00  0.00    -0.550 OA
ENDBRANCH  21  22
ENDBRANCH  20  21
ENDBRANCH  19  20
ENDBRANCH  18  19
ENDBRANCH  17  18
ENDBRANCH  16  17
ENDBRANCH  15  16
ENDBRANCH  14  15
ENDBRANCH  13  14
ENDBRANCH   1  13
TORSDOF 20
ENDMDL
MODEL 5
REMARK VINA RESULT:    -3.914      2.288      3.629
REMARK INTER + INTRA:         -11.620
REMARK INTER:                  -8.149
REMARK INTRA:                  -3.470
REMARK UNBOUND:                -3.130
REMARK SMILES CCCCCCCCCCCCCCCCCCCCCC(=O)[O-]
REMARK SMILES IDX 12 1 11 2 10 3 9 4 8 5 7 6 6 7 5 8 4 9 3 10 2 11 1 12 13 13
REMARK SMILES IDX 14 14 15 15 16 16 17 17 18 18 19 19 20 20 21 21 22 22 23 23
REMARK SMILES IDX 24 24
REMARK H PARENT
REMARK Flexibility Score: inf
ROOT
ATOM      1  C   UNL     1     -43.271 -50.730  40.773  1.00  0.00     0.000 C 
ENDROOT
BRANCH   1   2
ATOM      2  C   UNL     1     -43.329 -49.205  40.593  1.00  0.00     0.000 C 
BRANCH   2   3
ATOM      3  C   UNL     1     -42.430 -48.707  39.451  1.00  0.00     0.000 C 
BRANCH   3   4
ATOM      4  C   UNL     1     -42.817 -49.300  38.089  1.00  0.00    -0.000 C 
BRANCH   4   5
ATOM      5  C   UNL     1     -43.798 -48.380  37.346  1.00  0.00    -0.000 C 
BRANCH   5   6
ATOM      6  C   UNL     1     -44.378 -49.024  36.072  1.00  0.00    -0.000 C 
BRANCH   6   7
ATOM      7  C   UNL     1     -43.358 -49.263  34.942  1.00  0.00    -0.000 C 
BRANCH   7   8
ATOM      8  C   UNL     1     -42.505 -48.036  34.566  1.00  0.00    -0.000 C 
BRANCH   8   9
ATOM      9  C   UNL     1     -41.013 -48.363  34.338  1.00  0.00    -0.000 C 
BRANCH   9  10
ATOM     10  C   UNL     1     -40.104 -47.735  35.404  1.00  0.00    -0.000 C 
BRANCH  10  11
ATOM     11  C   UNL     1     -39.636 -48.788  36.416  1.00  0.00    -0.003 C 
ATOM     12  C   UNL     1     -39.140 -48.136  37.704  1.00  0.00     0.004 C 
ENDBRANCH  10  11
ENDBRANCH   9  10
ENDBRANCH   8   9
ENDBRANCH   7   8
ENDBRANCH   6   7
ENDBRANCH   5   6
ENDBRANCH   4   5
ENDBRANCH   3   4
ENDBRANCH   2   3
ENDBRANCH   1   2
BRANCH   1  13
ATOM     13  C   UNL     1     -44.652 -51.361  40.535  1.00  0.00     0.000 C 
BRANCH  13  14
ATOM     14  C   UNL     1     -45.746 -50.314  40.271  1.00  0.00     0.000 C 
BRANCH  14  15
ATOM     15  C   UNL     1     -46.528 -50.589  38.976  1.00  0.00     0.000 C 
BRANCH  15  16
ATOM     16  C   UNL     1     -45.854 -51.646  38.081  1.00  0.00     0.000 C 
BRANCH  16  17
ATOM     17  C   UNL     1     -46.819 -52.498  37.236  1.00  0.00     0.000 C 
BRANCH  17  18
ATOM     18  C   UNL     1     -47.738 -53.389  38.089  1.00  0.00     0.000 C 
BRANCH  18  19
ATOM     19  C   UNL     1     -46.942 -54.309  39.040  1.00  0.00     0.000 C 
BRANCH  19  20
ATOM     20  C   UNL     1     -47.413 -54.233  40.505  1.00  0.00     0.006 C 
BRANCH  20  21
ATOM     21  C   UNL     1     -48.659 -53.362  40.717  1.00  0.00     0.053 C 
BRANCH  21  22
ATOM     22  C   UNL     1     -48.428 -52.302  41.752  1.00  0.00     0.041 C 
ATOM     23  O   UNL     1     -47.805 -52.574  42.812  1.00  0.00    -0.550 OA
ATOM     24  O   UNL     1     -48.921 -51.019  41.554  1.00  0.00    -0.550 OA
ENDBRANCH  21  22
ENDBRANCH  20  21
ENDBRANCH  19  20
ENDBRANCH  18  19
ENDBRANCH  17  18
ENDBRANCH  16  17
ENDBRANCH  15  16
ENDBRANCH  14  15
ENDBRANCH  13  14
ENDBRANCH   1  13
TORSDOF 20
ENDMDL
MODEL 6
REMARK VINA RESULT:    -3.909      2.818      5.105
REMARK INTER + INTRA:         -11.610
REMARK INTER:                  -8.461
REMARK INTRA:                  -3.148
REMARK UNBOUND:                -3.130
REMARK SMILES CCCCCCCCCCCCCCCCCCCCCC(=O)[O-]
REMARK SMILES IDX 12 1 11 2 10 3 9 4 8 5 7 6 6 7 5 8 4 9 3 10 2 11 1 12 13 13
REMARK SMILES IDX 14 14 15 15 16 16 17 17 18 18 19 19 20 20 21 21 22 22 23 23
REMARK SMILES IDX 24 24
REMARK H PARENT
REMARK Flexibility Score: inf
ROOT
ATOM      1  C   UNL     1     -40.888 -51.586  35.335  1.00  0.00     0.000 C 
ENDROOT
BRANCH   1   2
ATOM      2  C   UNL     1     -42.206 -51.476  34.553  1.00  0.00     0.000 C 
BRANCH   2   3
ATOM      3  C   UNL     1     -42.247 -50.253  33.624  1.00  0.00     0.000 C 
BRANCH   3   4
ATOM      4  C   UNL     1     -43.214 -49.166  34.114  1.00  0.00    -0.000 C 
BRANCH   4   5
ATOM      5  C   UNL     1     -42.467 -47.853  34.400  1.00  0.00    -0.000 C 
BRANCH   5   6
ATOM      6  C   UNL     1     -40.943 -47.978  34.217  1.00  0.00    -0.000 C 
BRANCH   6   7
ATOM      7  C   UNL     1     -40.130 -47.997  35.526  1.00  0.00    -0.000 C 
BRANCH   7   8
ATOM      8  C   UNL     1     -38.604 -48.104  35.342  1.00  0.00    -0.000 C 
BRANCH   8   9
ATOM      9  C   UNL     1     -38.183 -48.732  33.996  1.00  0.00    -0.000 C 
BRANCH   9  10
ATOM     10  C   UNL     1     -36.906 -48.098  33.424  1.00  0.00    -0.000 C 
BRANCH  10  11
ATOM     11  C   UNL     1     -36.111 -47.381  34.521  1.00  0.00    -0.003 C 
ATOM     12  C   UNL     1     -34.885 -46.677  33.945  1.00  0.00     0.004 C 
ENDBRANCH  10  11
ENDBRANCH   9  10
ENDBRANCH   8   9
ENDBRANCH   7   8
ENDBRANCH   6   7
ENDBRANCH   5   6
ENDBRANCH   4   5
ENDBRANCH   3   4
ENDBRANCH   2   3
ENDBRANCH   1   2
BRANCH   1  13
ATOM     13  C   UNL     1     -41.098 -51.218  36.812  1.00  0.00     0.000 C 
BRANCH  13  14
ATOM     14  C   UNL     1     -42.577 -50.997  37.167  1.00  0.00     0.000 C 
BRANCH  14  15
ATOM     15  C   UNL     1     -42.765 -50.023  38.342  1.00  0.00     0.000 C 
BRANCH  15  16
ATOM     16  C   UNL     1     -43.020 -48.575  37.887  1.00  0.00     0.000 C 
BRANCH  16  17
ATOM     17  C   UNL     1     -44.476 -48.092  38.026  1.00  0.00     0.000 C 
BRANCH  17  18
ATOM     18  C   UNL     1     -45.388 -48.601  36.897  1.00  0.00     0.000 C 
BRANCH  18  19
ATOM     19  C   UNL     1     -46.696 -49.220  37.436  1.00  0.00     0.000 C 
BRANCH  19  20
ATOM     20  C   UNL     1     -46.468 -50.298  38.512  1.00  0.00     0.006 C 
BRANCH  20  21
ATOM     21  C   UNL     1     -46.348 -51.723  37.954  1.00  0.00     0.053 C 
BRANCH  21  22
ATOM     22  C   UNL     1     -47.351 -52.650  38.573  1.00  0.00     0.041 C 
ATOM     23  O   UNL     1     -47.779 -53.645  37.932  1.00  0.00    -0.550 OA
ATOM     24  O   UNL     1     -47.831 -52.399  39.852  1.00  0.00    -0.550 OA
ENDBRANCH  21  22
ENDBRANCH  20  21
ENDBRANCH  19  20
ENDBRANCH  18  19
ENDBRANCH  17  18
ENDBRANCH  16  17
ENDBRANCH  15  16
ENDBRANCH  14  15
ENDBRANCH  13  14
ENDBRANCH   1  13
TORSDOF 20
ENDMDL
MODEL 7
REMARK VINA RESULT:    -3.894      4.279      6.226
REMARK INTER + INTRA:         -11.578
REMARK INTER:                  -8.121
REMARK INTRA:                  -3.457
REMARK UNBOUND:                -3.130
REMARK SMILES CCCCCCCCCCCCCCCCCCCCCC(=O)[O-]
REMARK SMILES IDX 12 1 11 2 10 3 9 4 8 5 7 6 6 7 5 8 4 9 3 10 2 11 1 12 13 13
REMARK SMILES IDX 14 14 15 15 16 16 17 17 18 18 19 19 20 20 21 21 22 22 23 23
REMARK SMILES IDX 24 24
REMARK H PARENT
REMARK Flexibility Score: inf
ROOT
ATOM      1  C   UNL     1     -44.527 -53.563  36.794  1.00  0.00     0.000 C 
ENDROOT
BRANCH   1   2
ATOM      2  C   UNL     1     -43.151 -53.190  37.368  1.00  0.00     0.000 C 
BRANCH   2   3
ATOM      3  C   UNL     1     -42.624 -51.851  36.828  1.00  0.00     0.000 C 
BRANCH   3   4
ATOM      4  C   UNL     1     -43.138 -51.537  35.416  1.00  0.00    -0.000 C 
BRANCH   4   5
ATOM      5  C   UNL     1     -42.016 -51.680  34.377  1.00  0.00    -0.000 C 
BRANCH   5   6
ATOM      6  C   UNL     1     -41.918 -50.470  33.428  1.00  0.00    -0.000 C 
BRANCH   6   7
ATOM      7  C   UNL     1     -42.970 -49.370  33.666  1.00  0.00    -0.000 C 
BRANCH   7   8
ATOM      8  C   UNL     1     -42.403 -48.021  34.149  1.00  0.00    -0.000 C 
BRANCH   8   9
ATOM      9  C   UNL     1     -40.876 -48.036  34.380  1.00  0.00    -0.000 C 
BRANCH   9  10
ATOM     10  C   UNL     1     -40.496 -47.673  35.822  1.00  0.00    -0.000 C 
BRANCH  10  11
ATOM     11  C   UNL     1     -39.247 -48.442  36.271  1.00  0.00    -0.003 C 
ATOM     12  C   UNL     1     -39.583 -49.892  36.609  1.00  0.00     0.004 C 
ENDBRANCH  10  11
ENDBRANCH   9  10
ENDBRANCH   8   9
ENDBRANCH   7   8
ENDBRANCH   6   7
ENDBRANCH   5   6
ENDBRANCH   4   5
ENDBRANCH   3   4
ENDBRANCH   2   3
ENDBRANCH   1   2
BRANCH   1  13
ATOM     13  C   UNL     1     -45.583 -53.627  37.908  1.00  0.00     0.000 C 
BRANCH  13  14
ATOM     14  C   UNL     1     -45.834 -52.261  38.569  1.00  0.00     0.000 C 
BRANCH  14  15
ATOM     15  C   UNL     1     -46.939 -51.457  37.864  1.00  0.00     0.000 C 
BRANCH  15  16
ATOM     16  C   UNL     1     -46.384 -50.408  36.882  1.00  0.00     0.000 C 
BRANCH  16  17
ATOM     17  C   UNL     1     -46.878 -48.968  37.117  1.00  0.00     0.000 C 
BRANCH  17  18
ATOM     18  C   UNL     1     -45.742 -47.993  37.466  1.00  0.00     0.000 C 
BRANCH  18  19
ATOM     19  C   UNL     1     -44.359 -48.525  37.029  1.00  0.00     0.000 C 
BRANCH  19  20
ATOM     20  C   UNL     1     -43.267 -48.353  38.103  1.00  0.00     0.006 C 
BRANCH  20  21
ATOM     21  C   UNL     1     -43.781 -47.782  39.432  1.00  0.00     0.053 C 
BRANCH  21  22
ATOM     22  C   UNL     1     -43.040 -46.541  39.828  1.00  0.00     0.041 C 
ATOM     23  O   UNL     1     -41.810 -46.430  39.587  1.00  0.00    -0.550 OA
ATOM     24  O   UNL     1     -43.707 -45.515  40.486  1.00  0.00    -0.550 OA
ENDBRANCH  21  22
ENDBRANCH  20  21
ENDBRANCH  19  20
ENDBRANCH  18  19
ENDBRANCH  17  18
ENDBRANCH  16  17
ENDBRANCH  15  16
ENDBRANCH  14  15
ENDBRANCH  13  14
ENDBRANCH   1  13
TORSDOF 20
ENDMDL
MODEL 8
REMARK VINA RESULT:    -3.883      4.901      8.978
REMARK INTER + INTRA:         -11.552
REMARK INTER:                  -7.861
REMARK INTRA:                  -3.691
REMARK UNBOUND:                -3.130
REMARK SMILES CCCCCCCCCCCCCCCCCCCCCC(=O)[O-]
REMARK SMILES IDX 12 1 11 2 10 3 9 4 8 5 7 6 6 7 5 8 4 9 3 10 2 11 1 12 13 13
REMARK SMILES IDX 14 14 15 15 16 16 17 17 18 18 19 19 20 20 21 21 22 22 23 23
REMARK SMILES IDX 24 24
REMARK H PARENT
REMARK Flexibility Score: inf
ROOT
ATOM      1  C   UNL     1     -42.637 -51.579  35.616  1.00  0.00     0.000 C 
ENDROOT
BRANCH   1   2
ATOM      2  C   UNL     1     -41.834 -51.149  36.854  1.00  0.00     0.000 C 
BRANCH   2   3
ATOM      3  C   UNL     1     -42.652 -51.231  38.152  1.00  0.00     0.000 C 
BRANCH   3   4
ATOM      4  C   UNL     1     -42.612 -49.927  38.962  1.00  0.00    -0.000 C 
BRANCH   4   5
ATOM      5  C   UNL     1     -42.927 -48.715  38.071  1.00  0.00    -0.000 C 
BRANCH   5   6
ATOM      6  C   UNL     1     -44.276 -48.054  38.412  1.00  0.00    -0.000 C 
BRANCH   6   7
ATOM      7  C   UNL     1     -45.314 -48.069  37.274  1.00  0.00    -0.000 C 
BRANCH   7   8
ATOM      8  C   UNL     1     -45.584 -49.456  36.657  1.00  0.00    -0.000 C 
BRANCH   8   9
ATOM      9  C   UNL     1     -46.809 -50.177  37.261  1.00  0.00    -0.000 C 
BRANCH   9  10
ATOM     10  C   UNL     1     -46.412 -51.338  38.185  1.00  0.00    -0.000 C 
BRANCH  10  11
ATOM     11  C   UNL     1     -46.489 -50.917  39.658  1.00  0.00    -0.003 C 
ATOM     12  C   UNL     1     -46.748 -52.119  40.562  1.00  0.00     0.004 C 
ENDBRANCH  10  11
ENDBRANCH   9  10
ENDBRANCH   8   9
ENDBRANCH   7   8
ENDBRANCH   6   7
ENDBRANCH   5   6
ENDBRANCH   4   5
ENDBRANCH   3   4
ENDBRANCH   2   3
ENDBRANCH   1   2
BRANCH   1  13
ATOM     13  C   UNL     1     -41.758 -51.545  34.356  1.00  0.00     0.000 C 
BRANCH  13  14
ATOM     14  C   UNL     1     -42.010 -50.302  33.488  1.00  0.00     0.000 C 
BRANCH  14  15
ATOM     15  C   UNL     1     -43.143 -49.418  34.035  1.00  0.00     0.000 C 
BRANCH  15  16
ATOM     16  C   UNL     1     -42.670 -48.005  34.422  1.00  0.00     0.000 C 
BRANCH  16  17
ATOM     17  C   UNL     1     -41.159 -47.754  34.256  1.00  0.00     0.000 C 
BRANCH  17  18
ATOM     18  C   UNL     1     -40.376 -47.916  35.570  1.00  0.00     0.000 C 
BRANCH  18  19
ATOM     19  C   UNL     1     -39.092 -48.754  35.385  1.00  0.00     0.000 C 
BRANCH  19  20
ATOM     20  C   UNL     1     -38.665 -48.908  33.913  1.00  0.00     0.006 C 
BRANCH  20  21
ATOM     21  C   UNL     1     -37.470 -48.031  33.514  1.00  0.00     0.053 C 
BRANCH  21  22
ATOM     22  C   UNL     1     -36.340 -48.151  34.491  1.00  0.00     0.041 C 
ATOM     23  O   UNL     1     -36.004 -47.167  35.201  1.00  0.00    -0.550 OA
ATOM     24  O   UNL     1     -35.642 -49.347  34.601  1.00  0.00    -0.550 OA
ENDBRANCH  21  22
ENDBRANCH  20  21
ENDBRANCH  19  20
ENDBRANCH  18  19
ENDBRANCH  17  18
ENDBRANCH  16  17
ENDBRANCH  15  16
ENDBRANCH  14  15
ENDBRANCH  13  14
ENDBRANCH   1  13
TORSDOF 20
ENDMDL
MODEL 9
REMARK VINA RESULT:    -3.825      2.377      4.933
REMARK INTER + INTRA:         -11.427
REMARK INTER:                  -7.558
REMARK INTRA:                  -3.868
REMARK UNBOUND:                -3.130
REMARK SMILES CCCCCCCCCCCCCCCCCCCCCC(=O)[O-]
REMARK SMILES IDX 12 1 11 2 10 3 9 4 8 5 7 6 6 7 5 8 4 9 3 10 2 11 1 12 13 13
REMARK SMILES IDX 14 14 15 15 16 16 17 17 18 18 19 19 20 20 21 21 22 22 23 23
REMARK SMILES IDX 24 24
REMARK H PARENT
REMARK Flexibility Score: inf
ROOT
ATOM      1  C   UNL     1     -40.964 -49.573  37.633  1.00  0.00     0.000 C 
ENDROOT
BRANCH   1   2
ATOM      2  C   UNL     1     -40.579 -48.286  36.886  1.00  0.00     0.000 C 
BRANCH   2   3
ATOM      3  C   UNL     1     -39.625 -48.544  35.710  1.00  0.00     0.000 C 
BRANCH   3   4
ATOM      4  C   UNL     1     -40.265 -48.238  34.348  1.00  0.00    -0.000 C 
BRANCH   4   5
ATOM      5  C   UNL     1     -41.668 -47.637  34.521  1.00  0.00    -0.000 C 
BRANCH   5   6
ATOM      6  C   UNL     1     -42.767 -48.469  33.832  1.00  0.00    -0.000 C 
BRANCH   6   7
ATOM      7  C   UNL     1     -43.168 -49.758  34.574  1.00  0.00    -0.000 C 
BRANCH   7   8
ATOM      8  C   UNL     1     -42.441 -51.033  34.104  1.00  0.00    -0.000 C 
BRANCH   8   9
ATOM      9  C   UNL     1     -42.273 -52.096  35.211  1.00  0.00    -0.000 C 
BRANCH   9  10
ATOM     10  C   UNL     1     -43.528 -52.241  36.083  1.00  0.00    -0.000 C 
BRANCH  10  11
ATOM     11  C   UNL     1     -43.389 -53.420  37.054  1.00  0.00    -0.003 C 
ATOM     12  C   UNL     1     -43.309 -52.939  38.500  1.00  0.00     0.004 C 
ENDBRANCH  10  11
ENDBRANCH   9  10
ENDBRANCH   8   9
ENDBRANCH   7   8
ENDBRANCH   6   7
ENDBRANCH   5   6
ENDBRANCH   4   5
ENDBRANCH   3   4
ENDBRANCH   2   3
ENDBRANCH   1   2
BRANCH   1  13
ATOM     13  C   UNL     1     -42.359 -49.442  38.263  1.00  0.00     0.000 C 
BRANCH  13  14
ATOM     14  C   UNL     1     -42.989 -48.058  38.033  1.00  0.00     0.000 C 
BRANCH  14  15
ATOM     15  C   UNL     1     -44.511 -48.128  37.827  1.00  0.00     0.000 C 
BRANCH  15  16
ATOM     16  C   UNL     1     -45.084 -49.539  38.054  1.00  0.00     0.000 C 
BRANCH  16  17
ATOM     17  C   UNL     1     -46.088 -50.016  36.988  1.00  0.00     0.000 C 
BRANCH  17  18
ATOM     18  C   UNL     1     -46.849 -51.286  37.406  1.00  0.00     0.000 C 
BRANCH  18  19
ATOM     19  C   UNL     1     -46.627 -51.637  38.893  1.00  0.00     0.000 C 
BRANCH  19  20
ATOM     20  C   UNL     1     -47.100 -53.056  39.266  1.00  0.00     0.006 C 
BRANCH  20  21
ATOM     21  C   UNL     1     -48.306 -53.083  40.215  1.00  0.00     0.053 C 
BRANCH  21  22
ATOM     22  C   UNL     1     -48.092 -52.209  41.414  1.00  0.00     0.041 C 
ATOM     23  O   UNL     1     -48.827 -51.207  41.611  1.00  0.00    -0.550 OA
ATOM     24  O   UNL     1     -47.062 -52.491  42.303  1.00  0.00    -0.550 OA
ENDBRANCH  21  22
ENDBRANCH  20  21
ENDBRANCH  19  20
ENDBRANCH  18  19
ENDBRANCH  17  18
ENDBRANCH  16  17
ENDBRANCH  15  16
ENDBRANCH  14  15
ENDBRANCH  13  14
ENDBRANCH   1  13
TORSDOF 20
ENDMDL
