MODEL 1
REMARK VINA RESULT:    -3.994      0.000      0.000
REMARK INTER + INTRA:          -6.627
REMARK INTER:                  -6.095
REMARK INTRA:                  -0.532
REMARK UNBOUND:                -0.532
REMARK SMILES O=C([O-])CCCCCCCCC(=O)[O-]
REMARK SMILES IDX 7 1 6 2 5 3 4 4 2 5 1 6 3 7 8 8 9 9 10 10 11 11 12 12 13 13
REMARK SMILES IDX 14 14
REMARK H PARENT
REMARK Flexibility Score: inf
ROOT
ATOM      1  C   UNL     1     -22.993  -9.535  -4.142  1.00  0.00     0.000 C 
ENDROOT
BRANCH   1   2
ATOM      2  C   UNL     1     -22.391 -10.945  -4.203  1.00  0.00     0.000 C 
BRANCH   2   3
ATOM      3  C   UNL     1     -21.167 -10.981  -5.129  1.00  0.00     0.006 C 
BRANCH   3   4
ATOM      4  C   UNL     1     -21.538 -11.369  -6.567  1.00  0.00     0.053 C 
BRANCH   4   5
ATOM      5  C   UNL     1     -21.150 -10.306  -7.548  1.00  0.00     0.041 C 
ATOM      6  O   UNL     1     -19.978  -9.847  -7.555  1.00  0.00    -0.550 OA
ATOM      7  O   UNL     1     -22.092  -9.797  -8.433  1.00  0.00    -0.550 OA
ENDBRANCH   4   5
ENDBRANCH   3   4
ENDBRANCH   2   3
ENDBRANCH   1   2
BRANCH   1   8
ATOM      8  C   UNL     1     -24.349  -9.486  -4.861  1.00  0.00     0.000 C 
BRANCH   8   9
ATOM      9  C   UNL     1     -24.331  -8.579  -6.101  1.00  0.00     0.000 C 
BRANCH   9  10
ATOM     10  C   UNL     1     -25.278  -7.373  -5.966  1.00  0.00     0.006 C 
BRANCH  10  11
ATOM     11  C   UNL     1     -25.779  -7.190  -4.527  1.00  0.00     0.053 C 
BRANCH  11  12
ATOM     12  C   UNL     1     -26.539  -5.911  -4.359  1.00  0.00     0.041 C 
ATOM     13  O   UNL     1     -26.413  -5.232  -3.305  1.00  0.00    -0.550 OA
ATOM     14  O   UNL     1     -27.410  -5.482  -5.354  1.00  0.00    -0.550 OA
ENDBRANCH  11  12
ENDBRANCH  10  11
ENDBRANCH   9  10
ENDBRANCH   8   9
ENDBRANCH   1   8
TORSDOF 9
ENDMDL
MODEL 2
REMARK VINA RESULT:    -3.878      1.996      6.173
REMARK INTER + INTRA:          -6.450
REMARK INTER:                  -5.638
REMARK INTRA:                  -0.812
REMARK UNBOUND:                -0.532
REMARK SMILES O=C([O-])CCCCCCCCC(=O)[O-]
REMARK SMILES IDX 7 1 6 2 5 3 4 4 2 5 1 6 3 7 8 8 9 9 10 10 11 11 12 12 13 13
REMARK SMILES IDX 14 14
REMARK H PARENT
REMARK Flexibility Score: inf
ROOT
ATOM      1  C   UNL     1     -23.017  -8.648  -7.010  1.00  0.00     0.000 C 
ENDROOT
BRANCH   1   2
ATOM      2  C   UNL     1     -24.457  -8.987  -6.605  1.00  0.00     0.000 C 
BRANCH   2   3
ATOM      3  C   UNL     1     -24.530  -9.408  -5.130  1.00  0.00     0.006 C 
BRANCH   3   4
ATOM      4  C   UNL     1     -24.016  -8.311  -4.187  1.00  0.00     0.053 C 
BRANCH   4   5
ATOM      5  C   UNL     1     -25.134  -7.646  -3.446  1.00  0.00     0.041 C 
ATOM      6  O   UNL     1     -25.130  -7.616  -2.187  1.00  0.00    -0.550 OA
ATOM      7  O   UNL     1     -26.198  -7.086  -4.143  1.00  0.00    -0.550 OA
ENDBRANCH   4   5
ENDBRANCH   3   4
ENDBRANCH   2   3
ENDBRANCH   1   2
BRANCH   1   8
ATOM      8  C   UNL     1     -22.453  -9.704  -7.972  1.00  0.00     0.000 C 
BRANCH   8   9
ATOM      9  C   UNL     1     -21.188 -10.387  -7.429  1.00  0.00     0.000 C 
BRANCH   9  10
ATOM     10  C   UNL     1     -21.499 -11.421  -6.333  1.00  0.00     0.006 C 
BRANCH  10  11
ATOM     11  C   UNL     1     -21.087 -10.929  -4.939  1.00  0.00     0.053 C 
BRANCH  11  12
ATOM     12  C   UNL     1     -19.711 -10.337  -4.940  1.00  0.00     0.041 C 
ATOM     13  O   UNL     1     -18.701 -11.080  -5.066  1.00  0.00    -0.550 OA
ATOM     14  O   UNL     1     -19.541  -8.968  -4.772  1.00  0.00    -0.550 OA
ENDBRANCH  11  12
ENDBRANCH  10  11
ENDBRANCH   9  10
ENDBRANCH   8   9
ENDBRANCH   1   8
TORSDOF 9
ENDMDL
MODEL 3
REMARK VINA RESULT:    -3.856      1.062      5.998
REMARK INTER + INTRA:          -6.417
REMARK INTER:                  -5.742
REMARK INTRA:                  -0.675
REMARK UNBOUND:                -0.532
REMARK SMILES O=C([O-])CCCCCCCCC(=O)[O-]
REMARK SMILES IDX 7 1 6 2 5 3 4 4 2 5 1 6 3 7 8 8 9 9 10 10 11 11 12 12 13 13
REMARK SMILES IDX 14 14
REMARK H PARENT
REMARK Flexibility Score: inf
ROOT
ATOM      1  C   UNL     1     -24.016  -9.844  -4.510  1.00  0.00     0.000 C 
ENDROOT
BRANCH   1   2
ATOM      2  C   UNL     1     -24.509  -9.164  -5.794  1.00  0.00     0.000 C 
BRANCH   2   3
ATOM      3  C   UNL     1     -24.438  -7.635  -5.670  1.00  0.00     0.006 C 
BRANCH   3   4
ATOM      4  C   UNL     1     -25.662  -7.053  -4.950  1.00  0.00     0.053 C 
BRANCH   4   5
ATOM      5  C   UNL     1     -26.517  -6.242  -5.874  1.00  0.00     0.041 C 
ATOM      6  O   UNL     1     -26.408  -6.376  -7.121  1.00  0.00    -0.550 OA
ATOM      7  O   UNL     1     -27.413  -5.313  -5.359  1.00  0.00    -0.550 OA
ENDBRANCH   4   5
ENDBRANCH   3   4
ENDBRANCH   2   3
ENDBRANCH   1   2
BRANCH   1   8
ATOM      8  C   UNL     1     -22.484  -9.942  -4.494  1.00  0.00     0.000 C 
BRANCH   8   9
ATOM      9  C   UNL     1     -21.973 -11.323  -4.934  1.00  0.00     0.000 C 
BRANCH   9  10
ATOM     10  C   UNL     1     -21.446 -11.325  -6.380  1.00  0.00     0.006 C 
BRANCH  10  11
ATOM     11  C   UNL     1     -20.759 -10.002  -6.747  1.00  0.00     0.053 C 
BRANCH  11  12
ATOM     12  C   UNL     1     -21.217  -9.485  -8.076  1.00  0.00     0.041 C 
ATOM     13  O   UNL     1     -20.468  -8.734  -8.756  1.00  0.00    -0.550 OA
ATOM     14  O   UNL     1     -22.482  -9.809  -8.550  1.00  0.00    -0.550 OA
ENDBRANCH  11  12
ENDBRANCH  10  11
ENDBRANCH   9  10
ENDBRANCH   8   9
ENDBRANCH   1   8
TORSDOF 9
ENDMDL
MODEL 4
REMARK VINA RESULT:    -3.849      2.344      3.320
REMARK INTER + INTRA:          -6.406
REMARK INTER:                  -5.613
REMARK INTRA:                  -0.793
REMARK UNBOUND:                -0.532
REMARK SMILES O=C([O-])CCCCCCCCC(=O)[O-]
REMARK SMILES IDX 7 1 6 2 5 3 4 4 2 5 1 6 3 7 8 8 9 9 10 10 11 11 12 12 13 13
REMARK SMILES IDX 14 14
REMARK H PARENT
REMARK Flexibility Score: inf
ROOT
ATOM      1  C   UNL     1     -21.183 -10.261  -7.412  1.00  0.00     0.000 C 
ENDROOT
BRANCH   1   2
ATOM      2  C   UNL     1     -21.246 -11.356  -6.339  1.00  0.00     0.000 C 
BRANCH   2   3
ATOM      3  C   UNL     1     -20.630 -10.870  -5.019  1.00  0.00     0.006 C 
BRANCH   3   4
ATOM      4  C   UNL     1     -19.591  -9.762  -5.236  1.00  0.00     0.053 C 
BRANCH   4   5
ATOM      5  C   UNL     1     -18.198 -10.248  -4.979  1.00  0.00     0.041 C 
ATOM      6  O   UNL     1     -17.941 -11.480  -5.005  1.00  0.00    -0.550 OA
ATOM      7  O   UNL     1     -17.188  -9.342  -4.678  1.00  0.00    -0.550 OA
ENDBRANCH   4   5
ENDBRANCH   3   4
ENDBRANCH   2   3
ENDBRANCH   1   2
BRANCH   1   8
ATOM      8  C   UNL     1     -22.579  -9.969  -7.982  1.00  0.00     0.000 C 
BRANCH   8   9
ATOM      9  C   UNL     1     -23.313  -8.859  -7.214  1.00  0.00     0.000 C 
BRANCH   9  10
ATOM     10  C   UNL     1     -24.370  -9.412  -6.241  1.00  0.00     0.006 C 
BRANCH  10  11
ATOM     11  C   UNL     1     -24.065  -9.040  -4.783  1.00  0.00     0.053 C 
BRANCH  11  12
ATOM     12  C   UNL     1     -25.014  -8.006  -4.261  1.00  0.00     0.041 C 
ATOM     13  O   UNL     1     -25.753  -7.365  -5.054  1.00  0.00    -0.550 OA
ATOM     14  O   UNL     1     -25.061  -7.729  -2.900  1.00  0.00    -0.550 OA
ENDBRANCH  11  12
ENDBRANCH  10  11
ENDBRANCH   9  10
ENDBRANCH   8   9
ENDBRANCH   1   8
TORSDOF 9
ENDMDL
MODEL 5
REMARK VINA RESULT:    -3.846      2.471      3.492
REMARK INTER + INTRA:          -6.402
REMARK INTER:                  -5.544
REMARK INTRA:                  -0.858
REMARK UNBOUND:                -0.532
REMARK SMILES O=C([O-])CCCCCCCCC(=O)[O-]
REMARK SMILES IDX 7 1 6 2 5 3 4 4 2 5 1 6 3 7 8 8 9 9 10 10 11 11 12 12 13 13
REMARK SMILES IDX 14 14
REMARK H PARENT
REMARK Flexibility Score: inf
ROOT
ATOM      1  C   UNL     1     -20.994 -10.404  -4.533  1.00  0.00     0.000 C 
ENDROOT
BRANCH   1   2
ATOM      2  C   UNL     1     -19.517 -10.038  -4.332  1.00  0.00     0.000 C 
BRANCH   2   3
ATOM      3  C   UNL     1     -18.600 -11.029  -5.063  1.00  0.00     0.006 C 
BRANCH   3   4
ATOM      4  C   UNL     1     -17.467 -10.321  -5.819  1.00  0.00     0.053 C 
BRANCH   4   5
ATOM      5  C   UNL     1     -17.994  -9.357  -6.836  1.00  0.00     0.041 C 
ATOM      6  O   UNL     1     -17.695  -8.136  -6.768  1.00  0.00    -0.550 OA
ATOM      7  O   UNL     1     -18.844  -9.800  -7.843  1.00  0.00    -0.550 OA
ENDBRANCH   4   5
ENDBRANCH   3   4
ENDBRANCH   2   3
ENDBRANCH   1   2
BRANCH   1   8
ATOM      8  C   UNL     1     -21.157 -11.426  -5.667  1.00  0.00     0.000 C 
BRANCH   8   9
ATOM      9  C   UNL     1     -22.041 -10.906  -6.812  1.00  0.00     0.000 C 
BRANCH   9  10
ATOM     10  C   UNL     1     -22.510  -9.458  -6.586  1.00  0.00     0.006 C 
BRANCH  10  11
ATOM     11  C   UNL     1     -24.040  -9.337  -6.600  1.00  0.00     0.053 C 
BRANCH  11  12
ATOM     12  C   UNL     1     -24.566  -8.748  -5.328  1.00  0.00     0.041 C 
ATOM     13  O   UNL     1     -25.240  -7.684  -5.352  1.00  0.00    -0.550 OA
ATOM     14  O   UNL     1     -24.287  -9.358  -4.111  1.00  0.00    -0.550 OA
ENDBRANCH  11  12
ENDBRANCH  10  11
ENDBRANCH   9  10
ENDBRANCH   8   9
ENDBRANCH   1   8
TORSDOF 9
ENDMDL
MODEL 6
REMARK VINA RESULT:    -3.845      1.980      2.884
REMARK INTER + INTRA:          -6.400
REMARK INTER:                  -5.339
REMARK INTRA:                  -1.061
REMARK UNBOUND:                -0.532
REMARK SMILES O=C([O-])CCCCCCCCC(=O)[O-]
REMARK SMILES IDX 7 1 6 2 5 3 4 4 2 5 1 6 3 7 8 8 9 9 10 10 11 11 12 12 13 13
REMARK SMILES IDX 14 14
REMARK H PARENT
REMARK Flexibility Score: inf
ROOT
ATOM      1  C   UNL     1     -22.315  -8.164  -7.646  1.00  0.00     0.000 C 
ENDROOT
BRANCH   1   2
ATOM      2  C   UNL     1     -22.286  -9.635  -8.083  1.00  0.00     0.000 C 
BRANCH   2   3
ATOM      3  C   UNL     1     -21.080 -10.366  -7.476  1.00  0.00     0.006 C 
BRANCH   3   4
ATOM      4  C   UNL     1     -21.500 -11.418  -6.440  1.00  0.00     0.053 C 
BRANCH   4   5
ATOM      5  C   UNL     1     -21.521 -10.855  -5.053  1.00  0.00     0.041 C 
ATOM      6  O   UNL     1     -22.243 -11.382  -4.166  1.00  0.00    -0.550 OA
ATOM      7  O   UNL     1     -20.768  -9.728  -4.746  1.00  0.00    -0.550 OA
ENDBRANCH   4   5
ENDBRANCH   3   4
ENDBRANCH   2   3
ENDBRANCH   1   2
BRANCH   1   8
ATOM      8  C   UNL     1     -23.581  -7.856  -6.835  1.00  0.00     0.000 C 
BRANCH   8   9
ATOM      9  C   UNL     1     -24.447  -9.102  -6.590  1.00  0.00     0.000 C 
BRANCH   9  10
ATOM     10  C   UNL     1     -24.858  -9.256  -5.115  1.00  0.00     0.006 C 
BRANCH  10  11
ATOM     11  C   UNL     1     -24.087  -8.299  -4.197  1.00  0.00     0.053 C 
BRANCH  11  12
ATOM     12  C   UNL     1     -25.002  -7.539  -3.286  1.00  0.00     0.041 C 
ATOM     13  O   UNL     1     -24.859  -7.615  -2.037  1.00  0.00    -0.550 OA
ATOM     14  O   UNL     1     -26.031  -6.770  -3.816  1.00  0.00    -0.550 OA
ENDBRANCH  11  12
ENDBRANCH  10  11
ENDBRANCH   9  10
ENDBRANCH   8   9
ENDBRANCH   1   8
TORSDOF 9
ENDMDL
MODEL 7
REMARK VINA RESULT:    -3.838      3.815      5.662
REMARK INTER + INTRA:          -6.389
REMARK INTER:                  -5.655
REMARK INTRA:                  -0.734
REMARK UNBOUND:                -0.532
REMARK SMILES O=C([O-])CCCCCCCCC(=O)[O-]
REMARK SMILES IDX 7 1 6 2 5 3 4 4 2 5 1 6 3 7 8 8 9 9 10 10 11 11 12 12 13 13
REMARK SMILES IDX 14 14
REMARK H PARENT
REMARK Flexibility Score: inf
ROOT
ATOM      1  C   UNL     1     -17.417 -10.231  -5.612  1.00  0.00     0.000 C 
ENDROOT
BRANCH   1   2
ATOM      2  C   UNL     1     -17.871  -9.148  -6.599  1.00  0.00     0.000 C 
BRANCH   2   3
ATOM      3  C   UNL     1     -18.123  -9.743  -7.992  1.00  0.00     0.006 C 
BRANCH   3   4
ATOM      4  C   UNL     1     -18.794  -8.738  -8.939  1.00  0.00     0.053 C 
BRANCH   4   5
ATOM      5  C   UNL     1     -17.914  -8.399 -10.102  1.00  0.00     0.041 C 
ATOM      6  O   UNL     1     -17.715  -7.196 -10.417  1.00  0.00    -0.550 OA
ATOM      7  O   UNL     1     -17.339  -9.410 -10.861  1.00  0.00    -0.550 OA
ENDBRANCH   4   5
ENDBRANCH   3   4
ENDBRANCH   2   3
ENDBRANCH   1   2
BRANCH   1   8
ATOM      8  C   UNL     1     -18.605 -11.086  -5.149  1.00  0.00     0.000 C 
BRANCH   8   9
ATOM      9  C   UNL     1     -19.866 -10.252  -4.873  1.00  0.00     0.000 C 
BRANCH   9  10
ATOM     10  C   UNL     1     -21.163 -11.020  -5.181  1.00  0.00     0.006 C 
BRANCH  10  11
ATOM     11  C   UNL     1     -21.365 -11.234  -6.687  1.00  0.00     0.053 C 
BRANCH  11  12
ATOM     12  C   UNL     1     -22.393 -10.301  -7.250  1.00  0.00     0.041 C 
ATOM     13  O   UNL     1     -22.274  -9.859  -8.424  1.00  0.00    -0.550 OA
ATOM     14  O   UNL     1     -23.469  -9.898  -6.469  1.00  0.00    -0.550 OA
ENDBRANCH  11  12
ENDBRANCH  10  11
ENDBRANCH   9  10
ENDBRANCH   8   9
ENDBRANCH   1   8
TORSDOF 9
ENDMDL
MODEL 8
REMARK VINA RESULT:    -3.819      1.406      5.314
REMARK INTER + INTRA:          -6.361
REMARK INTER:                  -5.328
REMARK INTRA:                  -1.033
REMARK UNBOUND:                -0.532
REMARK SMILES O=C([O-])CCCCCCCCC(=O)[O-]
REMARK SMILES IDX 7 1 6 2 5 3 4 4 2 5 1 6 3 7 8 8 9 9 10 10 11 11 12 12 13 13
REMARK SMILES IDX 14 14
REMARK H PARENT
REMARK Flexibility Score: inf
ROOT
ATOM      1  C   UNL     1     -21.771  -9.986  -3.828  1.00  0.00     0.000 C 
ENDROOT
BRANCH   1   2
ATOM      2  C   UNL     1     -22.837  -8.909  -4.063  1.00  0.00     0.000 C 
BRANCH   2   3
ATOM      3  C   UNL     1     -24.158  -9.534  -4.536  1.00  0.00     0.006 C 
BRANCH   3   4
ATOM      4  C   UNL     1     -24.674  -8.891  -5.830  1.00  0.00     0.053 C 
BRANCH   4   5
ATOM      5  C   UNL     1     -25.045  -7.455  -5.629  1.00  0.00     0.041 C 
ATOM      6  O   UNL     1     -24.436  -6.548  -6.256  1.00  0.00    -0.550 OA
ATOM      7  O   UNL     1     -26.041  -7.112  -4.723  1.00  0.00    -0.550 OA
ENDBRANCH   4   5
ENDBRANCH   3   4
ENDBRANCH   2   3
ENDBRANCH   1   2
BRANCH   1   8
ATOM      8  C   UNL     1     -22.211 -11.334  -4.417  1.00  0.00     0.000 C 
BRANCH   8   9
ATOM      9  C   UNL     1     -21.420 -11.717  -5.678  1.00  0.00     0.000 C 
BRANCH   9  10
ATOM     10  C   UNL     1     -20.260 -10.748  -5.966  1.00  0.00     0.006 C 
BRANCH  10  11
ATOM     11  C   UNL     1     -20.245 -10.284  -7.429  1.00  0.00     0.053 C 
BRANCH  11  12
ATOM     12  C   UNL     1     -21.418  -9.410  -7.750  1.00  0.00     0.041 C 
ATOM     13  O   UNL     1     -21.477  -8.236  -7.299  1.00  0.00    -0.550 OA
ATOM     14  O   UNL     1     -22.462  -9.903  -8.524  1.00  0.00    -0.550 OA
ENDBRANCH  11  12
ENDBRANCH  10  11
ENDBRANCH   9  10
ENDBRANCH   8   9
ENDBRANCH   1   8
TORSDOF 9
ENDMDL
MODEL 9
REMARK VINA RESULT:    -3.774      1.436      6.262
REMARK INTER + INTRA:          -6.292
REMARK INTER:                  -5.378
REMARK INTRA:                  -0.913
REMARK UNBOUND:                -0.532
REMARK SMILES O=C([O-])CCCCCCCCC(=O)[O-]
REMARK SMILES IDX 7 1 6 2 5 3 4 4 2 5 1 6 3 7 8 8 9 9 10 10 11 11 12 12 13 13
REMARK SMILES IDX 14 14
REMARK H PARENT
REMARK Flexibility Score: inf
ROOT
ATOM      1  C   UNL     1     -23.607  -7.494  -6.588  1.00  0.00     0.000 C 
ENDROOT
BRANCH   1   2
ATOM      2  C   UNL     1     -24.456  -6.218  -6.636  1.00  0.00     0.000 C 
BRANCH   2   3
ATOM      3  C   UNL     1     -25.953  -6.554  -6.704  1.00  0.00     0.006 C 
BRANCH   3   4
ATOM      4  C   UNL     1     -26.772  -5.768  -5.670  1.00  0.00     0.053 C 
BRANCH   4   5
ATOM      5  C   UNL     1     -26.297  -6.024  -4.273  1.00  0.00     0.041 C 
ATOM      6  O   UNL     1     -26.207  -7.203  -3.840  1.00  0.00    -0.550 OA
ATOM      7  O   UNL     1     -25.984  -4.959  -3.437  1.00  0.00    -0.550 OA
ENDBRANCH   4   5
ENDBRANCH   3   4
ENDBRANCH   2   3
ENDBRANCH   1   2
BRANCH   1   8
ATOM      8  C   UNL     1     -24.493  -8.747  -6.653  1.00  0.00     0.000 C 
BRANCH   8   9
ATOM      9  C   UNL     1     -24.379  -9.621  -5.394  1.00  0.00     0.000 C 
BRANCH   9  10
ATOM     10  C   UNL     1     -23.254  -9.157  -4.452  1.00  0.00     0.006 C 
BRANCH  10  11
ATOM     11  C   UNL     1     -22.233 -10.271  -4.178  1.00  0.00     0.053 C 
BRANCH  11  12
ATOM     12  C   UNL     1     -21.442 -10.617  -5.402  1.00  0.00     0.041 C 
ATOM     13  O   UNL     1     -20.781  -9.729  -6.001  1.00  0.00    -0.550 OA
ATOM     14  O   UNL     1     -21.459 -11.915  -5.897  1.00  0.00    -0.550 OA
ENDBRANCH  11  12
ENDBRANCH  10  11
ENDBRANCH   9  10
ENDBRANCH   8   9
ENDBRANCH   1   8
TORSDOF 9
ENDMDL
