MODEL 1
REMARK VINA RESULT:    -4.670      0.000      0.000
REMARK INTER + INTRA:          -5.433
REMARK INTER:                  -5.352
REMARK INTRA:                  -0.081
REMARK UNBOUND:                -0.081
REMARK SMILES COc1cc(C(=O)[O-])ccc1O
REMARK SMILES IDX 5 1 9 2 4 3 10 4 3 5 11 6 6 7 7 8 8 9 2 10 1 11 12 12
REMARK H PARENT 12 13
REMARK Flexibility Score: inf
ROOT
ATOM      1  C   UNL     1      -2.665 -38.398   2.542  1.00  0.00     0.001 A 
ATOM      2  C   UNL     1      -3.698 -38.079   3.439  1.00  0.00     0.014 A 
ATOM      3  C   UNL     1      -2.928 -38.372   1.160  1.00  0.00     0.060 A 
ATOM      4  C   UNL     1      -4.967 -37.742   2.965  1.00  0.00     0.051 A 
ATOM      5  C   UNL     1      -4.208 -38.032   0.676  1.00  0.00     0.161 A 
ATOM      6  C   UNL     1      -5.228 -37.717   1.592  1.00  0.00     0.157 A 
ENDROOT
BRANCH   1   7
ATOM      7  C   UNL     1      -1.319 -38.755   3.040  1.00  0.00     0.072 C 
ATOM      8  O   UNL     1      -0.905 -38.310   4.145  1.00  0.00    -0.545 OA
ATOM      9  O   UNL     1      -0.490 -39.589   2.298  1.00  0.00    -0.545 OA
ENDBRANCH   1   7
BRANCH   5  10
ATOM     10  O   UNL     1      -4.498 -37.999  -0.697  1.00  0.00    -0.493 OA
ATOM     11  C   UNL     1      -3.545 -37.728  -1.720  1.00  0.00     0.278 C 
ENDBRANCH   5  10
BRANCH   6  12
ATOM     12  O   UNL     1      -6.508 -37.376   1.156  1.00  0.00    -0.504 OA
ATOM     13  H   UNL     1      -6.828 -36.416   1.120  1.00  0.00     0.293 HD
ENDBRANCH   6  12
TORSDOF 3
ENDMDL
MODEL 2
REMARK VINA RESULT:    -4.454     13.787     15.024
REMARK INTER + INTRA:          -5.185
REMARK INTER:                  -5.108
REMARK INTRA:                  -0.077
REMARK UNBOUND:                -0.081
REMARK SMILES COc1cc(C(=O)[O-])ccc1O
REMARK SMILES IDX 5 1 9 2 4 3 10 4 3 5 11 6 6 7 7 8 8 9 2 10 1 11 12 12
REMARK H PARENT 12 13
REMARK Flexibility Score: inf
ROOT
ATOM      1  C   UNL     1      -8.760 -24.179   2.910  1.00  0.00     0.001 A 
ATOM      2  C   UNL     1      -7.628 -24.390   3.716  1.00  0.00     0.014 A 
ATOM      3  C   UNL     1      -8.626 -24.253   1.512  1.00  0.00     0.060 A 
ATOM      4  C   UNL     1      -6.390 -24.670   3.136  1.00  0.00     0.051 A 
ATOM      5  C   UNL     1      -7.377 -24.535   0.921  1.00  0.00     0.161 A 
ATOM      6  C   UNL     1      -6.258 -24.743   1.746  1.00  0.00     0.157 A 
ENDROOT
BRANCH   1   7
ATOM      7  C   UNL     1     -10.074 -23.883   3.521  1.00  0.00     0.072 C 
ATOM      8  O   UNL     1     -10.487 -24.551   4.507  1.00  0.00    -0.545 OA
ATOM      9  O   UNL     1     -10.873 -22.863   3.017  1.00  0.00    -0.545 OA
ENDBRANCH   1   7
BRANCH   5  10
ATOM     10  O   UNL     1      -7.215 -24.615  -0.472  1.00  0.00    -0.493 OA
ATOM     11  C   UNL     1      -8.282 -24.754  -1.404  1.00  0.00     0.278 C 
ENDBRANCH   5  10
BRANCH   6  12
ATOM     12  O   UNL     1      -5.004 -25.023   1.204  1.00  0.00    -0.504 OA
ATOM     13  H   UNL     1      -4.143 -24.757   1.666  1.00  0.00     0.293 HD
ENDBRANCH   6  12
TORSDOF 3
ENDMDL
MODEL 3
REMARK VINA RESULT:    -4.339      1.743      4.300
REMARK INTER + INTRA:          -5.053
REMARK INTER:                  -4.976
REMARK INTRA:                  -0.077
REMARK UNBOUND:                -0.081
REMARK SMILES COc1cc(C(=O)[O-])ccc1O
REMARK SMILES IDX 5 1 9 2 4 3 10 4 3 5 11 6 6 7 7 8 8 9 2 10 1 11 12 12
REMARK H PARENT 12 13
REMARK Flexibility Score: inf
ROOT
ATOM      1  C   UNL     1      -4.251 -37.518  -0.869  1.00  0.00     0.001 A 
ATOM      2  C   UNL     1      -5.564 -37.113  -0.579  1.00  0.00     0.014 A 
ATOM      3  C   UNL     1      -3.437 -37.995   0.175  1.00  0.00     0.060 A 
ATOM      4  C   UNL     1      -6.054 -37.184   0.726  1.00  0.00     0.051 A 
ATOM      5  C   UNL     1      -3.927 -38.068   1.496  1.00  0.00     0.161 A 
ATOM      6  C   UNL     1      -5.245 -37.657   1.763  1.00  0.00     0.157 A 
ENDROOT
BRANCH   1   7
ATOM      7  C   UNL     1      -3.728 -37.445  -2.251  1.00  0.00     0.072 C 
ATOM      8  O   UNL     1      -3.032 -38.384  -2.723  1.00  0.00    -0.545 OA
ATOM      9  O   UNL     1      -3.997 -36.340  -3.050  1.00  0.00    -0.545 OA
ENDBRANCH   1   7
BRANCH   5  10
ATOM     10  O   UNL     1      -3.137 -38.539   2.556  1.00  0.00    -0.493 OA
ATOM     11  C   UNL     1      -1.722 -38.694   2.505  1.00  0.00     0.278 C 
ENDBRANCH   5  10
BRANCH   6  12
ATOM     12  O   UNL     1      -5.769 -37.712   3.054  1.00  0.00    -0.504 OA
ATOM     13  H   UNL     1      -6.735 -37.958   3.235  1.00  0.00     0.293 HD
ENDBRANCH   6  12
TORSDOF 3
ENDMDL
MODEL 4
REMARK VINA RESULT:    -4.110      7.235      8.536
REMARK INTER + INTRA:          -4.792
REMARK INTER:                  -4.702
REMARK INTRA:                  -0.090
REMARK UNBOUND:                -0.081
REMARK SMILES COc1cc(C(=O)[O-])ccc1O
REMARK SMILES IDX 5 1 9 2 4 3 10 4 3 5 11 6 6 7 7 8 8 9 2 10 1 11 12 12
REMARK H PARENT 12 13
REMARK Flexibility Score: inf
ROOT
ATOM      1  C   UNL     1      -5.841 -31.369   4.945  1.00  0.00     0.001 A 
ATOM      2  C   UNL     1      -5.253 -30.690   6.025  1.00  0.00     0.014 A 
ATOM      3  C   UNL     1      -5.070 -31.621   3.796  1.00  0.00     0.060 A 
ATOM      4  C   UNL     1      -3.923 -30.272   5.958  1.00  0.00     0.051 A 
ATOM      5  C   UNL     1      -3.727 -31.200   3.722  1.00  0.00     0.161 A 
ATOM      6  C   UNL     1      -3.158 -30.521   4.815  1.00  0.00     0.157 A 
ENDROOT
BRANCH   1   7
ATOM      7  C   UNL     1      -7.250 -31.815   5.014  1.00  0.00     0.072 C 
ATOM      8  O   UNL     1      -8.045 -31.572   4.067  1.00  0.00    -0.545 OA
ATOM      9  O   UNL     1      -7.718 -32.508   6.124  1.00  0.00    -0.545 OA
ENDBRANCH   1   7
BRANCH   5  10
ATOM     10  O   UNL     1      -2.935 -31.437   2.587  1.00  0.00    -0.493 OA
ATOM     11  C   UNL     1      -3.242 -30.976   1.275  1.00  0.00     0.278 C 
ENDBRANCH   5  10
BRANCH   6  12
ATOM     12  O   UNL     1      -1.833 -30.087   4.783  1.00  0.00    -0.504 OA
ATOM     13  H   UNL     1      -1.152 -30.476   4.142  1.00  0.00     0.293 HD
ENDBRANCH   6  12
TORSDOF 3
ENDMDL
MODEL 5
REMARK VINA RESULT:    -4.098     11.814     13.139
REMARK INTER + INTRA:          -4.777
REMARK INTER:                  -4.682
REMARK INTRA:                  -0.095
REMARK UNBOUND:                -0.081
REMARK SMILES COc1cc(C(=O)[O-])ccc1O
REMARK SMILES IDX 5 1 9 2 4 3 10 4 3 5 11 6 6 7 7 8 8 9 2 10 1 11 12 12
REMARK H PARENT 12 13
REMARK Flexibility Score: inf
ROOT
ATOM      1  C   UNL     1      -7.189 -25.107   2.056  1.00  0.00     0.001 A 
ATOM      2  C   UNL     1      -6.176 -24.579   1.238  1.00  0.00     0.014 A 
ATOM      3  C   UNL     1      -7.486 -26.479   1.975  1.00  0.00     0.060 A 
ATOM      4  C   UNL     1      -5.475 -25.405   0.359  1.00  0.00     0.051 A 
ATOM      5  C   UNL     1      -6.780 -27.319   1.089  1.00  0.00     0.161 A 
ATOM      6  C   UNL     1      -5.770 -26.769   0.279  1.00  0.00     0.157 A 
ENDROOT
BRANCH   1   7
ATOM      7  C   UNL     1      -7.934 -24.234   2.989  1.00  0.00     0.072 C 
ATOM      8  O   UNL     1      -7.535 -24.074   4.174  1.00  0.00    -0.545 OA
ATOM      9  O   UNL     1      -9.086 -23.576   2.573  1.00  0.00    -0.545 OA
ENDBRANCH   1   7
BRANCH   5  10
ATOM     10  O   UNL     1      -7.056 -28.692   0.987  1.00  0.00    -0.493 OA
ATOM     11  C   UNL     1      -6.516 -29.691   1.847  1.00  0.00     0.278 C 
ENDBRANCH   5  10
BRANCH   6  12
ATOM     12  O   UNL     1      -5.049 -27.563  -0.612  1.00  0.00    -0.504 OA
ATOM     13  H   UNL     1      -5.476 -28.324  -1.126  1.00  0.00     0.293 HD
ENDBRANCH   6  12
TORSDOF 3
ENDMDL
MODEL 6
REMARK VINA RESULT:    -3.986      7.804      8.134
REMARK INTER + INTRA:          -4.649
REMARK INTER:                  -4.568
REMARK INTRA:                  -0.081
REMARK UNBOUND:                -0.081
REMARK SMILES COc1cc(C(=O)[O-])ccc1O
REMARK SMILES IDX 5 1 9 2 4 3 10 4 3 5 11 6 6 7 7 8 8 9 2 10 1 11 12 12
REMARK H PARENT 12 13
REMARK Flexibility Score: inf
ROOT
ATOM      1  C   UNL     1      -5.704 -31.203   5.065  1.00  0.00     0.001 A 
ATOM      2  C   UNL     1      -6.441 -31.757   6.125  1.00  0.00     0.014 A 
ATOM      3  C   UNL     1      -6.351 -30.955   3.840  1.00  0.00     0.060 A 
ATOM      4  C   UNL     1      -7.795 -32.055   5.965  1.00  0.00     0.051 A 
ATOM      5  C   UNL     1      -7.718 -31.255   3.672  1.00  0.00     0.161 A 
ATOM      6  C   UNL     1      -8.436 -31.809   4.747  1.00  0.00     0.157 A 
ENDROOT
BRANCH   1   7
ATOM      7  C   UNL     1      -4.269 -30.884   5.231  1.00  0.00     0.072 C 
ATOM      8  O   UNL     1      -3.910 -29.868   5.885  1.00  0.00    -0.545 OA
ATOM      9  O   UNL     1      -3.295 -31.702   4.669  1.00  0.00    -0.545 OA
ENDBRANCH   1   7
BRANCH   5  10
ATOM     10  O   UNL     1      -8.388 -31.019   2.461  1.00  0.00    -0.493 OA
ATOM     11  C   UNL     1      -7.890 -31.379   1.177  1.00  0.00     0.278 C 
ENDBRANCH   5  10
BRANCH   6  12
ATOM     12  O   UNL     1      -9.790 -32.122   4.625  1.00  0.00    -0.504 OA
ATOM     13  H   UNL     1     -10.462 -31.904   5.350  1.00  0.00     0.293 HD
ENDBRANCH   6  12
TORSDOF 3
ENDMDL
MODEL 7
REMARK VINA RESULT:    -3.954      2.951      4.282
REMARK INTER + INTRA:          -4.613
REMARK INTER:                  -4.515
REMARK INTRA:                  -0.098
REMARK UNBOUND:                -0.081
REMARK SMILES COc1cc(C(=O)[O-])ccc1O
REMARK SMILES IDX 5 1 9 2 4 3 10 4 3 5 11 6 6 7 7 8 8 9 2 10 1 11 12 12
REMARK H PARENT 12 13
REMARK Flexibility Score: inf
ROOT
ATOM      1  C   UNL     1      -4.162 -35.093   1.820  1.00  0.00     0.001 A 
ATOM      2  C   UNL     1      -4.919 -35.265   0.649  1.00  0.00     0.014 A 
ATOM      3  C   UNL     1      -3.529 -36.210   2.394  1.00  0.00     0.060 A 
ATOM      4  C   UNL     1      -5.038 -36.527   0.064  1.00  0.00     0.051 A 
ATOM      5  C   UNL     1      -3.647 -37.487   1.808  1.00  0.00     0.161 A 
ATOM      6  C   UNL     1      -4.409 -37.636   0.635  1.00  0.00     0.157 A 
ENDROOT
BRANCH   1   7
ATOM      7  C   UNL     1      -4.033 -33.757   2.443  1.00  0.00     0.072 C 
ATOM      8  O   UNL     1      -3.083 -33.509   3.233  1.00  0.00    -0.545 OA
ATOM      9  O   UNL     1      -4.956 -32.756   2.165  1.00  0.00    -0.545 OA
ENDBRANCH   1   7
BRANCH   5  10
ATOM     10  O   UNL     1      -3.026 -38.619   2.359  1.00  0.00    -0.493 OA
ATOM     11  C   UNL     1      -1.617 -38.827   2.406  1.00  0.00     0.278 C 
ENDBRANCH   5  10
BRANCH   6  12
ATOM     12  O   UNL     1      -4.553 -38.881   0.022  1.00  0.00    -0.504 OA
ATOM     13  H   UNL     1      -4.396 -39.749   0.520  1.00  0.00     0.293 HD
ENDBRANCH   6  12
TORSDOF 3
ENDMDL
MODEL 8
REMARK VINA RESULT:    -3.910     11.808     13.055
REMARK INTER + INTRA:          -4.563
REMARK INTER:                  -4.472
REMARK INTRA:                  -0.090
REMARK UNBOUND:                -0.081
REMARK SMILES COc1cc(C(=O)[O-])ccc1O
REMARK SMILES IDX 5 1 9 2 4 3 10 4 3 5 11 6 6 7 7 8 8 9 2 10 1 11 12 12
REMARK H PARENT 12 13
REMARK Flexibility Score: inf
ROOT
ATOM      1  C   UNL     1      -7.202 -27.345   1.902  1.00  0.00     0.001 A 
ATOM      2  C   UNL     1      -6.428 -27.170   0.743  1.00  0.00     0.014 A 
ATOM      3  C   UNL     1      -7.800 -26.220   2.500  1.00  0.00     0.060 A 
ATOM      4  C   UNL     1      -6.256 -25.898   0.193  1.00  0.00     0.051 A 
ATOM      5  C   UNL     1      -7.629 -24.934   1.950  1.00  0.00     0.161 A 
ATOM      6  C   UNL     1      -6.849 -24.782   0.789  1.00  0.00     0.157 A 
ENDROOT
BRANCH   1   7
ATOM      7  C   UNL     1      -7.387 -28.691   2.488  1.00  0.00     0.072 C 
ATOM      8  O   UNL     1      -8.324 -28.912   3.301  1.00  0.00    -0.545 OA
ATOM      9  O   UNL     1      -6.531 -29.732   2.148  1.00  0.00    -0.545 OA
ENDBRANCH   1   7
BRANCH   5  10
ATOM     10  O   UNL     1      -8.213 -23.795   2.526  1.00  0.00    -0.493 OA
ATOM     11  C   UNL     1      -9.599 -23.662   2.829  1.00  0.00     0.278 C 
ENDBRANCH   5  10
BRANCH   6  12
ATOM     12  O   UNL     1      -6.654 -23.527   0.211  1.00  0.00    -0.504 OA
ATOM     13  H   UNL     1      -7.426 -22.940  -0.078  1.00  0.00     0.293 HD
ENDBRANCH   6  12
TORSDOF 3
ENDMDL
MODEL 9
REMARK VINA RESULT:    -3.907     13.293     14.685
REMARK INTER + INTRA:          -4.559
REMARK INTER:                  -4.466
REMARK INTRA:                  -0.093
REMARK UNBOUND:                -0.081
REMARK SMILES COc1cc(C(=O)[O-])ccc1O
REMARK SMILES IDX 5 1 9 2 4 3 10 4 3 5 11 6 6 7 7 8 8 9 2 10 1 11 12 12
REMARK H PARENT 12 13
REMARK Flexibility Score: inf
ROOT
ATOM      1  C   UNL     1      -7.744 -25.112  -0.351  1.00  0.00     0.001 A 
ATOM      2  C   UNL     1      -6.409 -25.509  -0.169  1.00  0.00     0.014 A 
ATOM      3  C   UNL     1      -8.448 -24.566   0.737  1.00  0.00     0.060 A 
ATOM      4  C   UNL     1      -5.791 -25.363   1.075  1.00  0.00     0.051 A 
ATOM      5  C   UNL     1      -7.830 -24.417   1.996  1.00  0.00     0.161 A 
ATOM      6  C   UNL     1      -6.493 -24.822   2.156  1.00  0.00     0.157 A 
ENDROOT
BRANCH   1   7
ATOM      7  C   UNL     1      -8.401 -25.264  -1.668  1.00  0.00     0.072 C 
ATOM      8  O   UNL     1      -8.398 -24.317  -2.499  1.00  0.00    -0.545 OA
ATOM      9  O   UNL     1      -9.033 -26.455  -2.008  1.00  0.00    -0.545 OA
ENDBRANCH   1   7
BRANCH   5  10
ATOM     10  O   UNL     1      -8.510 -23.876   3.099  1.00  0.00    -0.493 OA
ATOM     11  C   UNL     1      -9.566 -24.528   3.797  1.00  0.00     0.278 C 
ENDBRANCH   5  10
BRANCH   6  12
ATOM     12  O   UNL     1      -5.842 -24.693   3.383  1.00  0.00    -0.504 OA
ATOM     13  H   UNL     1      -4.870 -24.418   3.452  1.00  0.00     0.293 HD
ENDBRANCH   6  12
TORSDOF 3
ENDMDL
