MODEL 1
REMARK VINA RESULT:    -3.881      0.000      0.000
REMARK INTER + INTRA:          -6.555
REMARK INTER:                  -5.242
REMARK INTRA:                  -1.313
REMARK UNBOUND:                -1.313
REMARK SMILES CC(=O)CCC=C(C)CCC=C(C)C
REMARK SMILES IDX 7 1 6 2 8 3 9 4 10 5 11 6 13 7 12 8 14 9 5 10 4 11 2 12 3 13
REMARK SMILES IDX 1 14
REMARK H PARENT
REMARK Flexibility Score: inf
ROOT
ATOM      1  C   UNL     1      34.533  70.187 105.614  1.00  0.00    -0.077 C 
ATOM      2  C   UNL     1      33.731  71.276 105.650  1.00  0.00    -0.028 C 
ATOM      3  C   UNL     1      34.656  69.249 106.793  1.00  0.00     0.039 C 
ENDROOT
BRANCH   1   4
ATOM      4  C   UNL     1      35.336  69.907 104.363  1.00  0.00     0.034 C 
BRANCH   4   5
ATOM      5  C   UNL     1      34.419  69.784 103.140  1.00  0.00     0.032 C 
BRANCH   5   6
ATOM      6  C   UNL     1      33.731  68.440 103.105  1.00  0.00    -0.028 C 
ATOM      7  C   UNL     1      31.497  69.477 103.524  1.00  0.00     0.039 C 
ATOM      8  C   UNL     1      32.399  68.292 103.279  1.00  0.00    -0.080 C 
ATOM      9  C   UNL     1      31.778  66.921 103.232  1.00  0.00     0.039 C 
ENDBRANCH   5   6
ENDBRANCH   4   5
ENDBRANCH   1   4
BRANCH   2  10
ATOM     10  C   UNL     1      32.849  71.650 106.815  1.00  0.00     0.035 C 
BRANCH  10  11
ATOM     11  C   UNL     1      31.407  71.880 106.352  1.00  0.00     0.079 C 
BRANCH  11  12
ATOM     12  C   UNL     1      30.488  70.842 106.940  1.00  0.00     0.130 C 
ATOM     13  O   UNL     1      29.318  71.124 107.152  1.00  0.00    -0.300 OA
ATOM     14  C   UNL     1      30.976  69.461 107.265  1.00  0.00     0.087 C 
ENDBRANCH  11  12
ENDBRANCH  10  11
ENDBRANCH   2  10
TORSDOF 6
ENDMDL
MODEL 2
REMARK VINA RESULT:    -3.881     10.197     12.149
REMARK INTER + INTRA:          -6.554
REMARK INTER:                  -5.917
REMARK INTRA:                  -0.637
REMARK UNBOUND:                -1.313
REMARK SMILES CC(=O)CCC=C(C)CCC=C(C)C
REMARK SMILES IDX 7 1 6 2 8 3 9 4 10 5 11 6 13 7 12 8 14 9 5 10 4 11 2 12 3 13
REMARK SMILES IDX 1 14
REMARK H PARENT
REMARK Flexibility Score: inf
ROOT
ATOM      1  C   UNL     1      29.165  60.116 100.034  1.00  0.00    -0.077 C 
ATOM      2  C   UNL     1      28.937  60.012  98.705  1.00  0.00    -0.028 C 
ATOM      3  C   UNL     1      30.103  61.154 100.603  1.00  0.00     0.039 C 
ENDROOT
BRANCH   1   4
ATOM      4  C   UNL     1      28.467  59.158 100.976  1.00  0.00     0.034 C 
BRANCH   4   5
ATOM      5  C   UNL     1      28.137  59.845 102.307  1.00  0.00     0.032 C 
BRANCH   5   6
ATOM      6  C   UNL     1      27.162  59.027 103.118  1.00  0.00    -0.028 C 
ATOM      7  C   UNL     1      25.813  61.048 103.695  1.00  0.00     0.039 C 
ATOM      8  C   UNL     1      26.099  59.569 103.755  1.00  0.00    -0.080 C 
ATOM      9  C   UNL     1      25.167  58.692 104.548  1.00  0.00     0.039 C 
ENDBRANCH   5   6
ENDBRANCH   4   5
ENDBRANCH   1   4
BRANCH   2  10
ATOM     10  C   UNL     1      29.534  60.924  97.662  1.00  0.00     0.035 C 
BRANCH  10  11
ATOM     11  C   UNL     1      28.521  61.989  97.229  1.00  0.00     0.079 C 
BRANCH  11  12
ATOM     12  C   UNL     1      29.008  63.366  97.598  1.00  0.00     0.130 C 
ATOM     13  O   UNL     1      28.201  64.274  97.727  1.00  0.00    -0.300 OA
ATOM     14  C   UNL     1      30.464  63.646  97.821  1.00  0.00     0.087 C 
ENDBRANCH  11  12
ENDBRANCH  10  11
ENDBRANCH   2  10
TORSDOF 6
ENDMDL
MODEL 3
REMARK VINA RESULT:    -3.869      9.714     12.276
REMARK INTER + INTRA:          -6.539
REMARK INTER:                  -5.921
REMARK INTRA:                  -0.617
REMARK UNBOUND:                -1.313
REMARK SMILES CC(=O)CCC=C(C)CCC=C(C)C
REMARK SMILES IDX 7 1 6 2 8 3 9 4 10 5 11 6 13 7 12 8 14 9 5 10 4 11 2 12 3 13
REMARK SMILES IDX 1 14
REMARK H PARENT
REMARK Flexibility Score: inf
ROOT
ATOM      1  C   UNL     1      29.368  59.696  98.754  1.00  0.00    -0.077 C 
ATOM      2  C   UNL     1      28.489  60.535  98.161  1.00  0.00    -0.028 C 
ATOM      3  C   UNL     1      30.799  59.578  98.284  1.00  0.00     0.039 C 
ENDROOT
BRANCH   1   4
ATOM      4  C   UNL     1      28.903  58.843  99.915  1.00  0.00     0.034 C 
BRANCH   4   5
ATOM      5  C   UNL     1      28.924  59.643 101.223  1.00  0.00     0.032 C 
BRANCH   5   6
ATOM      6  C   UNL     1      27.667  59.413 102.027  1.00  0.00    -0.028 C 
ATOM      7  C   UNL     1      28.972  58.605 103.997  1.00  0.00     0.039 C 
ATOM      8  C   UNL     1      27.681  58.939 103.293  1.00  0.00    -0.080 C 
ATOM      9  C   UNL     1      26.388  58.732 104.036  1.00  0.00     0.039 C 
ENDBRANCH   5   6
ENDBRANCH   4   5
ENDBRANCH   1   4
BRANCH   2  10
ATOM     10  C   UNL     1      28.830  61.466  97.024  1.00  0.00     0.035 C 
BRANCH  10  11
ATOM     11  C   UNL     1      28.296  62.876  97.299  1.00  0.00     0.079 C 
BRANCH  11  12
ATOM     12  C   UNL     1      29.422  63.810  97.657  1.00  0.00     0.130 C 
ATOM     13  O   UNL     1      29.675  64.756  96.926  1.00  0.00    -0.300 OA
ATOM     14  C   UNL     1      30.237  63.609  98.900  1.00  0.00     0.087 C 
ENDBRANCH  11  12
ENDBRANCH  10  11
ENDBRANCH   2  10
TORSDOF 6
ENDMDL
MODEL 4
REMARK VINA RESULT:    -3.850      1.881      2.804
REMARK INTER + INTRA:          -6.513
REMARK INTER:                  -5.707
REMARK INTRA:                  -0.806
REMARK UNBOUND:                -1.313
REMARK SMILES CC(=O)CCC=C(C)CCC=C(C)C
REMARK SMILES IDX 7 1 6 2 8 3 9 4 10 5 11 6 13 7 12 8 14 9 5 10 4 11 2 12 3 13
REMARK SMILES IDX 1 14
REMARK H PARENT
REMARK Flexibility Score: inf
ROOT
ATOM      1  C   UNL     1      34.697  72.064 106.663  1.00  0.00    -0.077 C 
ATOM      2  C   UNL     1      33.530  71.791 106.034  1.00  0.00    -0.028 C 
ATOM      3  C   UNL     1      34.735  72.585 108.080  1.00  0.00     0.039 C 
ENDROOT
BRANCH   1   4
ATOM      4  C   UNL     1      35.998  71.851 105.921  1.00  0.00     0.034 C 
BRANCH   4   5
ATOM      5  C   UNL     1      35.983  70.518 105.162  1.00  0.00     0.032 C 
BRANCH   5   6
ATOM      6  C   UNL     1      36.251  70.723 103.690  1.00  0.00    -0.028 C 
ATOM      7  C   UNL     1      34.152  69.528 103.054  1.00  0.00     0.039 C 
ATOM      8  C   UNL     1      35.420  70.273 102.723  1.00  0.00    -0.080 C 
ATOM      9  C   UNL     1      35.750  70.512 101.273  1.00  0.00     0.039 C 
ENDBRANCH   5   6
ENDBRANCH   4   5
ENDBRANCH   1   4
BRANCH   2  10
ATOM     10  C   UNL     1      32.168  71.921 106.668  1.00  0.00     0.035 C 
BRANCH  10  11
ATOM     11  C   UNL     1      31.088  71.316 105.764  1.00  0.00     0.079 C 
BRANCH  11  12
ATOM     12  C   UNL     1      30.861  69.867 106.102  1.00  0.00     0.130 C 
ATOM     13  O   UNL     1      30.764  69.047 105.202  1.00  0.00    -0.300 OA
ATOM     14  C   UNL     1      30.760  69.403 107.525  1.00  0.00     0.087 C 
ENDBRANCH  11  12
ENDBRANCH  10  11
ENDBRANCH   2  10
TORSDOF 6
ENDMDL
MODEL 5
REMARK VINA RESULT:    -3.823      2.715      5.176
REMARK INTER + INTRA:          -6.476
REMARK INTER:                  -5.289
REMARK INTRA:                  -1.187
REMARK UNBOUND:                -1.313
REMARK SMILES CC(=O)CCC=C(C)CCC=C(C)C
REMARK SMILES IDX 7 1 6 2 8 3 9 4 10 5 11 6 13 7 12 8 14 9 5 10 4 11 2 12 3 13
REMARK SMILES IDX 1 14
REMARK H PARENT
REMARK Flexibility Score: inf
ROOT
ATOM      1  C   UNL     1      30.537  69.068 106.924  1.00  0.00    -0.077 C 
ATOM      2  C   UNL     1      30.381  68.312 105.813  1.00  0.00    -0.028 C 
ATOM      3  C   UNL     1      31.284  68.560 108.134  1.00  0.00     0.039 C 
ENDROOT
BRANCH   1   4
ATOM      4  C   UNL     1      29.936  70.456 106.959  1.00  0.00     0.034 C 
BRANCH   4   5
ATOM      5  C   UNL     1      30.702  71.406 106.029  1.00  0.00     0.032 C 
BRANCH   5   6
ATOM      6  C   UNL     1      31.914  71.987 106.717  1.00  0.00    -0.028 C 
ATOM      7  C   UNL     1      33.466  70.583 105.354  1.00  0.00     0.039 C 
ATOM      8  C   UNL     1      33.178  71.616 106.415  1.00  0.00    -0.080 C 
ATOM      9  C   UNL     1      34.342  72.236 107.143  1.00  0.00     0.039 C 
ENDBRANCH   5   6
ENDBRANCH   4   5
ENDBRANCH   1   4
BRANCH   2  10
ATOM     10  C   UNL     1      30.960  66.931 105.630  1.00  0.00     0.035 C 
BRANCH  10  11
ATOM     11  C   UNL     1      29.847  65.879 105.575  1.00  0.00     0.079 C 
BRANCH  11  12
ATOM     12  C   UNL     1      29.252  65.663 106.941  1.00  0.00     0.130 C 
ATOM     13  O   UNL     1      29.937  65.169 107.825  1.00  0.00    -0.300 OA
ATOM     14  C   UNL     1      27.835  66.049 107.245  1.00  0.00     0.087 C 
ENDBRANCH  11  12
ENDBRANCH  10  11
ENDBRANCH   2  10
TORSDOF 6
ENDMDL
MODEL 6
REMARK VINA RESULT:    -3.809      2.385      4.445
REMARK INTER + INTRA:          -6.458
REMARK INTER:                  -5.043
REMARK INTRA:                  -1.414
REMARK UNBOUND:                -1.313
REMARK SMILES CC(=O)CCC=C(C)CCC=C(C)C
REMARK SMILES IDX 7 1 6 2 8 3 9 4 10 5 11 6 13 7 12 8 14 9 5 10 4 11 2 12 3 13
REMARK SMILES IDX 1 14
REMARK H PARENT
REMARK Flexibility Score: inf
ROOT
ATOM      1  C   UNL     1      31.229  71.100 106.168  1.00  0.00    -0.077 C 
ATOM      2  C   UNL     1      32.234  71.831 106.703  1.00  0.00    -0.028 C 
ATOM      3  C   UNL     1      31.313  70.533 104.770  1.00  0.00     0.039 C 
ENDROOT
BRANCH   1   4
ATOM      4  C   UNL     1      29.981  70.854 106.989  1.00  0.00     0.034 C 
BRANCH   4   5
ATOM      5  C   UNL     1      29.735  69.351 107.171  1.00  0.00     0.032 C 
BRANCH   5   6
ATOM      6  C   UNL     1      30.848  68.706 107.961  1.00  0.00    -0.028 C 
ATOM      7  C   UNL     1      31.288  67.046 106.147  1.00  0.00     0.039 C 
ATOM      8  C   UNL     1      31.561  67.654 107.501  1.00  0.00    -0.080 C 
ATOM      9  C   UNL     1      32.658  67.058 108.343  1.00  0.00     0.039 C 
ENDBRANCH   5   6
ENDBRANCH   4   5
ENDBRANCH   1   4
BRANCH   2  10
ATOM     10  C   UNL     1      33.544  72.117 106.013  1.00  0.00     0.035 C 
BRANCH  10  11
ATOM     11  C   UNL     1      34.726  71.713 106.900  1.00  0.00     0.079 C 
BRANCH  11  12
ATOM     12  C   UNL     1      34.713  70.230 107.160  1.00  0.00     0.130 C 
ATOM     13  O   UNL     1      34.723  69.820 108.310  1.00  0.00    -0.300 OA
ATOM     14  C   UNL     1      34.681  69.240 106.032  1.00  0.00     0.087 C 
ENDBRANCH  11  12
ENDBRANCH  10  11
ENDBRANCH   2  10
TORSDOF 6
ENDMDL
MODEL 7
REMARK VINA RESULT:    -3.807      9.873     12.134
REMARK INTER + INTRA:          -6.455
REMARK INTER:                  -5.765
REMARK INTRA:                  -0.690
REMARK UNBOUND:                -1.313
REMARK SMILES CC(=O)CCC=C(C)CCC=C(C)C
REMARK SMILES IDX 7 1 6 2 8 3 9 4 10 5 11 6 13 7 12 8 14 9 5 10 4 11 2 12 3 13
REMARK SMILES IDX 1 14
REMARK H PARENT
REMARK Flexibility Score: inf
ROOT
ATOM      1  C   UNL     1      28.517  59.651 101.552  1.00  0.00    -0.077 C 
ATOM      2  C   UNL     1      28.586  59.139 100.302  1.00  0.00    -0.028 C 
ATOM      3  C   UNL     1      29.506  60.681 102.046  1.00  0.00     0.039 C 
ENDROOT
BRANCH   1   4
ATOM      4  C   UNL     1      27.427  59.170 102.484  1.00  0.00     0.034 C 
BRANCH   4   5
ATOM      5  C   UNL     1      27.269  60.122 103.677  1.00  0.00     0.032 C 
BRANCH   5   6
ATOM      6  C   UNL     1      25.854  60.639 103.780  1.00  0.00    -0.028 C 
ATOM      7  C   UNL     1      26.643  62.918 104.430  1.00  0.00     0.039 C 
ATOM      8  C   UNL     1      25.561  61.913 104.124  1.00  0.00    -0.080 C 
ATOM      9  C   UNL     1      24.126  62.362 104.209  1.00  0.00     0.039 C 
ENDBRANCH   5   6
ENDBRANCH   4   5
ENDBRANCH   1   4
BRANCH   2  10
ATOM     10  C   UNL     1      29.594  59.558  99.261  1.00  0.00     0.035 C 
BRANCH  10  11
ATOM     11  C   UNL     1      28.905  60.266  98.090  1.00  0.00     0.079 C 
BRANCH  11  12
ATOM     12  C   UNL     1      29.193  61.743  98.118  1.00  0.00     0.130 C 
ATOM     13  O   UNL     1      30.072  62.171  98.850  1.00  0.00    -0.300 OA
ATOM     14  C   UNL     1      28.428  62.705  97.257  1.00  0.00     0.087 C 
ENDBRANCH  11  12
ENDBRANCH  10  11
ENDBRANCH   2  10
TORSDOF 6
ENDMDL
MODEL 8
REMARK VINA RESULT:    -3.759      8.912     11.669
REMARK INTER + INTRA:          -6.391
REMARK INTER:                  -5.144
REMARK INTRA:                  -1.246
REMARK UNBOUND:                -1.313
REMARK SMILES CC(=O)CCC=C(C)CCC=C(C)C
REMARK SMILES IDX 7 1 6 2 8 3 9 4 10 5 11 6 13 7 12 8 14 9 5 10 4 11 2 12 3 13
REMARK SMILES IDX 1 14
REMARK H PARENT
REMARK Flexibility Score: inf
ROOT
ATOM      1  C   UNL     1      29.361  59.698  98.603  1.00  0.00    -0.077 C 
ATOM      2  C   UNL     1      28.506  60.598  98.066  1.00  0.00    -0.028 C 
ATOM      3  C   UNL     1      30.779  59.550  98.104  1.00  0.00     0.039 C 
ENDROOT
BRANCH   1   4
ATOM      4  C   UNL     1      28.880  58.806  99.727  1.00  0.00     0.034 C 
BRANCH   4   5
ATOM      5  C   UNL     1      29.756  58.979 100.974  1.00  0.00     0.032 C 
BRANCH   5   6
ATOM      6  C   UNL     1      29.452  60.277 101.682  1.00  0.00    -0.028 C 
ATOM      7  C   UNL     1      31.785  61.103 101.351  1.00  0.00     0.039 C 
ATOM      8  C   UNL     1      30.372  61.251 101.858  1.00  0.00    -0.080 C 
ATOM      9  C   UNL     1      30.000  62.521 102.576  1.00  0.00     0.039 C 
ENDBRANCH   5   6
ENDBRANCH   4   5
ENDBRANCH   1   4
BRANCH   2  10
ATOM     10  C   UNL     1      28.866  61.572  96.972  1.00  0.00     0.035 C 
BRANCH  10  11
ATOM     11  C   UNL     1      28.382  62.983  97.320  1.00  0.00     0.079 C 
BRANCH  11  12
ATOM     12  C   UNL     1      29.543  63.866  97.693  1.00  0.00     0.130 C 
ATOM     13  O   UNL     1      29.857  64.791  96.959  1.00  0.00    -0.300 OA
ATOM     14  C   UNL     1      30.322  63.640  98.955  1.00  0.00     0.087 C 
ENDBRANCH  11  12
ENDBRANCH  10  11
ENDBRANCH   2  10
TORSDOF 6
ENDMDL
MODEL 9
REMARK VINA RESULT:    -3.733      2.230      5.175
REMARK INTER + INTRA:          -6.355
REMARK INTER:                  -5.209
REMARK INTRA:                  -1.146
REMARK UNBOUND:                -1.313
REMARK SMILES CC(=O)CCC=C(C)CCC=C(C)C
REMARK SMILES IDX 7 1 6 2 8 3 9 4 10 5 11 6 13 7 12 8 14 9 5 10 4 11 2 12 3 13
REMARK SMILES IDX 1 14
REMARK H PARENT
REMARK Flexibility Score: inf
ROOT
ATOM      1  C   UNL     1      30.665  68.919 107.035  1.00  0.00    -0.077 C 
ATOM      2  C   UNL     1      30.500  68.130 105.948  1.00  0.00    -0.028 C 
ATOM      3  C   UNL     1      31.495  68.480 108.219  1.00  0.00     0.039 C 
ENDROOT
BRANCH   1   4
ATOM      4  C   UNL     1      29.990  70.273 107.070  1.00  0.00     0.034 C 
BRANCH   4   5
ATOM      5  C   UNL     1      30.687  71.255 106.121  1.00  0.00     0.032 C 
BRANCH   5   6
ATOM      6  C   UNL     1      31.888  71.893 106.777  1.00  0.00    -0.028 C 
ATOM      7  C   UNL     1      33.469  70.589 105.349  1.00  0.00     0.039 C 
ATOM      8  C   UNL     1      33.160  71.594 106.431  1.00  0.00    -0.080 C 
ATOM      9  C   UNL     1      34.312  72.268 107.129  1.00  0.00     0.039 C 
ENDBRANCH   5   6
ENDBRANCH   4   5
ENDBRANCH   1   4
BRANCH   2  10
ATOM     10  C   UNL     1      31.145  66.780 105.767  1.00  0.00     0.035 C 
BRANCH  10  11
ATOM     11  C   UNL     1      32.473  66.909 105.013  1.00  0.00     0.079 C 
BRANCH  11  12
ATOM     12  C   UNL     1      32.231  67.113 103.541  1.00  0.00     0.130 C 
ATOM     13  O   UNL     1      32.629  68.134 103.001  1.00  0.00    -0.300 OA
ATOM     14  C   UNL     1      31.518  66.081 102.717  1.00  0.00     0.087 C 
ENDBRANCH  11  12
ENDBRANCH  10  11
ENDBRANCH   2  10
TORSDOF 6
ENDMDL
